MODEL 1
REMARK VINA RESULT:     -11.3      0.000      0.000
REMARK SMILES C[C@@H]1CN(C(=O)C[NH+]2CCC(CC(=O)OCCOCCOC(=O)c3ccc(-c4c5nc(c(-c6cccc(S(=O)(=O)[O-])c6F)c6ccc([nH]6)c(-c6cccc(S(=O)(=O)[O-])c6F)c6nc(c(-c7cccc(S(=O)(=O)[O-])c7F)c7ccc4[nH]7)C=C6)C=C5)cc3)CC2)C[C@@H](C)O1
REMARK SMILES IDX 18 1 17 2 16 3 15 4 13 5 14 6 12 7 11 8 8 9 9 10 88 11 10 13
REMARK SMILES IDX 87 14 7 15 5 16 1 17 2 18 3 19 92 20 4 21 90 22 89 23 91 24
REMARK SMILES IDX 6 25 19 26 20 27 21 28 22 29 23 30 24 31 25 32 86 33 26 34
REMARK SMILES IDX 85 35 27 36 28 37 29 38 79 39 30 40 84 41 78 42 80 43 31 44
REMARK SMILES IDX 83 45 77 46 76 47 32 49 64 50 44 51 63 52 45 53 48 54 62 55
REMARK SMILES IDX 81 56 46 57 47 58 61 60 82 61 49 62 33 63 34 64 42 65 35 66
REMARK SMILES IDX 37 67 43 68 36 69 38 70 39 71 40 72 41 73 65 74 66 75 74 76
REMARK SMILES IDX 67 77 69 78 75 79 68 80 70 81 71 82 72 83 73 84 50 85 51 86
REMARK SMILES IDX 59 87 52 88 54 89 60 90 53 91 55 92 56 93 57 94 58 95
REMARK H PARENT 8 12 80 48 48 59
REMARK Flexibility Score: inf
ROOT
ATOM      1  O   UNL A   1      32.653  28.583  25.146  1.00  0.00    -0.374 OA
ENDROOT
BRANCH   1   2
ATOM      2  C   UNL A   1      33.721  28.544  24.195  1.00  0.00     0.202 C 
BRANCH   2   3
ATOM      3  C   UNL A   1      33.343  27.807  22.907  1.00  0.00     0.261 C 
BRANCH   3   4
ATOM      4  O   UNL A   1      33.548  26.385  23.023  1.00  0.00    -0.463 OA
BRANCH   4   5
ATOM      5  C   UNL A   1      32.822  25.576  22.206  1.00  0.00     0.306 C 
ATOM      6  O   UNL A   1      33.273  24.890  21.300  1.00  0.00    -0.252 OA
BRANCH   5   7
ATOM      7  C   UNL A   1      31.341  25.674  22.522  1.00  0.00     0.126 C 
BRANCH   7   8
ATOM      8  C   UNL A   1      30.801  24.720  23.606  1.00  0.00     0.011 C 
ATOM      9  N   UNL A   1      31.438  23.130  26.076  1.00  0.00    -0.327 N 
ATOM     10  C   UNL A   1      30.782  24.431  26.176  1.00  0.00     0.262 C 
ATOM     11  C   UNL A   1      31.179  22.493  24.799  1.00  0.00     0.262 C 
ATOM     12  H   UNL A   1      30.976  22.557  26.783  1.00  0.00     0.348 HD
ATOM     13  C   UNL A   1      30.959  25.384  24.987  1.00  0.00     0.066 C 
ATOM     14  C   UNL A   1      31.518  23.374  23.601  1.00  0.00     0.066 C 
BRANCH   9  15
ATOM     15  C   UNL A   1      32.832  23.037  26.568  1.00  0.00     0.363 C 
BRANCH  15  16
ATOM     16  C   UNL A   1      33.598  21.767  26.170  1.00  0.00     0.277 C 
ATOM     17  C   UNL A   1      37.223  23.909  25.533  1.00  0.00     0.040 C 
ATOM     18  C   UNL A   1      36.625  23.154  24.359  1.00  0.00     0.135 C 
ATOM     19  C   UNL A   1      35.085  22.996  24.464  1.00  0.00     0.151 C 
ATOM     20  O   UNL A   1      37.328  21.909  24.204  1.00  0.00    -0.372 OA
ATOM     21  N   UNL A   1      34.668  21.845  25.283  1.00  0.00    -0.333 N 
ATOM     22  C   UNL A   1      36.935  20.924  25.169  1.00  0.00     0.135 C 
ATOM     23  C   UNL A   1      35.441  20.627  24.997  1.00  0.00     0.151 C 
ATOM     24  C   UNL A   1      37.810  19.692  24.998  1.00  0.00     0.040 C 
ATOM     25  O   UNL A   1      33.278  20.690  26.690  1.00  0.00    -0.268 OA
ENDBRANCH  15  16
ENDBRANCH   9  15
ENDBRANCH   7   8
ENDBRANCH   5   7
ENDBRANCH   4   5
ENDBRANCH   3   4
ENDBRANCH   2   3
ENDBRANCH   1   2
BRANCH   1  26
ATOM     26  C   UNL A   1      31.591  29.474  24.816  1.00  0.00     0.202 C 
BRANCH  26  27
ATOM     27  C   UNL A   1      31.487  30.678  25.758  1.00  0.00     0.261 C 
BRANCH  27  28
ATOM     28  O   UNL A   1      32.348  30.537  26.903  1.00  0.00    -0.460 OA
BRANCH  28  29
ATOM     29  C   UNL A   1      33.041  31.651  27.250  1.00  0.00     0.338 C 
ATOM     30  O   UNL A   1      32.633  32.802  27.251  1.00  0.00    -0.246 OA
BRANCH  29  31
ATOM     31  C   UNL A   1      34.369  31.263  27.767  1.00  0.00     0.060 A 
ATOM     32  C   UNL A   1      34.632  29.904  27.969  1.00  0.00     0.016 A 
ATOM     33  C   UNL A   1      35.354  32.214  28.045  1.00  0.00     0.016 A 
ATOM     34  C   UNL A   1      35.875  29.494  28.462  1.00  0.00     0.010 A 
ATOM     35  C   UNL A   1      36.615  31.795  28.491  1.00  0.00     0.010 A 
ATOM     36  C   UNL A   1      36.876  30.435  28.743  1.00  0.00    -0.014 A 
BRANCH  36  37
ATOM     37  C   UNL A   1      38.122  30.021  29.453  1.00  0.00     0.031 A 
ATOM     38  C   UNL A   1      38.354  30.515  30.861  1.00  0.00     0.074 A 
ATOM     39  C   UNL A   1      39.040  29.215  28.880  1.00  0.00     0.049 A 
ATOM     40  N   UNL A   1      39.356  30.279  31.670  1.00  0.00    -0.248 NA
ATOM     41  C   UNL A   1      37.337  31.420  31.424  1.00  0.00     0.031 C 
ATOM     42  C   UNL A   1      38.994  28.704  27.510  1.00  0.00     0.029 A 
ATOM     43  N   UNL A   1      40.206  28.690  29.389  1.00  0.00    -0.354 N 
ATOM     44  C   UNL A   1      39.111  31.041  32.806  1.00  0.00     0.074 A 
ATOM     45  C   UNL A   1      37.898  31.787  32.564  1.00  0.00     0.031 C 
ATOM     46  C   UNL A   1      40.071  27.926  27.295  1.00  0.00     0.029 A 
ATOM     47  C   UNL A   1      40.894  27.892  28.503  1.00  0.00     0.049 A 
ATOM     48  H   UNL A   1      40.520  28.868  30.305  1.00  0.00     0.167 HD
ATOM     49  C   UNL A   1      39.795  31.087  33.973  1.00  0.00     0.034 A 
ATOM     50  C   UNL A   1      42.048  27.206  28.651  1.00  0.00     0.034 A 
ATOM     51  C   UNL A   1      40.947  30.285  34.267  1.00  0.00     0.049 A 
ATOM     52  C   UNL A   1      42.762  27.225  29.983  1.00  0.00     0.074 A 
ATOM     53  C   UNL A   1      41.651  30.198  35.455  1.00  0.00     0.029 A 
ATOM     54  N   UNL A   1      41.558  29.424  33.372  1.00  0.00    -0.354 N 
ATOM     55  N   UNL A   1      42.425  27.830  31.095  1.00  0.00    -0.248 NA
ATOM     56  C   UNL A   1      43.999  26.432  30.088  1.00  0.00     0.031 C 
ATOM     57  C   UNL A   1      42.696  29.285  35.274  1.00  0.00     0.029 A 
ATOM     58  C   UNL A   1      42.632  28.799  33.979  1.00  0.00     0.049 A 
ATOM     59  H   UNL A   1      41.271  29.279  32.442  1.00  0.00     0.167 HD
ATOM     60  C   UNL A   1      43.380  27.460  32.038  1.00  0.00     0.074 A 
ATOM     61  C   UNL A   1      44.299  26.561  31.374  1.00  0.00     0.031 C 
ATOM     62  C   UNL A   1      43.496  27.846  33.333  1.00  0.00     0.034 A 
BRANCH  49  63
ATOM     63  C   UNL A   1      39.259  31.992  35.049  1.00  0.00     0.023 A 
ATOM     64  C   UNL A   1      38.190  31.552  35.857  1.00  0.00     0.012 A 
ATOM     65  C   UNL A   1      39.822  33.261  35.275  1.00  0.00     0.148 A 
ATOM     66  C   UNL A   1      37.660  32.379  36.845  1.00  0.00     0.002 A 
ATOM     67  C   UNL A   1      39.319  34.062  36.294  1.00  0.00     0.091 A 
ATOM     68  F   UNL A   1      40.821  33.671  34.479  1.00  0.00    -0.205 F 
ATOM     69  C   UNL A   1      38.231  33.629  37.069  1.00  0.00     0.022 A 
BRANCH  67  70
ATOM     70  S   UNL A   1      40.036  35.654  36.710  1.00  0.00     0.127 S 
ATOM     71  O   UNL A   1      39.664  36.459  35.547  1.00  0.00    -0.237 OA
ATOM     72  O   UNL A   1      39.327  35.999  37.943  1.00  0.00    -0.237 OA
ATOM     73  O   UNL A   1      41.463  35.418  36.880  1.00  0.00    -0.744 OA
ENDBRANCH  67  70
ENDBRANCH  49  63
BRANCH  50  74
ATOM     74  C   UNL A   1      42.576  26.366  27.535  1.00  0.00     0.023 A 
ATOM     75  C   UNL A   1      43.468  26.936  26.604  1.00  0.00     0.012 A 
ATOM     76  C   UNL A   1      42.190  25.021  27.377  1.00  0.00     0.148 A 
ATOM     77  C   UNL A   1      43.936  26.197  25.517  1.00  0.00     0.002 A 
ATOM     78  C   UNL A   1      42.702  24.273  26.321  1.00  0.00     0.091 A 
ATOM     79  F   UNL A   1      41.323  24.501  28.257  1.00  0.00    -0.205 F 
ATOM     80  C   UNL A   1      43.561  24.864  25.381  1.00  0.00     0.022 A 
BRANCH  78  81
ATOM     81  S   UNL A   1      42.363  22.519  26.130  1.00  0.00     0.127 S 
ATOM     82  O   UNL A   1      43.032  22.219  24.868  1.00  0.00    -0.237 OA
ATOM     83  O   UNL A   1      43.007  21.956  27.318  1.00  0.00    -0.237 OA
ATOM     84  O   UNL A   1      40.911  22.400  26.123  1.00  0.00    -0.744 OA
ENDBRANCH  78  81
ENDBRANCH  50  74
BRANCH  62  85
ATOM     85  C   UNL A   1      44.629  27.277  34.149  1.00  0.00     0.023 A 
ATOM     86  C   UNL A   1      45.859  27.959  34.209  1.00  0.00     0.012 A 
ATOM     87  C   UNL A   1      44.439  26.124  34.939  1.00  0.00     0.148 A 
ATOM     88  C   UNL A   1      46.891  27.491  35.021  1.00  0.00     0.002 A 
ATOM     89  C   UNL A   1      45.456  25.689  35.781  1.00  0.00     0.091 A 
ATOM     90  F   UNL A   1      43.267  25.477  34.857  1.00  0.00    -0.205 F 
ATOM     91  C   UNL A   1      46.686  26.365  35.817  1.00  0.00     0.022 A 
BRANCH  89  92
ATOM     92  S   UNL A   1      45.240  24.310  36.912  1.00  0.00     0.127 S 
ATOM     93  O   UNL A   1      46.562  24.220  37.530  1.00  0.00    -0.237 OA
ATOM     94  O   UNL A   1      44.184  24.796  37.802  1.00  0.00    -0.237 OA
ATOM     95  O   UNL A   1      44.854  23.174  36.087  1.00  0.00    -0.744 OA
ENDBRANCH  89  92
ENDBRANCH  62  85
ENDBRANCH  36  37
ENDBRANCH  29  31
ENDBRANCH  28  29
ENDBRANCH  27  28
ENDBRANCH  26  27
ENDBRANCH   1  26
TORSDOF 20
ENDMDL
MODEL 2
REMARK VINA RESULT:     -11.0      1.704      2.547
REMARK SMILES C[C@@H]1CN(C(=O)C[NH+]2CCC(CC(=O)OCCOCCOC(=O)c3ccc(-c4c5nc(c(-c6cccc(S(=O)(=O)[O-])c6F)c6ccc([nH]6)c(-c6cccc(S(=O)(=O)[O-])c6F)c6nc(c(-c7cccc(S(=O)(=O)[O-])c7F)c7ccc4[nH]7)C=C6)C=C5)cc3)CC2)C[C@@H](C)O1
REMARK SMILES IDX 18 1 17 2 16 3 15 4 13 5 14 6 12 7 11 8 8 9 9 10 88 11 10 13
REMARK SMILES IDX 87 14 7 15 5 16 1 17 2 18 3 19 92 20 4 21 90 22 89 23 91 24
REMARK SMILES IDX 6 25 19 26 20 27 21 28 22 29 23 30 24 31 25 32 86 33 26 34
REMARK SMILES IDX 85 35 27 36 28 37 29 38 79 39 30 40 84 41 78 42 80 43 31 44
REMARK SMILES IDX 83 45 77 46 76 47 32 49 64 50 44 51 63 52 45 53 48 54 62 55
REMARK SMILES IDX 81 56 46 57 47 58 61 60 82 61 49 62 33 63 34 64 42 65 35 66
REMARK SMILES IDX 37 67 43 68 36 69 38 70 39 71 40 72 41 73 65 74 66 75 74 76
REMARK SMILES IDX 67 77 69 78 75 79 68 80 70 81 71 82 72 83 73 84 50 85 51 86
REMARK SMILES IDX 59 87 52 88 54 89 60 90 53 91 55 92 56 93 57 94 58 95
REMARK H PARENT 8 12 80 48 48 59
REMARK Flexibility Score: inf
ROOT
ATOM      1  O   UNL A   1      32.502  29.739  24.592  1.00  0.00    -0.374 OA
ENDROOT
BRANCH   1   2
ATOM      2  C   UNL A   1      33.241  28.650  25.153  1.00  0.00     0.202 C 
BRANCH   2   3
ATOM      3  C   UNL A   1      32.537  28.010  26.354  1.00  0.00     0.261 C 
BRANCH   3   4
ATOM      4  O   UNL A   1      32.877  26.616  26.493  1.00  0.00    -0.463 OA
BRANCH   4   5
ATOM      5  C   UNL A   1      32.994  25.880  25.356  1.00  0.00     0.306 C 
ATOM      6  O   UNL A   1      32.098  25.665  24.553  1.00  0.00    -0.252 OA
BRANCH   5   7
ATOM      7  C   UNL A   1      34.388  25.294  25.230  1.00  0.00     0.126 C 
BRANCH   7   8
ATOM      8  C   UNL A   1      34.671  24.006  26.030  1.00  0.00     0.011 C 
ATOM      9  N   UNL A   1      34.838  21.006  25.954  1.00  0.00    -0.327 N 
ATOM     10  C   UNL A   1      36.045  21.822  25.865  1.00  0.00     0.262 C 
ATOM     11  C   UNL A   1      33.770  21.698  26.651  1.00  0.00     0.262 C 
ATOM     12  H   UNL A   1      35.104  20.219  26.545  1.00  0.00     0.348 HD
ATOM     13  C   UNL A   1      35.865  23.270  25.392  1.00  0.00     0.066 C 
ATOM     14  C   UNL A   1      33.463  23.077  26.075  1.00  0.00     0.066 C 
BRANCH   9  15
ATOM     15  C   UNL A   1      34.433  20.264  24.737  1.00  0.00     0.363 C 
BRANCH  15  16
ATOM     16  C   UNL A   1      33.282  19.263  24.916  1.00  0.00     0.277 C 
ATOM     17  C   UNL A   1      35.941  16.053  25.786  1.00  0.00     0.040 C 
ATOM     18  C   UNL A   1      35.030  15.917  24.579  1.00  0.00     0.135 C 
ATOM     19  C   UNL A   1      34.631  17.286  23.966  1.00  0.00     0.151 C 
ATOM     20  O   UNL A   1      33.909  15.091  24.937  1.00  0.00    -0.372 OA
ATOM     21  N   UNL A   1      33.479  17.914  24.636  1.00  0.00    -0.333 N 
ATOM     22  C   UNL A   1      32.933  15.789  25.724  1.00  0.00     0.135 C 
ATOM     23  C   UNL A   1      32.388  16.967  24.910  1.00  0.00     0.151 C 
ATOM     24  C   UNL A   1      31.851  14.808  26.147  1.00  0.00     0.040 C 
ATOM     25  O   UNL A   1      32.201  19.671  25.361  1.00  0.00    -0.268 OA
ENDBRANCH  15  16
ENDBRANCH   9  15
ENDBRANCH   7   8
ENDBRANCH   5   7
ENDBRANCH   4   5
ENDBRANCH   3   4
ENDBRANCH   2   3
ENDBRANCH   1   2
BRANCH   1  26
ATOM     26  C   UNL A   1      31.362  30.140  25.348  1.00  0.00     0.202 C 
BRANCH  26  27
ATOM     27  C   UNL A   1      31.548  31.475  26.075  1.00  0.00     0.261 C 
BRANCH  27  28
ATOM     28  O   UNL A   1      32.377  31.335  27.243  1.00  0.00    -0.460 OA
BRANCH  28  29
ATOM     29  C   UNL A   1      33.181  32.394  27.515  1.00  0.00     0.338 C 
ATOM     30  O   UNL A   1      32.880  33.576  27.480  1.00  0.00    -0.246 OA
BRANCH  29  31
ATOM     31  C   UNL A   1      34.489  31.907  28.000  1.00  0.00     0.060 A 
ATOM     32  C   UNL A   1      34.628  30.543  28.279  1.00  0.00     0.016 A 
ATOM     33  C   UNL A   1      35.574  32.770  28.173  1.00  0.00     0.016 A 
ATOM     34  C   UNL A   1      35.847  30.041  28.745  1.00  0.00     0.010 A 
ATOM     35  C   UNL A   1      36.808  32.254  28.592  1.00  0.00     0.010 A 
ATOM     36  C   UNL A   1      36.948  30.893  28.921  1.00  0.00    -0.014 A 
BRANCH  36  37
ATOM     37  C   UNL A   1      38.181  30.400  29.603  1.00  0.00     0.031 A 
ATOM     38  C   UNL A   1      38.442  30.825  31.028  1.00  0.00     0.074 A 
ATOM     39  C   UNL A   1      39.061  29.581  28.990  1.00  0.00     0.049 A 
ATOM     40  N   UNL A   1      39.438  30.516  31.818  1.00  0.00    -0.248 NA
ATOM     41  C   UNL A   1      37.466  31.747  31.636  1.00  0.00     0.031 C 
ATOM     42  C   UNL A   1      38.985  29.129  27.600  1.00  0.00     0.029 A 
ATOM     43  N   UNL A   1      40.208  28.989  29.468  1.00  0.00    -0.354 N 
ATOM     44  C   UNL A   1      39.232  31.240  32.987  1.00  0.00     0.074 A 
ATOM     45  C   UNL A   1      38.049  32.043  32.785  1.00  0.00     0.031 C 
ATOM     46  C   UNL A   1      40.028  28.317  27.345  1.00  0.00     0.029 A 
ATOM     47  C   UNL A   1      40.857  28.201  28.544  1.00  0.00     0.049 A 
ATOM     48  H   UNL A   1      40.535  29.116  30.388  1.00  0.00     0.167 HD
ATOM     49  C   UNL A   1      39.925  31.210  34.149  1.00  0.00     0.034 A 
ATOM     50  C   UNL A   1      41.982  27.463  28.655  1.00  0.00     0.034 A 
ATOM     51  C   UNL A   1      41.045  30.350  34.401  1.00  0.00     0.049 A 
ATOM     52  C   UNL A   1      42.706  27.398  29.980  1.00  0.00     0.074 A 
ATOM     53  C   UNL A   1      41.753  30.186  35.578  1.00  0.00     0.029 A 
ATOM     54  N   UNL A   1      41.615  29.503  33.466  1.00  0.00    -0.354 N 
ATOM     55  N   UNL A   1      42.401  27.971  31.119  1.00  0.00    -0.248 NA
ATOM     56  C   UNL A   1      43.910  26.552  30.043  1.00  0.00     0.031 C 
ATOM     57  C   UNL A   1      42.759  29.239  35.352  1.00  0.00     0.029 A 
ATOM     58  C   UNL A   1      42.666  28.810  34.038  1.00  0.00     0.049 A 
ATOM     59  H   UNL A   1      41.316  29.408  32.533  1.00  0.00     0.167 HD
ATOM     60  C   UNL A   1      43.346  27.523  32.038  1.00  0.00     0.074 A 
ATOM     61  C   UNL A   1      44.223  26.616  31.330  1.00  0.00     0.031 C 
ATOM     62  C   UNL A   1      43.487  27.850  33.347  1.00  0.00     0.034 A 
BRANCH  49  63
ATOM     63  C   UNL A   1      39.433  32.091  35.265  1.00  0.00     0.023 A 
ATOM     64  C   UNL A   1      38.459  31.600  36.159  1.00  0.00     0.012 A 
ATOM     65  C   UNL A   1      39.947  33.389  35.444  1.00  0.00     0.148 A 
ATOM     66  C   UNL A   1      37.971  32.403  37.188  1.00  0.00     0.002 A 
ATOM     67  C   UNL A   1      39.488  34.167  36.500  1.00  0.00     0.091 A 
ATOM     68  F   UNL A   1      40.853  33.846  34.567  1.00  0.00    -0.205 F 
ATOM     69  C   UNL A   1      38.492  33.682  37.363  1.00  0.00     0.022 A 
BRANCH  67  70
ATOM     70  S   UNL A   1      40.154  35.796  36.856  1.00  0.00     0.127 S 
ATOM     71  O   UNL A   1      39.716  36.555  35.685  1.00  0.00    -0.237 OA
ATOM     72  O   UNL A   1      39.468  36.145  38.100  1.00  0.00    -0.237 OA
ATOM     73  O   UNL A   1      41.594  35.620  36.988  1.00  0.00    -0.744 OA
ENDBRANCH  67  70
ENDBRANCH  49  63
BRANCH  50  74
ATOM     74  C   UNL A   1      42.468  26.649  27.501  1.00  0.00     0.023 A 
ATOM     75  C   UNL A   1      43.268  27.260  26.513  1.00  0.00     0.012 A 
ATOM     76  C   UNL A   1      42.133  25.288  27.365  1.00  0.00     0.148 A 
ATOM     77  C   UNL A   1      43.691  26.543  25.393  1.00  0.00     0.002 A 
ATOM     78  C   UNL A   1      42.603  24.566  26.272  1.00  0.00     0.091 A 
ATOM     79  F   UNL A   1      41.353  24.729  28.300  1.00  0.00    -0.205 F 
ATOM     80  C   UNL A   1      43.367  25.195  25.277  1.00  0.00     0.022 A 
BRANCH  78  81
ATOM     81  S   UNL A   1      42.330  22.798  26.098  1.00  0.00     0.127 S 
ATOM     82  O   UNL A   1      40.873  22.725  26.028  1.00  0.00    -0.237 OA
ATOM     83  O   UNL A   1      43.022  22.508  24.841  1.00  0.00    -0.237 OA
ATOM     84  O   UNL A   1      42.941  22.190  27.271  1.00  0.00    -0.744 OA
ENDBRANCH  78  81
ENDBRANCH  50  74
BRANCH  62  85
ATOM     85  C   UNL A   1      44.600  27.203  34.130  1.00  0.00     0.023 A 
ATOM     86  C   UNL A   1      45.849  27.844  34.229  1.00  0.00     0.012 A 
ATOM     87  C   UNL A   1      44.375  26.013  34.852  1.00  0.00     0.148 A 
ATOM     88  C   UNL A   1      46.866  27.301  35.014  1.00  0.00     0.002 A 
ATOM     89  C   UNL A   1      45.377  25.501  35.669  1.00  0.00     0.091 A 
ATOM     90  F   UNL A   1      43.185  25.406  34.733  1.00  0.00    -0.205 F 
ATOM     91  C   UNL A   1      46.626  26.138  35.743  1.00  0.00     0.022 A 
BRANCH  89  92
ATOM     92  S   UNL A   1      45.119  24.066  36.719  1.00  0.00     0.127 S 
ATOM     93  O   UNL A   1      46.490  23.707  37.076  1.00  0.00    -0.237 OA
ATOM     94  O   UNL A   1      44.329  24.621  37.820  1.00  0.00    -0.237 OA
ATOM     95  O   UNL A   1      44.407  23.095  35.899  1.00  0.00    -0.744 OA
ENDBRANCH  89  92
ENDBRANCH  62  85
ENDBRANCH  36  37
ENDBRANCH  29  31
ENDBRANCH  28  29
ENDBRANCH  27  28
ENDBRANCH  26  27
ENDBRANCH   1  26
TORSDOF 20
ENDMDL
MODEL 3
REMARK VINA RESULT:     -10.7      1.606      2.286
REMARK SMILES C[C@@H]1CN(C(=O)C[NH+]2CCC(CC(=O)OCCOCCOC(=O)c3ccc(-c4c5nc(c(-c6cccc(S(=O)(=O)[O-])c6F)c6ccc([nH]6)c(-c6cccc(S(=O)(=O)[O-])c6F)c6nc(c(-c7cccc(S(=O)(=O)[O-])c7F)c7ccc4[nH]7)C=C6)C=C5)cc3)CC2)C[C@@H](C)O1
REMARK SMILES IDX 18 1 17 2 16 3 15 4 13 5 14 6 12 7 11 8 8 9 9 10 88 11 10 13
REMARK SMILES IDX 87 14 7 15 5 16 1 17 2 18 3 19 92 20 4 21 90 22 89 23 91 24
REMARK SMILES IDX 6 25 19 26 20 27 21 28 22 29 23 30 24 31 25 32 86 33 26 34
REMARK SMILES IDX 85 35 27 36 28 37 29 38 79 39 30 40 84 41 78 42 80 43 31 44
REMARK SMILES IDX 83 45 77 46 76 47 32 49 64 50 44 51 63 52 45 53 48 54 62 55
REMARK SMILES IDX 81 56 46 57 47 58 61 60 82 61 49 62 33 63 34 64 42 65 35 66
REMARK SMILES IDX 37 67 43 68 36 69 38 70 39 71 40 72 41 73 65 74 66 75 74 76
REMARK SMILES IDX 67 77 69 78 75 79 68 80 70 81 71 82 72 83 73 84 50 85 51 86
REMARK SMILES IDX 59 87 52 88 54 89 60 90 53 91 55 92 56 93 57 94 58 95
REMARK H PARENT 8 12 80 48 48 59
REMARK Flexibility Score: inf
ROOT
ATOM      1  O   UNL A   1      31.824  29.983  26.925  1.00  0.00    -0.374 OA
ENDROOT
BRANCH   1   2
ATOM      2  C   UNL A   1      31.845  28.794  26.129  1.00  0.00     0.202 C 
BRANCH   2   3
ATOM      3  C   UNL A   1      33.186  28.575  25.423  1.00  0.00     0.261 C 
BRANCH   3   4
ATOM      4  O   UNL A   1      33.331  29.431  24.272  1.00  0.00    -0.463 OA
BRANCH   4   5
ATOM      5  C   UNL A   1      33.322  28.842  23.045  1.00  0.00     0.306 C 
ATOM      6  O   UNL A   1      34.309  28.603  22.364  1.00  0.00    -0.252 OA
BRANCH   5   7
ATOM      7  C   UNL A   1      31.903  28.567  22.586  1.00  0.00     0.126 C 
BRANCH   7   8
ATOM      8  C   UNL A   1      31.476  27.087  22.508  1.00  0.00     0.011 C 
ATOM      9  N   UNL A   1      30.958  24.553  24.040  1.00  0.00    -0.327 N 
ATOM     10  C   UNL A   1      29.854  25.420  23.638  1.00  0.00     0.262 C 
ATOM     11  C   UNL A   1      32.105  24.699  23.163  1.00  0.00     0.262 C 
ATOM     12  H   UNL A   1      30.605  23.607  23.898  1.00  0.00     0.348 HD
ATOM     13  C   UNL A   1      30.199  26.886  23.346  1.00  0.00     0.066 C 
ATOM     14  C   UNL A   1      32.567  26.144  23.004  1.00  0.00     0.066 C 
BRANCH   9  15
ATOM     15  C   UNL A   1      31.263  24.478  25.488  1.00  0.00     0.363 C 
BRANCH  15  16
ATOM     16  C   UNL A   1      32.633  23.886  25.852  1.00  0.00     0.277 C 
ATOM     17  C   UNL A   1      32.227  20.706  23.048  1.00  0.00     0.040 C 
ATOM     18  C   UNL A   1      32.390  20.348  24.515  1.00  0.00     0.135 C 
ATOM     19  C   UNL A   1      31.870  21.456  25.469  1.00  0.00     0.151 C 
ATOM     20  O   UNL A   1      33.757  19.971  24.750  1.00  0.00    -0.372 OA
ATOM     21  N   UNL A   1      32.858  22.518  25.726  1.00  0.00    -0.333 N 
ATOM     22  C   UNL A   1      34.639  21.100  24.822  1.00  0.00     0.135 C 
ATOM     23  C   UNL A   1      34.208  21.995  25.988  1.00  0.00     0.151 C 
ATOM     24  C   UNL A   1      36.069  20.598  24.956  1.00  0.00     0.040 C 
ATOM     25  O   UNL A   1      33.538  24.651  26.207  1.00  0.00    -0.268 OA
ENDBRANCH  15  16
ENDBRANCH   9  15
ENDBRANCH   7   8
ENDBRANCH   5   7
ENDBRANCH   4   5
ENDBRANCH   3   4
ENDBRANCH   2   3
ENDBRANCH   1   2
BRANCH   1  26
ATOM     26  C   UNL A   1      31.357  31.147  26.248  1.00  0.00     0.202 C 
BRANCH  26  27
ATOM     27  C   UNL A   1      31.885  32.456  26.844  1.00  0.00     0.261 C 
BRANCH  27  28
ATOM     28  O   UNL A   1      32.868  32.218  27.868  1.00  0.00    -0.460 OA
BRANCH  28  29
ATOM     29  C   UNL A   1      33.839  33.160  27.971  1.00  0.00     0.338 C 
ATOM     30  O   UNL A   1      33.708  34.368  27.854  1.00  0.00    -0.246 OA
BRANCH  29  31
ATOM     31  C   UNL A   1      35.104  32.520  28.385  1.00  0.00     0.060 A 
ATOM     32  C   UNL A   1      35.077  31.171  28.754  1.00  0.00     0.016 A 
ATOM     33  C   UNL A   1      36.311  33.225  28.403  1.00  0.00     0.016 A 
ATOM     34  C   UNL A   1      36.251  30.528  29.157  1.00  0.00     0.010 A 
ATOM     35  C   UNL A   1      37.494  32.563  28.760  1.00  0.00     0.010 A 
ATOM     36  C   UNL A   1      37.472  31.219  29.178  1.00  0.00    -0.014 A 
BRANCH  36  37
ATOM     37  C   UNL A   1      38.680  30.597  29.793  1.00  0.00     0.031 A 
ATOM     38  C   UNL A   1      39.047  30.967  31.211  1.00  0.00     0.074 A 
ATOM     39  C   UNL A   1      39.447  29.708  29.128  1.00  0.00     0.049 A 
ATOM     40  N   UNL A   1      40.044  30.548  31.948  1.00  0.00    -0.248 NA
ATOM     41  C   UNL A   1      38.195  31.968  31.877  1.00  0.00     0.031 C 
ATOM     42  C   UNL A   1      39.264  29.292  27.737  1.00  0.00     0.029 A 
ATOM     43  N   UNL A   1      40.552  28.998  29.542  1.00  0.00    -0.354 N 
ATOM     44  C   UNL A   1      39.963  31.267  33.135  1.00  0.00     0.074 A 
ATOM     45  C   UNL A   1      38.856  32.185  33.002  1.00  0.00     0.031 C 
ATOM     46  C   UNL A   1      40.210  28.388  27.421  1.00  0.00     0.029 A 
ATOM     47  C   UNL A   1      41.077  28.169  28.577  1.00  0.00     0.049 A 
ATOM     48  H   UNL A   1      40.932  29.077  30.447  1.00  0.00     0.167 HD
ATOM     49  C   UNL A   1      40.702  31.148  34.263  1.00  0.00     0.034 A 
ATOM     50  C   UNL A   1      42.130  27.323  28.624  1.00  0.00     0.034 A 
ATOM     51  C   UNL A   1      41.743  30.180  34.449  1.00  0.00     0.049 A 
ATOM     52  C   UNL A   1      42.904  27.164  29.913  1.00  0.00     0.074 A 
ATOM     53  C   UNL A   1      42.485  29.925  35.589  1.00  0.00     0.029 A 
ATOM     54  N   UNL A   1      42.184  29.299  33.476  1.00  0.00    -0.354 N 
ATOM     55  N   UNL A   1      42.708  27.742  31.072  1.00  0.00    -0.248 NA
ATOM     56  C   UNL A   1      44.021  26.204  29.906  1.00  0.00     0.031 C 
ATOM     57  C   UNL A   1      43.382  28.890  35.301  1.00  0.00     0.029 A 
ATOM     58  C   UNL A   1      43.188  28.497  33.987  1.00  0.00     0.049 A 
ATOM     59  H   UNL A   1      41.835  29.251  32.557  1.00  0.00     0.167 HD
ATOM     60  C   UNL A   1      43.647  27.187  31.940  1.00  0.00     0.074 A 
ATOM     61  C   UNL A   1      44.398  26.214  31.177  1.00  0.00     0.031 C 
ATOM     62  C   UNL A   1      43.878  27.475  33.244  1.00  0.00     0.034 A 
BRANCH  49  63
ATOM     63  C   UNL A   1      40.351  32.051  35.414  1.00  0.00     0.023 A 
ATOM     64  C   UNL A   1      41.120  33.211  35.646  1.00  0.00     0.012 A 
ATOM     65  C   UNL A   1      39.253  31.769  36.247  1.00  0.00     0.148 A 
ATOM     66  C   UNL A   1      40.830  34.052  36.718  1.00  0.00     0.002 A 
ATOM     67  C   UNL A   1      38.941  32.638  37.286  1.00  0.00     0.091 A 
ATOM     68  F   UNL A   1      38.550  30.649  36.025  1.00  0.00    -0.205 F 
ATOM     69  C   UNL A   1      39.736  33.770  37.531  1.00  0.00     0.022 A 
BRANCH  67  70
ATOM     70  S   UNL A   1      37.507  32.404  38.339  1.00  0.00     0.127 S 
ATOM     71  O   UNL A   1      37.957  33.014  39.590  1.00  0.00    -0.237 OA
ATOM     72  O   UNL A   1      36.475  33.161  37.629  1.00  0.00    -0.237 OA
ATOM     73  O   UNL A   1      37.276  30.967  38.388  1.00  0.00    -0.744 OA
ENDBRANCH  67  70
ENDBRANCH  49  63
BRANCH  50  74
ATOM     74  C   UNL A   1      42.480  26.488  27.437  1.00  0.00     0.023 A 
ATOM     75  C   UNL A   1      43.167  27.079  26.356  1.00  0.00     0.012 A 
ATOM     76  C   UNL A   1      42.126  25.128  27.362  1.00  0.00     0.148 A 
ATOM     77  C   UNL A   1      43.460  26.341  25.207  1.00  0.00     0.002 A 
ATOM     78  C   UNL A   1      42.469  24.385  26.236  1.00  0.00     0.091 A 
ATOM     79  F   UNL A   1      41.454  24.588  28.387  1.00  0.00    -0.205 F 
ATOM     80  C   UNL A   1      43.119  24.993  25.151  1.00  0.00     0.022 A 
BRANCH  78  81
ATOM     81  S   UNL A   1      42.171  22.616  26.122  1.00  0.00     0.127 S 
ATOM     82  O   UNL A   1      42.883  22.270  24.895  1.00  0.00    -0.237 OA
ATOM     83  O   UNL A   1      42.791  22.126  27.354  1.00  0.00    -0.237 OA
ATOM     84  O   UNL A   1      40.723  22.466  26.081  1.00  0.00    -0.744 OA
ENDBRANCH  78  81
ENDBRANCH  50  74
BRANCH  62  85
ATOM     85  C   UNL A   1      44.958  26.708  33.964  1.00  0.00     0.023 A 
ATOM     86  C   UNL A   1      46.291  27.159  33.908  1.00  0.00     0.012 A 
ATOM     87  C   UNL A   1      44.636  25.604  34.779  1.00  0.00     0.148 A 
ATOM     88  C   UNL A   1      47.290  26.509  34.632  1.00  0.00     0.002 A 
ATOM     89  C   UNL A   1      45.629  24.989  35.534  1.00  0.00     0.091 A 
ATOM     90  F   UNL A   1      43.365  25.178  34.807  1.00  0.00    -0.205 F 
ATOM     91  C   UNL A   1      46.958  25.434  35.454  1.00  0.00     0.022 A 
BRANCH  89  92
ATOM     92  S   UNL A   1      45.270  23.665  36.694  1.00  0.00     0.127 S 
ATOM     93  O   UNL A   1      44.382  24.333  37.644  1.00  0.00    -0.237 OA
ATOM     94  O   UNL A   1      44.613  22.672  35.843  1.00  0.00    -0.237 OA
ATOM     95  O   UNL A   1      46.558  23.242  37.227  1.00  0.00    -0.744 OA
ENDBRANCH  89  92
ENDBRANCH  62  85
ENDBRANCH  36  37
ENDBRANCH  29  31
ENDBRANCH  28  29
ENDBRANCH  27  28
ENDBRANCH  26  27
ENDBRANCH   1  26
TORSDOF 20
ENDMDL
