MODEL 1
REMARK VINA RESULT:      -9.8      0.000      0.000
REMARK SMILES C[C@@H](C(=O)OCCOCCOC(=O)c1ccc(-c2c3nc(c(-c4cccc(S(=O)(=O)[O-])c4F)c4ccc([nH]4)c(-c4cccc(S(=O)(=O)[O-])c4F)c4nc(c(-c5cccc(S(=O)(=O)[O-])c5F)c5ccc2[nH]5)C=C4)C=C3)cc1)c1ccc(-c2cccc(OC(=O)NCCCc3ccccc3)c2)c(F)c1
REMARK SMILES IDX 6 1 5 2 3 3 4 4 2 5 1 6 77 7 78 8 102 9 79 10 100 11 80 12
REMARK SMILES IDX 101 13 81 14 82 15 99 16 83 17 85 18 84 19 86 20 87 21 88 22
REMARK SMILES IDX 89 23 90 25 91 26 92 27 93 28 94 29 98 30 95 31 97 32 96 33
REMARK SMILES IDX 7 34 8 35 9 36 10 37 11 38 12 39 13 40 14 41 15 42 76 43
REMARK SMILES IDX 16 44 75 45 17 46 18 47 19 48 69 49 20 50 74 51 68 52 70 53
REMARK SMILES IDX 21 54 73 55 67 56 66 57 22 59 54 60 34 61 53 62 35 63 38 64
REMARK SMILES IDX 52 65 71 66 36 67 37 68 51 70 72 71 39 72 23 73 24 74 32 75
REMARK SMILES IDX 25 76 27 77 33 78 26 79 28 80 29 81 30 82 31 83 55 84 56 85
REMARK SMILES IDX 64 86 57 87 59 88 65 89 58 90 60 91 61 92 62 93 63 94 40 95
REMARK SMILES IDX 41 96 49 97 42 98 44 99 50 100 43 101 45 102 46 103 47 104
REMARK SMILES IDX 48 105
REMARK H PARENT 89 24 70 58 38 69
REMARK Flexibility Score: inf
ROOT
ATOM      1  C   UNL A   1      43.033  20.596  25.763  1.00  0.00     0.261 C 
ENDROOT
BRANCH   1   2
ATOM      2  O   UNL A   1      42.445  19.818  26.823  1.00  0.00    -0.463 OA
BRANCH   2   3
ATOM      3  C   UNL A   1      41.455  20.428  27.527  1.00  0.00     0.313 C 
ATOM      4  O   UNL A   1      40.704  19.847  28.305  1.00  0.00    -0.252 OA
BRANCH   3   5
ATOM      5  C   UNL A   1      41.390  21.943  27.279  1.00  0.00     0.126 C 
ATOM      6  C   UNL A   1      41.759  22.831  28.472  1.00  0.00     0.025 C 
BRANCH   5   7
ATOM      7  C   UNL A   1      40.022  22.296  26.701  1.00  0.00    -0.031 A 
ATOM      8  C   UNL A   1      39.542  23.610  26.790  1.00  0.00     0.005 A 
ATOM      9  C   UNL A   1      39.274  21.372  25.965  1.00  0.00     0.044 A 
ATOM     10  C   UNL A   1      38.352  23.985  26.153  1.00  0.00     0.012 A 
ATOM     11  C   UNL A   1      38.114  21.760  25.303  1.00  0.00     0.131 A 
ATOM     12  C   UNL A   1      37.616  23.066  25.392  1.00  0.00     0.018 A 
ATOM     13  F   UNL A   1      37.478  20.833  24.568  1.00  0.00    -0.206 F 
BRANCH  12  14
ATOM     14  C   UNL A   1      36.327  23.430  24.787  1.00  0.00    -0.012 A 
ATOM     15  C   UNL A   1      35.911  22.945  23.538  1.00  0.00     0.009 A 
ATOM     16  C   UNL A   1      35.487  24.326  25.465  1.00  0.00     0.056 A 
ATOM     17  C   UNL A   1      34.695  23.357  22.980  1.00  0.00     0.004 A 
ATOM     18  C   UNL A   1      34.284  24.742  24.910  1.00  0.00     0.133 A 
ATOM     19  C   UNL A   1      33.883  24.260  23.665  1.00  0.00     0.047 A 
BRANCH  18  20
ATOM     20  O   UNL A   1      33.399  25.644  25.543  1.00  0.00    -0.410 OA
BRANCH  20  21
ATOM     21  C   UNL A   1      32.847  26.785  24.967  1.00  0.00     0.412 C 
ATOM     22  O   UNL A   1      33.431  27.828  24.681  1.00  0.00    -0.224 OA
ATOM     23  N   UNL A   1      31.519  26.658  24.694  1.00  0.00    -0.321 N 
ATOM     24  H   UNL A   1      31.041  27.463  24.387  1.00  0.00     0.167 HD
BRANCH  23  25
ATOM     25  C   UNL A   1      30.753  25.443  24.817  1.00  0.00     0.120 C 
BRANCH  25  26
ATOM     26  C   UNL A   1      30.462  25.032  26.258  1.00  0.00     0.026 C 
BRANCH  26  27
ATOM     27  C   UNL A   1      30.369  23.536  26.584  1.00  0.00     0.037 C 
BRANCH  27  28
ATOM     28  C   UNL A   1      31.599  22.657  26.538  1.00  0.00    -0.048 A 
ATOM     29  C   UNL A   1      32.620  22.662  27.491  1.00  0.00     0.004 A 
ATOM     30  C   UNL A   1      31.756  21.825  25.414  1.00  0.00     0.004 A 
ATOM     31  C   UNL A   1      33.765  21.874  27.327  1.00  0.00     0.000 A 
ATOM     32  C   UNL A   1      32.892  21.028  25.254  1.00  0.00     0.000 A 
ATOM     33  C   UNL A   1      33.901  21.058  26.209  1.00  0.00     0.000 A 
ENDBRANCH  27  28
ENDBRANCH  26  27
ENDBRANCH  25  26
ENDBRANCH  23  25
ENDBRANCH  20  21
ENDBRANCH  18  20
ENDBRANCH  12  14
ENDBRANCH   5   7
ENDBRANCH   3   5
ENDBRANCH   2   3
ENDBRANCH   1   2
BRANCH   1  34
ATOM     34  C   UNL A   1      44.024  19.766  24.942  1.00  0.00     0.202 C 
BRANCH  34  35
ATOM     35  O   UNL A   1      44.746  20.430  23.902  1.00  0.00    -0.374 OA
BRANCH  35  36
ATOM     36  C   UNL A   1      44.782  21.852  23.939  1.00  0.00     0.202 C 
BRANCH  36  37
ATOM     37  C   UNL A   1      46.148  22.542  24.055  1.00  0.00     0.261 C 
BRANCH  37  38
ATOM     38  O   UNL A   1      46.052  23.897  24.517  1.00  0.00    -0.460 OA
BRANCH  38  39
ATOM     39  C   UNL A   1      46.155  24.028  25.862  1.00  0.00     0.338 C 
ATOM     40  O   UNL A   1      46.350  23.140  26.677  1.00  0.00    -0.246 OA
BRANCH  39  41
ATOM     41  C   UNL A   1      46.197  25.455  26.228  1.00  0.00     0.060 A 
ATOM     42  C   UNL A   1      46.543  25.762  27.551  1.00  0.00     0.016 A 
ATOM     43  C   UNL A   1      45.841  26.462  25.330  1.00  0.00     0.016 A 
ATOM     44  C   UNL A   1      46.481  27.077  27.998  1.00  0.00     0.010 A 
ATOM     45  C   UNL A   1      45.769  27.782  25.786  1.00  0.00     0.010 A 
ATOM     46  C   UNL A   1      46.049  28.087  27.131  1.00  0.00    -0.014 A 
BRANCH  46  47
ATOM     47  C   UNL A   1      45.747  29.430  27.681  1.00  0.00     0.031 A 
ATOM     48  C   UNL A   1      46.816  30.487  27.650  1.00  0.00     0.074 A 
ATOM     49  C   UNL A   1      44.527  29.709  28.175  1.00  0.00     0.049 A 
ATOM     50  N   UNL A   1      46.772  31.720  28.082  1.00  0.00    -0.248 NA
ATOM     51  C   UNL A   1      48.106  30.105  27.052  1.00  0.00     0.031 C 
ATOM     52  C   UNL A   1      43.408  28.770  28.240  1.00  0.00     0.029 A 
ATOM     53  N   UNL A   1      44.035  30.860  28.733  1.00  0.00    -0.354 N 
ATOM     54  C   UNL A   1      48.035  32.249  27.846  1.00  0.00     0.074 A 
ATOM     55  C   UNL A   1      48.826  31.202  27.237  1.00  0.00     0.031 C 
ATOM     56  C   UNL A   1      42.364  29.377  28.829  1.00  0.00     0.029 A 
ATOM     57  C   UNL A   1      42.752  30.735  29.208  1.00  0.00     0.049 A 
ATOM     58  H   UNL A   1      44.551  31.697  28.789  1.00  0.00     0.167 HD
ATOM     59  C   UNL A   1      48.492  33.497  28.101  1.00  0.00     0.034 A 
ATOM     60  C   UNL A   1      41.987  31.607  29.894  1.00  0.00     0.034 A 
ATOM     61  C   UNL A   1      47.694  34.540  28.689  1.00  0.00     0.049 A 
ATOM     62  C   UNL A   1      42.531  32.979  30.194  1.00  0.00     0.074 A 
ATOM     63  C   UNL A   1      48.047  35.854  28.939  1.00  0.00     0.029 A 
ATOM     64  N   UNL A   1      46.390  34.384  29.135  1.00  0.00    -0.354 N 
ATOM     65  N   UNL A   1      43.688  33.501  29.864  1.00  0.00    -0.248 NA
ATOM     66  C   UNL A   1      41.650  33.895  30.934  1.00  0.00     0.031 C 
ATOM     67  C   UNL A   1      46.971  36.480  29.577  1.00  0.00     0.029 A 
ATOM     68  C   UNL A   1      45.931  35.571  29.679  1.00  0.00     0.049 A 
ATOM     69  H   UNL A   1      45.868  33.552  29.073  1.00  0.00     0.167 HD
ATOM     70  C   UNL A   1      43.658  34.816  30.319  1.00  0.00     0.074 A 
ATOM     71  C   UNL A   1      42.362  35.014  30.933  1.00  0.00     0.031 C 
ATOM     72  C   UNL A   1      44.620  35.769  30.243  1.00  0.00     0.034 A 
BRANCH  59  73
ATOM     73  C   UNL A   1      49.922  33.809  27.747  1.00  0.00     0.023 A 
ATOM     74  C   UNL A   1      50.927  33.731  28.731  1.00  0.00     0.012 A 
ATOM     75  C   UNL A   1      50.278  34.123  26.420  1.00  0.00     0.148 A 
ATOM     76  C   UNL A   1      52.259  33.995  28.410  1.00  0.00     0.002 A 
ATOM     77  C   UNL A   1      51.612  34.337  26.097  1.00  0.00     0.091 A 
ATOM     78  F   UNL A   1      49.305  34.214  25.502  1.00  0.00    -0.205 F 
ATOM     79  C   UNL A   1      52.602  34.285  27.092  1.00  0.00     0.022 A 
BRANCH  77  80
ATOM     80  S   UNL A   1      52.165  34.638  24.415  1.00  0.00     0.127 S 
ATOM     81  O   UNL A   1      51.708  33.427  23.733  1.00  0.00    -0.237 OA
ATOM     82  O   UNL A   1      51.428  35.852  24.062  1.00  0.00    -0.237 OA
ATOM     83  O   UNL A   1      53.610  34.803  24.488  1.00  0.00    -0.744 OA
ENDBRANCH  77  80
ENDBRANCH  59  73
BRANCH  60  84
ATOM     84  C   UNL A   1      40.614  31.219  30.324  1.00  0.00     0.023 A 
ATOM     85  C   UNL A   1      39.505  31.602  29.546  1.00  0.00     0.012 A 
ATOM     86  C   UNL A   1      40.405  30.466  31.495  1.00  0.00     0.148 A 
ATOM     87  C   UNL A   1      38.209  31.271  29.944  1.00  0.00     0.002 A 
ATOM     88  C   UNL A   1      39.117  30.090  31.855  1.00  0.00     0.091 A 
ATOM     89  F   UNL A   1      41.473  30.122  32.229  1.00  0.00    -0.205 F 
ATOM     90  C   UNL A   1      38.015  30.507  31.092  1.00  0.00     0.022 A 
BRANCH  88  91
ATOM     91  S   UNL A   1      38.783  29.000  33.244  1.00  0.00     0.127 S 
ATOM     92  O   UNL A   1      39.714  27.904  32.993  1.00  0.00    -0.237 OA
ATOM     93  O   UNL A   1      39.126  29.854  34.383  1.00  0.00    -0.237 OA
ATOM     94  O   UNL A   1      37.369  28.663  33.151  1.00  0.00    -0.744 OA
ENDBRANCH  88  91
ENDBRANCH  60  84
BRANCH  72  95
ATOM     95  C   UNL A   1      44.298  37.135  30.793  1.00  0.00     0.023 A 
ATOM     96  C   UNL A   1      43.766  38.131  29.951  1.00  0.00     0.012 A 
ATOM     97  C   UNL A   1      44.457  37.405  32.168  1.00  0.00     0.148 A 
ATOM     98  C   UNL A   1      43.433  39.387  30.461  1.00  0.00     0.002 A 
ATOM     99  C   UNL A   1      44.072  38.638  32.678  1.00  0.00     0.091 A 
ATOM    100  F   UNL A   1      44.979  36.450  32.951  1.00  0.00    -0.205 F 
ATOM    101  C   UNL A   1      43.574  39.635  31.824  1.00  0.00     0.022 A 
BRANCH  99 102
ATOM    102  S   UNL A   1      44.123  39.015  34.434  1.00  0.00     0.127 S 
ATOM    103  O   UNL A   1      43.604  40.381  34.460  1.00  0.00    -0.237 OA
ATOM    104  O   UNL A   1      43.220  38.008  34.992  1.00  0.00    -0.237 OA
ATOM    105  O   UNL A   1      45.515  38.869  34.838  1.00  0.00    -0.744 OA
ENDBRANCH  99 102
ENDBRANCH  72  95
ENDBRANCH  46  47
ENDBRANCH  39  41
ENDBRANCH  38  39
ENDBRANCH  37  38
ENDBRANCH  36  37
ENDBRANCH  35  36
ENDBRANCH  34  35
ENDBRANCH   1  34
TORSDOF 25
ENDMDL
MODEL 2
REMARK VINA RESULT:      -9.7      4.935      8.412
REMARK SMILES C[C@@H](C(=O)OCCOCCOC(=O)c1ccc(-c2c3nc(c(-c4cccc(S(=O)(=O)[O-])c4F)c4ccc([nH]4)c(-c4cccc(S(=O)(=O)[O-])c4F)c4nc(c(-c5cccc(S(=O)(=O)[O-])c5F)c5ccc2[nH]5)C=C4)C=C3)cc1)c1ccc(-c2cccc(OC(=O)NCCCc3ccccc3)c2)c(F)c1
REMARK SMILES IDX 6 1 5 2 3 3 4 4 2 5 1 6 77 7 78 8 102 9 79 10 100 11 80 12
REMARK SMILES IDX 101 13 81 14 82 15 99 16 83 17 85 18 84 19 86 20 87 21 88 22
REMARK SMILES IDX 89 23 90 25 91 26 92 27 93 28 94 29 98 30 95 31 97 32 96 33
REMARK SMILES IDX 7 34 8 35 9 36 10 37 11 38 12 39 13 40 14 41 15 42 76 43
REMARK SMILES IDX 16 44 75 45 17 46 18 47 19 48 69 49 20 50 74 51 68 52 70 53
REMARK SMILES IDX 21 54 73 55 67 56 66 57 22 59 54 60 34 61 53 62 35 63 38 64
REMARK SMILES IDX 52 65 71 66 36 67 37 68 51 70 72 71 39 72 23 73 24 74 32 75
REMARK SMILES IDX 25 76 27 77 33 78 26 79 28 80 29 81 30 82 31 83 55 84 56 85
REMARK SMILES IDX 64 86 57 87 59 88 65 89 58 90 60 91 61 92 62 93 63 94 40 95
REMARK SMILES IDX 41 96 49 97 42 98 44 99 50 100 43 101 45 102 46 103 47 104
REMARK SMILES IDX 48 105
REMARK H PARENT 89 24 70 58 38 69
REMARK Flexibility Score: inf
ROOT
ATOM      1  C   UNL A   1      42.506  23.072  25.828  1.00  0.00     0.261 C 
ENDROOT
BRANCH   1   2
ATOM      2  O   UNL A   1      41.850  23.469  27.048  1.00  0.00    -0.463 OA
BRANCH   2   3
ATOM      3  C   UNL A   1      41.113  24.609  26.980  1.00  0.00     0.313 C 
ATOM      4  O   UNL A   1      39.980  24.670  26.513  1.00  0.00    -0.252 OA
BRANCH   3   5
ATOM      5  C   UNL A   1      41.833  25.825  27.585  1.00  0.00     0.126 C 
ATOM      6  C   UNL A   1      42.683  25.544  28.829  1.00  0.00     0.025 C 
BRANCH   5   7
ATOM      7  C   UNL A   1      40.817  26.940  27.822  1.00  0.00    -0.031 A 
ATOM      8  C   UNL A   1      40.593  27.905  26.830  1.00  0.00     0.005 A 
ATOM      9  C   UNL A   1      40.000  26.962  28.957  1.00  0.00     0.044 A 
ATOM     10  C   UNL A   1      39.575  28.856  26.970  1.00  0.00     0.012 A 
ATOM     11  C   UNL A   1      38.968  27.886  29.073  1.00  0.00     0.131 A 
ATOM     12  C   UNL A   1      38.738  28.862  28.096  1.00  0.00     0.018 A 
ATOM     13  F   UNL A   1      38.188  27.812  30.164  1.00  0.00    -0.206 F 
BRANCH  12  14
ATOM     14  C   UNL A   1      37.721  29.905  28.289  1.00  0.00    -0.012 A 
ATOM     15  C   UNL A   1      36.364  29.706  27.991  1.00  0.00     0.009 A 
ATOM     16  C   UNL A   1      38.120  31.166  28.758  1.00  0.00     0.056 A 
ATOM     17  C   UNL A   1      35.439  30.745  28.146  1.00  0.00     0.004 A 
ATOM     18  C   UNL A   1      37.205  32.200  28.905  1.00  0.00     0.133 A 
ATOM     19  C   UNL A   1      35.861  31.995  28.600  1.00  0.00     0.047 A 
BRANCH  18  20
ATOM     20  O   UNL A   1      37.548  33.490  29.370  1.00  0.00    -0.410 OA
BRANCH  20  21
ATOM     21  C   UNL A   1      37.490  33.921  30.692  1.00  0.00     0.412 C 
ATOM     22  O   UNL A   1      36.480  34.159  31.351  1.00  0.00    -0.224 OA
ATOM     23  N   UNL A   1      38.718  34.053  31.267  1.00  0.00    -0.321 N 
ATOM     24  H   UNL A   1      38.757  34.458  32.164  1.00  0.00     0.167 HD
BRANCH  23  25
ATOM     25  C   UNL A   1      39.967  33.648  30.671  1.00  0.00     0.120 C 
BRANCH  25  26
ATOM     26  C   UNL A   1      40.506  32.319  31.196  1.00  0.00     0.026 C 
BRANCH  26  27
ATOM     27  C   UNL A   1      39.543  31.384  31.937  1.00  0.00     0.037 C 
BRANCH  27  28
ATOM     28  C   UNL A   1      40.061  30.371  32.932  1.00  0.00    -0.048 A 
ATOM     29  C   UNL A   1      40.097  30.558  34.316  1.00  0.00     0.004 A 
ATOM     30  C   UNL A   1      40.609  29.181  32.417  1.00  0.00     0.004 A 
ATOM     31  C   UNL A   1      40.671  29.599  35.159  1.00  0.00     0.000 A 
ATOM     32  C   UNL A   1      41.171  28.218  33.257  1.00  0.00     0.000 A 
ATOM     33  C   UNL A   1      41.208  28.430  34.629  1.00  0.00     0.000 A 
ENDBRANCH  27  28
ENDBRANCH  26  27
ENDBRANCH  25  26
ENDBRANCH  23  25
ENDBRANCH  20  21
ENDBRANCH  18  20
ENDBRANCH  12  14
ENDBRANCH   5   7
ENDBRANCH   3   5
ENDBRANCH   2   3
ENDBRANCH   1   2
BRANCH   1  34
ATOM     34  C   UNL A   1      43.099  21.665  25.943  1.00  0.00     0.202 C 
BRANCH  34  35
ATOM     35  O   UNL A   1      44.290  21.382  25.205  1.00  0.00    -0.374 OA
BRANCH  35  36
ATOM     36  C   UNL A   1      44.701  22.343  24.239  1.00  0.00     0.202 C 
BRANCH  36  37
ATOM     37  C   UNL A   1      45.898  23.242  24.575  1.00  0.00     0.261 C 
BRANCH  37  38
ATOM     38  O   UNL A   1      45.636  24.633  24.337  1.00  0.00    -0.460 OA
BRANCH  38  39
ATOM     39  C   UNL A   1      46.690  25.444  24.602  1.00  0.00     0.338 C 
ATOM     40  O   UNL A   1      47.800  25.399  24.098  1.00  0.00    -0.246 OA
BRANCH  39  41
ATOM     41  C   UNL A   1      46.264  26.557  25.470  1.00  0.00     0.060 A 
ATOM     42  C   UNL A   1      47.272  27.255  26.149  1.00  0.00     0.016 A 
ATOM     43  C   UNL A   1      44.919  26.868  25.671  1.00  0.00     0.016 A 
ATOM     44  C   UNL A   1      46.935  28.232  27.078  1.00  0.00     0.010 A 
ATOM     45  C   UNL A   1      44.583  27.844  26.615  1.00  0.00     0.010 A 
ATOM     46  C   UNL A   1      45.588  28.499  27.350  1.00  0.00    -0.014 A 
BRANCH  46  47
ATOM     47  C   UNL A   1      45.242  29.354  28.510  1.00  0.00     0.031 A 
ATOM     48  C   UNL A   1      45.238  28.746  29.886  1.00  0.00     0.074 A 
ATOM     49  C   UNL A   1      44.964  30.659  28.341  1.00  0.00     0.049 A 
ATOM     50  N   UNL A   1      44.959  29.304  31.035  1.00  0.00    -0.248 NA
ATOM     51  C   UNL A   1      45.596  27.321  29.981  1.00  0.00     0.031 C 
ATOM     52  C   UNL A   1      44.956  31.360  27.059  1.00  0.00     0.029 A 
ATOM     53  N   UNL A   1      44.617  31.620  29.254  1.00  0.00    -0.354 N 
ATOM     54  C   UNL A   1      45.069  28.293  31.983  1.00  0.00     0.074 A 
ATOM     55  C   UNL A   1      45.435  27.086  31.275  1.00  0.00     0.031 C 
ATOM     56  C   UNL A   1      44.597  32.639  27.264  1.00  0.00     0.029 A 
ATOM     57  C   UNL A   1      44.321  32.835  28.686  1.00  0.00     0.049 A 
ATOM     58  H   UNL A   1      44.582  31.457  30.225  1.00  0.00     0.167 HD
ATOM     59  C   UNL A   1      44.893  28.366  33.323  1.00  0.00     0.034 A 
ATOM     60  C   UNL A   1      43.856  33.970  29.246  1.00  0.00     0.034 A 
ATOM     61  C   UNL A   1      44.548  29.575  34.024  1.00  0.00     0.049 A 
ATOM     62  C   UNL A   1      43.637  34.015  30.736  1.00  0.00     0.074 A 
ATOM     63  C   UNL A   1      44.399  29.766  35.386  1.00  0.00     0.029 A 
ATOM     64  N   UNL A   1      44.280  30.793  33.417  1.00  0.00    -0.354 N 
ATOM     65  N   UNL A   1      43.854  33.082  31.632  1.00  0.00    -0.248 NA
ATOM     66  C   UNL A   1      43.140  35.281  31.295  1.00  0.00     0.031 C 
ATOM     67  C   UNL A   1      43.999  31.088  35.599  1.00  0.00     0.029 A 
ATOM     68  C   UNL A   1      43.945  31.734  34.375  1.00  0.00     0.049 A 
ATOM     69  H   UNL A   1      44.322  30.962  32.449  1.00  0.00     0.167 HD
ATOM     70  C   UNL A   1      43.559  33.660  32.863  1.00  0.00     0.074 A 
ATOM     71  C   UNL A   1      43.165  35.028  32.597  1.00  0.00     0.031 C 
ATOM     72  C   UNL A   1      43.602  33.106  34.100  1.00  0.00     0.034 A 
BRANCH  59  73
ATOM     73  C   UNL A   1      45.070  27.104  34.125  1.00  0.00     0.023 A 
ATOM     74  C   UNL A   1      44.029  26.157  34.192  1.00  0.00     0.012 A 
ATOM     75  C   UNL A   1      46.294  26.830  34.767  1.00  0.00     0.148 A 
ATOM     76  C   UNL A   1      44.189  24.974  34.912  1.00  0.00     0.002 A 
ATOM     77  C   UNL A   1      46.465  25.628  35.442  1.00  0.00     0.091 A 
ATOM     78  F   UNL A   1      47.265  27.753  34.711  1.00  0.00    -0.205 F 
ATOM     79  C   UNL A   1      45.410  24.704  35.526  1.00  0.00     0.022 A 
BRANCH  77  80
ATOM     80  S   UNL A   1      48.024  25.153  36.196  1.00  0.00     0.127 S 
ATOM     81  O   UNL A   1      47.769  23.756  36.545  1.00  0.00    -0.237 OA
ATOM     82  O   UNL A   1      48.968  25.345  35.094  1.00  0.00    -0.237 OA
ATOM     83  O   UNL A   1      48.217  26.051  37.326  1.00  0.00    -0.744 OA
ENDBRANCH  77  80
ENDBRANCH  59  73
BRANCH  60  84
ATOM     84  C   UNL A   1      43.587  35.165  28.398  1.00  0.00     0.023 A 
ATOM     85  C   UNL A   1      42.284  35.400  27.918  1.00  0.00     0.012 A 
ATOM     86  C   UNL A   1      44.613  36.073  28.073  1.00  0.00     0.148 A 
ATOM     87  C   UNL A   1      42.015  36.499  27.101  1.00  0.00     0.002 A 
ATOM     88  C   UNL A   1      44.327  37.197  27.308  1.00  0.00     0.091 A 
ATOM     89  F   UNL A   1      45.849  35.824  28.529  1.00  0.00    -0.205 F 
ATOM     90  C   UNL A   1      43.033  37.402  26.804  1.00  0.00     0.022 A 
BRANCH  88  91
ATOM     91  S   UNL A   1      45.544  38.478  26.983  1.00  0.00     0.127 S 
ATOM     92  O   UNL A   1      46.505  37.770  26.141  1.00  0.00    -0.237 OA
ATOM     93  O   UNL A   1      44.740  39.485  26.290  1.00  0.00    -0.237 OA
ATOM     94  O   UNL A   1      46.036  38.895  28.289  1.00  0.00    -0.744 OA
ENDBRANCH  88  91
ENDBRANCH  60  84
BRANCH  72  95
ATOM     95  C   UNL A   1      43.262  33.988  35.275  1.00  0.00     0.023 A 
ATOM     96  C   UNL A   1      44.285  34.494  36.101  1.00  0.00     0.012 A 
ATOM     97  C   UNL A   1      41.927  34.372  35.514  1.00  0.00     0.148 A 
ATOM     98  C   UNL A   1      43.980  35.338  37.170  1.00  0.00     0.002 A 
ATOM     99  C   UNL A   1      41.637  35.256  36.546  1.00  0.00     0.091 A 
ATOM    100  F   UNL A   1      40.966  33.868  34.727  1.00  0.00    -0.205 F 
ATOM    101  C   UNL A   1      42.661  35.729  37.383  1.00  0.00     0.022 A 
BRANCH  99 102
ATOM    102  S   UNL A   1      39.983  35.894  36.835  1.00  0.00     0.127 S 
ATOM    103  O   UNL A   1      40.216  36.843  37.922  1.00  0.00    -0.237 OA
ATOM    104  O   UNL A   1      39.659  36.509  35.547  1.00  0.00    -0.237 OA
ATOM    105  O   UNL A   1      39.161  34.741  37.179  1.00  0.00    -0.744 OA
ENDBRANCH  99 102
ENDBRANCH  72  95
ENDBRANCH  46  47
ENDBRANCH  39  41
ENDBRANCH  38  39
ENDBRANCH  37  38
ENDBRANCH  36  37
ENDBRANCH  35  36
ENDBRANCH  34  35
ENDBRANCH   1  34
TORSDOF 25
ENDMDL
MODEL 3
REMARK VINA RESULT:      -9.2      5.190     10.890
REMARK SMILES C[C@@H](C(=O)OCCOCCOC(=O)c1ccc(-c2c3nc(c(-c4cccc(S(=O)(=O)[O-])c4F)c4ccc([nH]4)c(-c4cccc(S(=O)(=O)[O-])c4F)c4nc(c(-c5cccc(S(=O)(=O)[O-])c5F)c5ccc2[nH]5)C=C4)C=C3)cc1)c1ccc(-c2cccc(OC(=O)NCCCc3ccccc3)c2)c(F)c1
REMARK SMILES IDX 6 1 5 2 3 3 4 4 2 5 1 6 77 7 78 8 102 9 79 10 100 11 80 12
REMARK SMILES IDX 101 13 81 14 82 15 99 16 83 17 85 18 84 19 86 20 87 21 88 22
REMARK SMILES IDX 89 23 90 25 91 26 92 27 93 28 94 29 98 30 95 31 97 32 96 33
REMARK SMILES IDX 7 34 8 35 9 36 10 37 11 38 12 39 13 40 14 41 15 42 76 43
REMARK SMILES IDX 16 44 75 45 17 46 18 47 19 48 69 49 20 50 74 51 68 52 70 53
REMARK SMILES IDX 21 54 73 55 67 56 66 57 22 59 54 60 34 61 53 62 35 63 38 64
REMARK SMILES IDX 52 65 71 66 36 67 37 68 51 70 72 71 39 72 23 73 24 74 32 75
REMARK SMILES IDX 25 76 27 77 33 78 26 79 28 80 29 81 30 82 31 83 55 84 56 85
REMARK SMILES IDX 64 86 57 87 59 88 65 89 58 90 60 91 61 92 62 93 63 94 40 95
REMARK SMILES IDX 41 96 49 97 42 98 44 99 50 100 43 101 45 102 46 103 47 104
REMARK SMILES IDX 48 105
REMARK H PARENT 89 24 70 58 38 69
REMARK Flexibility Score: inf
ROOT
ATOM      1  C   UNL A   1      31.887  25.247  26.109  1.00  0.00     0.261 C 
ENDROOT
BRANCH   1   2
ATOM      2  O   UNL A   1      31.694  23.980  25.451  1.00  0.00    -0.463 OA
BRANCH   2   3
ATOM      3  C   UNL A   1      32.075  23.926  24.147  1.00  0.00     0.313 C 
ATOM      4  O   UNL A   1      31.444  23.348  23.267  1.00  0.00    -0.252 OA
BRANCH   3   5
ATOM      5  C   UNL A   1      33.374  24.700  23.870  1.00  0.00     0.126 C 
ATOM      6  C   UNL A   1      33.552  25.211  22.436  1.00  0.00     0.025 C 
BRANCH   5   7
ATOM      7  C   UNL A   1      34.563  23.862  24.335  1.00  0.00    -0.031 A 
ATOM      8  C   UNL A   1      34.975  22.754  23.583  1.00  0.00     0.005 A 
ATOM      9  C   UNL A   1      35.344  24.240  25.432  1.00  0.00     0.044 A 
ATOM     10  C   UNL A   1      36.141  22.052  23.916  1.00  0.00     0.012 A 
ATOM     11  C   UNL A   1      36.519  23.562  25.736  1.00  0.00     0.131 A 
ATOM     12  C   UNL A   1      36.939  22.447  25.000  1.00  0.00     0.018 A 
ATOM     13  F   UNL A   1      37.249  24.015  26.768  1.00  0.00    -0.206 F 
BRANCH  12  14
ATOM     14  C   UNL A   1      38.118  21.669  25.406  1.00  0.00    -0.012 A 
ATOM     15  C   UNL A   1      38.231  20.289  25.181  1.00  0.00     0.009 A 
ATOM     16  C   UNL A   1      39.164  22.320  26.077  1.00  0.00     0.056 A 
ATOM     17  C   UNL A   1      39.352  19.581  25.628  1.00  0.00     0.004 A 
ATOM     18  C   UNL A   1      40.274  21.619  26.528  1.00  0.00     0.133 A 
ATOM     19  C   UNL A   1      40.374  20.246  26.306  1.00  0.00     0.047 A 
BRANCH  18  20
ATOM     20  O   UNL A   1      41.357  22.219  27.210  1.00  0.00    -0.410 OA
BRANCH  20  21
ATOM     21  C   UNL A   1      41.476  23.571  27.519  1.00  0.00     0.412 C 
ATOM     22  O   UNL A   1      40.729  24.481  27.168  1.00  0.00    -0.224 OA
ATOM     23  N   UNL A   1      42.545  23.846  28.319  1.00  0.00    -0.321 N 
ATOM     24  H   UNL A   1      42.753  24.793  28.486  1.00  0.00     0.167 HD
BRANCH  23  25
ATOM     25  C   UNL A   1      43.397  22.863  28.940  1.00  0.00     0.120 C 
BRANCH  25  26
ATOM     26  C   UNL A   1      43.512  23.005  30.456  1.00  0.00     0.026 C 
BRANCH  26  27
ATOM     27  C   UNL A   1      44.632  23.887  31.021  1.00  0.00     0.037 C 
BRANCH  27  28
ATOM     28  C   UNL A   1      44.365  24.835  32.169  1.00  0.00    -0.048 A 
ATOM     29  C   UNL A   1      44.436  24.490  33.521  1.00  0.00     0.004 A 
ATOM     30  C   UNL A   1      43.948  26.139  31.846  1.00  0.00     0.004 A 
ATOM     31  C   UNL A   1      44.092  25.409  34.519  1.00  0.00     0.000 A 
ATOM     32  C   UNL A   1      43.616  27.062  32.840  1.00  0.00     0.000 A 
ATOM     33  C   UNL A   1      43.681  26.694  34.178  1.00  0.00     0.000 A 
ENDBRANCH  27  28
ENDBRANCH  26  27
ENDBRANCH  25  26
ENDBRANCH  23  25
ENDBRANCH  20  21
ENDBRANCH  18  20
ENDBRANCH  12  14
ENDBRANCH   5   7
ENDBRANCH   3   5
ENDBRANCH   2   3
ENDBRANCH   1   2
BRANCH   1  34
ATOM     34  C   UNL A   1      30.647  26.137  25.984  1.00  0.00     0.202 C 
BRANCH  34  35
ATOM     35  O   UNL A   1      30.851  27.546  25.846  1.00  0.00    -0.374 OA
BRANCH  35  36
ATOM     36  C   UNL A   1      31.595  28.199  26.869  1.00  0.00     0.202 C 
BRANCH  36  37
ATOM     37  C   UNL A   1      32.748  29.122  26.450  1.00  0.00     0.261 C 
BRANCH  37  38
ATOM     38  O   UNL A   1      33.709  29.324  27.497  1.00  0.00    -0.460 OA
BRANCH  38  39
ATOM     39  C   UNL A   1      34.144  30.604  27.603  1.00  0.00     0.338 C 
ATOM     40  O   UNL A   1      33.467  31.618  27.571  1.00  0.00    -0.246 OA
BRANCH  39  41
ATOM     41  C   UNL A   1      35.572  30.622  27.970  1.00  0.00     0.060 A 
ATOM     42  C   UNL A   1      36.166  29.388  28.268  1.00  0.00     0.016 A 
ATOM     43  C   UNL A   1      36.292  31.811  28.089  1.00  0.00     0.016 A 
ATOM     44  C   UNL A   1      37.472  29.343  28.742  1.00  0.00     0.010 A 
ATOM     45  C   UNL A   1      37.602  31.762  28.578  1.00  0.00     0.010 A 
ATOM     46  C   UNL A   1      38.181  30.533  28.943  1.00  0.00    -0.014 A 
BRANCH  46  47
ATOM     47  C   UNL A   1      39.467  30.491  29.679  1.00  0.00     0.031 A 
ATOM     48  C   UNL A   1      39.527  31.053  31.073  1.00  0.00     0.074 A 
ATOM     49  C   UNL A   1      40.557  29.934  29.122  1.00  0.00     0.049 A 
ATOM     50  N   UNL A   1      40.545  31.128  31.891  1.00  0.00    -0.248 NA
ATOM     51  C   UNL A   1      38.276  31.605  31.618  1.00  0.00     0.031 C 
ATOM     52  C   UNL A   1      40.612  29.341  27.787  1.00  0.00     0.029 A 
ATOM     53  N   UNL A   1      41.831  29.793  29.606  1.00  0.00    -0.354 N 
ATOM     54  C   UNL A   1      40.069  31.768  33.029  1.00  0.00     0.074 A 
ATOM     55  C   UNL A   1      38.673  32.066  32.796  1.00  0.00     0.031 C 
ATOM     56  C   UNL A   1      41.866  28.920  27.548  1.00  0.00     0.029 A 
ATOM     57  C   UNL A   1      42.705  29.242  28.701  1.00  0.00     0.049 A 
ATOM     58  H   UNL A   1      42.096  30.062  30.516  1.00  0.00     0.167 HD
ATOM     59  C   UNL A   1      40.731  32.069  34.171  1.00  0.00     0.034 A 
ATOM     60  C   UNL A   1      44.035  29.042  28.784  1.00  0.00     0.034 A 
ATOM     61  C   UNL A   1      42.114  31.751  34.405  1.00  0.00     0.049 A 
ATOM     62  C   UNL A   1      44.755  29.416  30.053  1.00  0.00     0.074 A 
ATOM     63  C   UNL A   1      42.864  31.965  35.547  1.00  0.00     0.029 A 
ATOM     64  N   UNL A   1      42.962  31.170  33.474  1.00  0.00    -0.354 N 
ATOM     65  N   UNL A   1      44.268  29.917  31.163  1.00  0.00    -0.248 NA
ATOM     66  C   UNL A   1      46.203  29.167  30.093  1.00  0.00     0.031 C 
ATOM     67  C   UNL A   1      44.175  31.553  35.292  1.00  0.00     0.029 A 
ATOM     68  C   UNL A   1      44.232  31.038  34.008  1.00  0.00     0.049 A 
ATOM     69  H   UNL A   1      42.699  30.892  32.567  1.00  0.00     0.167 HD
ATOM     70  C   UNL A   1      45.340  30.005  32.046  1.00  0.00     0.074 A 
ATOM     71  C   UNL A   1      46.498  29.489  31.346  1.00  0.00     0.031 C 
ATOM     72  C   UNL A   1      45.365  30.477  33.316  1.00  0.00     0.034 A 
BRANCH  59  73
ATOM     73  C   UNL A   1      39.969  32.778  35.259  1.00  0.00     0.023 A 
ATOM     74  C   UNL A   1      39.928  34.186  35.291  1.00  0.00     0.012 A 
ATOM     75  C   UNL A   1      39.243  32.045  36.219  1.00  0.00     0.148 A 
ATOM     76  C   UNL A   1      39.207  34.854  36.281  1.00  0.00     0.002 A 
ATOM     77  C   UNL A   1      38.487  32.715  37.172  1.00  0.00     0.091 A 
ATOM     78  F   UNL A   1      39.312  30.706  36.186  1.00  0.00    -0.205 F 
ATOM     79  C   UNL A   1      38.478  34.119  37.212  1.00  0.00     0.022 A 
BRANCH  77  80
ATOM     80  S   UNL A   1      37.451  31.861  38.364  1.00  0.00     0.127 S 
ATOM     81  O   UNL A   1      36.238  32.678  38.340  1.00  0.00    -0.237 OA
ATOM     82  O   UNL A   1      37.308  30.539  37.753  1.00  0.00    -0.237 OA
ATOM     83  O   UNL A   1      38.185  31.874  39.621  1.00  0.00    -0.744 OA
ENDBRANCH  77  80
ENDBRANCH  59  73
BRANCH  60  84
ATOM     84  C   UNL A   1      44.772  28.438  27.638  1.00  0.00     0.023 A 
ATOM     85  C   UNL A   1      45.449  29.272  26.727  1.00  0.00     0.012 A 
ATOM     86  C   UNL A   1      44.813  27.043  27.453  1.00  0.00     0.148 A 
ATOM     87  C   UNL A   1      46.123  28.730  25.632  1.00  0.00     0.002 A 
ATOM     88  C   UNL A   1      45.535  26.505  26.394  1.00  0.00     0.091 A 
ATOM     89  F   UNL A   1      44.152  26.268  28.324  1.00  0.00    -0.205 F 
ATOM     90  C   UNL A   1      46.175  27.347  25.471  1.00  0.00     0.022 A 
BRANCH  88  91
ATOM     91  S   UNL A   1      45.763  24.737  26.183  1.00  0.00     0.127 S 
ATOM     92  O   UNL A   1      46.687  24.688  25.052  1.00  0.00    -0.237 OA
ATOM     93  O   UNL A   1      46.343  24.353  27.471  1.00  0.00    -0.237 OA
ATOM     94  O   UNL A   1      44.434  24.193  25.936  1.00  0.00    -0.744 OA
ENDBRANCH  88  91
ENDBRANCH  60  84
BRANCH  72  95
ATOM     95  C   UNL A   1      46.675  30.417  34.061  1.00  0.00     0.023 A 
ATOM     96  C   UNL A   1      47.489  31.562  34.156  1.00  0.00     0.012 A 
ATOM     97  C   UNL A   1      47.060  29.237  34.729  1.00  0.00     0.148 A 
ATOM     98  C   UNL A   1      48.686  31.523  34.873  1.00  0.00     0.002 A 
ATOM     99  C   UNL A   1      48.225  29.221  35.486  1.00  0.00     0.091 A 
ATOM    100  F   UNL A   1      46.280  28.153  34.615  1.00  0.00    -0.205 F 
ATOM    101  C   UNL A   1      49.046  30.359  35.547  1.00  0.00     0.022 A 
BRANCH  99 102
ATOM    102  S   UNL A   1      48.719  27.801  36.469  1.00  0.00     0.127 S 
ATOM    103  O   UNL A   1      48.759  26.742  35.462  1.00  0.00    -0.237 OA
ATOM    104  O   UNL A   1      50.029  28.215  36.972  1.00  0.00    -0.237 OA
ATOM    105  O   UNL A   1      47.698  27.646  37.496  1.00  0.00    -0.744 OA
ENDBRANCH  99 102
ENDBRANCH  72  95
ENDBRANCH  46  47
ENDBRANCH  39  41
ENDBRANCH  38  39
ENDBRANCH  37  38
ENDBRANCH  36  37
ENDBRANCH  35  36
ENDBRANCH  34  35
ENDBRANCH   1  34
TORSDOF 25
ENDMDL
