MODEL 1
REMARK VINA RESULT:     -11.1      0.000      0.000
REMARK SMILES Nc1c(CC(=O)OCCOCCOC(=O)c2ccc(-c3c4nc(c(-c5cccc(S(=O)(=O)[O-])c5F)c5ccc([nH]5)c(-c5cccc(S(=O)(=O)[O-])c5F)c5nc(c(-c6cccc(S(=O)(=O)[O-])c6F)c6ccc3[nH]6)C=C5)C=C4)cc2)cccc1C(=O)c1ccc(Br)cc1
REMARK SMILES IDX 10 1 9 2 8 3 7 4 5 5 6 6 4 7 3 8 2 9 82 10 79 11 81 12 80 13
REMARK SMILES IDX 1 14 83 17 84 18 85 19 86 20 91 21 87 22 90 23 88 24 89 25
REMARK SMILES IDX 11 26 12 27 13 28 14 29 15 30 16 31 17 32 78 33 18 34 77 35
REMARK SMILES IDX 19 36 20 37 21 38 71 39 22 40 76 41 70 42 72 43 23 44 75 45
REMARK SMILES IDX 69 46 68 47 24 49 56 50 36 51 55 52 37 53 40 54 54 55 73 56
REMARK SMILES IDX 38 57 39 58 53 60 74 61 41 62 25 63 26 64 34 65 27 66 29 67
REMARK SMILES IDX 35 68 28 69 30 70 31 71 32 72 33 73 57 74 58 75 66 76 59 77
REMARK SMILES IDX 61 78 67 79 60 80 62 81 63 82 64 83 65 84 42 85 43 86 51 87
REMARK SMILES IDX 44 88 46 89 52 90 45 91 47 92 48 93 49 94 50 95
REMARK H PARENT 1 15 1 16 72 48 40 59
REMARK Flexibility Score: inf
ROOT
ATOM      1  O   UNL A   1      32.984  28.989  25.773  1.00  0.00    -0.374 OA
ENDROOT
BRANCH   1   2
ATOM      2  C   UNL A   1      33.031  27.710  25.131  1.00  0.00     0.202 C 
BRANCH   2   3
ATOM      3  C   UNL A   1      33.657  27.690  23.732  1.00  0.00     0.261 C 
BRANCH   3   4
ATOM      4  O   UNL A   1      32.657  27.479  22.719  1.00  0.00    -0.463 OA
BRANCH   4   5
ATOM      5  C   UNL A   1      32.727  26.300  22.053  1.00  0.00     0.310 C 
ATOM      6  O   UNL A   1      33.653  25.969  21.318  1.00  0.00    -0.252 OA
BRANCH   5   7
ATOM      7  C   UNL A   1      31.586  25.354  22.340  1.00  0.00     0.160 C 
BRANCH   7   8
ATOM      8  C   UNL A   1      31.542  24.628  23.672  1.00  0.00    -0.013 A 
ATOM      9  C   UNL A   1      32.450  23.592  23.989  1.00  0.00     0.047 A 
ATOM     10  C   UNL A   1      32.531  23.173  25.341  1.00  0.00     0.046 A 
ATOM     11  C   UNL A   1      30.613  25.066  24.638  1.00  0.00     0.006 A 
ATOM     12  C   UNL A   1      31.575  23.606  26.277  1.00  0.00     0.014 A 
ATOM     13  C   UNL A   1      30.602  24.528  25.920  1.00  0.00     0.001 A 
BRANCH   9  14
ATOM     14  N   UNL A   1      33.324  23.131  23.002  1.00  0.00    -0.398 N 
ATOM     15  H   UNL A   1      33.865  23.772  22.485  1.00  0.00     0.156 HD
ATOM     16  H   UNL A   1      33.401  22.165  22.824  1.00  0.00     0.156 HD
ENDBRANCH   9  14
BRANCH  10  17
ATOM     17  C   UNL A   1      33.597  22.281  25.893  1.00  0.00     0.195 C 
ATOM     18  O   UNL A   1      34.409  22.717  26.705  1.00  0.00    -0.289 OA
BRANCH  17  19
ATOM     19  C   UNL A   1      33.737  20.874  25.456  1.00  0.00     0.023 A 
ATOM     20  C   UNL A   1      32.574  20.114  25.292  1.00  0.00     0.013 A 
ATOM     21  C   UNL A   1      34.991  20.325  25.156  1.00  0.00     0.013 A 
ATOM     22  C   UNL A   1      32.656  18.828  24.758  1.00  0.00     0.016 A 
ATOM     23  C   UNL A   1      35.070  19.036  24.626  1.00  0.00     0.016 A 
ATOM     24  C   UNL A   1      33.901  18.301  24.416  1.00  0.00     0.018 A 
ATOM     25  Br  UNL A   1      34.011  16.580  23.640  1.00  0.00    -0.051 Br
ENDBRANCH  17  19
ENDBRANCH  10  17
ENDBRANCH   7   8
ENDBRANCH   5   7
ENDBRANCH   4   5
ENDBRANCH   3   4
ENDBRANCH   2   3
ENDBRANCH   1   2
BRANCH   1  26
ATOM     26  C   UNL A   1      31.813  29.776  25.557  1.00  0.00     0.202 C 
BRANCH  26  27
ATOM     27  C   UNL A   1      31.717  31.095  26.332  1.00  0.00     0.261 C 
BRANCH  27  28
ATOM     28  O   UNL A   1      32.536  31.098  27.512  1.00  0.00    -0.460 OA
BRANCH  28  29
ATOM     29  C   UNL A   1      33.368  32.159  27.608  1.00  0.00     0.338 C 
ATOM     30  O   UNL A   1      33.043  33.344  27.629  1.00  0.00    -0.246 OA
BRANCH  29  31
ATOM     31  C   UNL A   1      34.757  31.735  27.860  1.00  0.00     0.060 A 
ATOM     32  C   UNL A   1      34.969  30.364  28.051  1.00  0.00     0.016 A 
ATOM     33  C   UNL A   1      35.808  32.643  28.018  1.00  0.00     0.016 A 
ATOM     34  C   UNL A   1      36.205  29.904  28.493  1.00  0.00     0.010 A 
ATOM     35  C   UNL A   1      37.054  32.175  28.463  1.00  0.00     0.010 A 
ATOM     36  C   UNL A   1      37.237  30.813  28.758  1.00  0.00    -0.014 A 
BRANCH  36  37
ATOM     37  C   UNL A   1      38.423  30.326  29.508  1.00  0.00     0.031 A 
ATOM     38  C   UNL A   1      38.618  30.767  30.935  1.00  0.00     0.074 A 
ATOM     39  C   UNL A   1      39.266  29.434  28.959  1.00  0.00     0.049 A 
ATOM     40  N   UNL A   1      39.498  30.363  31.813  1.00  0.00    -0.248 NA
ATOM     41  C   UNL A   1      37.696  31.797  31.442  1.00  0.00     0.031 C 
ATOM     42  C   UNL A   1      39.189  28.934  27.588  1.00  0.00     0.029 A 
ATOM     43  N   UNL A   1      40.353  28.790  29.493  1.00  0.00    -0.354 N 
ATOM     44  C   UNL A   1      39.247  31.094  32.969  1.00  0.00     0.074 A 
ATOM     45  C   UNL A   1      38.147  31.985  32.674  1.00  0.00     0.031 C 
ATOM     46  C   UNL A   1      40.195  28.066  27.384  1.00  0.00     0.029 A 
ATOM     47  C   UNL A   1      40.986  27.950  28.608  1.00  0.00     0.049 A 
ATOM     48  H   UNL A   1      40.652  28.917  30.422  1.00  0.00     0.167 HD
ATOM     49  C   UNL A   1      39.856  31.012  34.176  1.00  0.00     0.034 A 
ATOM     50  C   UNL A   1      42.077  27.174  28.769  1.00  0.00     0.034 A 
ATOM     51  C   UNL A   1      40.932  30.108  34.479  1.00  0.00     0.049 A 
ATOM     52  C   UNL A   1      42.736  27.100  30.122  1.00  0.00     0.074 A 
ATOM     53  C   UNL A   1      41.581  29.916  35.686  1.00  0.00     0.029 A 
ATOM     54  N   UNL A   1      41.525  29.251  33.565  1.00  0.00    -0.354 N 
ATOM     55  N   UNL A   1      42.392  27.689  31.243  1.00  0.00    -0.248 NA
ATOM     56  C   UNL A   1      43.907  26.219  30.244  1.00  0.00     0.031 C 
ATOM     57  C   UNL A   1      42.580  28.954  35.497  1.00  0.00     0.029 A 
ATOM     58  C   UNL A   1      42.540  28.535  34.177  1.00  0.00     0.049 A 
ATOM     59  H   UNL A   1      41.263  29.164  32.620  1.00  0.00     0.167 HD
ATOM     60  C   UNL A   1      43.284  27.229  32.206  1.00  0.00     0.074 A 
ATOM     61  C   UNL A   1      44.166  26.291  31.543  1.00  0.00     0.031 C 
ATOM     62  C   UNL A   1      43.378  27.567  33.517  1.00  0.00     0.034 A 
BRANCH  49  63
ATOM     63  C   UNL A   1      39.341  31.902  35.277  1.00  0.00     0.023 A 
ATOM     64  C   UNL A   1      38.337  31.421  36.143  1.00  0.00     0.012 A 
ATOM     65  C   UNL A   1      39.878  33.186  35.487  1.00  0.00     0.148 A 
ATOM     66  C   UNL A   1      37.856  32.215  37.183  1.00  0.00     0.002 A 
ATOM     67  C   UNL A   1      39.419  33.957  36.549  1.00  0.00     0.091 A 
ATOM     68  F   UNL A   1      40.812  33.636  34.638  1.00  0.00    -0.205 F 
ATOM     69  C   UNL A   1      38.403  33.477  37.392  1.00  0.00     0.022 A 
BRANCH  67  70
ATOM     70  S   UNL A   1      40.112  35.568  36.942  1.00  0.00     0.127 S 
ATOM     71  O   UNL A   1      39.553  35.813  38.270  1.00  0.00    -0.237 OA
ATOM     72  O   UNL A   1      41.551  35.298  36.927  1.00  0.00    -0.237 OA
ATOM     73  O   UNL A   1      39.654  36.466  35.891  1.00  0.00    -0.744 OA
ENDBRANCH  67  70
ENDBRANCH  49  63
BRANCH  50  74
ATOM     74  C   UNL A   1      42.579  26.356  27.629  1.00  0.00     0.023 A 
ATOM     75  C   UNL A   1      43.521  26.902  26.737  1.00  0.00     0.012 A 
ATOM     76  C   UNL A   1      42.145  25.028  27.441  1.00  0.00     0.148 A 
ATOM     77  C   UNL A   1      44.002  26.152  25.663  1.00  0.00     0.002 A 
ATOM     78  C   UNL A   1      42.671  24.268  26.403  1.00  0.00     0.091 A 
ATOM     79  F   UNL A   1      41.231  24.532  28.288  1.00  0.00    -0.205 F 
ATOM     80  C   UNL A   1      43.586  24.832  25.503  1.00  0.00     0.022 A 
BRANCH  78  81
ATOM     81  S   UNL A   1      42.292  22.522  26.211  1.00  0.00     0.127 S 
ATOM     82  O   UNL A   1      40.833  22.540  26.127  1.00  0.00    -0.237 OA
ATOM     83  O   UNL A   1      42.977  22.198  24.960  1.00  0.00    -0.237 OA
ATOM     84  O   UNL A   1      42.855  21.870  27.386  1.00  0.00    -0.744 OA
ENDBRANCH  78  81
ENDBRANCH  50  74
BRANCH  62  85
ATOM     85  C   UNL A   1      44.463  26.911  34.330  1.00  0.00     0.023 A 
ATOM     86  C   UNL A   1      44.198  25.691  34.986  1.00  0.00     0.012 A 
ATOM     87  C   UNL A   1      45.757  27.461  34.394  1.00  0.00     0.148 A 
ATOM     88  C   UNL A   1      45.195  25.049  35.720  1.00  0.00     0.002 A 
ATOM     89  C   UNL A   1      46.759  26.792  35.090  1.00  0.00     0.091 A 
ATOM     90  F   UNL A   1      45.988  28.632  33.782  1.00  0.00    -0.205 F 
ATOM     91  C   UNL A   1      46.476  25.592  35.763  1.00  0.00     0.022 A 
BRANCH  89  92
ATOM     92  S   UNL A   1      48.457  27.378  35.117  1.00  0.00     0.127 S 
ATOM     93  O   UNL A   1      48.847  27.231  33.716  1.00  0.00    -0.237 OA
ATOM     94  O   UNL A   1      48.306  28.763  35.565  1.00  0.00    -0.237 OA
ATOM     95  O   UNL A   1      49.156  26.517  36.060  1.00  0.00    -0.744 OA
ENDBRANCH  89  92
ENDBRANCH  62  85
ENDBRANCH  36  37
ENDBRANCH  29  31
ENDBRANCH  28  29
ENDBRANCH  27  28
ENDBRANCH  26  27
ENDBRANCH   1  26
TORSDOF 21
ENDMDL
MODEL 2
REMARK VINA RESULT:     -11.1      1.549      1.993
REMARK SMILES Nc1c(CC(=O)OCCOCCOC(=O)c2ccc(-c3c4nc(c(-c5cccc(S(=O)(=O)[O-])c5F)c5ccc([nH]5)c(-c5cccc(S(=O)(=O)[O-])c5F)c5nc(c(-c6cccc(S(=O)(=O)[O-])c6F)c6ccc3[nH]6)C=C5)C=C4)cc2)cccc1C(=O)c1ccc(Br)cc1
REMARK SMILES IDX 10 1 9 2 8 3 7 4 5 5 6 6 4 7 3 8 2 9 82 10 79 11 81 12 80 13
REMARK SMILES IDX 1 14 83 17 84 18 85 19 86 20 91 21 87 22 90 23 88 24 89 25
REMARK SMILES IDX 11 26 12 27 13 28 14 29 15 30 16 31 17 32 78 33 18 34 77 35
REMARK SMILES IDX 19 36 20 37 21 38 71 39 22 40 76 41 70 42 72 43 23 44 75 45
REMARK SMILES IDX 69 46 68 47 24 49 56 50 36 51 55 52 37 53 40 54 54 55 73 56
REMARK SMILES IDX 38 57 39 58 53 60 74 61 41 62 25 63 26 64 34 65 27 66 29 67
REMARK SMILES IDX 35 68 28 69 30 70 31 71 32 72 33 73 57 74 58 75 66 76 59 77
REMARK SMILES IDX 61 78 67 79 60 80 62 81 63 82 64 83 65 84 42 85 43 86 51 87
REMARK SMILES IDX 44 88 46 89 52 90 45 91 47 92 48 93 49 94 50 95
REMARK H PARENT 1 15 1 16 72 48 40 59
REMARK Flexibility Score: inf
ROOT
ATOM      1  O   UNL A   1      33.102  28.814  25.822  1.00  0.00    -0.374 OA
ENDROOT
BRANCH   1   2
ATOM      2  C   UNL A   1      33.282  27.605  25.077  1.00  0.00     0.202 C 
BRANCH   2   3
ATOM      3  C   UNL A   1      33.880  27.769  23.675  1.00  0.00     0.261 C 
BRANCH   3   4
ATOM      4  O   UNL A   1      32.858  27.700  22.664  1.00  0.00    -0.463 OA
BRANCH   4   5
ATOM      5  C   UNL A   1      32.837  26.568  21.919  1.00  0.00     0.310 C 
ATOM      6  O   UNL A   1      33.775  26.164  21.238  1.00  0.00    -0.252 OA
BRANCH   5   7
ATOM      7  C   UNL A   1      31.564  25.766  22.040  1.00  0.00     0.160 C 
BRANCH   7   8
ATOM      8  C   UNL A   1      31.040  25.410  23.419  1.00  0.00    -0.013 A 
ATOM      9  C   UNL A   1      31.613  24.376  24.194  1.00  0.00     0.047 A 
ATOM     10  C   UNL A   1      31.263  24.304  25.566  1.00  0.00     0.046 A 
ATOM     11  C   UNL A   1      30.001  26.196  23.960  1.00  0.00     0.006 A 
ATOM     12  C   UNL A   1      30.206  25.081  26.071  1.00  0.00     0.014 A 
ATOM     13  C   UNL A   1      29.558  26.005  25.262  1.00  0.00     0.001 A 
BRANCH   9  14
ATOM     14  N   UNL A   1      32.601  23.569  23.623  1.00  0.00    -0.398 N 
ATOM     15  H   UNL A   1      33.125  22.958  24.191  1.00  0.00     0.156 HD
ATOM     16  H   UNL A   1      32.773  23.611  22.655  1.00  0.00     0.156 HD
ENDBRANCH   9  14
BRANCH  10  17
ATOM     17  C   UNL A   1      31.955  23.446  26.576  1.00  0.00     0.195 C 
ATOM     18  O   UNL A   1      31.388  23.144  27.624  1.00  0.00    -0.289 OA
BRANCH  17  19
ATOM     19  C   UNL A   1      33.342  22.972  26.374  1.00  0.00     0.023 A 
ATOM     20  C   UNL A   1      33.548  21.607  26.148  1.00  0.00     0.013 A 
ATOM     21  C   UNL A   1      34.422  23.865  26.351  1.00  0.00     0.013 A 
ATOM     22  C   UNL A   1      34.823  21.143  25.824  1.00  0.00     0.016 A 
ATOM     23  C   UNL A   1      35.697  23.397  26.031  1.00  0.00     0.016 A 
ATOM     24  C   UNL A   1      35.888  22.041  25.755  1.00  0.00     0.018 A 
ATOM     25  Br  UNL A   1      37.606  21.423  25.262  1.00  0.00    -0.051 Br
ENDBRANCH  17  19
ENDBRANCH  10  17
ENDBRANCH   7   8
ENDBRANCH   5   7
ENDBRANCH   4   5
ENDBRANCH   3   4
ENDBRANCH   2   3
ENDBRANCH   1   2
BRANCH   1  26
ATOM     26  C   UNL A   1      31.982  29.627  25.471  1.00  0.00     0.202 C 
BRANCH  26  27
ATOM     27  C   UNL A   1      31.808  30.934  26.251  1.00  0.00     0.261 C 
BRANCH  27  28
ATOM     28  O   UNL A   1      32.569  30.951  27.470  1.00  0.00    -0.460 OA
BRANCH  28  29
ATOM     29  C   UNL A   1      33.379  32.025  27.604  1.00  0.00     0.338 C 
ATOM     30  O   UNL A   1      33.028  33.200  27.678  1.00  0.00    -0.246 OA
BRANCH  29  31
ATOM     31  C   UNL A   1      34.779  31.621  27.826  1.00  0.00     0.060 A 
ATOM     32  C   UNL A   1      35.011  30.258  28.045  1.00  0.00     0.016 A 
ATOM     33  C   UNL A   1      35.824  32.543  27.928  1.00  0.00     0.016 A 
ATOM     34  C   UNL A   1      36.264  29.822  28.462  1.00  0.00     0.010 A 
ATOM     35  C   UNL A   1      37.088  32.100  28.347  1.00  0.00     0.010 A 
ATOM     36  C   UNL A   1      37.294  30.748  28.672  1.00  0.00    -0.014 A 
BRANCH  36  37
ATOM     37  C   UNL A   1      38.507  30.293  29.400  1.00  0.00     0.031 A 
ATOM     38  C   UNL A   1      38.727  30.754  30.817  1.00  0.00     0.074 A 
ATOM     39  C   UNL A   1      39.354  29.411  28.840  1.00  0.00     0.049 A 
ATOM     40  N   UNL A   1      39.635  30.377  31.678  1.00  0.00    -0.248 NA
ATOM     41  C   UNL A   1      37.796  31.771  31.335  1.00  0.00     0.031 C 
ATOM     42  C   UNL A   1      39.255  28.894  27.477  1.00  0.00     0.029 A 
ATOM     43  N   UNL A   1      40.466  28.795  29.355  1.00  0.00    -0.354 N 
ATOM     44  C   UNL A   1      39.397  31.116  32.831  1.00  0.00     0.074 A 
ATOM     45  C   UNL A   1      38.273  31.982  32.553  1.00  0.00     0.031 C 
ATOM     46  C   UNL A   1      40.272  28.044  27.259  1.00  0.00     0.029 A 
ATOM     47  C   UNL A   1      41.095  27.958  28.464  1.00  0.00     0.049 A 
ATOM     48  H   UNL A   1      40.785  28.938  30.276  1.00  0.00     0.167 HD
ATOM     49  C   UNL A   1      40.036  31.059  34.024  1.00  0.00     0.034 A 
ATOM     50  C   UNL A   1      42.204  27.205  28.608  1.00  0.00     0.034 A 
ATOM     51  C   UNL A   1      41.137  30.181  34.311  1.00  0.00     0.049 A 
ATOM     52  C   UNL A   1      42.896  27.159  29.945  1.00  0.00     0.074 A 
ATOM     53  C   UNL A   1      41.817  30.014  35.505  1.00  0.00     0.029 A 
ATOM     54  N   UNL A   1      41.725  29.325  33.393  1.00  0.00    -0.354 N 
ATOM     55  N   UNL A   1      42.567  27.754  31.067  1.00  0.00    -0.248 NA
ATOM     56  C   UNL A   1      44.087  26.303  30.049  1.00  0.00     0.031 C 
ATOM     57  C   UNL A   1      42.830  29.070  35.302  1.00  0.00     0.029 A 
ATOM     58  C   UNL A   1      42.767  28.635  33.988  1.00  0.00     0.049 A 
ATOM     59  H   UNL A   1      41.442  29.222  32.456  1.00  0.00     0.167 HD
ATOM     60  C   UNL A   1      43.491  27.322  32.014  1.00  0.00     0.074 A 
ATOM     61  C   UNL A   1      44.375  26.394  31.341  1.00  0.00     0.031 C 
ATOM     62  C   UNL A   1      43.609  27.677  33.319  1.00  0.00     0.034 A 
BRANCH  49  63
ATOM     63  C   UNL A   1      39.529  31.951  35.127  1.00  0.00     0.023 A 
ATOM     64  C   UNL A   1      38.516  31.480  35.988  1.00  0.00     0.012 A 
ATOM     65  C   UNL A   1      40.083  33.227  35.345  1.00  0.00     0.148 A 
ATOM     66  C   UNL A   1      38.043  32.276  37.030  1.00  0.00     0.002 A 
ATOM     67  C   UNL A   1      39.631  34.000  36.409  1.00  0.00     0.091 A 
ATOM     68  F   UNL A   1      41.026  33.668  34.500  1.00  0.00    -0.205 F 
ATOM     69  C   UNL A   1      38.606  33.530  37.247  1.00  0.00     0.022 A 
BRANCH  67  70
ATOM     70  S   UNL A   1      40.344  35.600  36.811  1.00  0.00     0.127 S 
ATOM     71  O   UNL A   1      41.748  35.393  36.462  1.00  0.00    -0.237 OA
ATOM     72  O   UNL A   1      39.618  36.497  35.909  1.00  0.00    -0.237 OA
ATOM     73  O   UNL A   1      40.072  35.814  38.225  1.00  0.00    -0.744 OA
ENDBRANCH  67  70
ENDBRANCH  49  63
BRANCH  50  74
ATOM     74  C   UNL A   1      42.695  26.384  27.465  1.00  0.00     0.023 A 
ATOM     75  C   UNL A   1      43.578  26.949  26.526  1.00  0.00     0.012 A 
ATOM     76  C   UNL A   1      42.310  25.036  27.321  1.00  0.00     0.148 A 
ATOM     77  C   UNL A   1      44.048  26.196  25.449  1.00  0.00     0.002 A 
ATOM     78  C   UNL A   1      42.826  24.276  26.278  1.00  0.00     0.091 A 
ATOM     79  F   UNL A   1      41.451  24.521  28.212  1.00  0.00    -0.205 F 
ATOM     80  C   UNL A   1      43.682  24.858  25.331  1.00  0.00     0.022 A 
BRANCH  78  81
ATOM     81  S   UNL A   1      42.513  22.513  26.135  1.00  0.00     0.127 S 
ATOM     82  O   UNL A   1      42.912  22.029  27.454  1.00  0.00    -0.237 OA
ATOM     83  O   UNL A   1      41.074  22.479  25.876  1.00  0.00    -0.237 OA
ATOM     84  O   UNL A   1      43.331  22.062  25.016  1.00  0.00    -0.744 OA
ENDBRANCH  78  81
ENDBRANCH  50  74
BRANCH  62  85
ATOM     85  C   UNL A   1      44.725  27.051  34.113  1.00  0.00     0.023 A 
ATOM     86  C   UNL A   1      45.972  27.704  34.194  1.00  0.00     0.012 A 
ATOM     87  C   UNL A   1      44.525  25.855  34.830  1.00  0.00     0.148 A 
ATOM     88  C   UNL A   1      47.010  27.159  34.948  1.00  0.00     0.002 A 
ATOM     89  C   UNL A   1      45.551  25.341  35.616  1.00  0.00     0.091 A 
ATOM     90  F   UNL A   1      43.340  25.236  34.726  1.00  0.00    -0.205 F 
ATOM     91  C   UNL A   1      46.798  25.985  35.667  1.00  0.00     0.022 A 
BRANCH  89  92
ATOM     92  S   UNL A   1      45.327  23.885  36.645  1.00  0.00     0.127 S 
ATOM     93  O   UNL A   1      44.523  24.415  37.744  1.00  0.00    -0.237 OA
ATOM     94  O   UNL A   1      44.611  22.974  35.751  1.00  0.00    -0.237 OA
ATOM     95  O   UNL A   1      46.669  23.443  37.000  1.00  0.00    -0.744 OA
ENDBRANCH  89  92
ENDBRANCH  62  85
ENDBRANCH  36  37
ENDBRANCH  29  31
ENDBRANCH  28  29
ENDBRANCH  27  28
ENDBRANCH  26  27
ENDBRANCH   1  26
TORSDOF 21
ENDMDL
MODEL 3
REMARK VINA RESULT:     -11.1      5.267      8.396
REMARK SMILES Nc1c(CC(=O)OCCOCCOC(=O)c2ccc(-c3c4nc(c(-c5cccc(S(=O)(=O)[O-])c5F)c5ccc([nH]5)c(-c5cccc(S(=O)(=O)[O-])c5F)c5nc(c(-c6cccc(S(=O)(=O)[O-])c6F)c6ccc3[nH]6)C=C5)C=C4)cc2)cccc1C(=O)c1ccc(Br)cc1
REMARK SMILES IDX 10 1 9 2 8 3 7 4 5 5 6 6 4 7 3 8 2 9 82 10 79 11 81 12 80 13
REMARK SMILES IDX 1 14 83 17 84 18 85 19 86 20 91 21 87 22 90 23 88 24 89 25
REMARK SMILES IDX 11 26 12 27 13 28 14 29 15 30 16 31 17 32 78 33 18 34 77 35
REMARK SMILES IDX 19 36 20 37 21 38 71 39 22 40 76 41 70 42 72 43 23 44 75 45
REMARK SMILES IDX 69 46 68 47 24 49 56 50 36 51 55 52 37 53 40 54 54 55 73 56
REMARK SMILES IDX 38 57 39 58 53 60 74 61 41 62 25 63 26 64 34 65 27 66 29 67
REMARK SMILES IDX 35 68 28 69 30 70 31 71 32 72 33 73 57 74 58 75 66 76 59 77
REMARK SMILES IDX 61 78 67 79 60 80 62 81 63 82 64 83 65 84 42 85 43 86 51 87
REMARK SMILES IDX 44 88 46 89 52 90 45 91 47 92 48 93 49 94 50 95
REMARK H PARENT 1 15 1 16 72 48 40 59
REMARK Flexibility Score: inf
ROOT
ATOM      1  O   UNL A   1      36.864  19.815  25.032  1.00  0.00    -0.374 OA
ENDROOT
BRANCH   1   2
ATOM      2  C   UNL A   1      36.242  21.080  25.284  1.00  0.00     0.202 C 
BRANCH   2   3
ATOM      3  C   UNL A   1      34.755  21.030  25.649  1.00  0.00     0.261 C 
BRANCH   3   4
ATOM      4  O   UNL A   1      33.997  20.329  24.647  1.00  0.00    -0.463 OA
BRANCH   4   5
ATOM      5  C   UNL A   1      32.761  20.821  24.385  1.00  0.00     0.310 C 
ATOM      6  O   UNL A   1      31.769  20.617  25.079  1.00  0.00    -0.252 OA
BRANCH   5   7
ATOM      7  C   UNL A   1      32.694  21.728  23.181  1.00  0.00     0.160 C 
BRANCH   7   8
ATOM      8  C   UNL A   1      32.849  23.226  23.373  1.00  0.00    -0.013 A 
ATOM      9  C   UNL A   1      31.775  24.040  23.800  1.00  0.00     0.047 A 
ATOM     10  C   UNL A   1      32.074  25.358  24.231  1.00  0.00     0.046 A 
ATOM     11  C   UNL A   1      34.128  23.792  23.190  1.00  0.00     0.006 A 
ATOM     12  C   UNL A   1      33.351  25.905  24.013  1.00  0.00     0.014 A 
ATOM     13  C   UNL A   1      34.367  25.132  23.468  1.00  0.00     0.001 A 
BRANCH   9  14
ATOM     14  N   UNL A   1      30.503  23.478  23.921  1.00  0.00    -0.398 N 
ATOM     15  H   UNL A   1      30.379  22.647  24.436  1.00  0.00     0.156 HD
ATOM     16  H   UNL A   1      29.730  23.910  23.490  1.00  0.00     0.156 HD
ENDBRANCH   9  14
BRANCH  10  17
ATOM     17  C   UNL A   1      31.115  26.258  24.942  1.00  0.00     0.195 C 
ATOM     18  O   UNL A   1      30.853  26.070  26.128  1.00  0.00    -0.289 OA
BRANCH  17  19
ATOM     19  C   UNL A   1      30.425  27.366  24.245  1.00  0.00     0.023 A 
ATOM     20  C   UNL A   1      29.188  27.102  23.647  1.00  0.00     0.013 A 
ATOM     21  C   UNL A   1      30.959  28.661  24.227  1.00  0.00     0.013 A 
ATOM     22  C   UNL A   1      28.448  28.147  23.095  1.00  0.00     0.016 A 
ATOM     23  C   UNL A   1      30.217  29.705  23.670  1.00  0.00     0.016 A 
ATOM     24  C   UNL A   1      28.960  29.445  23.120  1.00  0.00     0.018 A 
ATOM     25  Br  UNL A   1      27.934  30.872  22.422  1.00  0.00    -0.051 Br
ENDBRANCH  17  19
ENDBRANCH  10  17
ENDBRANCH   7   8
ENDBRANCH   5   7
ENDBRANCH   4   5
ENDBRANCH   3   4
ENDBRANCH   2   3
ENDBRANCH   1   2
BRANCH   1  26
ATOM     26  C   UNL A   1      38.250  19.834  24.693  1.00  0.00     0.202 C 
BRANCH  26  27
ATOM     27  C   UNL A   1      39.226  19.315  25.754  1.00  0.00     0.261 C 
BRANCH  27  28
ATOM     28  O   UNL A   1      40.476  20.023  25.743  1.00  0.00    -0.460 OA
BRANCH  28  29
ATOM     29  C   UNL A   1      41.065  20.128  26.955  1.00  0.00     0.338 C 
ATOM     30  O   UNL A   1      41.591  19.219  27.593  1.00  0.00    -0.246 OA
BRANCH  29  31
ATOM     31  C   UNL A   1      41.166  21.534  27.387  1.00  0.00     0.060 A 
ATOM     32  C   UNL A   1      40.647  22.497  26.512  1.00  0.00     0.016 A 
ATOM     33  C   UNL A   1      41.838  21.922  28.549  1.00  0.00     0.016 A 
ATOM     34  C   UNL A   1      40.881  23.848  26.744  1.00  0.00     0.010 A 
ATOM     35  C   UNL A   1      42.071  23.286  28.781  1.00  0.00     0.010 A 
ATOM     36  C   UNL A   1      41.645  24.248  27.848  1.00  0.00    -0.014 A 
BRANCH  36  37
ATOM     37  C   UNL A   1      42.127  25.652  27.894  1.00  0.00     0.031 A 
ATOM     38  C   UNL A   1      41.242  26.710  28.499  1.00  0.00     0.074 A 
ATOM     39  C   UNL A   1      43.369  25.966  27.486  1.00  0.00     0.049 A 
ATOM     40  N   UNL A   1      41.513  27.962  28.764  1.00  0.00    -0.248 NA
ATOM     41  C   UNL A   1      39.873  26.304  28.858  1.00  0.00     0.031 C 
ATOM     42  C   UNL A   1      44.318  25.036  26.878  1.00  0.00     0.029 A 
ATOM     43  N   UNL A   1      44.044  27.160  27.524  1.00  0.00    -0.354 N 
ATOM     44  C   UNL A   1      40.349  28.496  29.307  1.00  0.00     0.074 A 
ATOM     45  C   UNL A   1      39.362  27.440  29.312  1.00  0.00     0.031 C 
ATOM     46  C   UNL A   1      45.452  25.697  26.590  1.00  0.00     0.029 A 
ATOM     47  C   UNL A   1      45.310  27.095  26.991  1.00  0.00     0.049 A 
ATOM     48  H   UNL A   1      43.659  27.985  27.897  1.00  0.00     0.167 HD
ATOM     49  C   UNL A   1      40.130  29.744  29.786  1.00  0.00     0.034 A 
ATOM     50  C   UNL A   1      46.246  28.054  26.848  1.00  0.00     0.034 A 
ATOM     51  C   UNL A   1      41.117  30.788  29.806  1.00  0.00     0.049 A 
ATOM     52  C   UNL A   1      45.978  29.434  27.390  1.00  0.00     0.074 A 
ATOM     53  C   UNL A   1      41.006  32.069  30.317  1.00  0.00     0.029 A 
ATOM     54  N   UNL A   1      42.398  30.675  29.287  1.00  0.00    -0.354 N 
ATOM     55  N   UNL A   1      44.923  29.880  28.033  1.00  0.00    -0.248 NA
ATOM     56  C   UNL A   1      47.044  30.433  27.226  1.00  0.00     0.031 C 
ATOM     57  C   UNL A   1      42.214  32.737  30.088  1.00  0.00     0.029 A 
ATOM     58  C   UNL A   1      43.083  31.865  29.453  1.00  0.00     0.049 A 
ATOM     59  H   UNL A   1      42.765  29.866  28.862  1.00  0.00     0.167 HD
ATOM     60  C   UNL A   1      45.213  31.197  28.374  1.00  0.00     0.074 A 
ATOM     61  C   UNL A   1      46.551  31.469  27.892  1.00  0.00     0.031 C 
ATOM     62  C   UNL A   1      44.433  32.106  29.012  1.00  0.00     0.034 A 
BRANCH  49  63
ATOM     63  C   UNL A   1      38.771  30.036  30.367  1.00  0.00     0.023 A 
ATOM     64  C   UNL A   1      38.469  29.600  31.674  1.00  0.00     0.012 A 
ATOM     65  C   UNL A   1      37.816  30.779  29.648  1.00  0.00     0.148 A 
ATOM     66  C   UNL A   1      37.227  29.874  32.245  1.00  0.00     0.002 A 
ATOM     67  C   UNL A   1      36.593  31.081  30.239  1.00  0.00     0.091 A 
ATOM     68  F   UNL A   1      38.111  31.162  28.398  1.00  0.00    -0.205 F 
ATOM     69  C   UNL A   1      36.294  30.623  31.532  1.00  0.00     0.022 A 
BRANCH  67  70
ATOM     70  S   UNL A   1      35.354  32.098  29.427  1.00  0.00     0.127 S 
ATOM     71  O   UNL A   1      34.430  32.371  30.526  1.00  0.00    -0.237 OA
ATOM     72  O   UNL A   1      36.140  33.254  28.991  1.00  0.00    -0.237 OA
ATOM     73  O   UNL A   1      34.819  31.286  28.343  1.00  0.00    -0.744 OA
ENDBRANCH  67  70
ENDBRANCH  49  63
BRANCH  50  74
ATOM     74  C   UNL A   1      47.554  27.724  26.214  1.00  0.00     0.023 A 
ATOM     75  C   UNL A   1      48.646  27.346  27.019  1.00  0.00     0.012 A 
ATOM     76  C   UNL A   1      47.712  27.757  24.815  1.00  0.00     0.148 A 
ATOM     77  C   UNL A   1      49.878  27.035  26.444  1.00  0.00     0.002 A 
ATOM     78  C   UNL A   1      48.926  27.391  24.245  1.00  0.00     0.091 A 
ATOM     79  F   UNL A   1      46.667  28.141  24.066  1.00  0.00    -0.205 F 
ATOM     80  C   UNL A   1      50.015  27.045  25.058  1.00  0.00     0.022 A 
BRANCH  78  81
ATOM     81  S   UNL A   1      49.143  27.247  22.468  1.00  0.00     0.127 S 
ATOM     82  O   UNL A   1      48.628  28.531  21.998  1.00  0.00    -0.237 OA
ATOM     83  O   UNL A   1      50.592  27.084  22.350  1.00  0.00    -0.237 OA
ATOM     84  O   UNL A   1      48.377  26.071  22.077  1.00  0.00    -0.744 OA
ENDBRANCH  78  81
ENDBRANCH  50  74
BRANCH  62  85
ATOM     85  C   UNL A   1      45.009  33.480  29.241  1.00  0.00     0.023 A 
ATOM     86  C   UNL A   1      45.729  33.743  30.424  1.00  0.00     0.012 A 
ATOM     87  C   UNL A   1      44.896  34.487  28.263  1.00  0.00     0.148 A 
ATOM     88  C   UNL A   1      46.297  34.997  30.644  1.00  0.00     0.002 A 
ATOM     89  C   UNL A   1      45.504  35.721  28.469  1.00  0.00     0.091 A 
ATOM     90  F   UNL A   1      44.191  34.227  27.153  1.00  0.00    -0.205 F 
ATOM     91  C   UNL A   1      46.195  35.982  29.664  1.00  0.00     0.022 A 
BRANCH  89  92
ATOM     92  S   UNL A   1      45.497  37.010  27.218  1.00  0.00     0.127 S 
ATOM     93  O   UNL A   1      46.252  36.381  26.136  1.00  0.00    -0.237 OA
ATOM     94  O   UNL A   1      44.069  37.178  26.945  1.00  0.00    -0.237 OA
ATOM     95  O   UNL A   1      46.128  38.166  27.839  1.00  0.00    -0.744 OA
ENDBRANCH  89  92
ENDBRANCH  62  85
ENDBRANCH  36  37
ENDBRANCH  29  31
ENDBRANCH  28  29
ENDBRANCH  27  28
ENDBRANCH  26  27
ENDBRANCH   1  26
TORSDOF 21
ENDMDL
