MODEL 1
REMARK VINA RESULT:     -10.7      0.000      0.000
REMARK SMILES CS(=O)(=O)c1ccc(-c2cc(Cl)cnc2-c2ccc(C(=O)OCCOCCOC(=O)c3ccc(-c4c5nc(c(-c6cccc(S(=O)(=O)[O-])c6F)c6ccc([nH]6)c(-c6cccc(S(=O)(=O)[O-])c6F)c6nc(c(-c7cccc(S(=O)(=O)[O-])c7F)c7ccc4[nH]7)C=C6)C=C5)cc3)nc2)cc1
REMARK SMILES IDX 25 1 24 2 23 3 22 4 20 5 21 6 19 7 16 8 17 9 95 10 18 11
REMARK SMILES IDX 94 12 15 13 9 14 10 15 11 16 14 17 12 18 13 19 8 20 5 21
REMARK SMILES IDX 6 22 97 23 7 24 96 25 2 26 1 27 3 28 4 29 26 30 27 31 28 32
REMARK SMILES IDX 29 33 30 34 31 35 32 36 93 37 33 38 92 39 34 40 35 41 36 42
REMARK SMILES IDX 86 43 37 44 91 45 85 46 87 47 38 48 90 49 84 50 83 51 39 53
REMARK SMILES IDX 71 54 51 55 70 56 52 57 55 58 69 59 88 60 53 61 54 62 68 64
REMARK SMILES IDX 89 65 56 66 40 67 41 68 49 69 42 70 44 71 50 72 43 73 45 74
REMARK SMILES IDX 46 75 47 76 48 77 72 78 73 79 81 80 74 81 76 82 82 83 75 84
REMARK SMILES IDX 77 85 78 86 79 87 80 88 57 89 58 90 66 91 59 92 61 93 67 94
REMARK SMILES IDX 60 95 62 96 63 97 64 98 65 99
REMARK H PARENT 87 52 55 63
REMARK Flexibility Score: inf
ROOT
ATOM      1  O   UNL A   1      30.595  29.349  24.223  1.00  0.00    -0.374 OA
ENDROOT
BRANCH   1   2
ATOM      2  C   UNL A   1      31.203  28.948  22.994  1.00  0.00     0.202 C 
BRANCH   2   3
ATOM      3  C   UNL A   1      31.470  27.452  22.796  1.00  0.00     0.261 C 
BRANCH   3   4
ATOM      4  O   UNL A   1      32.868  27.199  22.599  1.00  0.00    -0.459 OA
BRANCH   4   5
ATOM      5  C   UNL A   1      33.498  26.615  23.652  1.00  0.00     0.356 C 
ATOM      6  O   UNL A   1      34.007  27.188  24.601  1.00  0.00    -0.244 OA
BRANCH   5   7
ATOM      7  C   UNL A   1      33.338  25.133  23.562  1.00  0.00     0.148 A 
ATOM      8  C   UNL A   1      33.180  22.393  23.690  1.00  0.00     0.019 A 
ATOM      9  C   UNL A   1      33.797  23.004  22.589  1.00  0.00     0.014 A 
ATOM     10  C   UNL A   1      32.552  23.227  24.609  1.00  0.00     0.122 A 
ATOM     11  C   UNL A   1      33.885  24.394  22.519  1.00  0.00     0.037 A 
ATOM     12  N   UNL A   1      32.628  24.573  24.581  1.00  0.00    -0.249 NA
BRANCH   8  13
ATOM     13  C   UNL A   1      33.386  20.978  24.012  1.00  0.00     0.080 A 
ATOM     14  C   UNL A   1      34.574  20.541  24.652  1.00  0.00     0.010 A 
ATOM     15  C   UNL A   1      34.686  19.173  24.936  1.00  0.00     0.033 A 
ATOM     16  C   UNL A   1      33.638  18.317  24.620  1.00  0.00     0.060 A 
ATOM     17  N   UNL A   1      32.347  20.155  23.720  1.00  0.00    -0.254 NA
ATOM     18  Cl  UNL A   1      33.746  16.642  24.979  1.00  0.00    -0.083 Cl
ATOM     19  C   UNL A   1      32.500  18.844  24.029  1.00  0.00     0.132 A 
BRANCH  14  20
ATOM     20  C   UNL A   1      35.644  21.483  25.035  1.00  0.00    -0.016 A 
ATOM     21  C   UNL A   1      37.773  23.024  26.020  1.00  0.00     0.067 A 
ATOM     22  C   UNL A   1      38.015  22.069  25.037  1.00  0.00     0.021 A 
ATOM     23  C   UNL A   1      36.477  23.244  26.497  1.00  0.00     0.021 A 
ATOM     24  C   UNL A   1      36.951  21.320  24.534  1.00  0.00     0.010 A 
ATOM     25  C   UNL A   1      35.417  22.479  25.998  1.00  0.00     0.010 A 
BRANCH  21  26
ATOM     26  S   UNL A   1      39.134  23.908  26.746  1.00  0.00     0.175 S 
ATOM     27  C   UNL A   1      38.352  25.085  27.815  1.00  0.00     0.163 C 
ATOM     28  O   UNL A   1      39.786  24.654  25.685  1.00  0.00    -0.224 OA
ATOM     29  O   UNL A   1      39.862  22.955  27.552  1.00  0.00    -0.224 OA
ENDBRANCH  21  26
ENDBRANCH  14  20
ENDBRANCH   8  13
ENDBRANCH   5   7
ENDBRANCH   4   5
ENDBRANCH   3   4
ENDBRANCH   2   3
ENDBRANCH   1   2
BRANCH   1  30
ATOM     30  C   UNL A   1      31.345  29.171  25.424  1.00  0.00     0.202 C 
BRANCH  30  31
ATOM     31  C   UNL A   1      32.524  30.119  25.675  1.00  0.00     0.261 C 
BRANCH  31  32
ATOM     32  O   UNL A   1      32.872  30.225  27.065  1.00  0.00    -0.460 OA
BRANCH  32  33
ATOM     33  C   UNL A   1      33.480  31.389  27.405  1.00  0.00     0.338 C 
ATOM     34  O   UNL A   1      32.962  32.490  27.506  1.00  0.00    -0.246 OA
BRANCH  33  35
ATOM     35  C   UNL A   1      34.870  31.128  27.824  1.00  0.00     0.060 A 
ATOM     36  C   UNL A   1      35.199  29.818  28.194  1.00  0.00     0.016 A 
ATOM     37  C   UNL A   1      35.811  32.153  27.925  1.00  0.00     0.016 A 
ATOM     38  C   UNL A   1      36.459  29.536  28.717  1.00  0.00     0.010 A 
ATOM     39  C   UNL A   1      37.073  31.869  28.455  1.00  0.00     0.010 A 
ATOM     40  C   UNL A   1      37.391  30.568  28.886  1.00  0.00    -0.014 A 
BRANCH  40  41
ATOM     41  C   UNL A   1      38.649  30.309  29.630  1.00  0.00     0.031 A 
ATOM     42  C   UNL A   1      39.688  29.406  29.022  1.00  0.00     0.074 A 
ATOM     43  C   UNL A   1      38.862  30.872  30.833  1.00  0.00     0.049 A 
ATOM     44  N   UNL A   1      40.835  29.015  29.514  1.00  0.00    -0.248 NA
ATOM     45  C   UNL A   1      39.394  28.868  27.683  1.00  0.00     0.031 C 
ATOM     46  C   UNL A   1      37.934  31.767  31.523  1.00  0.00     0.029 A 
ATOM     47  N   UNL A   1      39.920  30.751  31.699  1.00  0.00    -0.354 N 
ATOM     48  C   UNL A   1      41.385  28.164  28.563  1.00  0.00     0.074 A 
ATOM     49  C   UNL A   1      40.442  28.084  27.470  1.00  0.00     0.031 C 
ATOM     50  C   UNL A   1      38.452  32.092  32.720  1.00  0.00     0.029 A 
ATOM     51  C   UNL A   1      39.730  31.407  32.892  1.00  0.00     0.049 A 
ATOM     52  H   UNL A   1      40.736  30.243  31.486  1.00  0.00     0.167 HD
ATOM     53  C   UNL A   1      42.575  27.517  28.592  1.00  0.00     0.034 A 
ATOM     54  C   UNL A   1      40.491  31.430  34.005  1.00  0.00     0.034 A 
ATOM     55  C   UNL A   1      43.520  27.614  29.671  1.00  0.00     0.049 A 
ATOM     56  C   UNL A   1      41.799  30.683  34.018  1.00  0.00     0.074 A 
ATOM     57  C   UNL A   1      44.774  27.037  29.771  1.00  0.00     0.029 A 
ATOM     58  N   UNL A   1      43.314  28.324  30.844  1.00  0.00    -0.354 N 
ATOM     59  N   UNL A   1      42.358  29.975  33.066  1.00  0.00    -0.248 NA
ATOM     60  C   UNL A   1      42.598  30.763  35.251  1.00  0.00     0.031 C 
ATOM     61  C   UNL A   1      45.312  27.370  31.018  1.00  0.00     0.029 A 
ATOM     62  C   UNL A   1      44.410  28.188  31.679  1.00  0.00     0.049 A 
ATOM     63  H   UNL A   1      42.507  28.847  31.053  1.00  0.00     0.167 HD
ATOM     64  C   UNL A   1      43.588  29.562  33.569  1.00  0.00     0.074 A 
ATOM     65  C   UNL A   1      43.701  30.114  34.902  1.00  0.00     0.031 C 
ATOM     66  C   UNL A   1      44.534  28.787  32.983  1.00  0.00     0.034 A 
BRANCH  53  67
ATOM     67  C   UNL A   1      42.937  26.659  27.408  1.00  0.00     0.023 A 
ATOM     68  C   UNL A   1      43.436  27.260  26.234  1.00  0.00     0.012 A 
ATOM     69  C   UNL A   1      42.849  25.255  27.481  1.00  0.00     0.148 A 
ATOM     70  C   UNL A   1      43.812  26.479  25.142  1.00  0.00     0.002 A 
ATOM     71  C   UNL A   1      43.268  24.482  26.406  1.00  0.00     0.091 A 
ATOM     72  F   UNL A   1      42.353  24.704  28.599  1.00  0.00    -0.205 F 
ATOM     73  C   UNL A   1      43.740  25.092  25.231  1.00  0.00     0.022 A 
BRANCH  71  74
ATOM     74  S   UNL A   1      43.290  22.686  26.452  1.00  0.00     0.127 S 
ATOM     75  O   UNL A   1      42.306  22.353  25.423  1.00  0.00    -0.237 OA
ATOM     76  O   UNL A   1      44.676  22.386  26.090  1.00  0.00    -0.237 OA
ATOM     77  O   UNL A   1      42.921  22.313  27.811  1.00  0.00    -0.744 OA
ENDBRANCH  71  74
ENDBRANCH  53  67
BRANCH  54  78
ATOM     78  C   UNL A   1      40.049  32.210  35.197  1.00  0.00     0.023 A 
ATOM     79  C   UNL A   1      40.537  33.514  35.396  1.00  0.00     0.012 A 
ATOM     80  C   UNL A   1      39.149  31.661  36.132  1.00  0.00     0.148 A 
ATOM     81  C   UNL A   1      40.168  34.248  36.525  1.00  0.00     0.002 A 
ATOM     82  C   UNL A   1      38.742  32.417  37.225  1.00  0.00     0.091 A 
ATOM     83  F   UNL A   1      38.709  30.411  35.933  1.00  0.00    -0.205 F 
ATOM     84  C   UNL A   1      39.264  33.703  37.434  1.00  0.00     0.022 A 
BRANCH  82  85
ATOM     85  S   UNL A   1      37.494  31.841  38.382  1.00  0.00     0.127 S 
ATOM     86  O   UNL A   1      38.155  32.055  39.666  1.00  0.00    -0.237 OA
ATOM     87  O   UNL A   1      36.382  32.750  38.102  1.00  0.00    -0.237 OA
ATOM     88  O   UNL A   1      37.239  30.451  38.025  1.00  0.00    -0.744 OA
ENDBRANCH  82  85
ENDBRANCH  54  78
BRANCH  66  89
ATOM     89  C   UNL A   1      45.802  28.522  33.755  1.00  0.00     0.023 A 
ATOM     90  C   UNL A   1      46.892  29.407  33.647  1.00  0.00     0.012 A 
ATOM     91  C   UNL A   1      45.883  27.432  34.646  1.00  0.00     0.148 A 
ATOM     92  C   UNL A   1      48.056  29.192  34.385  1.00  0.00     0.002 A 
ATOM     93  C   UNL A   1      47.024  27.255  35.418  1.00  0.00     0.091 A 
ATOM     94  F   UNL A   1      44.840  26.592  34.724  1.00  0.00    -0.205 F 
ATOM     95  C   UNL A   1      48.117  28.125  35.278  1.00  0.00     0.022 A 
BRANCH  93  96
ATOM     96  S   UNL A   1      47.156  25.968  36.665  1.00  0.00     0.127 S 
ATOM     97  O   UNL A   1      47.361  26.752  37.881  1.00  0.00    -0.237 OA
ATOM     98  O   UNL A   1      45.850  25.314  36.574  1.00  0.00    -0.237 OA
ATOM     99  O   UNL A   1      48.280  25.133  36.264  1.00  0.00    -0.744 OA
ENDBRANCH  93  96
ENDBRANCH  66  89
ENDBRANCH  40  41
ENDBRANCH  33  35
ENDBRANCH  32  33
ENDBRANCH  31  32
ENDBRANCH  30  31
ENDBRANCH   1  30
TORSDOF 20
ENDMDL
MODEL 2
REMARK VINA RESULT:     -10.6      1.863      2.214
REMARK SMILES CS(=O)(=O)c1ccc(-c2cc(Cl)cnc2-c2ccc(C(=O)OCCOCCOC(=O)c3ccc(-c4c5nc(c(-c6cccc(S(=O)(=O)[O-])c6F)c6ccc([nH]6)c(-c6cccc(S(=O)(=O)[O-])c6F)c6nc(c(-c7cccc(S(=O)(=O)[O-])c7F)c7ccc4[nH]7)C=C6)C=C5)cc3)nc2)cc1
REMARK SMILES IDX 25 1 24 2 23 3 22 4 20 5 21 6 19 7 16 8 17 9 95 10 18 11
REMARK SMILES IDX 94 12 15 13 9 14 10 15 11 16 14 17 12 18 13 19 8 20 5 21
REMARK SMILES IDX 6 22 97 23 7 24 96 25 2 26 1 27 3 28 4 29 26 30 27 31 28 32
REMARK SMILES IDX 29 33 30 34 31 35 32 36 93 37 33 38 92 39 34 40 35 41 36 42
REMARK SMILES IDX 86 43 37 44 91 45 85 46 87 47 38 48 90 49 84 50 83 51 39 53
REMARK SMILES IDX 71 54 51 55 70 56 52 57 55 58 69 59 88 60 53 61 54 62 68 64
REMARK SMILES IDX 89 65 56 66 40 67 41 68 49 69 42 70 44 71 50 72 43 73 45 74
REMARK SMILES IDX 46 75 47 76 48 77 72 78 73 79 81 80 74 81 76 82 82 83 75 84
REMARK SMILES IDX 77 85 78 86 79 87 80 88 57 89 58 90 66 91 59 92 61 93 67 94
REMARK SMILES IDX 60 95 62 96 63 97 64 98 65 99
REMARK H PARENT 87 52 55 63
REMARK Flexibility Score: inf
ROOT
ATOM      1  O   UNL A   1      30.776  29.855  24.388  1.00  0.00    -0.374 OA
ENDROOT
BRANCH   1   2
ATOM      2  C   UNL A   1      31.365  29.063  23.355  1.00  0.00     0.202 C 
BRANCH   2   3
ATOM      3  C   UNL A   1      31.531  27.564  23.627  1.00  0.00     0.261 C 
BRANCH   3   4
ATOM      4  O   UNL A   1      32.893  27.154  23.438  1.00  0.00    -0.459 OA
BRANCH   4   5
ATOM      5  C   UNL A   1      33.434  26.469  24.481  1.00  0.00     0.356 C 
ATOM      6  O   UNL A   1      33.801  26.941  25.545  1.00  0.00    -0.244 OA
BRANCH   5   7
ATOM      7  C   UNL A   1      33.368  25.005  24.198  1.00  0.00     0.148 A 
ATOM      8  C   UNL A   1      33.358  22.266  23.976  1.00  0.00     0.019 A 
ATOM      9  C   UNL A   1      34.032  23.040  23.020  1.00  0.00     0.014 A 
ATOM     10  C   UNL A   1      32.606  22.948  24.927  1.00  0.00     0.122 A 
ATOM     11  C   UNL A   1      34.045  24.430  23.128  1.00  0.00     0.037 A 
ATOM     12  N   UNL A   1      32.605  24.289  25.069  1.00  0.00    -0.249 NA
BRANCH   8  13
ATOM     13  C   UNL A   1      33.617  20.833  24.142  1.00  0.00     0.080 A 
ATOM     14  C   UNL A   1      34.836  20.372  24.700  1.00  0.00     0.010 A 
ATOM     15  C   UNL A   1      34.998  18.986  24.835  1.00  0.00     0.033 A 
ATOM     16  C   UNL A   1      33.967  18.133  24.460  1.00  0.00     0.060 A 
ATOM     17  N   UNL A   1      32.595  20.010  23.793  1.00  0.00    -0.254 NA
ATOM     18  Cl  UNL A   1      34.137  16.434  24.638  1.00  0.00    -0.083 Cl
ATOM     19  C   UNL A   1      32.797  18.681  23.958  1.00  0.00     0.132 A 
BRANCH  14  20
ATOM     20  C   UNL A   1      35.888  21.304  25.151  1.00  0.00    -0.016 A 
ATOM     21  C   UNL A   1      37.964  22.825  26.270  1.00  0.00     0.067 A 
ATOM     22  C   UNL A   1      38.260  21.869  25.303  1.00  0.00     0.021 A 
ATOM     23  C   UNL A   1      36.643  23.056  26.666  1.00  0.00     0.021 A 
ATOM     24  C   UNL A   1      37.223  21.130  24.733  1.00  0.00     0.010 A 
ATOM     25  C   UNL A   1      35.610  22.301  26.100  1.00  0.00     0.010 A 
BRANCH  21  26
ATOM     26  S   UNL A   1      39.285  23.697  27.082  1.00  0.00     0.175 S 
ATOM     27  C   UNL A   1      40.117  24.531  25.759  1.00  0.00     0.163 C 
ATOM     28  O   UNL A   1      40.201  22.704  27.613  1.00  0.00    -0.224 OA
ATOM     29  O   UNL A   1      38.664  24.682  27.938  1.00  0.00    -0.224 OA
ENDBRANCH  21  26
ENDBRANCH  14  20
ENDBRANCH   8  13
ENDBRANCH   5   7
ENDBRANCH   4   5
ENDBRANCH   3   4
ENDBRANCH   2   3
ENDBRANCH   1   2
BRANCH   1  30
ATOM     30  C   UNL A   1      31.399  29.843  25.672  1.00  0.00     0.202 C 
BRANCH  30  31
ATOM     31  C   UNL A   1      32.908  30.113  25.734  1.00  0.00     0.261 C 
BRANCH  31  32
ATOM     32  O   UNL A   1      33.418  30.130  27.078  1.00  0.00    -0.460 OA
BRANCH  32  33
ATOM     33  C   UNL A   1      34.025  31.289  27.434  1.00  0.00     0.338 C 
ATOM     34  O   UNL A   1      33.543  32.411  27.409  1.00  0.00    -0.246 OA
BRANCH  33  35
ATOM     35  C   UNL A   1      35.337  31.006  28.044  1.00  0.00     0.060 A 
ATOM     36  C   UNL A   1      35.546  29.720  28.561  1.00  0.00     0.016 A 
ATOM     37  C   UNL A   1      36.314  31.993  28.175  1.00  0.00     0.016 A 
ATOM     38  C   UNL A   1      36.717  29.431  29.259  1.00  0.00     0.010 A 
ATOM     39  C   UNL A   1      37.486  31.701  28.882  1.00  0.00     0.010 A 
ATOM     40  C   UNL A   1      37.677  30.431  29.457  1.00  0.00    -0.014 A 
BRANCH  40  41
ATOM     41  C   UNL A   1      38.819  30.184  30.371  1.00  0.00     0.031 A 
ATOM     42  C   UNL A   1      39.894  29.216  29.958  1.00  0.00     0.074 A 
ATOM     43  C   UNL A   1      38.897  30.817  31.556  1.00  0.00     0.049 A 
ATOM     44  N   UNL A   1      40.953  28.824  30.616  1.00  0.00    -0.248 NA
ATOM     45  C   UNL A   1      39.754  28.602  28.626  1.00  0.00     0.031 C 
ATOM     46  C   UNL A   1      37.922  31.780  32.066  1.00  0.00     0.029 A 
ATOM     47  N   UNL A   1      39.831  30.720  32.558  1.00  0.00    -0.354 N 
ATOM     48  C   UNL A   1      41.589  27.899  29.797  1.00  0.00     0.074 A 
ATOM     49  C   UNL A   1      40.791  27.777  28.598  1.00  0.00     0.031 C 
ATOM     50  C   UNL A   1      38.294  32.165  33.298  1.00  0.00     0.029 A 
ATOM     51  C   UNL A   1      39.515  31.457  33.675  1.00  0.00     0.049 A 
ATOM     52  H   UNL A   1      40.648  30.177  32.483  1.00  0.00     0.167 HD
ATOM     53  C   UNL A   1      42.742  27.222  30.018  1.00  0.00     0.034 A 
ATOM     54  C   UNL A   1      40.127  31.529  34.873  1.00  0.00     0.034 A 
ATOM     55  C   UNL A   1      43.544  27.361  31.203  1.00  0.00     0.049 A 
ATOM     56  C   UNL A   1      41.395  30.747  35.101  1.00  0.00     0.074 A 
ATOM     57  C   UNL A   1      44.754  26.756  31.498  1.00  0.00     0.029 A 
ATOM     58  N   UNL A   1      43.216  28.149  32.295  1.00  0.00    -0.354 N 
ATOM     59  N   UNL A   1      42.045  29.964  34.273  1.00  0.00    -0.248 NA
ATOM     60  C   UNL A   1      42.033  30.882  36.419  1.00  0.00     0.031 C 
ATOM     61  C   UNL A   1      45.139  27.152  32.782  1.00  0.00     0.029 A 
ATOM     62  C   UNL A   1      44.191  28.035  33.271  1.00  0.00     0.049 A 
ATOM     63  H   UNL A   1      42.409  28.707  32.366  1.00  0.00     0.167 HD
ATOM     64  C   UNL A   1      43.185  29.550  34.954  1.00  0.00     0.074 A 
ATOM     65  C   UNL A   1      43.147  30.182  36.255  1.00  0.00     0.031 C 
ATOM     66  C   UNL A   1      44.169  28.712  34.543  1.00  0.00     0.034 A 
BRANCH  53  67
ATOM     67  C   UNL A   1      43.220  26.281  28.944  1.00  0.00     0.023 A 
ATOM     68  C   UNL A   1      42.783  24.941  28.941  1.00  0.00     0.012 A 
ATOM     69  C   UNL A   1      44.047  26.740  27.899  1.00  0.00     0.148 A 
ATOM     70  C   UNL A   1      43.185  24.065  27.933  1.00  0.00     0.002 A 
ATOM     71  C   UNL A   1      44.406  25.873  26.874  1.00  0.00     0.091 A 
ATOM     72  F   UNL A   1      44.469  28.012  27.930  1.00  0.00    -0.205 F 
ATOM     73  C   UNL A   1      43.986  24.533  26.895  1.00  0.00     0.022 A 
BRANCH  71  74
ATOM     74  S   UNL A   1      45.368  26.399  25.451  1.00  0.00     0.127 S 
ATOM     75  O   UNL A   1      46.673  26.657  26.057  1.00  0.00    -0.237 OA
ATOM     76  O   UNL A   1      45.317  25.216  24.591  1.00  0.00    -0.237 OA
ATOM     77  O   UNL A   1      44.688  27.571  24.916  1.00  0.00    -0.744 OA
ENDBRANCH  71  74
ENDBRANCH  53  67
BRANCH  54  78
ATOM     78  C   UNL A   1      39.565  32.395  35.950  1.00  0.00     0.023 A 
ATOM     79  C   UNL A   1      38.597  31.874  36.829  1.00  0.00     0.012 A 
ATOM     80  C   UNL A   1      39.986  33.731  36.102  1.00  0.00     0.148 A 
ATOM     81  C   UNL A   1      38.030  32.678  37.819  1.00  0.00     0.002 A 
ATOM     82  C   UNL A   1      39.457  34.510  37.125  1.00  0.00     0.091 A 
ATOM     83  F   UNL A   1      40.896  34.212  35.244  1.00  0.00    -0.205 F 
ATOM     84  C   UNL A   1      38.466  33.992  37.972  1.00  0.00     0.022 A 
BRANCH  82  85
ATOM     85  S   UNL A   1      40.044  36.172  37.469  1.00  0.00     0.127 S 
ATOM     86  O   UNL A   1      39.116  36.608  38.507  1.00  0.00    -0.237 OA
ATOM     87  O   UNL A   1      41.410  35.920  37.930  1.00  0.00    -0.237 OA
ATOM     88  O   UNL A   1      39.961  36.889  36.203  1.00  0.00    -0.744 OA
ENDBRANCH  82  85
ENDBRANCH  54  78
BRANCH  66  89
ATOM     89  C   UNL A   1      45.318  28.461  35.487  1.00  0.00     0.023 A 
ATOM     90  C   UNL A   1      46.484  29.246  35.404  1.00  0.00     0.012 A 
ATOM     91  C   UNL A   1      45.208  27.492  36.506  1.00  0.00     0.148 A 
ATOM     92  C   UNL A   1      47.538  29.047  36.297  1.00  0.00     0.002 A 
ATOM     93  C   UNL A   1      46.239  27.336  37.424  1.00  0.00     0.091 A 
ATOM     94  F   UNL A   1      44.096  26.744  36.559  1.00  0.00    -0.205 F 
ATOM     95  C   UNL A   1      47.410  28.102  37.312  1.00  0.00     0.022 A 
BRANCH  93  96
ATOM     96  S   UNL A   1      46.124  26.215  38.823  1.00  0.00     0.127 S 
ATOM     97  O   UNL A   1      47.476  26.286  39.374  1.00  0.00    -0.237 OA
ATOM     98  O   UNL A   1      45.096  26.852  39.646  1.00  0.00    -0.237 OA
ATOM     99  O   UNL A   1      45.743  24.922  38.272  1.00  0.00    -0.744 OA
ENDBRANCH  93  96
ENDBRANCH  66  89
ENDBRANCH  40  41
ENDBRANCH  33  35
ENDBRANCH  32  33
ENDBRANCH  31  32
ENDBRANCH  30  31
ENDBRANCH   1  30
TORSDOF 20
ENDMDL
MODEL 3
REMARK VINA RESULT:     -10.3      5.872     10.994
REMARK SMILES CS(=O)(=O)c1ccc(-c2cc(Cl)cnc2-c2ccc(C(=O)OCCOCCOC(=O)c3ccc(-c4c5nc(c(-c6cccc(S(=O)(=O)[O-])c6F)c6ccc([nH]6)c(-c6cccc(S(=O)(=O)[O-])c6F)c6nc(c(-c7cccc(S(=O)(=O)[O-])c7F)c7ccc4[nH]7)C=C6)C=C5)cc3)nc2)cc1
REMARK SMILES IDX 25 1 24 2 23 3 22 4 20 5 21 6 19 7 16 8 17 9 95 10 18 11
REMARK SMILES IDX 94 12 15 13 9 14 10 15 11 16 14 17 12 18 13 19 8 20 5 21
REMARK SMILES IDX 6 22 97 23 7 24 96 25 2 26 1 27 3 28 4 29 26 30 27 31 28 32
REMARK SMILES IDX 29 33 30 34 31 35 32 36 93 37 33 38 92 39 34 40 35 41 36 42
REMARK SMILES IDX 86 43 37 44 91 45 85 46 87 47 38 48 90 49 84 50 83 51 39 53
REMARK SMILES IDX 71 54 51 55 70 56 52 57 55 58 69 59 88 60 53 61 54 62 68 64
REMARK SMILES IDX 89 65 56 66 40 67 41 68 49 69 42 70 44 71 50 72 43 73 45 74
REMARK SMILES IDX 46 75 47 76 48 77 72 78 73 79 81 80 74 81 76 82 82 83 75 84
REMARK SMILES IDX 77 85 78 86 79 87 80 88 57 89 58 90 66 91 59 92 61 93 67 94
REMARK SMILES IDX 60 95 62 96 63 97 64 98 65 99
REMARK H PARENT 87 52 55 63
REMARK Flexibility Score: inf
ROOT
ATOM      1  O   UNL A   1      38.178  34.249  38.651  1.00  0.00    -0.374 OA
ENDROOT
BRANCH   1   2
ATOM      2  C   UNL A   1      37.573  33.011  38.276  1.00  0.00     0.202 C 
BRANCH   2   3
ATOM      3  C   UNL A   1      37.806  32.520  36.843  1.00  0.00     0.261 C 
BRANCH   3   4
ATOM      4  O   UNL A   1      37.823  33.617  35.918  1.00  0.00    -0.459 OA
BRANCH   4   5
ATOM      5  C   UNL A   1      36.946  33.508  34.886  1.00  0.00     0.356 C 
ATOM      6  O   UNL A   1      35.959  34.200  34.696  1.00  0.00    -0.244 OA
BRANCH   5   7
ATOM      7  C   UNL A   1      37.458  32.503  33.907  1.00  0.00     0.148 A 
ATOM      8  C   UNL A   1      38.431  30.899  31.899  1.00  0.00     0.019 A 
ATOM      9  C   UNL A   1      37.215  30.577  32.520  1.00  0.00     0.014 A 
ATOM     10  C   UNL A   1      39.155  31.959  32.435  1.00  0.00     0.122 A 
ATOM     11  C   UNL A   1      36.713  31.389  33.537  1.00  0.00     0.037 A 
ATOM     12  N   UNL A   1      38.696  32.772  33.407  1.00  0.00    -0.249 NA
BRANCH   8  13
ATOM     13  C   UNL A   1      38.818  30.333  30.603  1.00  0.00     0.080 A 
ATOM     14  C   UNL A   1      38.166  30.733  29.409  1.00  0.00     0.010 A 
ATOM     15  C   UNL A   1      38.606  30.152  28.211  1.00  0.00     0.033 A 
ATOM     16  C   UNL A   1      39.665  29.252  28.231  1.00  0.00     0.060 A 
ATOM     17  N   UNL A   1      39.867  29.473  30.632  1.00  0.00    -0.254 NA
ATOM     18  Cl  UNL A   1      40.232  28.546  26.773  1.00  0.00    -0.083 Cl
ATOM     19  C   UNL A   1      40.262  28.952  29.445  1.00  0.00     0.132 A 
BRANCH  14  20
ATOM     20  C   UNL A   1      37.087  31.740  29.410  1.00  0.00    -0.016 A 
ATOM     21  C   UNL A   1      35.037  33.621  29.042  1.00  0.00     0.067 A 
ATOM     22  C   UNL A   1      34.718  32.270  29.141  1.00  0.00     0.021 A 
ATOM     23  C   UNL A   1      36.362  34.052  29.155  1.00  0.00     0.021 A 
ATOM     24  C   UNL A   1      35.738  31.341  29.345  1.00  0.00     0.010 A 
ATOM     25  C   UNL A   1      37.381  33.112  29.346  1.00  0.00     0.010 A 
BRANCH  21  26
ATOM     26  S   UNL A   1      33.762  34.804  28.673  1.00  0.00     0.175 S 
ATOM     27  C   UNL A   1      33.217  35.350  30.268  1.00  0.00     0.163 C 
ATOM     28  O   UNL A   1      32.660  34.083  28.062  1.00  0.00    -0.224 OA
ATOM     29  O   UNL A   1      34.406  35.908  27.997  1.00  0.00    -0.224 OA
ENDBRANCH  21  26
ENDBRANCH  14  20
ENDBRANCH   8  13
ENDBRANCH   5   7
ENDBRANCH   4   5
ENDBRANCH   3   4
ENDBRANCH   2   3
ENDBRANCH   1   2
BRANCH   1  30
ATOM     30  C   UNL A   1      39.065  34.243  39.770  1.00  0.00     0.202 C 
BRANCH  30  31
ATOM     31  C   UNL A   1      40.547  33.953  39.501  1.00  0.00     0.261 C 
BRANCH  31  32
ATOM     32  O   UNL A   1      41.378  35.120  39.627  1.00  0.00    -0.460 OA
BRANCH  32  33
ATOM     33  C   UNL A   1      41.259  36.006  38.607  1.00  0.00     0.338 C 
ATOM     34  O   UNL A   1      40.962  37.187  38.687  1.00  0.00    -0.246 OA
BRANCH  33  35
ATOM     35  C   UNL A   1      41.719  35.391  37.348  1.00  0.00     0.060 A 
ATOM     36  C   UNL A   1      40.753  35.106  36.375  1.00  0.00     0.016 A 
ATOM     37  C   UNL A   1      43.054  35.032  37.151  1.00  0.00     0.016 A 
ATOM     38  C   UNL A   1      41.108  34.413  35.220  1.00  0.00     0.010 A 
ATOM     39  C   UNL A   1      43.407  34.332  35.993  1.00  0.00     0.010 A 
ATOM     40  C   UNL A   1      42.430  33.987  35.040  1.00  0.00    -0.014 A 
BRANCH  40  41
ATOM     41  C   UNL A   1      42.764  33.076  33.918  1.00  0.00     0.031 A 
ATOM     42  C   UNL A   1      42.943  33.647  32.537  1.00  0.00     0.074 A 
ATOM     43  C   UNL A   1      42.906  31.755  34.128  1.00  0.00     0.049 A 
ATOM     44  N   UNL A   1      43.196  33.030  31.413  1.00  0.00    -0.248 NA
ATOM     45  C   UNL A   1      42.815  35.108  32.404  1.00  0.00     0.031 C 
ATOM     46  C   UNL A   1      42.762  31.084  35.419  1.00  0.00     0.029 A 
ATOM     47  N   UNL A   1      43.178  30.737  33.247  1.00  0.00    -0.354 N 
ATOM     48  C   UNL A   1      43.228  34.018  30.436  1.00  0.00     0.074 A 
ATOM     49  C   UNL A   1      42.955  35.275  31.097  1.00  0.00     0.031 C 
ATOM     50  C   UNL A   1      42.919  29.761  35.242  1.00  0.00     0.029 A 
ATOM     51  C   UNL A   1      43.145  29.489  33.825  1.00  0.00     0.049 A 
ATOM     52  H   UNL A   1      43.376  30.886  32.295  1.00  0.00     0.167 HD
ATOM     53  C   UNL A   1      43.475  33.891  29.110  1.00  0.00     0.034 A 
ATOM     54  C   UNL A   1      43.259  28.268  33.267  1.00  0.00     0.034 A 
ATOM     55  C   UNL A   1      43.766  32.643  28.459  1.00  0.00     0.049 A 
ATOM     56  C   UNL A   1      43.510  28.155  31.786  1.00  0.00     0.074 A 
ATOM     57  C   UNL A   1      44.079  32.419  27.130  1.00  0.00     0.029 A 
ATOM     58  N   UNL A   1      43.768  31.405  29.083  1.00  0.00    -0.354 N 
ATOM     59  N   UNL A   1      43.651  29.107  30.895  1.00  0.00    -0.248 NA
ATOM     60  C   UNL A   1      43.650  26.798  31.237  1.00  0.00     0.031 C 
ATOM     61  C   UNL A   1      44.238  31.042  26.943  1.00  0.00     0.029 A 
ATOM     62  C   UNL A   1      44.063  30.412  28.164  1.00  0.00     0.049 A 
ATOM     63  H   UNL A   1      43.588  31.254  30.039  1.00  0.00     0.167 HD
ATOM     64  C   UNL A   1      43.936  28.467  29.693  1.00  0.00     0.074 A 
ATOM     65  C   UNL A   1      43.966  27.047  29.973  1.00  0.00     0.031 C 
ATOM     66  C   UNL A   1      44.144  29.006  28.466  1.00  0.00     0.034 A 
BRANCH  53  67
ATOM     67  C   UNL A   1      43.464  35.143  28.271  1.00  0.00     0.023 A 
ATOM     68  C   UNL A   1      42.237  35.680  27.832  1.00  0.00     0.012 A 
ATOM     69  C   UNL A   1      44.662  35.824  27.976  1.00  0.00     0.148 A 
ATOM     70  C   UNL A   1      42.205  36.859  27.087  1.00  0.00     0.002 A 
ATOM     71  C   UNL A   1      44.618  37.021  27.273  1.00  0.00     0.091 A 
ATOM     72  F   UNL A   1      45.820  35.286  28.386  1.00  0.00    -0.205 F 
ATOM     73  C   UNL A   1      43.391  37.534  26.818  1.00  0.00     0.022 A 
BRANCH  71  74
ATOM     74  S   UNL A   1      46.082  38.008  26.944  1.00  0.00     0.127 S 
ATOM     75  O   UNL A   1      45.508  39.172  26.272  1.00  0.00    -0.237 OA
ATOM     76  O   UNL A   1      46.585  38.270  28.294  1.00  0.00    -0.237 OA
ATOM     77  O   UNL A   1      46.951  37.179  26.120  1.00  0.00    -0.744 OA
ENDBRANCH  71  74
ENDBRANCH  53  67
BRANCH  54  78
ATOM     78  C   UNL A   1      43.163  27.046  34.117  1.00  0.00     0.023 A 
ATOM     79  C   UNL A   1      41.904  26.612  34.574  1.00  0.00     0.012 A 
ATOM     80  C   UNL A   1      44.314  26.315  34.473  1.00  0.00     0.148 A 
ATOM     81  C   UNL A   1      41.795  25.494  35.402  1.00  0.00     0.002 A 
ATOM     82  C   UNL A   1      44.192  25.171  35.253  1.00  0.00     0.091 A 
ATOM     83  F   UNL A   1      45.504  26.754  34.042  1.00  0.00    -0.205 F 
ATOM     84  C   UNL A   1      42.936  24.768  35.733  1.00  0.00     0.022 A 
BRANCH  82  85
ATOM     85  S   UNL A   1      45.592  24.111  35.631  1.00  0.00     0.127 S 
ATOM     86  O   UNL A   1      46.238  23.992  34.327  1.00  0.00    -0.237 OA
ATOM     87  O   UNL A   1      46.324  24.917  36.609  1.00  0.00    -0.237 OA
ATOM     88  O   UNL A   1      45.023  22.884  36.170  1.00  0.00    -0.744 OA
ENDBRANCH  82  85
ENDBRANCH  54  78
BRANCH  66  89
ATOM     89  C   UNL A   1      44.470  28.067  27.332  1.00  0.00     0.023 A 
ATOM     90  C   UNL A   1      43.432  27.471  26.589  1.00  0.00     0.012 A 
ATOM     91  C   UNL A   1      45.809  27.835  26.957  1.00  0.00     0.148 A 
ATOM     92  C   UNL A   1      43.723  26.630  25.515  1.00  0.00     0.002 A 
ATOM     93  C   UNL A   1      46.089  27.040  25.853  1.00  0.00     0.091 A 
ATOM     94  F   UNL A   1      46.784  28.400  27.686  1.00  0.00    -0.205 F 
ATOM     95  C   UNL A   1      45.048  26.425  25.140  1.00  0.00     0.022 A 
BRANCH  93  96
ATOM     96  S   UNL A   1      47.759  26.799  25.236  1.00  0.00     0.127 S 
ATOM     97  O   UNL A   1      48.395  26.111  26.359  1.00  0.00    -0.237 OA
ATOM     98  O   UNL A   1      47.536  25.962  24.057  1.00  0.00    -0.237 OA
ATOM     99  O   UNL A   1      48.277  28.128  24.947  1.00  0.00    -0.744 OA
ENDBRANCH  93  96
ENDBRANCH  66  89
ENDBRANCH  40  41
ENDBRANCH  33  35
ENDBRANCH  32  33
ENDBRANCH  31  32
ENDBRANCH  30  31
ENDBRANCH   1  30
TORSDOF 20
ENDMDL
