MODEL 1
REMARK VINA RESULT:     -11.5      0.000      0.000
REMARK SMILES O=C(Cn1nc(-c2ccco2)ccc1=O)OCCOCCOC(=O)c1ccc(-c2c3nc(c(-c4cccc(S(=O)(=O)[O-])c4F)c4ccc([nH]4)c(-c4cccc(S(=O)(=O)[O-])c4F)c4nc(c(-c5cccc(S(=O)(=O)[O-])c5F)c5ccc2[nH]5)C=C4)C=C3)cc1
REMARK SMILES IDX 20 1 19 2 18 3 17 4 16 5 2 6 1 7 3 8 4 9 5 10 14 11 6 12
REMARK SMILES IDX 13 13 15 14 12 15 7 16 8 17 11 18 9 19 10 20 21 21 22 22
REMARK SMILES IDX 23 23 24 24 25 25 26 26 87 27 27 28 86 29 28 30 29 31 30 32
REMARK SMILES IDX 80 33 31 34 85 35 79 36 81 37 32 38 84 39 78 40 77 41 33 43
REMARK SMILES IDX 65 44 45 45 64 46 46 47 49 48 63 49 82 50 47 51 48 52 62 54
REMARK SMILES IDX 83 55 50 56 34 57 35 58 43 59 36 60 38 61 44 62 37 63 39 64
REMARK SMILES IDX 40 65 41 66 42 67 66 68 67 69 75 70 68 71 70 72 76 73 69 74
REMARK SMILES IDX 71 75 72 76 73 77 74 78 51 79 52 80 60 81 53 82 55 83 61 84
REMARK SMILES IDX 54 85 56 86 57 87 58 88 59 89
REMARK H PARENT 81 42 49 53
REMARK Flexibility Score: inf
ROOT
ATOM      1  C   UNL A   1      35.749  21.257  25.703  1.00  0.00     0.202 C 
ENDROOT
BRANCH   1   2
ATOM      2  O   UNL A   1      35.065  22.321  25.031  1.00  0.00    -0.374 OA
BRANCH   2   3
ATOM      3  C   UNL A   1      34.461  23.298  25.876  1.00  0.00     0.202 C 
BRANCH   3   4
ATOM      4  C   UNL A   1      34.267  22.861  27.319  1.00  0.00     0.261 C 
BRANCH   4   5
ATOM      5  O   UNL A   1      32.880  22.749  27.688  1.00  0.00    -0.462 OA
BRANCH   5   6
ATOM      6  C   UNL A   1      31.834  23.288  27.012  1.00  0.00     0.328 C 
ATOM      7  O   UNL A   1      31.515  24.458  27.245  1.00  0.00    -0.250 OA
BRANCH   6   8
ATOM      8  C   UNL A   1      30.946  22.418  26.135  1.00  0.00     0.270 C 
BRANCH   8   9
ATOM      9  N   UNL A   1      31.567  21.731  25.013  1.00  0.00    -0.218 N 
ATOM     10  N   UNL A   1      32.045  20.467  25.261  1.00  0.00    -0.166 NA
ATOM     11  C   UNL A   1      31.568  22.328  23.762  1.00  0.00     0.267 A 
ATOM     12  C   UNL A   1      32.454  19.760  24.258  1.00  0.00     0.126 A 
ATOM     13  C   UNL A   1      32.154  21.522  22.667  1.00  0.00     0.076 A 
ATOM     14  O   UNL A   1      31.120  23.443  23.513  1.00  0.00    -0.268 OA
ATOM     15  C   UNL A   1      32.587  20.277  22.883  1.00  0.00     0.040 A 
BRANCH  12  16
ATOM     16  C   UNL A   1      32.667  18.361  24.493  1.00  0.00     0.154 A 
ATOM     17  C   UNL A   1      32.544  17.631  25.659  1.00  0.00     0.052 A 
ATOM     18  O   UNL A   1      33.175  17.577  23.500  1.00  0.00    -0.463 OA
ATOM     19  C   UNL A   1      33.025  16.334  25.372  1.00  0.00     0.043 A 
ATOM     20  C   UNL A   1      33.404  16.354  24.049  1.00  0.00     0.196 A 
ENDBRANCH  12  16
ENDBRANCH   8   9
ENDBRANCH   6   8
ENDBRANCH   5   6
ENDBRANCH   4   5
ENDBRANCH   3   4
ENDBRANCH   2   3
ENDBRANCH   1   2
BRANCH   1  21
ATOM     21  C   UNL A   1      37.123  20.876  25.141  1.00  0.00     0.261 C 
BRANCH  21  22
ATOM     22  O   UNL A   1      38.082  21.928  25.337  1.00  0.00    -0.460 OA
BRANCH  22  23
ATOM     23  C   UNL A   1      39.141  21.625  26.125  1.00  0.00     0.338 C 
ATOM     24  O   UNL A   1      39.738  20.562  26.173  1.00  0.00    -0.246 OA
BRANCH  23  25
ATOM     25  C   UNL A   1      39.629  22.872  26.761  1.00  0.00     0.060 A 
ATOM     26  C   UNL A   1      40.715  22.862  27.637  1.00  0.00     0.016 A 
ATOM     27  C   UNL A   1      38.954  24.070  26.484  1.00  0.00     0.016 A 
ATOM     28  C   UNL A   1      41.150  24.060  28.202  1.00  0.00     0.010 A 
ATOM     29  C   UNL A   1      39.399  25.271  27.039  1.00  0.00     0.010 A 
ATOM     30  C   UNL A   1      40.519  25.275  27.880  1.00  0.00    -0.014 A 
BRANCH  30  31
ATOM     31  C   UNL A   1      41.163  26.545  28.287  1.00  0.00     0.031 A 
ATOM     32  C   UNL A   1      42.587  26.861  27.956  1.00  0.00     0.074 A 
ATOM     33  C   UNL A   1      40.408  27.434  28.962  1.00  0.00     0.049 A 
ATOM     34  N   UNL A   1      43.219  27.996  28.094  1.00  0.00    -0.248 NA
ATOM     35  C   UNL A   1      43.412  25.774  27.411  1.00  0.00     0.031 C 
ATOM     36  C   UNL A   1      39.029  27.197  29.397  1.00  0.00     0.029 A 
ATOM     37  N   UNL A   1      40.674  28.713  29.378  1.00  0.00    -0.354 N 
ATOM     38  C   UNL A   1      44.518  27.766  27.661  1.00  0.00     0.074 A 
ATOM     39  C   UNL A   1      44.590  26.373  27.272  1.00  0.00     0.031 C 
ATOM     40  C   UNL A   1      38.552  28.312  29.971  1.00  0.00     0.029 A 
ATOM     41  C   UNL A   1      39.596  29.332  29.963  1.00  0.00     0.049 A 
ATOM     42  H   UNL A   1      41.552  29.145  29.269  1.00  0.00     0.167 HD
ATOM     43  C   UNL A   1      45.542  28.646  27.579  1.00  0.00     0.034 A 
ATOM     44  C   UNL A   1      39.449  30.590  30.420  1.00  0.00     0.034 A 
ATOM     45  C   UNL A   1      45.450  30.033  27.953  1.00  0.00     0.049 A 
ATOM     46  C   UNL A   1      40.590  31.553  30.287  1.00  0.00     0.074 A 
ATOM     47  C   UNL A   1      46.413  31.019  27.830  1.00  0.00     0.029 A 
ATOM     48  N   UNL A   1      44.341  30.625  28.537  1.00  0.00    -0.354 N 
ATOM     49  N   UNL A   1      41.764  31.358  29.739  1.00  0.00    -0.248 NA
ATOM     50  C   UNL A   1      40.384  32.911  30.810  1.00  0.00     0.031 C 
ATOM     51  C   UNL A   1      45.897  32.201  28.367  1.00  0.00     0.029 A 
ATOM     52  C   UNL A   1      44.602  31.958  28.799  1.00  0.00     0.049 A 
ATOM     53  H   UNL A   1      43.493  30.165  28.737  1.00  0.00     0.167 HD
ATOM     54  C   UNL A   1      42.431  32.573  29.828  1.00  0.00     0.074 A 
ATOM     55  C   UNL A   1      41.527  33.500  30.478  1.00  0.00     0.031 C 
ATOM     56  C   UNL A   1      43.682  32.882  29.413  1.00  0.00     0.034 A 
BRANCH  43  57
ATOM     57  C   UNL A   1      46.851  28.162  27.021  1.00  0.00     0.023 A 
ATOM     58  C   UNL A   1      47.886  27.800  27.905  1.00  0.00     0.012 A 
ATOM     59  C   UNL A   1      47.016  27.959  25.636  1.00  0.00     0.148 A 
ATOM     60  C   UNL A   1      49.073  27.253  27.420  1.00  0.00     0.002 A 
ATOM     61  C   UNL A   1      48.192  27.389  25.163  1.00  0.00     0.091 A 
ATOM     62  F   UNL A   1      46.021  28.320  24.815  1.00  0.00    -0.205 F 
ATOM     63  C   UNL A   1      49.222  27.039  26.052  1.00  0.00     0.022 A 
BRANCH  61  64
ATOM     64  S   UNL A   1      48.469  27.034  23.424  1.00  0.00     0.127 S 
ATOM     65  O   UNL A   1      47.923  25.682  23.312  1.00  0.00    -0.237 OA
ATOM     66  O   UNL A   1      47.672  28.071  22.768  1.00  0.00    -0.237 OA
ATOM     67  O   UNL A   1      49.906  27.141  23.214  1.00  0.00    -0.744 OA
ENDBRANCH  61  64
ENDBRANCH  43  57
BRANCH  44  68
ATOM     68  C   UNL A   1      38.126  31.010  30.955  1.00  0.00     0.023 A 
ATOM     69  C   UNL A   1      37.844  30.817  32.321  1.00  0.00     0.012 A 
ATOM     70  C   UNL A   1      37.200  31.693  30.145  1.00  0.00     0.148 A 
ATOM     71  C   UNL A   1      36.657  31.298  32.872  1.00  0.00     0.002 A 
ATOM     72  C   UNL A   1      36.036  32.200  30.708  1.00  0.00     0.091 A 
ATOM     73  F   UNL A   1      37.502  31.869  28.852  1.00  0.00    -0.205 F 
ATOM     74  C   UNL A   1      35.759  31.997  32.069  1.00  0.00     0.022 A 
BRANCH  72  75
ATOM     75  S   UNL A   1      34.864  33.195  29.779  1.00  0.00     0.127 S 
ATOM     76  O   UNL A   1      35.740  34.189  29.163  1.00  0.00    -0.237 OA
ATOM     77  O   UNL A   1      34.305  32.209  28.855  1.00  0.00    -0.237 OA
ATOM     78  O   UNL A   1      33.921  33.719  30.758  1.00  0.00    -0.744 OA
ENDBRANCH  72  75
ENDBRANCH  44  68
BRANCH  56  79
ATOM     79  C   UNL A   1      44.177  34.285  29.628  1.00  0.00     0.023 A 
ATOM     80  C   UNL A   1      44.866  34.602  30.813  1.00  0.00     0.012 A 
ATOM     81  C   UNL A   1      44.094  35.234  28.591  1.00  0.00     0.148 A 
ATOM     82  C   UNL A   1      45.472  35.849  30.962  1.00  0.00     0.002 A 
ATOM     83  C   UNL A   1      44.731  36.461  28.732  1.00  0.00     0.091 A 
ATOM     84  F   UNL A   1      43.426  34.904  27.476  1.00  0.00    -0.205 F 
ATOM     85  C   UNL A   1      45.417  36.771  29.918  1.00  0.00     0.022 A 
BRANCH  83  86
ATOM     86  S   UNL A   1      44.784  37.683  27.417  1.00  0.00     0.127 S 
ATOM     87  O   UNL A   1      45.751  37.087  26.496  1.00  0.00    -0.237 OA
ATOM     88  O   UNL A   1      43.402  37.680  26.939  1.00  0.00    -0.237 OA
ATOM     89  O   UNL A   1      45.213  38.929  28.038  1.00  0.00    -0.744 OA
ENDBRANCH  83  86
ENDBRANCH  56  79
ENDBRANCH  30  31
ENDBRANCH  23  25
ENDBRANCH  22  23
ENDBRANCH  21  22
ENDBRANCH   1  21
TORSDOF 19
ENDMDL
MODEL 2
REMARK VINA RESULT:     -11.4      5.047      9.740
REMARK SMILES O=C(Cn1nc(-c2ccco2)ccc1=O)OCCOCCOC(=O)c1ccc(-c2c3nc(c(-c4cccc(S(=O)(=O)[O-])c4F)c4ccc([nH]4)c(-c4cccc(S(=O)(=O)[O-])c4F)c4nc(c(-c5cccc(S(=O)(=O)[O-])c5F)c5ccc2[nH]5)C=C4)C=C3)cc1
REMARK SMILES IDX 20 1 19 2 18 3 17 4 16 5 2 6 1 7 3 8 4 9 5 10 14 11 6 12
REMARK SMILES IDX 13 13 15 14 12 15 7 16 8 17 11 18 9 19 10 20 21 21 22 22
REMARK SMILES IDX 23 23 24 24 25 25 26 26 87 27 27 28 86 29 28 30 29 31 30 32
REMARK SMILES IDX 80 33 31 34 85 35 79 36 81 37 32 38 84 39 78 40 77 41 33 43
REMARK SMILES IDX 65 44 45 45 64 46 46 47 49 48 63 49 82 50 47 51 48 52 62 54
REMARK SMILES IDX 83 55 50 56 34 57 35 58 43 59 36 60 38 61 44 62 37 63 39 64
REMARK SMILES IDX 40 65 41 66 42 67 66 68 67 69 75 70 68 71 70 72 76 73 69 74
REMARK SMILES IDX 71 75 72 76 73 77 74 78 51 79 52 80 60 81 53 82 55 83 61 84
REMARK SMILES IDX 54 85 56 86 57 87 58 88 59 89
REMARK H PARENT 81 42 49 53
REMARK Flexibility Score: inf
ROOT
ATOM      1  C   UNL A   1      31.885  28.209  27.582  1.00  0.00     0.202 C 
ENDROOT
BRANCH   1   2
ATOM      2  O   UNL A   1      31.044  27.103  27.233  1.00  0.00    -0.374 OA
BRANCH   2   3
ATOM      3  C   UNL A   1      30.944  26.818  25.840  1.00  0.00     0.202 C 
BRANCH   3   4
ATOM      4  C   UNL A   1      29.996  25.684  25.486  1.00  0.00     0.261 C 
BRANCH   4   5
ATOM      5  O   UNL A   1      29.932  24.669  26.506  1.00  0.00    -0.462 OA
BRANCH   5   6
ATOM      6  C   UNL A   1      30.663  23.526  26.532  1.00  0.00     0.328 C 
ATOM      7  O   UNL A   1      31.183  23.178  27.596  1.00  0.00    -0.250 OA
BRANCH   6   8
ATOM      8  C   UNL A   1      31.005  22.793  25.243  1.00  0.00     0.270 C 
BRANCH   8   9
ATOM      9  N   UNL A   1      32.258  22.056  25.196  1.00  0.00    -0.218 N 
ATOM     10  N   UNL A   1      32.163  20.687  25.275  1.00  0.00    -0.166 NA
ATOM     11  C   UNL A   1      33.445  22.740  24.989  1.00  0.00     0.267 A 
ATOM     12  C   UNL A   1      33.232  19.988  25.072  1.00  0.00     0.126 A 
ATOM     13  C   UNL A   1      34.659  21.898  24.880  1.00  0.00     0.076 A 
ATOM     14  O   UNL A   1      33.549  23.958  24.886  1.00  0.00    -0.268 OA
ATOM     15  C   UNL A   1      34.580  20.566  24.916  1.00  0.00     0.040 A 
BRANCH  12  16
ATOM     16  C   UNL A   1      33.057  18.578  24.867  1.00  0.00     0.154 A 
ATOM     17  C   UNL A   1      32.667  17.596  25.758  1.00  0.00     0.052 A 
ATOM     18  O   UNL A   1      33.413  18.018  23.677  1.00  0.00    -0.463 OA
ATOM     19  C   UNL A   1      32.814  16.364  25.083  1.00  0.00     0.043 A 
ATOM     20  C   UNL A   1      33.277  16.672  23.824  1.00  0.00     0.196 A 
ENDBRANCH  12  16
ENDBRANCH   8   9
ENDBRANCH   6   8
ENDBRANCH   5   6
ENDBRANCH   4   5
ENDBRANCH   3   4
ENDBRANCH   2   3
ENDBRANCH   1   2
BRANCH   1  21
ATOM     21  C   UNL A   1      31.587  29.534  26.872  1.00  0.00     0.261 C 
BRANCH  21  22
ATOM     22  O   UNL A   1      32.790  30.157  26.395  1.00  0.00    -0.460 OA
BRANCH  22  23
ATOM     23  C   UNL A   1      33.204  31.251  27.080  1.00  0.00     0.338 C 
ATOM     24  O   UNL A   1      32.529  32.220  27.389  1.00  0.00    -0.246 OA
BRANCH  23  25
ATOM     25  C   UNL A   1      34.560  30.988  27.616  1.00  0.00     0.060 A 
ATOM     26  C   UNL A   1      35.395  32.031  28.019  1.00  0.00     0.016 A 
ATOM     27  C   UNL A   1      35.003  29.659  27.687  1.00  0.00     0.016 A 
ATOM     28  C   UNL A   1      36.658  31.737  28.532  1.00  0.00     0.010 A 
ATOM     29  C   UNL A   1      36.262  29.366  28.213  1.00  0.00     0.010 A 
ATOM     30  C   UNL A   1      37.085  30.404  28.665  1.00  0.00    -0.014 A 
BRANCH  30  31
ATOM     31  C   UNL A   1      38.311  30.121  29.447  1.00  0.00     0.031 A 
ATOM     32  C   UNL A   1      38.506  30.631  30.839  1.00  0.00     0.074 A 
ATOM     33  C   UNL A   1      39.257  29.360  28.862  1.00  0.00     0.049 A 
ATOM     34  N   UNL A   1      39.442  30.315  31.695  1.00  0.00    -0.248 NA
ATOM     35  C   UNL A   1      37.543  31.623  31.339  1.00  0.00     0.031 C 
ATOM     36  C   UNL A   1      39.198  28.870  27.482  1.00  0.00     0.029 A 
ATOM     37  N   UNL A   1      40.431  28.846  29.349  1.00  0.00    -0.354 N 
ATOM     38  C   UNL A   1      39.191  31.069  32.833  1.00  0.00     0.074 A 
ATOM     39  C   UNL A   1      38.022  31.876  32.552  1.00  0.00     0.031 C 
ATOM     40  C   UNL A   1      40.259  28.083  27.250  1.00  0.00     0.029 A 
ATOM     41  C   UNL A   1      41.082  28.031  28.454  1.00  0.00     0.049 A 
ATOM     42  H   UNL A   1      40.774  29.042  30.251  1.00  0.00     0.167 HD
ATOM     43  C   UNL A   1      39.865  31.066  34.006  1.00  0.00     0.034 A 
ATOM     44  C   UNL A   1      42.203  27.297  28.592  1.00  0.00     0.034 A 
ATOM     45  C   UNL A   1      41.016  30.245  34.276  1.00  0.00     0.049 A 
ATOM     46  C   UNL A   1      42.912  27.289  29.912  1.00  0.00     0.074 A 
ATOM     47  C   UNL A   1      41.716  30.117  35.463  1.00  0.00     0.029 A 
ATOM     48  N   UNL A   1      41.644  29.429  33.348  1.00  0.00    -0.354 N 
ATOM     49  N   UNL A   1      42.575  27.894  31.025  1.00  0.00    -0.248 NA
ATOM     50  C   UNL A   1      44.136  26.481  30.010  1.00  0.00     0.031 C 
ATOM     51  C   UNL A   1      42.786  29.246  35.244  1.00  0.00     0.029 A 
ATOM     52  C   UNL A   1      42.736  28.808  33.930  1.00  0.00     0.049 A 
ATOM     53  H   UNL A   1      41.356  29.308  32.414  1.00  0.00     0.167 HD
ATOM     54  C   UNL A   1      43.531  27.525  31.962  1.00  0.00     0.074 A 
ATOM     55  C   UNL A   1      44.458  26.637  31.289  1.00  0.00     0.031 C 
ATOM     56  C   UNL A   1      43.630  27.898  33.260  1.00  0.00     0.034 A 
BRANCH  43  57
ATOM     57  C   UNL A   1      39.360  31.943  35.117  1.00  0.00     0.023 A 
ATOM     58  C   UNL A   1      38.483  31.402  36.078  1.00  0.00     0.012 A 
ATOM     59  C   UNL A   1      39.836  33.260  35.273  1.00  0.00     0.148 A 
ATOM     60  C   UNL A   1      38.078  32.162  37.175  1.00  0.00     0.002 A 
ATOM     61  C   UNL A   1      39.449  34.002  36.382  1.00  0.00     0.091 A 
ATOM     62  F   UNL A   1      40.661  33.754  34.340  1.00  0.00    -0.205 F 
ATOM     63  C   UNL A   1      38.568  33.457  37.331  1.00  0.00     0.022 A 
BRANCH  61  64
ATOM     64  S   UNL A   1      40.051  35.664  36.699  1.00  0.00     0.127 S 
ATOM     65  O   UNL A   1      39.448  35.949  38.001  1.00  0.00    -0.237 OA
ATOM     66  O   UNL A   1      41.500  35.465  36.728  1.00  0.00    -0.237 OA
ATOM     67  O   UNL A   1      39.567  36.487  35.601  1.00  0.00    -0.744 OA
ENDBRANCH  61  64
ENDBRANCH  43  57
BRANCH  44  68
ATOM     68  C   UNL A   1      42.648  26.445  27.457  1.00  0.00     0.023 A 
ATOM     69  C   UNL A   1      43.602  26.949  26.552  1.00  0.00     0.012 A 
ATOM     70  C   UNL A   1      42.213  25.112  27.338  1.00  0.00     0.148 A 
ATOM     71  C   UNL A   1      44.116  26.135  25.543  1.00  0.00     0.002 A 
ATOM     72  C   UNL A   1      42.757  24.297  26.352  1.00  0.00     0.091 A 
ATOM     73  F   UNL A   1      41.313  24.660  28.220  1.00  0.00    -0.205 F 
ATOM     74  C   UNL A   1      43.702  24.809  25.450  1.00  0.00     0.022 A 
BRANCH  72  75
ATOM     75  S   UNL A   1      42.359  22.551  26.211  1.00  0.00     0.127 S 
ATOM     76  O   UNL A   1      42.882  22.025  27.470  1.00  0.00    -0.237 OA
ATOM     77  O   UNL A   1      40.900  22.587  26.116  1.00  0.00    -0.237 OA
ATOM     78  O   UNL A   1      43.039  22.083  25.011  1.00  0.00    -0.744 OA
ENDBRANCH  72  75
ENDBRANCH  44  68
BRANCH  56  79
ATOM     79  C   UNL A   1      44.771  27.353  34.072  1.00  0.00     0.023 A 
ATOM     80  C   UNL A   1      45.954  28.103  34.195  1.00  0.00     0.012 A 
ATOM     81  C   UNL A   1      44.605  26.180  34.834  1.00  0.00     0.148 A 
ATOM     82  C   UNL A   1      46.959  27.695  35.071  1.00  0.00     0.002 A 
ATOM     83  C   UNL A   1      45.594  25.798  35.731  1.00  0.00     0.091 A 
ATOM     84  F   UNL A   1      43.467  25.483  34.691  1.00  0.00    -0.205 F 
ATOM     85  C   UNL A   1      46.773  26.552  35.848  1.00  0.00     0.022 A 
BRANCH  83  86
ATOM     86  S   UNL A   1      45.416  24.389  36.830  1.00  0.00     0.127 S 
ATOM     87  O   UNL A   1      46.517  24.603  37.768  1.00  0.00    -0.237 OA
ATOM     88  O   UNL A   1      44.083  24.605  37.392  1.00  0.00    -0.237 OA
ATOM     89  O   UNL A   1      45.541  23.203  35.994  1.00  0.00    -0.744 OA
ENDBRANCH  83  86
ENDBRANCH  56  79
ENDBRANCH  30  31
ENDBRANCH  23  25
ENDBRANCH  22  23
ENDBRANCH  21  22
ENDBRANCH   1  21
TORSDOF 19
ENDMDL
MODEL 3
REMARK VINA RESULT:     -10.9      4.218      7.365
REMARK SMILES O=C(Cn1nc(-c2ccco2)ccc1=O)OCCOCCOC(=O)c1ccc(-c2c3nc(c(-c4cccc(S(=O)(=O)[O-])c4F)c4ccc([nH]4)c(-c4cccc(S(=O)(=O)[O-])c4F)c4nc(c(-c5cccc(S(=O)(=O)[O-])c5F)c5ccc2[nH]5)C=C4)C=C3)cc1
REMARK SMILES IDX 20 1 19 2 18 3 17 4 16 5 2 6 1 7 3 8 4 9 5 10 14 11 6 12
REMARK SMILES IDX 13 13 15 14 12 15 7 16 8 17 11 18 9 19 10 20 21 21 22 22
REMARK SMILES IDX 23 23 24 24 25 25 26 26 87 27 27 28 86 29 28 30 29 31 30 32
REMARK SMILES IDX 80 33 31 34 85 35 79 36 81 37 32 38 84 39 78 40 77 41 33 43
REMARK SMILES IDX 65 44 45 45 64 46 46 47 49 48 63 49 82 50 47 51 48 52 62 54
REMARK SMILES IDX 83 55 50 56 34 57 35 58 43 59 36 60 38 61 44 62 37 63 39 64
REMARK SMILES IDX 40 65 41 66 42 67 66 68 67 69 75 70 68 71 70 72 76 73 69 74
REMARK SMILES IDX 71 75 72 76 73 77 74 78 51 79 52 80 60 81 53 82 55 83 61 84
REMARK SMILES IDX 54 85 56 86 57 87 58 88 59 89
REMARK H PARENT 81 42 49 53
REMARK Flexibility Score: inf
ROOT
ATOM      1  C   UNL A   1      41.174  19.934  26.573  1.00  0.00     0.202 C 
ENDROOT
BRANCH   1   2
ATOM      2  O   UNL A   1      42.099  19.606  25.529  1.00  0.00    -0.374 OA
BRANCH   2   3
ATOM      3  C   UNL A   1      43.119  18.674  25.878  1.00  0.00     0.202 C 
BRANCH   3   4
ATOM      4  C   UNL A   1      44.340  18.696  24.972  1.00  0.00     0.261 C 
BRANCH   4   5
ATOM      5  O   UNL A   1      44.446  19.909  24.203  1.00  0.00    -0.462 OA
BRANCH   5   6
ATOM      6  C   UNL A   1      45.312  20.925  24.442  1.00  0.00     0.328 C 
ATOM      7  O   UNL A   1      46.024  20.875  25.450  1.00  0.00    -0.250 OA
BRANCH   6   8
ATOM      8  C   UNL A   1      45.271  22.194  23.604  1.00  0.00     0.270 C 
BRANCH   8   9
ATOM      9  N   UNL A   1      45.327  23.469  24.302  1.00  0.00    -0.218 N 
ATOM     10  N   UNL A   1      46.566  24.053  24.406  1.00  0.00    -0.166 NA
ATOM     11  C   UNL A   1      44.152  24.061  24.737  1.00  0.00     0.267 A 
ATOM     12  C   UNL A   1      46.636  25.259  24.871  1.00  0.00     0.126 A 
ATOM     13  C   UNL A   1      44.300  25.393  25.368  1.00  0.00     0.076 A 
ATOM     14  O   UNL A   1      43.032  23.571  24.626  1.00  0.00    -0.268 OA
ATOM     15  C   UNL A   1      45.492  25.991  25.443  1.00  0.00     0.040 A 
BRANCH  12  16
ATOM     16  C   UNL A   1      47.882  25.950  24.698  1.00  0.00     0.154 A 
ATOM     17  C   UNL A   1      48.292  26.793  23.684  1.00  0.00     0.052 A 
ATOM     18  O   UNL A   1      48.914  25.710  25.556  1.00  0.00    -0.463 OA
ATOM     19  C   UNL A   1      49.658  27.068  23.920  1.00  0.00     0.043 A 
ATOM     20  C   UNL A   1      49.991  26.381  25.065  1.00  0.00     0.196 A 
ENDBRANCH  12  16
ENDBRANCH   8   9
ENDBRANCH   6   8
ENDBRANCH   5   6
ENDBRANCH   4   5
ENDBRANCH   3   4
ENDBRANCH   2   3
ENDBRANCH   1   2
BRANCH   1  21
ATOM     21  C   UNL A   1      41.168  21.395  27.036  1.00  0.00     0.261 C 
BRANCH  21  22
ATOM     22  O   UNL A   1      39.846  21.825  27.399  1.00  0.00    -0.460 OA
BRANCH  22  23
ATOM     23  C   UNL A   1      39.251  22.695  26.546  1.00  0.00     0.338 C 
ATOM     24  O   UNL A   1      38.468  22.423  25.651  1.00  0.00    -0.246 OA
BRANCH  23  25
ATOM     25  C   UNL A   1      39.510  24.075  27.020  1.00  0.00     0.060 A 
ATOM     26  C   UNL A   1      39.280  24.441  28.347  1.00  0.00     0.016 A 
ATOM     27  C   UNL A   1      39.973  25.022  26.095  1.00  0.00     0.016 A 
ATOM     28  C   UNL A   1      39.552  25.746  28.754  1.00  0.00     0.010 A 
ATOM     29  C   UNL A   1      40.257  26.325  26.507  1.00  0.00     0.010 A 
ATOM     30  C   UNL A   1      40.074  26.686  27.847  1.00  0.00    -0.014 A 
BRANCH  30  31
ATOM     31  C   UNL A   1      40.591  27.972  28.369  1.00  0.00     0.031 A 
ATOM     32  C   UNL A   1      42.040  28.337  28.303  1.00  0.00     0.074 A 
ATOM     33  C   UNL A   1      39.697  28.830  28.899  1.00  0.00     0.049 A 
ATOM     34  N   UNL A   1      42.599  29.491  28.558  1.00  0.00    -0.248 NA
ATOM     35  C   UNL A   1      42.986  27.282  27.912  1.00  0.00     0.031 C 
ATOM     36  C   UNL A   1      38.270  28.544  29.076  1.00  0.00     0.029 A 
ATOM     37  N   UNL A   1      39.840  30.112  29.361  1.00  0.00    -0.354 N 
ATOM     38  C   UNL A   1      43.961  29.307  28.367  1.00  0.00     0.074 A 
ATOM     39  C   UNL A   1      44.149  27.920  27.992  1.00  0.00     0.031 C 
ATOM     40  C   UNL A   1      37.661  29.637  29.558  1.00  0.00     0.029 A 
ATOM     41  C   UNL A   1      38.654  30.690  29.744  1.00  0.00     0.049 A 
ATOM     42  H   UNL A   1      40.709  30.574  29.415  1.00  0.00     0.167 HD
ATOM     43  C   UNL A   1      44.953  30.220  28.475  1.00  0.00     0.034 A 
ATOM     44  C   UNL A   1      38.384  31.939  30.171  1.00  0.00     0.034 A 
ATOM     45  C   UNL A   1      44.748  31.599  28.831  1.00  0.00     0.049 A 
ATOM     46  C   UNL A   1      39.498  32.939  30.251  1.00  0.00     0.074 A 
ATOM     47  C   UNL A   1      45.684  32.616  28.889  1.00  0.00     0.029 A 
ATOM     48  N   UNL A   1      43.533  32.149  29.207  1.00  0.00    -0.354 N 
ATOM     49  N   UNL A   1      40.758  32.788  29.924  1.00  0.00    -0.248 NA
ATOM     50  C   UNL A   1      39.155  34.285  30.733  1.00  0.00     0.031 C 
ATOM     51  C   UNL A   1      45.041  33.776  29.328  1.00  0.00     0.029 A 
ATOM     52  C   UNL A   1      43.697  33.488  29.516  1.00  0.00     0.049 A 
ATOM     53  H   UNL A   1      42.679  31.661  29.248  1.00  0.00     0.167 HD
ATOM     54  C   UNL A   1      41.356  34.022  30.137  1.00  0.00     0.074 A 
ATOM     55  C   UNL A   1      40.319  34.914  30.616  1.00  0.00     0.031 C 
ATOM     56  C   UNL A   1      42.651  34.375  29.957  1.00  0.00     0.034 A 
BRANCH  43  57
ATOM     57  C   UNL A   1      46.357  29.783  28.162  1.00  0.00     0.023 A 
ATOM     58  C   UNL A   1      46.829  29.877  26.838  1.00  0.00     0.012 A 
ATOM     59  C   UNL A   1      47.238  29.389  29.188  1.00  0.00     0.148 A 
ATOM     60  C   UNL A   1      48.156  29.574  26.537  1.00  0.00     0.002 A 
ATOM     61  C   UNL A   1      48.565  29.115  28.884  1.00  0.00     0.091 A 
ATOM     62  F   UNL A   1      46.761  29.299  30.437  1.00  0.00    -0.205 F 
ATOM     63  C   UNL A   1      49.025  29.203  27.560  1.00  0.00     0.022 A 
BRANCH  61  64
ATOM     64  S   UNL A   1      49.776  28.666  30.132  1.00  0.00     0.127 S 
ATOM     65  O   UNL A   1      50.881  28.181  29.305  1.00  0.00    -0.237 OA
ATOM     66  O   UNL A   1      50.025  29.947  30.794  1.00  0.00    -0.237 OA
ATOM     67  O   UNL A   1      49.142  27.657  30.968  1.00  0.00    -0.744 OA
ENDBRANCH  61  64
ENDBRANCH  43  57
BRANCH  44  68
ATOM     68  C   UNL A   1      36.973  32.311  30.459  1.00  0.00     0.023 A 
ATOM     69  C   UNL A   1      36.473  32.150  31.764  1.00  0.00     0.012 A 
ATOM     70  C   UNL A   1      36.170  32.919  29.477  1.00  0.00     0.148 A 
ATOM     71  C   UNL A   1      35.190  32.590  32.088  1.00  0.00     0.002 A 
ATOM     72  C   UNL A   1      34.906  33.387  29.815  1.00  0.00     0.091 A 
ATOM     73  F   UNL A   1      36.678  33.067  28.246  1.00  0.00    -0.205 F 
ATOM     74  C   UNL A   1      34.411  33.217  31.118  1.00  0.00     0.022 A 
BRANCH  72  75
ATOM     75  S   UNL A   1      33.867  34.291  28.663  1.00  0.00     0.127 S 
ATOM     76  O   UNL A   1      32.763  34.711  29.524  1.00  0.00    -0.237 OA
ATOM     77  O   UNL A   1      34.761  35.368  28.239  1.00  0.00    -0.237 OA
ATOM     78  O   UNL A   1      33.513  33.343  27.616  1.00  0.00    -0.744 OA
ENDBRANCH  72  75
ENDBRANCH  44  68
BRANCH  56  79
ATOM     79  C   UNL A   1      43.052  35.791  30.264  1.00  0.00     0.023 A 
ATOM     80  C   UNL A   1      43.611  36.097  31.518  1.00  0.00     0.012 A 
ATOM     81  C   UNL A   1      43.017  36.774  29.255  1.00  0.00     0.148 A 
ATOM     82  C   UNL A   1      44.136  37.365  31.764  1.00  0.00     0.002 A 
ATOM     83  C   UNL A   1      43.574  38.023  29.495  1.00  0.00     0.091 A 
ATOM     84  F   UNL A   1      42.473  36.454  28.072  1.00  0.00    -0.205 F 
ATOM     85  C   UNL A   1      44.131  38.321  30.750  1.00  0.00     0.022 A 
BRANCH  83  86
ATOM     86  S   UNL A   1      43.687  39.295  28.232  1.00  0.00     0.127 S 
ATOM     87  O   UNL A   1      42.277  39.575  27.965  1.00  0.00    -0.237 OA
ATOM     88  O   UNL A   1      44.400  40.362  28.933  1.00  0.00    -0.237 OA
ATOM     89  O   UNL A   1      44.417  38.699  27.120  1.00  0.00    -0.744 OA
ENDBRANCH  83  86
ENDBRANCH  56  79
ENDBRANCH  30  31
ENDBRANCH  23  25
ENDBRANCH  22  23
ENDBRANCH  21  22
ENDBRANCH   1  21
TORSDOF 19
ENDMDL
