MODEL 1
REMARK VINA RESULT:     -11.1      0.000      0.000
REMARK SMILES Cc1ccc(Cl)c(Nc2ccccc2C(=O)N[C@@H](C)C(=O)OCCOCCOC(=O)c2ccc(-c3c4nc(c(-c5cccc(S(=O)(=O)[O-])c5F)c5ccc([nH]5)c(-c5cccc(S(=O)(=O)[O-])c5F)c5nc(c(-c6cccc(S(=O)(=O)[O-])c6F)c6ccc3[nH]6)C=C5)C=C4)cc2)c1Cl
REMARK SMILES IDX 24 1 23 2 22 3 20 4 21 5 18 6 19 7 17 8 15 9 16 10 14 12
REMARK SMILES IDX 9 13 10 14 11 15 13 16 12 17 8 18 7 20 1 21 2 22 3 23 94 24
REMARK SMILES IDX 4 25 95 26 5 27 6 28 25 29 26 30 27 31 28 32 29 33 30 34
REMARK SMILES IDX 31 35 32 36 93 37 33 38 92 39 34 40 35 41 36 42 86 43 37 44
REMARK SMILES IDX 91 45 85 46 87 47 38 48 90 49 84 50 83 51 39 53 71 54 51 55
REMARK SMILES IDX 70 56 52 57 55 58 69 59 88 60 53 61 54 62 68 64 89 65 56 66
REMARK SMILES IDX 40 67 41 68 49 69 42 70 44 71 50 72 43 73 45 74 46 75 47 76
REMARK SMILES IDX 48 77 72 78 73 79 81 80 74 81 76 82 82 83 75 84 77 85 78 86
REMARK SMILES IDX 79 87 80 88 57 89 58 90 66 91 59 92 61 93 67 94 60 95 62 96
REMARK SMILES IDX 63 97 64 98 65 99
REMARK H PARENT 17 11 8 19 87 52 55 63
REMARK Flexibility Score: inf
ROOT
ATOM      1  C   UNL A   1      35.805  23.080  25.560  1.00  0.00     0.202 C 
ENDROOT
BRANCH   1   2
ATOM      2  C   UNL A   1      35.972  23.343  23.994  1.00  0.00     0.261 C 
BRANCH   2   3
ATOM      3  O   UNL A   1      34.807  23.671  23.160  1.00  0.00    -0.462 OA
BRANCH   3   4
ATOM      4  C   UNL A   1      33.724  24.246  23.801  1.00  0.00     0.328 C 
ATOM      5  O   UNL A   1      33.620  25.465  23.941  1.00  0.00    -0.250 OA
BRANCH   4   6
ATOM      6  C   UNL A   1      32.505  23.276  24.143  1.00  0.00     0.189 C 
ATOM      7  C   UNL A   1      31.532  23.217  22.960  1.00  0.00     0.043 C 
BRANCH   6   8
ATOM      8  N   UNL A   1      31.727  23.453  25.368  1.00  0.00    -0.339 N 
ATOM      9  C   UNL A   1      31.369  24.489  26.204  1.00  0.00     0.254 C 
ATOM     10  O   UNL A   1      30.875  24.044  27.256  1.00  0.00    -0.269 OA
ATOM     11  H   UNL A   1      31.357  22.597  25.682  1.00  0.00     0.164 HD
BRANCH   9  12
ATOM     12  C   UNL A   1      31.406  26.023  26.070  1.00  0.00     0.063 A 
ATOM     13  C   UNL A   1      30.743  26.982  25.256  1.00  0.00     0.051 A 
ATOM     14  C   UNL A   1      31.013  28.379  25.430  1.00  0.00     0.027 A 
ATOM     15  C   UNL A   1      31.854  28.866  26.422  1.00  0.00     0.002 A 
ATOM     16  C   UNL A   1      32.305  26.586  27.036  1.00  0.00     0.016 A 
ATOM     17  C   UNL A   1      32.508  27.961  27.228  1.00  0.00     0.001 A 
BRANCH  13  18
ATOM     18  N   UNL A   1      29.616  26.775  24.427  1.00  0.00    -0.352 N 
ATOM     19  H   UNL A   1      28.935  26.129  24.721  1.00  0.00     0.167 HD
BRANCH  18  20
ATOM     20  C   UNL A   1      29.409  27.459  23.175  1.00  0.00     0.077 A 
ATOM     21  C   UNL A   1      32.293  29.249  22.391  1.00  0.00     0.046 C 
ATOM     22  C   UNL A   1      30.841  28.984  22.138  1.00  0.00    -0.030 A 
ATOM     23  C   UNL A   1      29.812  29.928  22.061  1.00  0.00     0.006 A 
ATOM     24  C   UNL A   1      30.491  27.674  22.337  1.00  0.00     0.069 A 
ATOM     25  C   UNL A   1      28.513  29.576  22.433  1.00  0.00     0.023 A 
ATOM     26  Cl  UNL A   1      31.524  26.428  21.725  1.00  0.00    -0.082 Cl
ATOM     27  C   UNL A   1      28.333  28.356  23.074  1.00  0.00     0.066 A 
ATOM     28  Cl  UNL A   1      26.842  28.026  23.871  1.00  0.00    -0.082 Cl
ENDBRANCH  18  20
ENDBRANCH  13  18
ENDBRANCH   9  12
ENDBRANCH   6   8
ENDBRANCH   4   6
ENDBRANCH   3   4
ENDBRANCH   2   3
ENDBRANCH   1   2
BRANCH   1  29
ATOM     29  O   UNL A   1      36.028  21.779  26.114  1.00  0.00    -0.374 OA
BRANCH  29  30
ATOM     30  C   UNL A   1      36.157  20.669  25.197  1.00  0.00     0.202 C 
BRANCH  30  31
ATOM     31  C   UNL A   1      37.572  20.067  25.015  1.00  0.00     0.261 C 
BRANCH  31  32
ATOM     32  O   UNL A   1      38.535  21.085  25.280  1.00  0.00    -0.460 OA
BRANCH  32  33
ATOM     33  C   UNL A   1      39.558  20.768  26.084  1.00  0.00     0.338 C 
ATOM     34  O   UNL A   1      40.245  19.753  26.078  1.00  0.00    -0.246 OA
BRANCH  33  35
ATOM     35  C   UNL A   1      39.874  22.005  26.798  1.00  0.00     0.060 A 
ATOM     36  C   UNL A   1      39.281  23.172  26.299  1.00  0.00     0.016 A 
ATOM     37  C   UNL A   1      40.787  22.055  27.847  1.00  0.00     0.016 A 
ATOM     38  C   UNL A   1      39.602  24.407  26.829  1.00  0.00     0.010 A 
ATOM     39  C   UNL A   1      41.156  23.308  28.347  1.00  0.00     0.010 A 
ATOM     40  C   UNL A   1      40.609  24.484  27.792  1.00  0.00    -0.014 A 
BRANCH  40  41
ATOM     41  C   UNL A   1      41.313  25.780  27.903  1.00  0.00     0.031 A 
ATOM     42  C   UNL A   1      40.609  26.896  28.631  1.00  0.00     0.074 A 
ATOM     43  C   UNL A   1      42.585  25.937  27.501  1.00  0.00     0.049 A 
ATOM     44  N   UNL A   1      41.019  28.112  28.876  1.00  0.00    -0.248 NA
ATOM     45  C   UNL A   1      39.267  26.596  29.162  1.00  0.00     0.031 C 
ATOM     46  C   UNL A   1      43.409  24.916  26.861  1.00  0.00     0.029 A 
ATOM     47  N   UNL A   1      43.398  27.039  27.574  1.00  0.00    -0.354 N 
ATOM     48  C   UNL A   1      39.973  28.732  29.549  1.00  0.00     0.074 A 
ATOM     49  C   UNL A   1      38.909  27.762  29.675  1.00  0.00     0.031 C 
ATOM     50  C   UNL A   1      44.607  25.452  26.566  1.00  0.00     0.029 A 
ATOM     51  C   UNL A   1      44.620  26.858  26.974  1.00  0.00     0.049 A 
ATOM     52  H   UNL A   1      43.132  27.878  28.014  1.00  0.00     0.167 HD
ATOM     53  C   UNL A   1      39.904  29.993  30.032  1.00  0.00     0.034 A 
ATOM     54  C   UNL A   1      45.619  27.735  26.756  1.00  0.00     0.034 A 
ATOM     55  C   UNL A   1      40.965  30.956  29.944  1.00  0.00     0.049 A 
ATOM     56  C   UNL A   1      45.496  29.152  27.259  1.00  0.00     0.074 A 
ATOM     57  C   UNL A   1      40.984  32.254  30.421  1.00  0.00     0.029 A 
ATOM     58  N   UNL A   1      42.189  30.734  29.337  1.00  0.00    -0.354 N 
ATOM     59  N   UNL A   1      44.533  29.706  27.955  1.00  0.00    -0.248 NA
ATOM     60  C   UNL A   1      46.621  30.057  26.976  1.00  0.00     0.031 C 
ATOM     61  C   UNL A   1      42.215  32.827  30.081  1.00  0.00     0.029 A 
ATOM     62  C   UNL A   1      42.972  31.873  29.422  1.00  0.00     0.049 A 
ATOM     63  H   UNL A   1      42.464  29.890  28.909  1.00  0.00     0.167 HD
ATOM     64  C   UNL A   1      44.953  31.005  28.226  1.00  0.00     0.074 A 
ATOM     65  C   UNL A   1      46.268  31.150  27.637  1.00  0.00     0.031 C 
ATOM     66  C   UNL A   1      44.306  31.993  28.893  1.00  0.00     0.034 A 
BRANCH  53  67
ATOM     67  C   UNL A   1      38.627  30.404  30.711  1.00  0.00     0.023 A 
ATOM     68  C   UNL A   1      38.458  30.176  32.091  1.00  0.00     0.012 A 
ATOM     69  C   UNL A   1      37.616  31.066  29.987  1.00  0.00     0.148 A 
ATOM     70  C   UNL A   1      37.292  30.580  32.737  1.00  0.00     0.002 A 
ATOM     71  C   UNL A   1      36.477  31.507  30.647  1.00  0.00     0.091 A 
ATOM     72  F   UNL A   1      37.785  31.244  28.669  1.00  0.00    -0.205 F 
ATOM     73  C   UNL A   1      36.309  31.257  32.018  1.00  0.00     0.022 A 
BRANCH  71  74
ATOM     74  S   UNL A   1      35.197  32.461  29.825  1.00  0.00     0.127 S 
ATOM     75  O   UNL A   1      35.947  33.629  29.368  1.00  0.00    -0.237 OA
ATOM     76  O   UNL A   1      34.774  31.552  28.760  1.00  0.00    -0.237 OA
ATOM     77  O   UNL A   1      34.182  32.724  30.836  1.00  0.00    -0.744 OA
ENDBRANCH  71  74
ENDBRANCH  53  67
BRANCH  54  78
ATOM     78  C   UNL A   1      46.842  27.300  26.029  1.00  0.00     0.023 A 
ATOM     79  C   UNL A   1      46.909  27.439  24.630  1.00  0.00     0.012 A 
ATOM     80  C   UNL A   1      47.935  26.738  26.719  1.00  0.00     0.148 A 
ATOM     81  C   UNL A   1      48.027  26.993  23.926  1.00  0.00     0.002 A 
ATOM     82  C   UNL A   1      49.068  26.351  26.018  1.00  0.00     0.091 A 
ATOM     83  F   UNL A   1      47.840  26.595  28.049  1.00  0.00    -0.205 F 
ATOM     84  C   UNL A   1      49.111  26.459  24.619  1.00  0.00     0.022 A 
BRANCH  82  85
ATOM     85  S   UNL A   1      50.556  25.773  26.841  1.00  0.00     0.127 S 
ATOM     86  O   UNL A   1      50.141  24.457  27.320  1.00  0.00    -0.237 OA
ATOM     87  O   UNL A   1      51.520  25.753  25.740  1.00  0.00    -0.237 OA
ATOM     88  O   UNL A   1      50.843  26.760  27.873  1.00  0.00    -0.744 OA
ENDBRANCH  82  85
ENDBRANCH  54  78
BRANCH  66  89
ATOM     89  C   UNL A   1      45.020  33.308  29.085  1.00  0.00     0.023 A 
ATOM     90  C   UNL A   1      44.851  34.347  28.147  1.00  0.00     0.012 A 
ATOM     91  C   UNL A   1      45.807  33.537  30.232  1.00  0.00     0.148 A 
ATOM     92  C   UNL A   1      45.485  35.577  28.328  1.00  0.00     0.002 A 
ATOM     93  C   UNL A   1      46.397  34.781  30.429  1.00  0.00     0.091 A 
ATOM     94  F   UNL A   1      45.972  32.534  31.107  1.00  0.00    -0.205 F 
ATOM     95  C   UNL A   1      46.248  35.798  29.472  1.00  0.00     0.022 A 
BRANCH  93  96
ATOM     96  S   UNL A   1      47.319  35.181  31.920  1.00  0.00     0.127 S 
ATOM     97  O   UNL A   1      47.706  36.568  31.668  1.00  0.00    -0.237 OA
ATOM     98  O   UNL A   1      46.310  35.011  32.968  1.00  0.00    -0.237 OA
ATOM     99  O   UNL A   1      48.414  34.223  31.979  1.00  0.00    -0.744 OA
ENDBRANCH  93  96
ENDBRANCH  66  89
ENDBRANCH  40  41
ENDBRANCH  33  35
ENDBRANCH  32  33
ENDBRANCH  31  32
ENDBRANCH  30  31
ENDBRANCH  29  30
ENDBRANCH   1  29
TORSDOF 21
ENDMDL
MODEL 2
REMARK VINA RESULT:     -11.1      0.399      7.501
REMARK SMILES Cc1ccc(Cl)c(Nc2ccccc2C(=O)N[C@@H](C)C(=O)OCCOCCOC(=O)c2ccc(-c3c4nc(c(-c5cccc(S(=O)(=O)[O-])c5F)c5ccc([nH]5)c(-c5cccc(S(=O)(=O)[O-])c5F)c5nc(c(-c6cccc(S(=O)(=O)[O-])c6F)c6ccc3[nH]6)C=C5)C=C4)cc2)c1Cl
REMARK SMILES IDX 24 1 23 2 22 3 20 4 21 5 18 6 19 7 17 8 15 9 16 10 14 12
REMARK SMILES IDX 9 13 10 14 11 15 13 16 12 17 8 18 7 20 1 21 2 22 3 23 94 24
REMARK SMILES IDX 4 25 95 26 5 27 6 28 25 29 26 30 27 31 28 32 29 33 30 34
REMARK SMILES IDX 31 35 32 36 93 37 33 38 92 39 34 40 35 41 36 42 86 43 37 44
REMARK SMILES IDX 91 45 85 46 87 47 38 48 90 49 84 50 83 51 39 53 71 54 51 55
REMARK SMILES IDX 70 56 52 57 55 58 69 59 88 60 53 61 54 62 68 64 89 65 56 66
REMARK SMILES IDX 40 67 41 68 49 69 42 70 44 71 50 72 43 73 45 74 46 75 47 76
REMARK SMILES IDX 48 77 72 78 73 79 81 80 74 81 76 82 82 83 75 84 77 85 78 86
REMARK SMILES IDX 79 87 80 88 57 89 58 90 66 91 59 92 61 93 67 94 60 95 62 96
REMARK SMILES IDX 63 97 64 98 65 99
REMARK H PARENT 17 11 8 19 87 52 55 63
REMARK Flexibility Score: inf
ROOT
ATOM      1  C   UNL A   1      36.266  23.199  25.252  1.00  0.00     0.202 C 
ENDROOT
BRANCH   1   2
ATOM      2  C   UNL A   1      36.146  23.367  23.670  1.00  0.00     0.261 C 
BRANCH   2   3
ATOM      3  O   UNL A   1      34.829  23.443  23.020  1.00  0.00    -0.462 OA
BRANCH   3   4
ATOM      4  C   UNL A   1      33.838  24.129  23.699  1.00  0.00     0.328 C 
ATOM      5  O   UNL A   1      33.856  25.355  23.817  1.00  0.00    -0.250 OA
BRANCH   4   6
ATOM      6  C   UNL A   1      32.553  23.285  24.122  1.00  0.00     0.189 C 
ATOM      7  C   UNL A   1      31.454  23.436  23.064  1.00  0.00     0.043 C 
BRANCH   6   8
ATOM      8  N   UNL A   1      31.945  23.454  25.440  1.00  0.00    -0.339 N 
ATOM      9  C   UNL A   1      31.646  24.493  26.296  1.00  0.00     0.254 C 
ATOM     10  O   UNL A   1      31.333  24.051  27.417  1.00  0.00    -0.269 OA
ATOM     11  H   UNL A   1      31.675  22.588  25.822  1.00  0.00     0.164 HD
BRANCH   9  12
ATOM     12  C   UNL A   1      31.571  26.022  26.126  1.00  0.00     0.063 A 
ATOM     13  C   UNL A   1      30.893  26.908  25.245  1.00  0.00     0.051 A 
ATOM     14  C   UNL A   1      31.040  28.325  25.401  1.00  0.00     0.027 A 
ATOM     15  C   UNL A   1      31.769  28.898  26.434  1.00  0.00     0.002 A 
ATOM     16  C   UNL A   1      32.354  26.675  27.135  1.00  0.00     0.016 A 
ATOM     17  C   UNL A   1      32.435  28.065  27.305  1.00  0.00     0.001 A 
BRANCH  13  18
ATOM     18  N   UNL A   1      29.846  26.594  24.347  1.00  0.00    -0.352 N 
ATOM     19  H   UNL A   1      29.255  25.839  24.568  1.00  0.00     0.167 HD
BRANCH  18  20
ATOM     20  C   UNL A   1      29.596  27.320  23.127  1.00  0.00     0.077 A 
ATOM     21  C   UNL A   1      32.401  29.246  22.380  1.00  0.00     0.046 C 
ATOM     22  C   UNL A   1      30.956  28.937  22.135  1.00  0.00    -0.030 A 
ATOM     23  C   UNL A   1      29.892  29.845  22.109  1.00  0.00     0.006 A 
ATOM     24  C   UNL A   1      30.658  27.608  22.284  1.00  0.00     0.069 A 
ATOM     25  C   UNL A   1      28.613  29.429  22.483  1.00  0.00     0.023 A 
ATOM     26  Cl  UNL A   1      31.727  26.427  21.610  1.00  0.00    -0.082 Cl
ATOM     27  C   UNL A   1      28.487  28.179  23.076  1.00  0.00     0.066 A 
ATOM     28  Cl  UNL A   1      27.020  27.762  23.878  1.00  0.00    -0.082 Cl
ENDBRANCH  18  20
ENDBRANCH  13  18
ENDBRANCH   9  12
ENDBRANCH   6   8
ENDBRANCH   4   6
ENDBRANCH   3   4
ENDBRANCH   2   3
ENDBRANCH   1   2
BRANCH   1  29
ATOM     29  O   UNL A   1      36.324  21.899  25.851  1.00  0.00    -0.374 OA
BRANCH  29  30
ATOM     30  C   UNL A   1      36.622  20.775  24.991  1.00  0.00     0.202 C 
BRANCH  30  31
ATOM     31  C   UNL A   1      38.001  20.096  25.172  1.00  0.00     0.261 C 
BRANCH  31  32
ATOM     32  O   UNL A   1      38.978  21.110  25.399  1.00  0.00    -0.460 OA
BRANCH  32  33
ATOM     33  C   UNL A   1      40.024  20.792  26.174  1.00  0.00     0.338 C 
ATOM     34  O   UNL A   1      40.773  19.827  26.084  1.00  0.00    -0.246 OA
BRANCH  33  35
ATOM     35  C   UNL A   1      40.266  21.984  26.988  1.00  0.00     0.060 A 
ATOM     36  C   UNL A   1      39.478  23.103  26.690  1.00  0.00     0.016 A 
ATOM     37  C   UNL A   1      41.282  22.053  27.935  1.00  0.00     0.016 A 
ATOM     38  C   UNL A   1      39.703  24.311  27.321  1.00  0.00     0.010 A 
ATOM     39  C   UNL A   1      41.550  23.288  28.535  1.00  0.00     0.010 A 
ATOM     40  C   UNL A   1      40.800  24.428  28.176  1.00  0.00    -0.014 A 
BRANCH  40  41
ATOM     41  C   UNL A   1      41.345  25.790  28.362  1.00  0.00     0.031 A 
ATOM     42  C   UNL A   1      42.701  26.085  27.774  1.00  0.00     0.074 A 
ATOM     43  C   UNL A   1      40.619  26.780  28.908  1.00  0.00     0.049 A 
ATOM     44  N   UNL A   1      43.383  27.199  27.786  1.00  0.00    -0.248 NA
ATOM     45  C   UNL A   1      43.372  24.978  27.069  1.00  0.00     0.031 C 
ATOM     46  C   UNL A   1      39.265  26.651  29.438  1.00  0.00     0.029 A 
ATOM     47  N   UNL A   1      40.943  28.097  29.109  1.00  0.00    -0.354 N 
ATOM     48  C   UNL A   1      44.575  26.917  27.132  1.00  0.00     0.074 A 
ATOM     49  C   UNL A   1      44.528  25.528  26.736  1.00  0.00     0.031 C 
ATOM     50  C   UNL A   1      38.884  27.840  29.939  1.00  0.00     0.029 A 
ATOM     51  C   UNL A   1      39.977  28.801  29.785  1.00  0.00     0.049 A 
ATOM     52  H   UNL A   1      41.786  28.499  28.798  1.00  0.00     0.167 HD
ATOM     53  C   UNL A   1      45.617  27.739  26.872  1.00  0.00     0.034 A 
ATOM     54  C   UNL A   1      39.990  30.066  30.250  1.00  0.00     0.034 A 
ATOM     55  C   UNL A   1      45.664  29.128  27.230  1.00  0.00     0.049 A 
ATOM     56  C   UNL A   1      41.186  30.948  29.992  1.00  0.00     0.074 A 
ATOM     57  C   UNL A   1      46.676  30.040  26.991  1.00  0.00     0.029 A 
ATOM     58  N   UNL A   1      44.665  29.807  27.907  1.00  0.00    -0.354 N 
ATOM     59  N   UNL A   1      42.277  30.690  29.312  1.00  0.00    -0.248 NA
ATOM     60  C   UNL A   1      41.133  32.314  30.538  1.00  0.00     0.031 C 
ATOM     61  C   UNL A   1      46.299  31.268  27.545  1.00  0.00     0.029 A 
ATOM     62  C   UNL A   1      45.037  31.127  28.099  1.00  0.00     0.049 A 
ATOM     63  H   UNL A   1      43.814  29.410  28.206  1.00  0.00     0.167 HD
ATOM     64  C   UNL A   1      43.017  31.869  29.314  1.00  0.00     0.074 A 
ATOM     65  C   UNL A   1      42.242  32.849  30.045  1.00  0.00     0.031 C 
ATOM     66  C   UNL A   1      44.235  32.116  28.769  1.00  0.00     0.034 A 
BRANCH  53  67
ATOM     67  C   UNL A   1      46.800  27.151  26.153  1.00  0.00     0.023 A 
ATOM     68  C   UNL A   1      46.859  27.192  24.746  1.00  0.00     0.012 A 
ATOM     69  C   UNL A   1      47.876  26.607  26.879  1.00  0.00     0.148 A 
ATOM     70  C   UNL A   1      47.964  26.677  24.070  1.00  0.00     0.002 A 
ATOM     71  C   UNL A   1      48.993  26.138  26.200  1.00  0.00     0.091 A 
ATOM     72  F   UNL A   1      47.783  26.549  28.215  1.00  0.00    -0.205 F 
ATOM     73  C   UNL A   1      49.035  26.164  24.797  1.00  0.00     0.022 A 
BRANCH  71  74
ATOM     74  S   UNL A   1      50.455  25.538  27.052  1.00  0.00     0.127 S 
ATOM     75  O   UNL A   1      51.371  25.305  25.938  1.00  0.00    -0.237 OA
ATOM     76  O   UNL A   1      50.805  26.677  27.901  1.00  0.00    -0.237 OA
ATOM     77  O   UNL A   1      50.036  24.347  27.779  1.00  0.00    -0.744 OA
ENDBRANCH  71  74
ENDBRANCH  53  67
BRANCH  54  78
ATOM     78  C   UNL A   1      38.820  30.589  31.006  1.00  0.00     0.023 A 
ATOM     79  C   UNL A   1      38.790  30.478  32.409  1.00  0.00     0.012 A 
ATOM     80  C   UNL A   1      37.732  31.185  30.338  1.00  0.00     0.148 A 
ATOM     81  C   UNL A   1      37.682  30.919  33.132  1.00  0.00     0.002 A 
ATOM     82  C   UNL A   1      36.659  31.676  31.069  1.00  0.00     0.091 A 
ATOM     83  F   UNL A   1      37.772  31.261  29.001  1.00  0.00    -0.205 F 
ATOM     84  C   UNL A   1      36.621  31.526  32.464  1.00  0.00     0.022 A 
BRANCH  82  85
ATOM     85  S   UNL A   1      35.312  32.585  30.305  1.00  0.00     0.127 S 
ATOM     86  O   UNL A   1      34.386  32.743  31.423  1.00  0.00    -0.237 OA
ATOM     87  O   UNL A   1      35.983  33.815  29.881  1.00  0.00    -0.237 OA
ATOM     88  O   UNL A   1      34.844  31.747  29.209  1.00  0.00    -0.744 OA
ENDBRANCH  82  85
ENDBRANCH  54  78
BRANCH  66  89
ATOM     89  C   UNL A   1      44.794  33.514  28.880  1.00  0.00     0.023 A 
ATOM     90  C   UNL A   1      44.531  34.462  27.871  1.00  0.00     0.012 A 
ATOM     91  C   UNL A   1      45.526  33.905  30.019  1.00  0.00     0.148 A 
ATOM     92  C   UNL A   1      45.020  35.765  27.977  1.00  0.00     0.002 A 
ATOM     93  C   UNL A   1      45.968  35.218  30.140  1.00  0.00     0.091 A 
ATOM     94  F   UNL A   1      45.782  32.988  30.964  1.00  0.00    -0.205 F 
ATOM     95  C   UNL A   1      45.729  36.145  29.114  1.00  0.00     0.022 A 
BRANCH  93  96
ATOM     96  S   UNL A   1      46.808  35.817  31.613  1.00  0.00     0.127 S 
ATOM     97  O   UNL A   1      48.037  35.028  31.597  1.00  0.00    -0.237 OA
ATOM     98  O   UNL A   1      46.992  37.238  31.313  1.00  0.00    -0.237 OA
ATOM     99  O   UNL A   1      45.902  35.550  32.722  1.00  0.00    -0.744 OA
ENDBRANCH  93  96
ENDBRANCH  66  89
ENDBRANCH  40  41
ENDBRANCH  33  35
ENDBRANCH  32  33
ENDBRANCH  31  32
ENDBRANCH  30  31
ENDBRANCH  29  30
ENDBRANCH   1  29
TORSDOF 21
ENDMDL
MODEL 3
REMARK VINA RESULT:     -10.9      2.071      8.402
REMARK SMILES Cc1ccc(Cl)c(Nc2ccccc2C(=O)N[C@@H](C)C(=O)OCCOCCOC(=O)c2ccc(-c3c4nc(c(-c5cccc(S(=O)(=O)[O-])c5F)c5ccc([nH]5)c(-c5cccc(S(=O)(=O)[O-])c5F)c5nc(c(-c6cccc(S(=O)(=O)[O-])c6F)c6ccc3[nH]6)C=C5)C=C4)cc2)c1Cl
REMARK SMILES IDX 24 1 23 2 22 3 20 4 21 5 18 6 19 7 17 8 15 9 16 10 14 12
REMARK SMILES IDX 9 13 10 14 11 15 13 16 12 17 8 18 7 20 1 21 2 22 3 23 94 24
REMARK SMILES IDX 4 25 95 26 5 27 6 28 25 29 26 30 27 31 28 32 29 33 30 34
REMARK SMILES IDX 31 35 32 36 93 37 33 38 92 39 34 40 35 41 36 42 86 43 37 44
REMARK SMILES IDX 91 45 85 46 87 47 38 48 90 49 84 50 83 51 39 53 71 54 51 55
REMARK SMILES IDX 70 56 52 57 55 58 69 59 88 60 53 61 54 62 68 64 89 65 56 66
REMARK SMILES IDX 40 67 41 68 49 69 42 70 44 71 50 72 43 73 45 74 46 75 47 76
REMARK SMILES IDX 48 77 72 78 73 79 81 80 74 81 76 82 82 83 75 84 77 85 78 86
REMARK SMILES IDX 79 87 80 88 57 89 58 90 66 91 59 92 61 93 67 94 60 95 62 96
REMARK SMILES IDX 63 97 64 98 65 99
REMARK H PARENT 17 11 8 19 87 52 55 63
REMARK Flexibility Score: inf
ROOT
ATOM      1  C   UNL A   1      36.679  22.073  24.578  1.00  0.00     0.202 C 
ENDROOT
BRANCH   1   2
ATOM      2  C   UNL A   1      36.697  22.845  23.182  1.00  0.00     0.261 C 
BRANCH   2   3
ATOM      3  O   UNL A   1      35.451  23.352  22.588  1.00  0.00    -0.462 OA
BRANCH   3   4
ATOM      4  C   UNL A   1      34.759  24.307  23.312  1.00  0.00     0.328 C 
ATOM      5  O   UNL A   1      35.238  24.841  24.313  1.00  0.00    -0.250 OA
BRANCH   4   6
ATOM      6  C   UNL A   1      33.410  24.853  22.659  1.00  0.00     0.189 C 
ATOM      7  C   UNL A   1      33.433  26.385  22.608  1.00  0.00     0.043 C 
BRANCH   6   8
ATOM      8  N   UNL A   1      32.107  24.432  23.168  1.00  0.00    -0.339 N 
ATOM      9  C   UNL A   1      31.621  23.568  24.127  1.00  0.00     0.254 C 
ATOM     10  O   UNL A   1      30.393  23.416  23.989  1.00  0.00    -0.269 OA
ATOM     11  H   UNL A   1      31.374  24.890  22.697  1.00  0.00     0.164 HD
BRANCH   9  12
ATOM     12  C   UNL A   1      32.263  22.833  25.319  1.00  0.00     0.063 A 
ATOM     13  C   UNL A   1      32.935  21.593  25.498  1.00  0.00     0.051 A 
ATOM     14  C   UNL A   1      33.443  21.233  26.788  1.00  0.00     0.027 A 
ATOM     15  C   UNL A   1      33.377  22.078  27.887  1.00  0.00     0.002 A 
ATOM     16  C   UNL A   1      32.177  23.636  26.505  1.00  0.00     0.016 A 
ATOM     17  C   UNL A   1      32.734  23.288  27.744  1.00  0.00     0.001 A 
BRANCH  13  18
ATOM     18  N   UNL A   1      33.423  20.726  24.492  1.00  0.00    -0.352 N 
ATOM     19  H   UNL A   1      34.305  20.918  24.102  1.00  0.00     0.167 HD
BRANCH  18  20
ATOM     20  C   UNL A   1      32.700  19.577  24.008  1.00  0.00     0.077 A 
ATOM     21  C   UNL A   1      34.670  16.741  24.476  1.00  0.00     0.046 C 
ATOM     22  C   UNL A   1      33.477  17.382  23.835  1.00  0.00    -0.030 A 
ATOM     23  C   UNL A   1      33.124  17.343  22.482  1.00  0.00     0.006 A 
ATOM     24  C   UNL A   1      32.900  18.348  24.618  1.00  0.00     0.069 A 
ATOM     25  C   UNL A   1      32.419  18.405  21.915  1.00  0.00     0.023 A 
ATOM     26  Cl  UNL A   1      32.679  18.039  26.305  1.00  0.00    -0.082 Cl
ATOM     27  C   UNL A   1      32.283  19.566  22.668  1.00  0.00     0.066 A 
ATOM     28  Cl  UNL A   1      31.752  21.017  21.905  1.00  0.00    -0.082 Cl
ENDBRANCH  18  20
ENDBRANCH  13  18
ENDBRANCH   9  12
ENDBRANCH   6   8
ENDBRANCH   4   6
ENDBRANCH   3   4
ENDBRANCH   2   3
ENDBRANCH   1   2
BRANCH   1  29
ATOM     29  O   UNL A   1      36.440  20.663  24.635  1.00  0.00    -0.374 OA
BRANCH  29  30
ATOM     30  C   UNL A   1      37.588  19.787  24.698  1.00  0.00     0.202 C 
BRANCH  30  31
ATOM     31  C   UNL A   1      38.554  19.975  25.893  1.00  0.00     0.261 C 
BRANCH  31  32
ATOM     32  O   UNL A   1      39.779  20.517  25.404  1.00  0.00    -0.460 OA
BRANCH  32  33
ATOM     33  C   UNL A   1      40.849  20.440  26.207  1.00  0.00     0.338 C 
ATOM     34  O   UNL A   1      41.759  19.621  26.186  1.00  0.00    -0.246 OA
BRANCH  33  35
ATOM     35  C   UNL A   1      40.858  21.703  26.945  1.00  0.00     0.060 A 
ATOM     36  C   UNL A   1      40.215  22.783  26.327  1.00  0.00     0.016 A 
ATOM     37  C   UNL A   1      41.546  21.868  28.143  1.00  0.00     0.016 A 
ATOM     38  C   UNL A   1      40.263  24.046  26.885  1.00  0.00     0.010 A 
ATOM     39  C   UNL A   1      41.645  23.155  28.682  1.00  0.00     0.010 A 
ATOM     40  C   UNL A   1      41.057  24.250  28.015  1.00  0.00    -0.014 A 
BRANCH  40  41
ATOM     41  C   UNL A   1      41.546  25.629  28.232  1.00  0.00     0.031 A 
ATOM     42  C   UNL A   1      42.906  25.982  27.685  1.00  0.00     0.074 A 
ATOM     43  C   UNL A   1      40.770  26.584  28.771  1.00  0.00     0.049 A 
ATOM     44  N   UNL A   1      43.545  27.119  27.729  1.00  0.00    -0.248 NA
ATOM     45  C   UNL A   1      43.635  24.909  26.985  1.00  0.00     0.031 C 
ATOM     46  C   UNL A   1      39.407  26.399  29.262  1.00  0.00     0.029 A 
ATOM     47  N   UNL A   1      41.039  27.910  28.996  1.00  0.00    -0.354 N 
ATOM     48  C   UNL A   1      44.764  26.889  27.105  1.00  0.00     0.074 A 
ATOM     49  C   UNL A   1      44.779  25.505  26.690  1.00  0.00     0.031 C 
ATOM     50  C   UNL A   1      38.969  27.566  29.766  1.00  0.00     0.029 A 
ATOM     51  C   UNL A   1      40.031  28.568  29.654  1.00  0.00     0.049 A 
ATOM     52  H   UNL A   1      41.875  28.346  28.713  1.00  0.00     0.167 HD
ATOM     53  C   UNL A   1      45.781  27.753  26.883  1.00  0.00     0.034 A 
ATOM     54  C   UNL A   1      39.984  29.827  30.135  1.00  0.00     0.034 A 
ATOM     55  C   UNL A   1      45.767  29.138  27.259  1.00  0.00     0.049 A 
ATOM     56  C   UNL A   1      41.153  30.755  29.920  1.00  0.00     0.074 A 
ATOM     57  C   UNL A   1      46.751  30.089  27.059  1.00  0.00     0.029 A 
ATOM     58  N   UNL A   1      44.726  29.770  27.916  1.00  0.00    -0.354 N 
ATOM     59  N   UNL A   1      42.270  30.547  29.267  1.00  0.00    -0.248 NA
ATOM     60  C   UNL A   1      41.035  32.111  30.481  1.00  0.00     0.031 C 
ATOM     61  C   UNL A   1      46.314  31.295  27.617  1.00  0.00     0.029 A 
ATOM     62  C   UNL A   1      45.044  31.100  28.135  1.00  0.00     0.049 A 
ATOM     63  H   UNL A   1      43.883  29.339  28.188  1.00  0.00     0.167 HD
ATOM     64  C   UNL A   1      42.967  31.752  29.303  1.00  0.00     0.074 A 
ATOM     65  C   UNL A   1      42.136  32.693  30.026  1.00  0.00     0.031 C 
ATOM     66  C   UNL A   1      44.188  32.051  28.795  1.00  0.00     0.034 A 
BRANCH  53  67
ATOM     67  C   UNL A   1      47.004  27.218  26.189  1.00  0.00     0.023 A 
ATOM     68  C   UNL A   1      47.152  27.384  24.798  1.00  0.00     0.012 A 
ATOM     69  C   UNL A   1      48.029  26.598  26.929  1.00  0.00     0.148 A 
ATOM     70  C   UNL A   1      48.295  26.920  24.149  1.00  0.00     0.002 A 
ATOM     71  C   UNL A   1      49.184  26.180  26.282  1.00  0.00     0.091 A 
ATOM     72  F   UNL A   1      47.851  26.422  28.246  1.00  0.00    -0.205 F 
ATOM     73  C   UNL A   1      49.314  26.330  24.892  1.00  0.00     0.022 A 
BRANCH  71  74
ATOM     74  S   UNL A   1      50.586  25.489  27.166  1.00  0.00     0.127 S 
ATOM     75  O   UNL A   1      50.007  24.272  27.731  1.00  0.00    -0.237 OA
ATOM     76  O   UNL A   1      51.547  25.263  26.088  1.00  0.00    -0.237 OA
ATOM     77  O   UNL A   1      50.987  26.500  28.134  1.00  0.00    -0.744 OA
ENDBRANCH  71  74
ENDBRANCH  53  67
BRANCH  54  78
ATOM     78  C   UNL A   1      38.776  30.296  30.866  1.00  0.00     0.023 A 
ATOM     79  C   UNL A   1      38.649  30.037  32.243  1.00  0.00     0.012 A 
ATOM     80  C   UNL A   1      37.748  30.990  30.197  1.00  0.00     0.148 A 
ATOM     81  C   UNL A   1      37.503  30.427  32.936  1.00  0.00     0.002 A 
ATOM     82  C   UNL A   1      36.637  31.428  30.905  1.00  0.00     0.091 A 
ATOM     83  F   UNL A   1      37.880  31.207  28.881  1.00  0.00    -0.205 F 
ATOM     84  C   UNL A   1      36.502  31.131  32.270  1.00  0.00     0.022 A 
BRANCH  82  85
ATOM     85  S   UNL A   1      35.363  32.449  30.158  1.00  0.00     0.127 S 
ATOM     86  O   UNL A   1      34.883  31.588  29.080  1.00  0.00    -0.237 OA
ATOM     87  O   UNL A   1      34.428  32.623  31.271  1.00  0.00    -0.237 OA
ATOM     88  O   UNL A   1      36.034  33.672  29.740  1.00  0.00    -0.744 OA
ENDBRANCH  82  85
ENDBRANCH  54  78
BRANCH  66  89
ATOM     89  C   UNL A   1      44.692  33.466  28.939  1.00  0.00     0.023 A 
ATOM     90  C   UNL A   1      44.389  34.427  27.953  1.00  0.00     0.012 A 
ATOM     91  C   UNL A   1      45.411  33.859  30.085  1.00  0.00     0.148 A 
ATOM     92  C   UNL A   1      44.826  35.745  28.089  1.00  0.00     0.002 A 
ATOM     93  C   UNL A   1      45.802  35.185  30.236  1.00  0.00     0.091 A 
ATOM     94  F   UNL A   1      45.706  32.930  31.007  1.00  0.00    -0.205 F 
ATOM     95  C   UNL A   1      45.523  36.126  29.233  1.00  0.00     0.022 A 
BRANCH  93  96
ATOM     96  S   UNL A   1      46.622  35.781  31.721  1.00  0.00     0.127 S 
ATOM     97  O   UNL A   1      45.650  35.435  32.757  1.00  0.00    -0.237 OA
ATOM     98  O   UNL A   1      47.849  34.983  31.745  1.00  0.00    -0.237 OA
ATOM     99  O   UNL A   1      46.837  37.207  31.511  1.00  0.00    -0.744 OA
ENDBRANCH  93  96
ENDBRANCH  66  89
ENDBRANCH  40  41
ENDBRANCH  33  35
ENDBRANCH  32  33
ENDBRANCH  31  32
ENDBRANCH  30  31
ENDBRANCH  29  30
ENDBRANCH   1  29
TORSDOF 21
ENDMDL
