MODEL 1
REMARK VINA RESULT:     -12.5      0.000      0.000
REMARK SMILES O=C(OCCOCCOC(=O)c1ccc(-c2c3nc(c(-c4cccc(S(=O)(=O)[O-])c4F)c4ccc([nH]4)c(-c4cccc(S(=O)(=O)[O-])c4F)c4nc(c(-c5cccc(S(=O)(=O)[O-])c5F)c5ccc2[nH]5)C=C4)C=C3)cc1)C1=Cc2cc(Cl)cc(Cl)c2O[C@@H]1C(F)(F)F
REMARK SMILES IDX 7 1 6 2 5 3 4 4 3 5 2 6 1 7 75 8 76 9 86 10 77 11 85 12
REMARK SMILES IDX 78 13 84 14 79 15 82 16 80 17 81 18 83 19 87 20 88 21 89 22
REMARK SMILES IDX 90 23 8 24 9 25 10 26 11 27 12 28 13 29 74 30 14 31 73 32
REMARK SMILES IDX 15 33 16 34 17 35 67 36 18 37 72 38 66 39 68 40 19 41 71 42
REMARK SMILES IDX 65 43 64 44 20 46 52 47 32 48 51 49 33 50 36 51 50 52 69 53
REMARK SMILES IDX 34 54 35 55 49 57 70 58 37 59 21 60 22 61 30 62 23 63 25 64
REMARK SMILES IDX 31 65 24 66 26 67 27 68 28 69 29 70 53 71 54 72 62 73 55 74
REMARK SMILES IDX 57 75 63 76 56 77 58 78 59 79 60 80 61 81 38 82 39 83 47 84
REMARK SMILES IDX 40 85 42 86 48 87 41 88 43 89 44 90 45 91 46 92
REMARK H PARENT 68 45 36 56
REMARK Flexibility Score: inf
ROOT
ATOM      1  C   UNL A   1      31.113  29.991  24.553  1.00  0.00     0.202 C 
ENDROOT
BRANCH   1   2
ATOM      2  O   UNL A   1      30.106  29.195  23.909  1.00  0.00    -0.374 OA
BRANCH   2   3
ATOM      3  C   UNL A   1      29.823  27.654  23.815  1.00  0.00     0.202 C 
BRANCH   3   4
ATOM      4  C   UNL A   1      30.784  26.039  22.709  1.00  0.00     0.261 C 
BRANCH   4   5
ATOM      5  O   UNL A   1      32.151  26.102  21.980  1.00  0.00    -0.460 OA
BRANCH   5   6
ATOM      6  C   UNL A   1      32.825  24.950  22.022  1.00  0.00     0.338 C 
ATOM      7  O   UNL A   1      33.364  24.322  21.150  1.00  0.00    -0.246 OA
BRANCH   6   8
ATOM      8  C   UNL A   1      32.419  24.612  23.364  1.00  0.00     0.087 C 
ATOM      9  C   UNL A   1      31.841  23.227  23.384  1.00  0.00     0.027 C 
ATOM     10  C   UNL A   1      34.063  25.134  24.253  1.00  0.00     0.316 C 
ATOM     11  C   UNL A   1      32.690  21.803  24.150  1.00  0.00     0.020 A 
ATOM     12  O   UNL A   1      34.985  23.624  25.009  1.00  0.00    -0.474 OA
ATOM     13  C   UNL A   1      32.192  20.542  23.949  1.00  0.00     0.032 A 
ATOM     14  C   UNL A   1      34.280  21.955  24.832  1.00  0.00     0.146 A 
ATOM     15  C   UNL A   1      33.072  19.492  24.280  1.00  0.00     0.043 A 
ATOM     16  C   UNL A   1      35.101  20.874  24.976  1.00  0.00     0.085 A 
ATOM     17  Cl  UNL A   1      32.473  17.878  24.055  1.00  0.00    -0.084 Cl
ATOM     18  C   UNL A   1      34.452  19.643  24.721  1.00  0.00     0.045 A 
ATOM     19  Cl  UNL A   1      36.790  20.996  25.113  1.00  0.00    -0.080 Cl
BRANCH  10  20
ATOM     20  C   UNL A   1      33.661  26.509  24.903  1.00  0.00     0.430 C 
ATOM     21  F   UNL A   1      33.553  27.541  24.048  1.00  0.00    -0.167 F 
ATOM     22  F   UNL A   1      32.408  26.352  25.428  1.00  0.00    -0.167 F 
ATOM     23  F   UNL A   1      34.417  26.880  25.962  1.00  0.00    -0.167 F 
ENDBRANCH  10  20
ENDBRANCH   6   8
ENDBRANCH   5   6
ENDBRANCH   4   5
ENDBRANCH   3   4
ENDBRANCH   2   3
ENDBRANCH   1   2
BRANCH   1  24
ATOM     24  C   UNL A   1      31.748  29.600  25.871  1.00  0.00     0.261 C 
BRANCH  24  25
ATOM     25  O   UNL A   1      33.067  30.086  26.004  1.00  0.00    -0.460 OA
BRANCH  25  26
ATOM     26  C   UNL A   1      33.213  31.077  26.906  1.00  0.00     0.338 C 
ATOM     27  O   UNL A   1      32.436  31.978  27.159  1.00  0.00    -0.246 OA
BRANCH  26  28
ATOM     28  C   UNL A   1      34.496  30.848  27.585  1.00  0.00     0.060 A 
ATOM     29  C   UNL A   1      34.853  29.535  27.901  1.00  0.00     0.016 A 
ATOM     30  C   UNL A   1      35.364  31.921  27.838  1.00  0.00     0.016 A 
ATOM     31  C   UNL A   1      36.113  29.283  28.434  1.00  0.00     0.010 A 
ATOM     32  C   UNL A   1      36.620  31.668  28.365  1.00  0.00     0.010 A 
ATOM     33  C   UNL A   1      36.989  30.350  28.672  1.00  0.00    -0.014 A 
BRANCH  33  34
ATOM     34  C   UNL A   1      38.202  30.155  29.478  1.00  0.00     0.031 A 
ATOM     35  C   UNL A   1      39.192  29.160  28.962  1.00  0.00     0.074 A 
ATOM     36  C   UNL A   1      38.352  30.749  30.671  1.00  0.00     0.049 A 
ATOM     37  N   UNL A   1      40.278  28.709  29.521  1.00  0.00    -0.248 NA
ATOM     38  C   UNL A   1      38.898  28.579  27.639  1.00  0.00     0.031 C 
ATOM     39  C   UNL A   1      37.420  31.705  31.266  1.00  0.00     0.029 A 
ATOM     40  N   UNL A   1      39.326  30.588  31.621  1.00  0.00    -0.354 N 
ATOM     41  C   UNL A   1      40.779  27.766  28.636  1.00  0.00     0.074 A 
ATOM     42  C   UNL A   1      39.874  27.697  27.513  1.00  0.00     0.031 C 
ATOM     43  C   UNL A   1      37.846  32.015  32.502  1.00  0.00     0.029 A 
ATOM     44  C   UNL A   1      39.059  31.253  32.793  1.00  0.00     0.049 A 
ATOM     45  H   UNL A   1      40.137  30.048  31.477  1.00  0.00     0.167 HD
ATOM     46  C   UNL A   1      41.900  27.021  28.752  1.00  0.00     0.034 A 
ATOM     47  C   UNL A   1      39.706  31.213  33.975  1.00  0.00     0.034 A 
ATOM     48  C   UNL A   1      42.762  27.071  29.895  1.00  0.00     0.049 A 
ATOM     49  C   UNL A   1      40.940  30.359  34.097  1.00  0.00     0.074 A 
ATOM     50  C   UNL A   1      43.948  26.397  30.108  1.00  0.00     0.029 A 
ATOM     51  N   UNL A   1      42.504  27.812  31.040  1.00  0.00    -0.354 N 
ATOM     52  N   UNL A   1      41.489  29.571  33.203  1.00  0.00    -0.248 NA
ATOM     53  C   UNL A   1      41.665  30.410  35.374  1.00  0.00     0.031 C 
ATOM     54  C   UNL A   1      44.379  26.688  31.407  1.00  0.00     0.029 A 
ATOM     55  C   UNL A   1      43.497  27.595  31.976  1.00  0.00     0.049 A 
ATOM     56  H   UNL A   1      41.727  28.403  31.167  1.00  0.00     0.167 HD
ATOM     57  C   UNL A   1      42.645  29.068  33.789  1.00  0.00     0.074 A 
ATOM     58  C   UNL A   1      42.717  29.641  35.119  1.00  0.00     0.031 C 
ATOM     59  C   UNL A   1      43.566  28.215  33.276  1.00  0.00     0.034 A 
BRANCH  46  60
ATOM     60  C   UNL A   1      42.209  26.078  27.622  1.00  0.00     0.023 A 
ATOM     61  C   UNL A   1      42.932  26.531  26.499  1.00  0.00     0.012 A 
ATOM     62  C   UNL A   1      41.747  24.751  27.658  1.00  0.00     0.148 A 
ATOM     63  C   UNL A   1      43.136  25.695  25.402  1.00  0.00     0.002 A 
ATOM     64  C   UNL A   1      42.005  23.906  26.587  1.00  0.00     0.091 A 
ATOM     65  F   UNL A   1      41.032  24.349  28.719  1.00  0.00    -0.205 F 
ATOM     66  C   UNL A   1      42.680  24.380  25.451  1.00  0.00     0.022 A 
BRANCH  64  67
ATOM     67  S   UNL A   1      41.529  22.176  26.592  1.00  0.00     0.127 S 
ATOM     68  O   UNL A   1      40.071  22.271  26.523  1.00  0.00    -0.237 OA
ATOM     69  O   UNL A   1      42.167  21.682  25.371  1.00  0.00    -0.237 OA
ATOM     70  O   UNL A   1      42.062  21.615  27.825  1.00  0.00    -0.744 OA
ENDBRANCH  64  67
ENDBRANCH  46  60
BRANCH  47  71
ATOM     71  C   UNL A   1      39.206  32.025  35.118  1.00  0.00     0.023 A 
ATOM     72  C   UNL A   1      38.235  31.487  35.984  1.00  0.00     0.012 A 
ATOM     73  C   UNL A   1      39.723  33.310  35.378  1.00  0.00     0.148 A 
ATOM     74  C   UNL A   1      37.772  32.221  37.077  1.00  0.00     0.002 A 
ATOM     75  C   UNL A   1      39.297  34.015  36.497  1.00  0.00     0.091 A 
ATOM     76  F   UNL A   1      40.644  33.802  34.538  1.00  0.00    -0.205 F 
ATOM     77  C   UNL A   1      38.310  33.479  37.339  1.00  0.00     0.022 A 
BRANCH  75  78
ATOM     78  S   UNL A   1      40.014  35.587  36.984  1.00  0.00     0.127 S 
ATOM     79  O   UNL A   1      39.645  36.446  35.860  1.00  0.00    -0.237 OA
ATOM     80  O   UNL A   1      39.301  35.863  38.231  1.00  0.00    -0.237 OA
ATOM     81  O   UNL A   1      41.440  35.342  37.142  1.00  0.00    -0.744 OA
ENDBRANCH  75  78
ENDBRANCH  47  71
BRANCH  59  82
ATOM     82  C   UNL A   1      44.776  27.891  34.111  1.00  0.00     0.023 A 
ATOM     83  C   UNL A   1      45.896  28.742  34.109  1.00  0.00     0.012 A 
ATOM     84  C   UNL A   1      44.735  26.796  34.999  1.00  0.00     0.148 A 
ATOM     85  C   UNL A   1      46.969  28.497  34.968  1.00  0.00     0.002 A 
ATOM     86  C   UNL A   1      45.779  26.593  35.890  1.00  0.00     0.091 A 
ATOM     87  F   UNL A   1      43.663  25.991  34.970  1.00  0.00    -0.205 F 
ATOM     88  C   UNL A   1      46.902  27.434  35.868  1.00  0.00     0.022 A 
BRANCH  86  89
ATOM     89  S   UNL A   1      45.728  25.322  37.157  1.00  0.00     0.127 S 
ATOM     90  O   UNL A   1      46.085  24.127  36.395  1.00  0.00    -0.237 OA
ATOM     91  O   UNL A   1      46.755  25.779  38.093  1.00  0.00    -0.237 OA
ATOM     92  O   UNL A   1      44.372  25.335  37.691  1.00  0.00    -0.744 OA
ENDBRANCH  86  89
ENDBRANCH  59  82
ENDBRANCH  33  34
ENDBRANCH  26  28
ENDBRANCH  25  26
ENDBRANCH  24  25
ENDBRANCH   1  24
TORSDOF 18
ENDMDL
MODEL 2
REMARK VINA RESULT:     -12.3      5.112      8.077
REMARK SMILES O=C(OCCOCCOC(=O)c1ccc(-c2c3nc(c(-c4cccc(S(=O)(=O)[O-])c4F)c4ccc([nH]4)c(-c4cccc(S(=O)(=O)[O-])c4F)c4nc(c(-c5cccc(S(=O)(=O)[O-])c5F)c5ccc2[nH]5)C=C4)C=C3)cc1)C1=Cc2cc(Cl)cc(Cl)c2O[C@@H]1C(F)(F)F
REMARK SMILES IDX 7 1 6 2 5 3 4 4 3 5 2 6 1 7 75 8 76 9 86 10 77 11 85 12
REMARK SMILES IDX 78 13 84 14 79 15 82 16 80 17 81 18 83 19 87 20 88 21 89 22
REMARK SMILES IDX 90 23 8 24 9 25 10 26 11 27 12 28 13 29 74 30 14 31 73 32
REMARK SMILES IDX 15 33 16 34 17 35 67 36 18 37 72 38 66 39 68 40 19 41 71 42
REMARK SMILES IDX 65 43 64 44 20 46 52 47 32 48 51 49 33 50 36 51 50 52 69 53
REMARK SMILES IDX 34 54 35 55 49 57 70 58 37 59 21 60 22 61 30 62 23 63 25 64
REMARK SMILES IDX 31 65 24 66 26 67 27 68 28 69 29 70 53 71 54 72 62 73 55 74
REMARK SMILES IDX 57 75 63 76 56 77 58 78 59 79 60 80 61 81 38 82 39 83 47 84
REMARK SMILES IDX 40 85 42 86 48 87 41 88 43 89 44 90 45 91 46 92
REMARK H PARENT 68 45 36 56
REMARK Flexibility Score: inf
ROOT
ATOM      1  C   UNL A   1      37.848  20.085  25.017  1.00  0.00     0.202 C 
ENDROOT
BRANCH   1   2
ATOM      2  O   UNL A   1      37.400  21.401  25.375  1.00  0.00    -0.374 OA
BRANCH   2   3
ATOM      3  C   UNL A   1      36.896  22.646  24.561  1.00  0.00     0.202 C 
BRANCH   3   4
ATOM      4  C   UNL A   1      35.570  24.302  25.065  1.00  0.00     0.261 C 
BRANCH   4   5
ATOM      5  O   UNL A   1      34.072  24.205  25.453  1.00  0.00    -0.460 OA
BRANCH   5   6
ATOM      6  C   UNL A   1      33.799  23.163  26.243  1.00  0.00     0.338 C 
ATOM      7  O   UNL A   1      34.516  22.495  26.938  1.00  0.00    -0.246 OA
BRANCH   6   8
ATOM      8  C   UNL A   1      32.462  22.967  25.738  1.00  0.00     0.087 C 
ATOM      9  C   UNL A   1      31.688  24.248  25.848  1.00  0.00     0.027 C 
ATOM     10  C   UNL A   1      32.957  22.118  24.065  1.00  0.00     0.316 C 
ATOM     11  C   UNL A   1      31.215  25.255  24.400  1.00  0.00     0.020 A 
ATOM     12  O   UNL A   1      32.510  23.207  22.544  1.00  0.00    -0.474 OA
ATOM     13  C   UNL A   1      30.688  26.504  24.599  1.00  0.00     0.032 A 
ATOM     14  C   UNL A   1      31.720  24.827  22.794  1.00  0.00     0.146 A 
ATOM     15  C   UNL A   1      30.666  27.332  23.459  1.00  0.00     0.043 A 
ATOM     16  C   UNL A   1      31.791  25.757  21.797  1.00  0.00     0.085 A 
ATOM     17  Cl  UNL A   1      29.992  28.919  23.665  1.00  0.00    -0.084 Cl
ATOM     18  C   UNL A   1      31.222  27.002  22.154  1.00  0.00     0.045 A 
ATOM     19  Cl  UNL A   1      32.750  25.563  20.407  1.00  0.00    -0.080 Cl
BRANCH  10  20
ATOM     20  C   UNL A   1      32.640  20.605  24.360  1.00  0.00     0.430 C 
ATOM     21  F   UNL A   1      31.653  20.384  25.247  1.00  0.00    -0.167 F 
ATOM     22  F   UNL A   1      32.194  20.054  23.191  1.00  0.00    -0.167 F 
ATOM     23  F   UNL A   1      33.715  19.852  24.689  1.00  0.00    -0.167 F 
ENDBRANCH  10  20
ENDBRANCH   6   8
ENDBRANCH   5   6
ENDBRANCH   4   5
ENDBRANCH   3   4
ENDBRANCH   2   3
ENDBRANCH   1   2
BRANCH   1  24
ATOM     24  C   UNL A   1      39.029  19.411  25.684  1.00  0.00     0.261 C 
BRANCH  24  25
ATOM     25  O   UNL A   1      40.158  20.253  25.770  1.00  0.00    -0.460 OA
BRANCH  25  26
ATOM     26  C   UNL A   1      40.674  20.379  27.009  1.00  0.00     0.338 C 
ATOM     27  O   UNL A   1      40.919  19.496  27.810  1.00  0.00    -0.246 OA
BRANCH  26  28
ATOM     28  C   UNL A   1      40.940  21.808  27.216  1.00  0.00     0.060 A 
ATOM     29  C   UNL A   1      40.450  22.717  26.275  1.00  0.00     0.016 A 
ATOM     30  C   UNL A   1      41.607  22.244  28.371  1.00  0.00     0.016 A 
ATOM     31  C   UNL A   1      40.585  24.081  26.511  1.00  0.00     0.010 A 
ATOM     32  C   UNL A   1      41.738  23.603  28.608  1.00  0.00     0.010 A 
ATOM     33  C   UNL A   1      41.235  24.519  27.672  1.00  0.00    -0.014 A 
BRANCH  33  34
ATOM     34  C   UNL A   1      41.635  25.926  27.818  1.00  0.00     0.031 A 
ATOM     35  C   UNL A   1      43.022  26.272  27.381  1.00  0.00     0.074 A 
ATOM     36  C   UNL A   1      40.838  26.821  28.421  1.00  0.00     0.049 A 
ATOM     37  N   UNL A   1      43.671  27.395  27.503  1.00  0.00    -0.248 NA
ATOM     38  C   UNL A   1      43.789  25.190  26.738  1.00  0.00     0.031 C 
ATOM     39  C   UNL A   1      39.485  26.560  28.908  1.00  0.00     0.029 A 
ATOM     40  N   UNL A   1      41.082  28.122  28.774  1.00  0.00    -0.354 N 
ATOM     41  C   UNL A   1      44.933  27.145  26.985  1.00  0.00     0.074 A 
ATOM     42  C   UNL A   1      44.966  25.765  26.563  1.00  0.00     0.031 C 
ATOM     43  C   UNL A   1      39.031  27.657  29.537  1.00  0.00     0.029 A 
ATOM     44  C   UNL A   1      40.076  28.680  29.525  1.00  0.00     0.049 A 
ATOM     45  H   UNL A   1      41.899  28.609  28.516  1.00  0.00     0.167 HD
ATOM     46  C   UNL A   1      45.976  27.997  26.872  1.00  0.00     0.034 A 
ATOM     47  C   UNL A   1      40.029  29.869  30.159  1.00  0.00     0.034 A 
ATOM     48  C   UNL A   1      45.938  29.352  27.338  1.00  0.00     0.049 A 
ATOM     49  C   UNL A   1      41.208  30.798  30.044  1.00  0.00     0.074 A 
ATOM     50  C   UNL A   1      46.915  30.322  27.239  1.00  0.00     0.029 A 
ATOM     51  N   UNL A   1      44.874  29.913  28.031  1.00  0.00    -0.354 N 
ATOM     52  N   UNL A   1      42.352  30.606  29.431  1.00  0.00    -0.248 NA
ATOM     53  C   UNL A   1      41.084  32.118  30.677  1.00  0.00     0.031 C 
ATOM     54  C   UNL A   1      46.463  31.455  27.924  1.00  0.00     0.029 A 
ATOM     55  C   UNL A   1      45.178  31.212  28.388  1.00  0.00     0.049 A 
ATOM     56  H   UNL A   1      44.029  29.453  28.238  1.00  0.00     0.167 HD
ATOM     57  C   UNL A   1      43.065  31.793  29.564  1.00  0.00     0.074 A 
ATOM     58  C   UNL A   1      42.222  32.699  30.318  1.00  0.00     0.031 C 
ATOM     59  C   UNL A   1      44.300  32.107  29.101  1.00  0.00     0.034 A 
BRANCH  46  60
ATOM     60  C   UNL A   1      47.233  27.453  26.254  1.00  0.00     0.023 A 
ATOM     61  C   UNL A   1      47.480  27.631  24.876  1.00  0.00     0.012 A 
ATOM     62  C   UNL A   1      48.152  26.729  27.033  1.00  0.00     0.148 A 
ATOM     63  C   UNL A   1      48.591  27.045  24.272  1.00  0.00     0.002 A 
ATOM     64  C   UNL A   1      49.288  26.197  26.437  1.00  0.00     0.091 A 
ATOM     65  F   UNL A   1      47.883  26.541  28.332  1.00  0.00    -0.205 F 
ATOM     66  C   UNL A   1      49.499  26.336  25.055  1.00  0.00     0.022 A 
BRANCH  64  67
ATOM     67  S   UNL A   1      50.553  25.339  27.374  1.00  0.00     0.127 S 
ATOM     68  O   UNL A   1      51.529  25.022  26.332  1.00  0.00    -0.237 OA
ATOM     69  O   UNL A   1      50.983  26.369  28.320  1.00  0.00    -0.237 OA
ATOM     70  O   UNL A   1      49.894  24.193  27.984  1.00  0.00    -0.744 OA
ENDBRANCH  64  67
ENDBRANCH  46  60
BRANCH  47  71
ATOM     71  C   UNL A   1      38.814  30.245  30.932  1.00  0.00     0.023 A 
ATOM     72  C   UNL A   1      38.729  29.919  32.300  1.00  0.00     0.012 A 
ATOM     73  C   UNL A   1      37.765  30.968  30.330  1.00  0.00     0.148 A 
ATOM     74  C   UNL A   1      37.610  30.286  33.049  1.00  0.00     0.002 A 
ATOM     75  C   UNL A   1      36.678  31.375  31.094  1.00  0.00     0.091 A 
ATOM     76  F   UNL A   1      37.867  31.264  29.027  1.00  0.00    -0.205 F 
ATOM     77  C   UNL A   1      36.591  31.023  32.450  1.00  0.00     0.022 A 
BRANCH  75  78
ATOM     78  S   UNL A   1      35.375  32.427  30.443  1.00  0.00     0.127 S 
ATOM     79  O   UNL A   1      34.452  32.494  31.574  1.00  0.00    -0.237 OA
ATOM     80  O   UNL A   1      36.104  33.664  30.168  1.00  0.00    -0.237 OA
ATOM     81  O   UNL A   1      34.866  31.745  29.262  1.00  0.00    -0.744 OA
ENDBRANCH  75  78
ENDBRANCH  47  71
BRANCH  59  82
ATOM     82  C   UNL A   1      44.807  33.507  29.325  1.00  0.00     0.023 A 
ATOM     83  C   UNL A   1      45.525  33.831  30.491  1.00  0.00     0.012 A 
ATOM     84  C   UNL A   1      44.672  34.468  28.302  1.00  0.00     0.148 A 
ATOM     85  C   UNL A   1      46.088  35.099  30.643  1.00  0.00     0.002 A 
ATOM     86  C   UNL A   1      45.283  35.706  28.435  1.00  0.00     0.091 A 
ATOM     87  F   UNL A   1      43.970  34.140  27.208  1.00  0.00    -0.205 F 
ATOM     88  C   UNL A   1      45.981  36.029  29.610  1.00  0.00     0.022 A 
BRANCH  86  89
ATOM     89  S   UNL A   1      45.294  36.920  27.112  1.00  0.00     0.127 S 
ATOM     90  O   UNL A   1      43.866  37.087  26.850  1.00  0.00    -0.237 OA
ATOM     91  O   UNL A   1      45.935  38.068  27.753  1.00  0.00    -0.237 OA
ATOM     92  O   UNL A   1      46.060  36.327  26.024  1.00  0.00    -0.744 OA
ENDBRANCH  86  89
ENDBRANCH  59  82
ENDBRANCH  33  34
ENDBRANCH  26  28
ENDBRANCH  25  26
ENDBRANCH  24  25
ENDBRANCH   1  24
TORSDOF 18
ENDMDL
MODEL 3
REMARK VINA RESULT:     -12.2      2.116      7.950
REMARK SMILES O=C(OCCOCCOC(=O)c1ccc(-c2c3nc(c(-c4cccc(S(=O)(=O)[O-])c4F)c4ccc([nH]4)c(-c4cccc(S(=O)(=O)[O-])c4F)c4nc(c(-c5cccc(S(=O)(=O)[O-])c5F)c5ccc2[nH]5)C=C4)C=C3)cc1)C1=Cc2cc(Cl)cc(Cl)c2O[C@@H]1C(F)(F)F
REMARK SMILES IDX 7 1 6 2 5 3 4 4 3 5 2 6 1 7 75 8 76 9 86 10 77 11 85 12
REMARK SMILES IDX 78 13 84 14 79 15 82 16 80 17 81 18 83 19 87 20 88 21 89 22
REMARK SMILES IDX 90 23 8 24 9 25 10 26 11 27 12 28 13 29 74 30 14 31 73 32
REMARK SMILES IDX 15 33 16 34 17 35 67 36 18 37 72 38 66 39 68 40 19 41 71 42
REMARK SMILES IDX 65 43 64 44 20 46 52 47 32 48 51 49 33 50 36 51 50 52 69 53
REMARK SMILES IDX 34 54 35 55 49 57 70 58 37 59 21 60 22 61 30 62 23 63 25 64
REMARK SMILES IDX 31 65 24 66 26 67 27 68 28 69 29 70 53 71 54 72 62 73 55 74
REMARK SMILES IDX 57 75 63 76 56 77 58 78 59 79 60 80 61 81 38 82 39 83 47 84
REMARK SMILES IDX 40 85 42 86 48 87 41 88 43 89 44 90 45 91 46 92
REMARK H PARENT 68 45 36 56
REMARK Flexibility Score: inf
ROOT
ATOM      1  C   UNL A   1      31.587  31.605  26.312  1.00  0.00     0.202 C 
ENDROOT
BRANCH   1   2
ATOM      2  O   UNL A   1      31.425  30.252  26.762  1.00  0.00    -0.374 OA
BRANCH   2   3
ATOM      3  C   UNL A   1      32.410  29.147  27.287  1.00  0.00     0.202 C 
BRANCH   3   4
ATOM      4  C   UNL A   1      33.536  27.573  26.283  1.00  0.00     0.261 C 
BRANCH   4   5
ATOM      5  O   UNL A   1      33.252  26.984  24.876  1.00  0.00    -0.460 OA
BRANCH   5   6
ATOM      6  C   UNL A   1      33.034  27.919  23.948  1.00  0.00     0.338 C 
ATOM      7  O   UNL A   1      33.253  29.101  23.957  1.00  0.00    -0.246 OA
BRANCH   6   8
ATOM      8  C   UNL A   1      32.212  27.080  23.112  1.00  0.00     0.087 C 
ATOM      9  C   UNL A   1      32.905  25.770  22.873  1.00  0.00     0.027 C 
ATOM     10  C   UNL A   1      30.561  27.288  24.110  1.00  0.00     0.316 C 
ATOM     11  C   UNL A   1      32.344  24.196  23.610  1.00  0.00     0.020 A 
ATOM     12  O   UNL A   1      30.003  25.641  24.934  1.00  0.00    -0.474 OA
ATOM     13  C   UNL A   1      33.144  23.088  23.506  1.00  0.00     0.032 A 
ATOM     14  C   UNL A   1      31.009  24.139  24.719  1.00  0.00     0.146 A 
ATOM     15  C   UNL A   1      32.810  22.027  24.371  1.00  0.00     0.043 A 
ATOM     16  C   UNL A   1      30.868  23.118  25.614  1.00  0.00     0.085 A 
ATOM     17  Cl  UNL A   1      33.791  20.598  24.259  1.00  0.00    -0.084 Cl
ATOM     18  C   UNL A   1      31.771  22.052  25.391  1.00  0.00     0.045 A 
ATOM     19  Cl  UNL A   1      29.950  23.245  27.038  1.00  0.00    -0.080 Cl
BRANCH  10  20
ATOM     20  C   UNL A   1      29.757  28.295  23.207  1.00  0.00     0.430 C 
ATOM     21  F   UNL A   1      28.423  28.128  23.202  1.00  0.00    -0.167 F 
ATOM     22  F   UNL A   1      29.954  29.544  23.728  1.00  0.00    -0.167 F 
ATOM     23  F   UNL A   1      30.202  28.397  21.933  1.00  0.00    -0.167 F 
ENDBRANCH  10  20
ENDBRANCH   6   8
ENDBRANCH   5   6
ENDBRANCH   4   5
ENDBRANCH   3   4
ENDBRANCH   2   3
ENDBRANCH   1   2
BRANCH   1  24
ATOM     24  C   UNL A   1      32.004  32.732  27.235  1.00  0.00     0.261 C 
BRANCH  24  25
ATOM     25  O   UNL A   1      33.320  33.180  26.986  1.00  0.00    -0.460 OA
BRANCH  25  26
ATOM     26  C   UNL A   1      33.884  33.863  28.001  1.00  0.00     0.338 C 
ATOM     27  O   UNL A   1      33.568  34.955  28.434  1.00  0.00    -0.246 OA
BRANCH  26  28
ATOM     28  C   UNL A   1      34.954  33.015  28.543  1.00  0.00     0.060 A 
ATOM     29  C   UNL A   1      34.623  31.731  28.983  1.00  0.00     0.016 A 
ATOM     30  C   UNL A   1      36.282  33.466  28.546  1.00  0.00     0.016 A 
ATOM     31  C   UNL A   1      35.636  30.868  29.387  1.00  0.00     0.010 A 
ATOM     32  C   UNL A   1      37.291  32.605  28.945  1.00  0.00     0.010 A 
ATOM     33  C   UNL A   1      36.965  31.309  29.374  1.00  0.00    -0.014 A 
BRANCH  33  34
ATOM     34  C   UNL A   1      38.017  30.532  30.045  1.00  0.00     0.031 A 
ATOM     35  C   UNL A   1      38.304  30.892  31.468  1.00  0.00     0.074 A 
ATOM     36  C   UNL A   1      38.756  29.634  29.378  1.00  0.00     0.049 A 
ATOM     37  N   UNL A   1      39.247  30.457  32.256  1.00  0.00    -0.248 NA
ATOM     38  C   UNL A   1      37.416  31.900  32.075  1.00  0.00     0.031 C 
ATOM     39  C   UNL A   1      38.566  29.248  27.982  1.00  0.00     0.029 A 
ATOM     40  N   UNL A   1      39.856  28.923  29.781  1.00  0.00    -0.354 N 
ATOM     41  C   UNL A   1      39.088  31.164  33.438  1.00  0.00     0.074 A 
ATOM     42  C   UNL A   1      37.973  32.064  33.262  1.00  0.00     0.031 C 
ATOM     43  C   UNL A   1      39.546  28.399  27.629  1.00  0.00     0.029 A 
ATOM     44  C   UNL A   1      40.447  28.212  28.765  1.00  0.00     0.049 A 
ATOM     45  H   UNL A   1      40.190  28.922  30.708  1.00  0.00     0.167 HD
ATOM     46  C   UNL A   1      39.812  31.068  34.575  1.00  0.00     0.034 A 
ATOM     47  C   UNL A   1      41.606  27.523  28.753  1.00  0.00     0.034 A 
ATOM     48  C   UNL A   1      40.944  30.200  34.715  1.00  0.00     0.049 A 
ATOM     49  C   UNL A   1      42.416  27.446  30.021  1.00  0.00     0.074 A 
ATOM     50  C   UNL A   1      41.729  29.984  35.830  1.00  0.00     0.029 A 
ATOM     51  N   UNL A   1      41.477  29.435  33.687  1.00  0.00    -0.354 N 
ATOM     52  N   UNL A   1      42.183  28.009  31.183  1.00  0.00    -0.248 NA
ATOM     53  C   UNL A   1      43.627  26.615  29.991  1.00  0.00     0.031 C 
ATOM     54  C   UNL A   1      42.772  29.129  35.459  1.00  0.00     0.029 A 
ATOM     55  C   UNL A   1      42.596  28.760  34.133  1.00  0.00     0.049 A 
ATOM     56  H   UNL A   1      41.111  29.381  32.775  1.00  0.00     0.167 HD
ATOM     57  C   UNL A   1      43.189  27.567  32.034  1.00  0.00     0.074 A 
ATOM     58  C   UNL A   1      44.036  26.688  31.251  1.00  0.00     0.031 C 
ATOM     59  C   UNL A   1      43.394  27.856  33.343  1.00  0.00     0.034 A 
BRANCH  46  60
ATOM     60  C   UNL A   1      39.404  31.957  35.717  1.00  0.00     0.023 A 
ATOM     61  C   UNL A   1      39.949  33.252  35.836  1.00  0.00     0.012 A 
ATOM     62  C   UNL A   1      38.507  31.491  36.694  1.00  0.00     0.148 A 
ATOM     63  C   UNL A   1      39.655  34.046  36.944  1.00  0.00     0.002 A 
ATOM     64  C   UNL A   1      38.172  32.309  37.764  1.00  0.00     0.091 A 
ATOM     65  F   UNL A   1      38.026  30.244  36.580  1.00  0.00    -0.205 F 
ATOM     66  C   UNL A   1      38.760  33.578  37.902  1.00  0.00     0.022 A 
BRANCH  64  67
ATOM     67  S   UNL A   1      36.970  31.827  39.004  1.00  0.00     0.127 S 
ATOM     68  O   UNL A   1      36.752  30.419  38.672  1.00  0.00    -0.237 OA
ATOM     69  O   UNL A   1      37.707  32.054  40.247  1.00  0.00    -0.237 OA
ATOM     70  O   UNL A   1      35.821  32.700  38.811  1.00  0.00    -0.744 OA
ENDBRANCH  64  67
ENDBRANCH  46  60
BRANCH  47  71
ATOM     71  C   UNL A   1      42.046  26.840  27.506  1.00  0.00     0.023 A 
ATOM     72  C   UNL A   1      42.630  27.592  26.468  1.00  0.00     0.012 A 
ATOM     73  C   UNL A   1      41.933  25.443  27.365  1.00  0.00     0.148 A 
ATOM     74  C   UNL A   1      43.073  26.967  25.301  1.00  0.00     0.002 A 
ATOM     75  C   UNL A   1      42.423  24.821  26.223  1.00  0.00     0.091 A 
ATOM     76  F   UNL A   1      41.371  24.750  28.365  1.00  0.00    -0.205 F 
ATOM     77  C   UNL A   1      42.980  25.582  25.183  1.00  0.00     0.022 A 
BRANCH  75  78
ATOM     78  S   UNL A   1      42.457  23.036  26.030  1.00  0.00     0.127 S 
ATOM     79  O   UNL A   1      43.266  22.626  27.176  1.00  0.00    -0.237 OA
ATOM     80  O   UNL A   1      41.036  22.701  26.127  1.00  0.00    -0.237 OA
ATOM     81  O   UNL A   1      43.052  22.787  24.725  1.00  0.00    -0.744 OA
ENDBRANCH  75  78
ENDBRANCH  47  71
BRANCH  59  82
ATOM     82  C   UNL A   1      44.533  27.171  34.051  1.00  0.00     0.023 A 
ATOM     83  C   UNL A   1      45.785  27.803  34.171  1.00  0.00     0.012 A 
ATOM     84  C   UNL A   1      44.306  25.945  34.710  1.00  0.00     0.148 A 
ATOM     85  C   UNL A   1      46.802  27.214  34.924  1.00  0.00     0.002 A 
ATOM     86  C   UNL A   1      45.302  25.395  35.503  1.00  0.00     0.091 A 
ATOM     87  F   UNL A   1      43.110  25.357  34.567  1.00  0.00    -0.205 F 
ATOM     88  C   UNL A   1      46.555  26.020  35.601  1.00  0.00     0.022 A 
BRANCH  86  89
ATOM     89  S   UNL A   1      45.036  23.925  36.500  1.00  0.00     0.127 S 
ATOM     90  O   UNL A   1      46.407  23.499  36.773  1.00  0.00    -0.237 OA
ATOM     91  O   UNL A   1      44.321  24.464  37.657  1.00  0.00    -0.237 OA
ATOM     92  O   UNL A   1      44.255  23.012  35.675  1.00  0.00    -0.744 OA
ENDBRANCH  86  89
ENDBRANCH  59  82
ENDBRANCH  33  34
ENDBRANCH  26  28
ENDBRANCH  25  26
ENDBRANCH  24  25
ENDBRANCH   1  24
TORSDOF 18
ENDMDL
