MODEL 1
REMARK VINA RESULT:     -10.5      0.000      0.000
REMARK SMILES Cc1ccc(NC(=O)C[C@H]2C(=O)NCCN2C(=O)CCC(=O)OCCOCCOC(=O)c2ccc(-c3c4nc(c(-c5cccc(S(=O)(=O)[O-])c5F)c5ccc([nH]5)c(-c5cccc(S(=O)(=O)[O-])c5F)c5nc(c(-c6cccc(S(=O)(=O)[O-])c6F)c6ccc3[nH]6)C=C5)C=C4)cc2)c(C)c1
REMARK SMILES IDX 24 1 23 2 21 3 22 4 20 5 19 6 17 7 18 8 16 9 10 10 11 11
REMARK SMILES IDX 12 12 13 13 15 14 14 15 9 17 7 18 6 19 8 21 5 22 1 23 2 24
REMARK SMILES IDX 3 25 97 26 4 27 95 28 96 29 25 30 26 31 27 32 28 33 29 34
REMARK SMILES IDX 30 35 31 36 32 37 33 38 94 39 34 40 93 41 35 42 36 43 37 44
REMARK SMILES IDX 87 45 38 46 92 47 86 48 88 49 39 50 91 51 85 52 84 53 40 55
REMARK SMILES IDX 72 56 52 57 71 58 53 59 56 60 70 61 89 62 54 63 55 64 69 66
REMARK SMILES IDX 90 67 57 68 41 69 42 70 50 71 43 72 45 73 51 74 44 75 46 76
REMARK SMILES IDX 47 77 48 78 49 79 73 80 74 81 82 82 75 83 77 84 83 85 76 86
REMARK SMILES IDX 78 87 79 88 80 89 81 90 58 91 59 92 67 93 60 94 62 95 68 96
REMARK SMILES IDX 61 97 63 98 64 99 65 100 66 101
REMARK H PARENT 13 16 6 20 88 54 56 65
REMARK Flexibility Score: inf
ROOT
ATOM      1  C   UNL A   1      35.441  32.979  28.035  1.00  0.00     0.261 C 
ENDROOT
BRANCH   1   2
ATOM      2  O   UNL A   1      35.079  31.673  28.534  1.00  0.00    -0.463 OA
BRANCH   2   3
ATOM      3  C   UNL A   1      35.143  30.587  27.728  1.00  0.00     0.306 C 
ATOM      4  O   UNL A   1      36.175  30.066  27.330  1.00  0.00    -0.252 OA
BRANCH   3   5
ATOM      5  C   UNL A   1      33.748  30.099  27.351  1.00  0.00     0.132 C 
BRANCH   5   6
ATOM      6  C   UNL A   1      33.691  29.120  26.186  1.00  0.00     0.112 C 
BRANCH   6   7
ATOM      7  C   UNL A   1      32.435  28.295  25.860  1.00  0.00     0.223 C 
ATOM      8  O   UNL A   1      31.403  28.614  26.469  1.00  0.00    -0.275 OA
BRANCH   7   9
ATOM      9  N   UNL A   1      32.373  27.354  24.839  1.00  0.00    -0.328 N 
ATOM     10  C   UNL A   1      33.443  27.070  23.885  1.00  0.00     0.183 C 
ATOM     11  C   UNL A   1      33.169  27.696  22.517  1.00  0.00     0.243 C 
ATOM     12  O   UNL A   1      34.024  27.754  21.634  1.00  0.00    -0.273 OA
ATOM     13  N   UNL A   1      31.932  28.218  22.307  1.00  0.00    -0.353 N 
ATOM     14  C   UNL A   1      31.037  27.081  24.287  1.00  0.00     0.141 C 
ATOM     15  C   UNL A   1      30.772  28.076  23.166  1.00  0.00     0.137 C 
ATOM     16  H   UNL A   1      31.811  28.749  21.486  1.00  0.00     0.163 HD
BRANCH  10  17
ATOM     17  C   UNL A   1      34.046  25.669  23.748  1.00  0.00     0.135 C 
BRANCH  17  18
ATOM     18  C   UNL A   1      33.353  24.615  22.918  1.00  0.00     0.227 C 
ATOM     19  N   UNL A   1      33.742  23.306  22.867  1.00  0.00    -0.326 N 
ATOM     20  H   UNL A   1      33.311  22.770  22.161  1.00  0.00     0.169 HD
ATOM     21  O   UNL A   1      32.367  24.943  22.250  1.00  0.00    -0.275 OA
BRANCH  19  22
ATOM     22  C   UNL A   1      34.662  22.607  23.665  1.00  0.00     0.044 A 
ATOM     23  C   UNL A   1      37.776  19.968  25.001  1.00  0.00     0.044 C 
ATOM     24  C   UNL A   1      36.709  20.970  24.672  1.00  0.00    -0.051 A 
ATOM     25  C   UNL A   1      37.023  22.088  23.900  1.00  0.00     0.005 A 
ATOM     26  C   UNL A   1      35.375  20.762  25.049  1.00  0.00     0.009 A 
ATOM     27  C   UNL A   1      36.008  22.918  23.427  1.00  0.00     0.026 A 
ATOM     28  C   UNL A   1      34.342  21.605  24.591  1.00  0.00    -0.027 A 
ATOM     29  C   UNL A   1      32.977  21.450  25.201  1.00  0.00     0.046 C 
ENDBRANCH  19  22
ENDBRANCH  17  18
ENDBRANCH  10  17
ENDBRANCH   7   9
ENDBRANCH   6   7
ENDBRANCH   5   6
ENDBRANCH   3   5
ENDBRANCH   2   3
ENDBRANCH   1   2
BRANCH   1  30
ATOM     30  C   UNL A   1      34.231  33.926  27.980  1.00  0.00     0.202 C 
BRANCH  30  31
ATOM     31  O   UNL A   1      34.403  35.107  28.772  1.00  0.00    -0.374 OA
BRANCH  31  32
ATOM     32  C   UNL A   1      33.231  35.917  28.844  1.00  0.00     0.202 C 
BRANCH  32  33
ATOM     33  C   UNL A   1      32.789  36.199  30.277  1.00  0.00     0.261 C 
BRANCH  33  34
ATOM     34  O   UNL A   1      32.946  35.013  31.079  1.00  0.00    -0.460 OA
BRANCH  34  35
ATOM     35  C   UNL A   1      33.511  35.171  32.299  1.00  0.00     0.338 C 
ATOM     36  O   UNL A   1      33.055  35.777  33.252  1.00  0.00    -0.246 OA
BRANCH  35  37
ATOM     37  C   UNL A   1      34.765  34.387  32.329  1.00  0.00     0.060 A 
ATOM     38  C   UNL A   1      34.730  33.080  32.823  1.00  0.00     0.016 A 
ATOM     39  C   UNL A   1      35.958  34.908  31.812  1.00  0.00     0.016 A 
ATOM     40  C   UNL A   1      35.880  32.282  32.790  1.00  0.00     0.010 A 
ATOM     41  C   UNL A   1      37.090  34.087  31.728  1.00  0.00     0.010 A 
ATOM     42  C   UNL A   1      37.075  32.777  32.249  1.00  0.00    -0.014 A 
BRANCH  42  43
ATOM     43  C   UNL A   1      38.352  32.025  32.419  1.00  0.00     0.031 A 
ATOM     44  C   UNL A   1      39.160  32.300  33.665  1.00  0.00     0.074 A 
ATOM     45  C   UNL A   1      38.807  31.126  31.519  1.00  0.00     0.049 A 
ATOM     46  N   UNL A   1      40.278  31.757  34.069  1.00  0.00    -0.248 NA
ATOM     47  C   UNL A   1      38.661  33.363  34.557  1.00  0.00     0.031 C 
ATOM     48  C   UNL A   1      38.193  30.805  30.230  1.00  0.00     0.029 A 
ATOM     49  N   UNL A   1      39.919  30.314  31.565  1.00  0.00    -0.354 N 
ATOM     50  C   UNL A   1      40.623  32.440  35.230  1.00  0.00     0.074 A 
ATOM     51  C   UNL A   1      39.658  33.496  35.413  1.00  0.00     0.031 C 
ATOM     52  C   UNL A   1      38.932  29.859  29.614  1.00  0.00     0.029 A 
ATOM     53  C   UNL A   1      40.061  29.494  30.467  1.00  0.00     0.049 A 
ATOM     54  H   UNL A   1      40.556  30.320  32.315  1.00  0.00     0.167 HD
ATOM     55  C   UNL A   1      41.600  32.175  36.125  1.00  0.00     0.034 A 
ATOM     56  C   UNL A   1      40.980  28.538  30.204  1.00  0.00     0.034 A 
ATOM     57  C   UNL A   1      42.503  31.072  36.017  1.00  0.00     0.049 A 
ATOM     58  C   UNL A   1      42.026  28.208  31.248  1.00  0.00     0.074 A 
ATOM     59  C   UNL A   1      43.471  30.659  36.913  1.00  0.00     0.029 A 
ATOM     60  N   UNL A   1      42.538  30.194  34.947  1.00  0.00    -0.354 N 
ATOM     61  N   UNL A   1      42.210  28.736  32.435  1.00  0.00    -0.248 NA
ATOM     62  C   UNL A   1      42.955  27.107  30.939  1.00  0.00     0.031 C 
ATOM     63  C   UNL A   1      44.095  29.526  36.381  1.00  0.00     0.029 A 
ATOM     64  C   UNL A   1      43.507  29.235  35.159  1.00  0.00     0.049 A 
ATOM     65  H   UNL A   1      41.957  30.247  34.154  1.00  0.00     0.167 HD
ATOM     66  C   UNL A   1      43.237  28.004  33.028  1.00  0.00     0.074 A 
ATOM     67  C   UNL A   1      43.625  26.984  32.078  1.00  0.00     0.031 C 
ATOM     68  C   UNL A   1      43.820  28.171  34.241  1.00  0.00     0.034 A 
BRANCH  55  69
ATOM     69  C   UNL A   1      41.657  33.058  37.340  1.00  0.00     0.023 A 
ATOM     70  C   UNL A   1      40.847  32.749  38.454  1.00  0.00     0.012 A 
ATOM     71  C   UNL A   1      42.468  34.206  37.367  1.00  0.00     0.148 A 
ATOM     72  C   UNL A   1      40.800  33.601  39.555  1.00  0.00     0.002 A 
ATOM     73  C   UNL A   1      42.451  35.026  38.489  1.00  0.00     0.091 A 
ATOM     74  F   UNL A   1      43.205  34.497  36.286  1.00  0.00    -0.205 F 
ATOM     75  C   UNL A   1      41.607  34.735  39.575  1.00  0.00     0.022 A 
BRANCH  73  76
ATOM     76  S   UNL A   1      43.499  36.475  38.639  1.00  0.00     0.127 S 
ATOM     77  O   UNL A   1      43.019  37.302  37.533  1.00  0.00    -0.237 OA
ATOM     78  O   UNL A   1      43.149  36.971  39.970  1.00  0.00    -0.237 OA
ATOM     79  O   UNL A   1      44.867  35.992  38.514  1.00  0.00    -0.744 OA
ENDBRANCH  73  76
ENDBRANCH  55  69
BRANCH  56  80
ATOM     80  C   UNL A   1      40.904  27.724  28.952  1.00  0.00     0.023 A 
ATOM     81  C   UNL A   1      39.930  26.709  28.854  1.00  0.00     0.012 A 
ATOM     82  C   UNL A   1      41.809  27.906  27.889  1.00  0.00     0.148 A 
ATOM     83  C   UNL A   1      39.887  25.862  27.745  1.00  0.00     0.002 A 
ATOM     84  C   UNL A   1      41.735  27.083  26.767  1.00  0.00     0.091 A 
ATOM     85  F   UNL A   1      42.744  28.859  28.006  1.00  0.00    -0.205 F 
ATOM     86  C   UNL A   1      40.785  26.052  26.700  1.00  0.00     0.022 A 
BRANCH  84  87
ATOM     87  S   UNL A   1      42.803  27.301  25.337  1.00  0.00     0.127 S 
ATOM     88  O   UNL A   1      44.111  27.477  25.963  1.00  0.00    -0.237 OA
ATOM     89  O   UNL A   1      42.629  26.033  24.626  1.00  0.00    -0.237 OA
ATOM     90  O   UNL A   1      42.278  28.461  24.628  1.00  0.00    -0.744 OA
ENDBRANCH  84  87
ENDBRANCH  56  80
BRANCH  68  91
ATOM     91  C   UNL A   1      44.908  27.214  34.653  1.00  0.00     0.023 A 
ATOM     92  C   UNL A   1      46.256  27.550  34.420  1.00  0.00     0.012 A 
ATOM     93  C   UNL A   1      44.602  26.050  35.386  1.00  0.00     0.148 A 
ATOM     94  C   UNL A   1      47.281  26.731  34.891  1.00  0.00     0.002 A 
ATOM     95  C   UNL A   1      45.630  25.264  35.894  1.00  0.00     0.091 A 
ATOM     96  F   UNL A   1      43.313  25.737  35.585  1.00  0.00    -0.205 F 
ATOM     97  C   UNL A   1      46.969  25.597  35.639  1.00  0.00     0.022 A 
BRANCH  95  98
ATOM     98  S   UNL A   1      45.314  23.851  36.960  1.00  0.00     0.127 S 
ATOM     99  O   UNL A   1      44.524  24.455  38.032  1.00  0.00    -0.237 OA
ATOM    100  O   UNL A   1      44.564  22.953  36.081  1.00  0.00    -0.237 OA
ATOM    101  O   UNL A   1      46.626  23.350  37.349  1.00  0.00    -0.744 OA
ENDBRANCH  95  98
ENDBRANCH  68  91
ENDBRANCH  42  43
ENDBRANCH  35  37
ENDBRANCH  34  35
ENDBRANCH  33  34
ENDBRANCH  32  33
ENDBRANCH  31  32
ENDBRANCH  30  31
ENDBRANCH   1  30
TORSDOF 23
ENDMDL
MODEL 2
REMARK VINA RESULT:     -10.2      5.621     11.285
REMARK SMILES Cc1ccc(NC(=O)C[C@H]2C(=O)NCCN2C(=O)CCC(=O)OCCOCCOC(=O)c2ccc(-c3c4nc(c(-c5cccc(S(=O)(=O)[O-])c5F)c5ccc([nH]5)c(-c5cccc(S(=O)(=O)[O-])c5F)c5nc(c(-c6cccc(S(=O)(=O)[O-])c6F)c6ccc3[nH]6)C=C5)C=C4)cc2)c(C)c1
REMARK SMILES IDX 24 1 23 2 21 3 22 4 20 5 19 6 17 7 18 8 16 9 10 10 11 11
REMARK SMILES IDX 12 12 13 13 15 14 14 15 9 17 7 18 6 19 8 21 5 22 1 23 2 24
REMARK SMILES IDX 3 25 97 26 4 27 95 28 96 29 25 30 26 31 27 32 28 33 29 34
REMARK SMILES IDX 30 35 31 36 32 37 33 38 94 39 34 40 93 41 35 42 36 43 37 44
REMARK SMILES IDX 87 45 38 46 92 47 86 48 88 49 39 50 91 51 85 52 84 53 40 55
REMARK SMILES IDX 72 56 52 57 71 58 53 59 56 60 70 61 89 62 54 63 55 64 69 66
REMARK SMILES IDX 90 67 57 68 41 69 42 70 50 71 43 72 45 73 51 74 44 75 46 76
REMARK SMILES IDX 47 77 48 78 49 79 73 80 74 81 82 82 75 83 77 84 83 85 76 86
REMARK SMILES IDX 78 87 79 88 80 89 81 90 58 91 59 92 67 93 60 94 62 95 68 96
REMARK SMILES IDX 61 97 63 98 64 99 65 100 66 101
REMARK H PARENT 13 16 6 20 88 54 56 65
REMARK Flexibility Score: inf
ROOT
ATOM      1  C   UNL A   1      39.726  21.077  26.252  1.00  0.00     0.261 C 
ENDROOT
BRANCH   1   2
ATOM      2  O   UNL A   1      38.687  21.990  25.838  1.00  0.00    -0.463 OA
BRANCH   2   3
ATOM      3  C   UNL A   1      38.558  23.200  26.432  1.00  0.00     0.306 C 
ATOM      4  O   UNL A   1      39.298  23.640  27.300  1.00  0.00    -0.252 OA
BRANCH   3   5
ATOM      5  C   UNL A   1      37.344  23.950  25.893  1.00  0.00     0.132 C 
BRANCH   5   6
ATOM      6  C   UNL A   1      36.458  23.159  24.941  1.00  0.00     0.112 C 
BRANCH   6   7
ATOM      7  C   UNL A   1      35.055  22.666  25.333  1.00  0.00     0.223 C 
ATOM      8  O   UNL A   1      34.987  21.502  25.754  1.00  0.00    -0.275 OA
BRANCH   7   9
ATOM      9  N   UNL A   1      33.934  23.486  25.382  1.00  0.00    -0.328 N 
ATOM     10  C   UNL A   1      32.704  23.285  24.619  1.00  0.00     0.183 C 
ATOM     11  C   UNL A   1      32.612  24.233  23.423  1.00  0.00     0.243 C 
ATOM     12  O   UNL A   1      31.768  24.101  22.538  1.00  0.00    -0.273 OA
ATOM     13  N   UNL A   1      33.525  25.238  23.352  1.00  0.00    -0.353 N 
ATOM     14  C   UNL A   1      34.181  24.903  25.692  1.00  0.00     0.141 C 
ATOM     15  C   UNL A   1      34.461  25.635  24.386  1.00  0.00     0.137 C 
ATOM     16  H   UNL A   1      33.553  25.749  22.511  1.00  0.00     0.163 HD
BRANCH  10  17
ATOM     17  C   UNL A   1      31.348  23.124  25.311  1.00  0.00     0.135 C 
BRANCH  17  18
ATOM     18  C   UNL A   1      31.104  23.734  26.670  1.00  0.00     0.227 C 
ATOM     19  N   UNL A   1      30.886  25.066  26.882  1.00  0.00    -0.326 N 
ATOM     20  H   UNL A   1      30.911  25.349  27.825  1.00  0.00     0.169 HD
ATOM     21  O   UNL A   1      31.088  22.991  27.657  1.00  0.00    -0.275 OA
BRANCH  19  22
ATOM     22  C   UNL A   1      30.632  26.096  25.961  1.00  0.00     0.044 A 
ATOM     23  C   UNL A   1      30.297  28.387  22.343  1.00  0.00     0.044 C 
ATOM     24  C   UNL A   1      30.309  27.690  23.671  1.00  0.00    -0.051 A 
ATOM     25  C   UNL A   1      29.468  26.599  23.889  1.00  0.00     0.005 A 
ATOM     26  C   UNL A   1      31.216  28.055  24.676  1.00  0.00     0.009 A 
ATOM     27  C   UNL A   1      29.608  25.826  25.041  1.00  0.00     0.026 A 
ATOM     28  C   UNL A   1      31.355  27.291  25.854  1.00  0.00    -0.027 A 
ATOM     29  C   UNL A   1      32.187  27.855  26.971  1.00  0.00     0.046 C 
ENDBRANCH  19  22
ENDBRANCH  17  18
ENDBRANCH  10  17
ENDBRANCH   7   9
ENDBRANCH   6   7
ENDBRANCH   5   6
ENDBRANCH   3   5
ENDBRANCH   2   3
ENDBRANCH   1   2
BRANCH   1  30
ATOM     30  C   UNL A   1      39.520  19.671  25.665  1.00  0.00     0.202 C 
BRANCH  30  31
ATOM     31  O   UNL A   1      40.712  18.878  25.666  1.00  0.00    -0.374 OA
BRANCH  31  32
ATOM     32  C   UNL A   1      41.882  19.613  26.017  1.00  0.00     0.202 C 
BRANCH  32  33
ATOM     33  C   UNL A   1      43.166  18.975  25.494  1.00  0.00     0.261 C 
BRANCH  33  34
ATOM     34  O   UNL A   1      43.641  19.707  24.347  1.00  0.00    -0.460 OA
BRANCH  34  35
ATOM     35  C   UNL A   1      44.910  20.176  24.406  1.00  0.00     0.338 C 
ATOM     36  O   UNL A   1      45.912  19.658  23.946  1.00  0.00    -0.246 OA
BRANCH  35  37
ATOM     37  C   UNL A   1      44.878  21.507  25.052  1.00  0.00     0.060 A 
ATOM     38  C   UNL A   1      44.409  22.600  24.316  1.00  0.00     0.016 A 
ATOM     39  C   UNL A   1      45.242  21.670  26.393  1.00  0.00     0.016 A 
ATOM     40  C   UNL A   1      44.288  23.858  24.922  1.00  0.00     0.010 A 
ATOM     41  C   UNL A   1      45.065  22.916  27.010  1.00  0.00     0.010 A 
ATOM     42  C   UNL A   1      44.619  24.032  26.273  1.00  0.00    -0.014 A 
BRANCH  42  43
ATOM     43  C   UNL A   1      44.714  25.400  26.859  1.00  0.00     0.031 A 
ATOM     44  C   UNL A   1      46.062  26.082  26.819  1.00  0.00     0.074 A 
ATOM     45  C   UNL A   1      43.663  26.042  27.413  1.00  0.00     0.049 A 
ATOM     46  N   UNL A   1      46.402  27.278  27.221  1.00  0.00    -0.248 NA
ATOM     47  C   UNL A   1      47.190  25.291  26.292  1.00  0.00     0.031 C 
ATOM     48  C   UNL A   1      42.319  25.497  27.605  1.00  0.00     0.029 A 
ATOM     49  N   UNL A   1      43.577  27.317  27.930  1.00  0.00    -0.354 N 
ATOM     50  C   UNL A   1      47.777  27.356  27.030  1.00  0.00     0.074 A 
ATOM     51  C   UNL A   1      48.223  26.064  26.571  1.00  0.00     0.031 C 
ATOM     52  C   UNL A   1      41.542  26.434  28.188  1.00  0.00     0.029 A 
ATOM     53  C   UNL A   1      42.325  27.650  28.397  1.00  0.00     0.049 A 
ATOM     54  H   UNL A   1      44.343  27.934  27.963  1.00  0.00     0.167 HD
ATOM     55  C   UNL A   1      48.601  28.422  27.136  1.00  0.00     0.034 A 
ATOM     56  C   UNL A   1      41.863  28.816  28.902  1.00  0.00     0.034 A 
ATOM     57  C   UNL A   1      48.162  29.737  27.489  1.00  0.00     0.049 A 
ATOM     58  C   UNL A   1      42.782  30.019  28.950  1.00  0.00     0.074 A 
ATOM     59  C   UNL A   1      48.897  30.906  27.538  1.00  0.00     0.029 A 
ATOM     60  N   UNL A   1      46.862  30.057  27.842  1.00  0.00    -0.354 N 
ATOM     61  N   UNL A   1      44.033  30.123  28.572  1.00  0.00    -0.248 NA
ATOM     62  C   UNL A   1      42.203  31.282  29.441  1.00  0.00     0.031 C 
ATOM     63  C   UNL A   1      48.037  31.939  27.923  1.00  0.00     0.029 A 
ATOM     64  C   UNL A   1      46.769  31.409  28.106  1.00  0.00     0.049 A 
ATOM     65  H   UNL A   1      46.117  29.417  27.895  1.00  0.00     0.167 HD
ATOM     66  C   UNL A   1      44.374  31.465  28.733  1.00  0.00     0.074 A 
ATOM     67  C   UNL A   1      43.193  32.140  29.227  1.00  0.00     0.031 C 
ATOM     68  C   UNL A   1      45.562  32.081  28.510  1.00  0.00     0.034 A 
BRANCH  55  69
ATOM     69  C   UNL A   1      50.041  28.199  26.769  1.00  0.00     0.023 A 
ATOM     70  C   UNL A   1      50.413  28.208  25.407  1.00  0.00     0.012 A 
ATOM     71  C   UNL A   1      51.010  27.939  27.753  1.00  0.00     0.148 A 
ATOM     72  C   UNL A   1      51.718  27.905  25.026  1.00  0.00     0.002 A 
ATOM     73  C   UNL A   1      52.321  27.684  27.367  1.00  0.00     0.091 A 
ATOM     74  F   UNL A   1      50.629  27.904  29.037  1.00  0.00    -0.205 F 
ATOM     75  C   UNL A   1      52.672  27.650  26.007  1.00  0.00     0.022 A 
BRANCH  73  76
ATOM     76  S   UNL A   1      53.637  27.406  28.555  1.00  0.00     0.127 S 
ATOM     77  O   UNL A   1      53.165  26.205  29.242  1.00  0.00    -0.237 OA
ATOM     78  O   UNL A   1      54.796  27.196  27.686  1.00  0.00    -0.237 OA
ATOM     79  O   UNL A   1      53.702  28.611  29.369  1.00  0.00    -0.744 OA
ENDBRANCH  73  76
ENDBRANCH  55  69
BRANCH  56  80
ATOM     80  C   UNL A   1      40.430  28.966  29.301  1.00  0.00     0.023 A 
ATOM     81  C   UNL A   1      39.480  29.318  28.320  1.00  0.00     0.012 A 
ATOM     82  C   UNL A   1      40.007  28.815  30.636  1.00  0.00     0.148 A 
ATOM     83  C   UNL A   1      38.149  29.563  28.666  1.00  0.00     0.002 A 
ATOM     84  C   UNL A   1      38.671  29.022  30.968  1.00  0.00     0.091 A 
ATOM     85  F   UNL A   1      40.925  28.503  31.561  1.00  0.00    -0.205 F 
ATOM     86  C   UNL A   1      37.744  29.410  29.988  1.00  0.00     0.022 A 
BRANCH  84  87
ATOM     87  S   UNL A   1      38.039  28.776  32.633  1.00  0.00     0.127 S 
ATOM     88  O   UNL A   1      36.674  29.284  32.514  1.00  0.00    -0.237 OA
ATOM     89  O   UNL A   1      38.140  27.324  32.790  1.00  0.00    -0.237 OA
ATOM     90  O   UNL A   1      38.924  29.536  33.506  1.00  0.00    -0.744 OA
ENDBRANCH  84  87
ENDBRANCH  56  80
BRANCH  68  91
ATOM     91  C   UNL A   1      45.656  33.566  28.745  1.00  0.00     0.023 A 
ATOM     92  C   UNL A   1      45.426  34.455  27.677  1.00  0.00     0.012 A 
ATOM     93  C   UNL A   1      45.840  34.079  30.044  1.00  0.00     0.148 A 
ATOM     94  C   UNL A   1      45.400  35.832  27.895  1.00  0.00     0.002 A 
ATOM     95  C   UNL A   1      45.766  35.450  30.263  1.00  0.00     0.091 A 
ATOM     96  F   UNL A   1      46.075  33.219  31.047  1.00  0.00    -0.205 F 
ATOM     97  C   UNL A   1      45.555  36.328  29.188  1.00  0.00     0.022 A 
BRANCH  95  98
ATOM     98  S   UNL A   1      45.843  36.160  31.912  1.00  0.00     0.127 S 
ATOM     99  O   UNL A   1      44.537  35.795  32.457  1.00  0.00    -0.237 OA
ATOM    100  O   UNL A   1      46.974  35.446  32.510  1.00  0.00    -0.237 OA
ATOM    101  O   UNL A   1      46.071  37.585  31.717  1.00  0.00    -0.744 OA
ENDBRANCH  95  98
ENDBRANCH  68  91
ENDBRANCH  42  43
ENDBRANCH  35  37
ENDBRANCH  34  35
ENDBRANCH  33  34
ENDBRANCH  32  33
ENDBRANCH  31  32
ENDBRANCH  30  31
ENDBRANCH   1  30
TORSDOF 23
ENDMDL
MODEL 3
REMARK VINA RESULT:     -10.0      6.021      8.211
REMARK SMILES Cc1ccc(NC(=O)C[C@H]2C(=O)NCCN2C(=O)CCC(=O)OCCOCCOC(=O)c2ccc(-c3c4nc(c(-c5cccc(S(=O)(=O)[O-])c5F)c5ccc([nH]5)c(-c5cccc(S(=O)(=O)[O-])c5F)c5nc(c(-c6cccc(S(=O)(=O)[O-])c6F)c6ccc3[nH]6)C=C5)C=C4)cc2)c(C)c1
REMARK SMILES IDX 24 1 23 2 21 3 22 4 20 5 19 6 17 7 18 8 16 9 10 10 11 11
REMARK SMILES IDX 12 12 13 13 15 14 14 15 9 17 7 18 6 19 8 21 5 22 1 23 2 24
REMARK SMILES IDX 3 25 97 26 4 27 95 28 96 29 25 30 26 31 27 32 28 33 29 34
REMARK SMILES IDX 30 35 31 36 32 37 33 38 94 39 34 40 93 41 35 42 36 43 37 44
REMARK SMILES IDX 87 45 38 46 92 47 86 48 88 49 39 50 91 51 85 52 84 53 40 55
REMARK SMILES IDX 72 56 52 57 71 58 53 59 56 60 70 61 89 62 54 63 55 64 69 66
REMARK SMILES IDX 90 67 57 68 41 69 42 70 50 71 43 72 45 73 51 74 44 75 46 76
REMARK SMILES IDX 47 77 48 78 49 79 73 80 74 81 82 82 75 83 77 84 83 85 76 86
REMARK SMILES IDX 78 87 79 88 80 89 81 90 58 91 59 92 67 93 60 94 62 95 68 96
REMARK SMILES IDX 61 97 63 98 64 99 65 100 66 101
REMARK H PARENT 13 16 6 20 88 54 56 65
REMARK Flexibility Score: inf
ROOT
ATOM      1  C   UNL A   1      34.561  32.177  27.919  1.00  0.00     0.261 C 
ENDROOT
BRANCH   1   2
ATOM      2  O   UNL A   1      33.690  31.102  27.507  1.00  0.00    -0.463 OA
BRANCH   2   3
ATOM      3  C   UNL A   1      34.156  29.833  27.420  1.00  0.00     0.306 C 
ATOM      4  O   UNL A   1      35.337  29.519  27.384  1.00  0.00    -0.252 OA
BRANCH   3   5
ATOM      5  C   UNL A   1      33.010  28.830  27.349  1.00  0.00     0.132 C 
BRANCH   5   6
ATOM      6  C   UNL A   1      33.109  27.804  26.229  1.00  0.00     0.112 C 
BRANCH   6   7
ATOM      7  C   UNL A   1      32.269  26.515  26.211  1.00  0.00     0.223 C 
ATOM      8  O   UNL A   1      31.134  26.601  26.703  1.00  0.00    -0.275 OA
BRANCH   7   9
ATOM      9  N   UNL A   1      32.653  25.353  25.553  1.00  0.00    -0.328 N 
ATOM     10  C   UNL A   1      32.187  24.934  24.233  1.00  0.00     0.183 C 
ATOM     11  C   UNL A   1      31.135  23.828  24.323  1.00  0.00     0.243 C 
ATOM     12  O   UNL A   1      30.466  23.472  23.354  1.00  0.00    -0.273 OA
ATOM     13  N   UNL A   1      30.941  23.250  25.537  1.00  0.00    -0.353 N 
ATOM     14  C   UNL A   1      33.021  24.214  26.409  1.00  0.00     0.141 C 
ATOM     15  C   UNL A   1      31.757  23.426  26.724  1.00  0.00     0.137 C 
ATOM     16  H   UNL A   1      30.165  22.649  25.621  1.00  0.00     0.163 HD
BRANCH  10  17
ATOM     17  C   UNL A   1      33.161  24.687  23.079  1.00  0.00     0.135 C 
BRANCH  17  18
ATOM     18  C   UNL A   1      32.821  25.140  21.679  1.00  0.00     0.227 C 
ATOM     19  N   UNL A   1      32.055  26.235  21.395  1.00  0.00    -0.326 N 
ATOM     20  H   UNL A   1      31.774  26.316  20.455  1.00  0.00     0.169 HD
ATOM     21  O   UNL A   1      33.267  24.494  20.724  1.00  0.00    -0.275 OA
BRANCH  19  22
ATOM     22  C   UNL A   1      31.607  27.265  22.240  1.00  0.00     0.044 A 
ATOM     23  C   UNL A   1      29.538  30.683  23.816  1.00  0.00     0.044 C 
ATOM     24  C   UNL A   1      30.293  29.450  23.418  1.00  0.00    -0.051 A 
ATOM     25  C   UNL A   1      29.604  28.259  23.188  1.00  0.00     0.005 A 
ATOM     26  C   UNL A   1      31.675  29.486  23.183  1.00  0.00     0.009 A 
ATOM     27  C   UNL A   1      30.264  27.165  22.631  1.00  0.00     0.026 A 
ATOM     28  C   UNL A   1      32.357  28.379  22.636  1.00  0.00    -0.027 A 
ATOM     29  C   UNL A   1      33.859  28.415  22.609  1.00  0.00     0.046 C 
ENDBRANCH  19  22
ENDBRANCH  17  18
ENDBRANCH  10  17
ENDBRANCH   7   9
ENDBRANCH   6   7
ENDBRANCH   5   6
ENDBRANCH   3   5
ENDBRANCH   2   3
ENDBRANCH   1   2
BRANCH   1  30
ATOM     30  C   UNL A   1      34.679  32.263  29.450  1.00  0.00     0.202 C 
BRANCH  30  31
ATOM     31  O   UNL A   1      34.078  33.443  29.996  1.00  0.00    -0.374 OA
BRANCH  31  32
ATOM     32  C   UNL A   1      34.738  33.927  31.164  1.00  0.00     0.202 C 
BRANCH  32  33
ATOM     33  C   UNL A   1      34.837  32.880  32.270  1.00  0.00     0.261 C 
BRANCH  33  34
ATOM     34  O   UNL A   1      36.218  32.682  32.631  1.00  0.00    -0.460 OA
BRANCH  34  35
ATOM     35  C   UNL A   1      36.731  31.447  32.421  1.00  0.00     0.338 C 
ATOM     36  O   UNL A   1      36.192  30.375  32.637  1.00  0.00    -0.246 OA
BRANCH  35  37
ATOM     37  C   UNL A   1      38.054  31.603  31.778  1.00  0.00     0.060 A 
ATOM     38  C   UNL A   1      39.168  31.857  32.584  1.00  0.00     0.016 A 
ATOM     39  C   UNL A   1      38.212  31.433  30.398  1.00  0.00     0.016 A 
ATOM     40  C   UNL A   1      40.447  31.929  32.016  1.00  0.00     0.010 A 
ATOM     41  C   UNL A   1      39.500  31.448  29.844  1.00  0.00     0.010 A 
ATOM     42  C   UNL A   1      40.628  31.731  30.640  1.00  0.00    -0.014 A 
BRANCH  42  43
ATOM     43  C   UNL A   1      41.939  32.032  29.998  1.00  0.00     0.031 A 
ATOM     44  C   UNL A   1      42.230  33.473  29.651  1.00  0.00     0.074 A 
ATOM     45  C   UNL A   1      42.861  31.085  29.720  1.00  0.00     0.049 A 
ATOM     46  N   UNL A   1      43.303  34.003  29.126  1.00  0.00    -0.248 NA
ATOM     47  C   UNL A   1      41.145  34.443  29.888  1.00  0.00     0.031 C 
ATOM     48  C   UNL A   1      42.707  29.642  29.915  1.00  0.00     0.029 A 
ATOM     49  N   UNL A   1      44.129  31.211  29.196  1.00  0.00    -0.354 N 
ATOM     50  C   UNL A   1      42.999  35.347  28.941  1.00  0.00     0.074 A 
ATOM     51  C   UNL A   1      41.619  35.533  29.313  1.00  0.00     0.031 C 
ATOM     52  C   UNL A   1      43.839  29.021  29.525  1.00  0.00     0.029 A 
ATOM     53  C   UNL A   1      44.806  30.018  29.067  1.00  0.00     0.049 A 
ATOM     54  H   UNL A   1      44.517  32.077  28.936  1.00  0.00     0.167 HD
ATOM     55  C   UNL A   1      43.806  36.369  28.577  1.00  0.00     0.034 A 
ATOM     56  C   UNL A   1      46.070  29.770  28.660  1.00  0.00     0.034 A 
ATOM     57  C   UNL A   1      45.202  36.224  28.303  1.00  0.00     0.049 A 
ATOM     58  C   UNL A   1      46.981  30.932  28.322  1.00  0.00     0.074 A 
ATOM     59  C   UNL A   1      46.130  37.206  28.015  1.00  0.00     0.029 A 
ATOM     60  N   UNL A   1      45.875  35.014  28.298  1.00  0.00    -0.354 N 
ATOM     61  N   UNL A   1      46.730  32.219  28.347  1.00  0.00    -0.248 NA
ATOM     62  C   UNL A   1      48.371  30.607  27.954  1.00  0.00     0.031 C 
ATOM     63  C   UNL A   1      47.370  36.587  27.834  1.00  0.00     0.029 A 
ATOM     64  C   UNL A   1      47.210  35.221  28.017  1.00  0.00     0.049 A 
ATOM     65  H   UNL A   1      45.462  34.137  28.470  1.00  0.00     0.167 HD
ATOM     66  C   UNL A   1      47.934  32.854  28.050  1.00  0.00     0.074 A 
ATOM     67  C   UNL A   1      48.920  31.811  27.863  1.00  0.00     0.031 C 
ATOM     68  C   UNL A   1      48.198  34.178  27.923  1.00  0.00     0.034 A 
BRANCH  55  69
ATOM     69  C   UNL A   1      43.189  37.739  28.556  1.00  0.00     0.023 A 
ATOM     70  C   UNL A   1      42.499  38.165  27.400  1.00  0.00     0.012 A 
ATOM     71  C   UNL A   1      43.323  38.615  29.647  1.00  0.00     0.148 A 
ATOM     72  C   UNL A   1      42.003  39.462  27.307  1.00  0.00     0.002 A 
ATOM     73  C   UNL A   1      42.783  39.892  29.565  1.00  0.00     0.091 A 
ATOM     74  F   UNL A   1      44.009  38.200  30.722  1.00  0.00    -0.205 F 
ATOM     75  C   UNL A   1      42.139  40.323  28.393  1.00  0.00     0.022 A 
BRANCH  73  76
ATOM     76  S   UNL A   1      42.851  41.055  30.931  1.00  0.00     0.127 S 
ATOM     77  O   UNL A   1      44.157  41.678  30.724  1.00  0.00    -0.237 OA
ATOM     78  O   UNL A   1      41.709  41.926  30.650  1.00  0.00    -0.237 OA
ATOM     79  O   UNL A   1      42.719  40.256  32.141  1.00  0.00    -0.744 OA
ENDBRANCH  73  76
ENDBRANCH  55  69
BRANCH  56  80
ATOM     80  C   UNL A   1      46.617  28.379  28.652  1.00  0.00     0.023 A 
ATOM     81  C   UNL A   1      47.266  27.892  29.805  1.00  0.00     0.012 A 
ATOM     82  C   UNL A   1      46.547  27.556  27.511  1.00  0.00     0.148 A 
ATOM     83  C   UNL A   1      47.875  26.636  29.809  1.00  0.00     0.002 A 
ATOM     84  C   UNL A   1      47.122  26.287  27.534  1.00  0.00     0.091 A 
ATOM     85  F   UNL A   1      45.947  28.040  26.415  1.00  0.00    -0.205 F 
ATOM     86  C   UNL A   1      47.799  25.832  28.676  1.00  0.00     0.022 A 
BRANCH  84  87
ATOM     87  S   UNL A   1      47.009  25.150  26.147  1.00  0.00     0.127 S 
ATOM     88  O   UNL A   1      47.649  23.953  26.688  1.00  0.00    -0.237 OA
ATOM     89  O   UNL A   1      45.563  25.038  25.955  1.00  0.00    -0.237 OA
ATOM     90  O   UNL A   1      47.710  25.800  25.047  1.00  0.00    -0.744 OA
ENDBRANCH  84  87
ENDBRANCH  56  80
BRANCH  68  91
ATOM     91  C   UNL A   1      49.609  34.604  27.615  1.00  0.00     0.023 A 
ATOM     92  C   UNL A   1      50.509  34.849  28.671  1.00  0.00     0.012 A 
ATOM     93  C   UNL A   1      50.078  34.632  26.287  1.00  0.00     0.148 A 
ATOM     94  C   UNL A   1      51.847  35.137  28.408  1.00  0.00     0.002 A 
ATOM     95  C   UNL A   1      51.424  34.872  26.034  1.00  0.00     0.091 A 
ATOM     96  F   UNL A   1      49.204  34.413  25.292  1.00  0.00    -0.205 F 
ATOM     97  C   UNL A   1      52.308  35.134  27.093  1.00  0.00     0.022 A 
BRANCH  95  98
ATOM     98  S   UNL A   1      52.117  34.775  24.378  1.00  0.00     0.127 S 
ATOM     99  O   UNL A   1      51.616  36.006  23.771  1.00  0.00    -0.237 OA
ATOM    100  O   UNL A   1      53.558  34.767  24.640  1.00  0.00    -0.237 OA
ATOM    101  O   UNL A   1      51.605  33.536  23.809  1.00  0.00    -0.744 OA
ENDBRANCH  95  98
ENDBRANCH  68  91
ENDBRANCH  42  43
ENDBRANCH  35  37
ENDBRANCH  34  35
ENDBRANCH  33  34
ENDBRANCH  32  33
ENDBRANCH  31  32
ENDBRANCH  30  31
ENDBRANCH   1  30
TORSDOF 23
ENDMDL
