MODEL 1
REMARK VINA RESULT:     -11.3      0.000      0.000
REMARK SMILES CCCc1cc(OC(F)(F)F)cc2c1O[C@H](C(F)(F)F)C(C(=O)OCCOCCOC(=O)c1ccc(-c3c4nc(c(-c5cccc(S(=O)(=O)[O-])c5F)c5ccc([nH]5)c(-c5cccc(S(=O)(=O)[O-])c5F)c5nc(c(-c6cccc(S(=O)(=O)[O-])c6F)c6ccc3[nH]6)C=C5)C=C4)cc1)=C2
REMARK SMILES IDX 28 1 27 2 26 3 25 4 24 5 22 6 23 7 21 8 4 9 5 10 14 11 6 12
REMARK SMILES IDX 13 13 15 14 12 15 96 16 16 17 3 18 2 19 1 20 7 21 8 22 9 23
REMARK SMILES IDX 10 24 11 25 17 26 18 27 19 28 20 29 29 30 30 31 31 32 32 33
REMARK SMILES IDX 33 34 34 35 95 36 35 37 94 38 36 39 37 40 38 41 88 42 39 43
REMARK SMILES IDX 93 44 87 45 89 46 40 47 92 48 86 49 85 50 41 52 73 53 53 54
REMARK SMILES IDX 72 55 54 56 57 57 71 58 90 59 55 60 56 61 70 63 91 64 58 65
REMARK SMILES IDX 42 66 43 67 51 68 44 69 46 70 52 71 45 72 47 73 48 74 49 75
REMARK SMILES IDX 50 76 74 77 75 78 83 79 76 80 78 81 84 82 77 83 79 84 80 85
REMARK SMILES IDX 81 86 82 87 59 88 60 89 68 90 61 91 63 92 69 93 62 94 64 95
REMARK SMILES IDX 65 96 66 97 67 98
REMARK H PARENT 89 51 57 62
REMARK Flexibility Score: inf
ROOT
ATOM      1  C   UNL A   1      35.911  20.017  24.661  1.00  0.00     0.202 C 
ENDROOT
BRANCH   1   2
ATOM      2  O   UNL A   1      35.109  20.905  25.432  1.00  0.00    -0.374 OA
BRANCH   2   3
ATOM      3  C   UNL A   1      34.151  21.713  24.747  1.00  0.00     0.202 C 
BRANCH   3   4
ATOM      4  C   UNL A   1      32.664  21.471  25.023  1.00  0.00     0.261 C 
BRANCH   4   5
ATOM      5  O   UNL A   1      31.925  22.700  25.160  1.00  0.00    -0.460 OA
BRANCH   5   6
ATOM      6  C   UNL A   1      31.527  23.244  23.989  1.00  0.00     0.338 C 
ATOM      7  O   UNL A   1      30.930  22.666  23.091  1.00  0.00    -0.246 OA
BRANCH   6   8
ATOM      8  C   UNL A   1      31.748  24.698  23.936  1.00  0.00     0.087 C 
ATOM      9  C   UNL A   1      31.402  28.592  25.320  1.00  0.00    -0.002 A 
ATOM     10  C   UNL A   1      30.853  29.575  24.481  1.00  0.00     0.054 A 
ATOM     11  C   UNL A   1      31.508  27.297  24.813  1.00  0.00     0.131 A 
ATOM     12  C   UNL A   1      30.405  29.258  23.189  1.00  0.00     0.130 A 
ATOM     13  C   UNL A   1      31.036  26.942  23.536  1.00  0.00     0.021 A 
ATOM     14  O   UNL A   1      32.065  26.374  25.648  1.00  0.00    -0.475 OA
ATOM     15  C   UNL A   1      30.491  27.936  22.726  1.00  0.00     0.058 A 
ATOM     16  C   UNL A   1      31.013  25.519  23.166  1.00  0.00     0.027 C 
ATOM     17  C   UNL A   1      32.662  25.240  25.005  1.00  0.00     0.316 C 
BRANCH   9  18
ATOM     18  C   UNL A   1      31.940  28.961  26.690  1.00  0.00     0.039 C 
BRANCH  18  19
ATOM     19  C   UNL A   1      33.230  29.806  26.751  1.00  0.00     0.001 C 
ATOM     20  C   UNL A   1      34.532  29.029  26.956  1.00  0.00     0.004 C 
ENDBRANCH  18  19
ENDBRANCH   9  18
BRANCH  12  21
ATOM     21  O   UNL A   1      29.862  30.134  22.289  1.00  0.00    -0.406 OA
BRANCH  21  22
ATOM     22  C   UNL A   1      28.452  30.279  22.271  1.00  0.00     0.573 C 
ATOM     23  F   UNL A   1      27.888  29.727  23.367  1.00  0.00    -0.132 F 
ATOM     24  F   UNL A   1      28.097  31.581  22.195  1.00  0.00    -0.132 F 
ATOM     25  F   UNL A   1      27.958  29.649  21.182  1.00  0.00    -0.132 F 
ENDBRANCH  21  22
ENDBRANCH  12  21
BRANCH  17  26
ATOM     26  C   UNL A   1      34.087  25.588  24.545  1.00  0.00     0.430 C 
ATOM     27  F   UNL A   1      34.392  25.100  23.323  1.00  0.00    -0.167 F 
ATOM     28  F   UNL A   1      34.268  26.933  24.495  1.00  0.00    -0.167 F 
ATOM     29  F   UNL A   1      35.021  25.119  25.405  1.00  0.00    -0.167 F 
ENDBRANCH  17  26
ENDBRANCH   6   8
ENDBRANCH   5   6
ENDBRANCH   4   5
ENDBRANCH   3   4
ENDBRANCH   2   3
ENDBRANCH   1   2
BRANCH   1  30
ATOM     30  C   UNL A   1      37.390  19.836  25.030  1.00  0.00     0.261 C 
BRANCH  30  31
ATOM     31  O   UNL A   1      38.023  21.043  25.470  1.00  0.00    -0.460 OA
BRANCH  31  32
ATOM     32  C   UNL A   1      39.223  20.849  26.066  1.00  0.00     0.338 C 
ATOM     33  O   UNL A   1      39.911  19.836  26.033  1.00  0.00    -0.246 OA
BRANCH  32  34
ATOM     34  C   UNL A   1      39.711  22.115  26.630  1.00  0.00     0.060 A 
ATOM     35  C   UNL A   1      39.156  23.300  26.128  1.00  0.00     0.016 A 
ATOM     36  C   UNL A   1      40.728  22.150  27.586  1.00  0.00     0.016 A 
ATOM     37  C   UNL A   1      39.650  24.531  26.548  1.00  0.00     0.010 A 
ATOM     38  C   UNL A   1      41.232  23.387  27.995  1.00  0.00     0.010 A 
ATOM     39  C   UNL A   1      40.719  24.579  27.452  1.00  0.00    -0.014 A 
BRANCH  39  40
ATOM     40  C   UNL A   1      41.392  25.871  27.708  1.00  0.00     0.031 A 
ATOM     41  C   UNL A   1      40.666  26.923  28.498  1.00  0.00     0.074 A 
ATOM     42  C   UNL A   1      42.636  26.096  27.252  1.00  0.00     0.049 A 
ATOM     43  N   UNL A   1      41.056  28.125  28.828  1.00  0.00    -0.248 NA
ATOM     44  C   UNL A   1      39.317  26.575  28.978  1.00  0.00     0.031 C 
ATOM     45  C   UNL A   1      43.437  25.146  26.480  1.00  0.00     0.029 A 
ATOM     46  N   UNL A   1      43.435  27.206  27.353  1.00  0.00    -0.354 N 
ATOM     47  C   UNL A   1      39.997  28.686  29.531  1.00  0.00     0.074 A 
ATOM     48  C   UNL A   1      38.941  27.699  29.568  1.00  0.00     0.031 C 
ATOM     49  C   UNL A   1      44.604  25.725  26.152  1.00  0.00     0.029 A 
ATOM     50  C   UNL A   1      44.623  27.091  26.672  1.00  0.00     0.049 A 
ATOM     51  H   UNL A   1      43.182  28.007  27.865  1.00  0.00     0.167 HD
ATOM     52  C   UNL A   1      39.917  29.909  30.105  1.00  0.00     0.034 A 
ATOM     53  C   UNL A   1      45.602  27.997  26.475  1.00  0.00     0.034 A 
ATOM     54  C   UNL A   1      40.978  30.879  30.081  1.00  0.00     0.049 A 
ATOM     55  C   UNL A   1      45.480  29.358  27.108  1.00  0.00     0.074 A 
ATOM     56  C   UNL A   1      41.016  32.128  30.675  1.00  0.00     0.029 A 
ATOM     57  N   UNL A   1      42.185  30.713  29.419  1.00  0.00    -0.354 N 
ATOM     58  N   UNL A   1      44.525  29.830  27.873  1.00  0.00    -0.248 NA
ATOM     59  C   UNL A   1      46.585  30.299  26.881  1.00  0.00     0.031 C 
ATOM     60  C   UNL A   1      42.236  32.729  30.349  1.00  0.00     0.029 A 
ATOM     61  C   UNL A   1      42.970  31.842  29.577  1.00  0.00     0.049 A 
ATOM     62  H   UNL A   1      42.445  29.911  28.911  1.00  0.00     0.167 HD
ATOM     63  C   UNL A   1      44.930  31.107  28.246  1.00  0.00     0.074 A 
ATOM     64  C   UNL A   1      46.226  31.327  27.639  1.00  0.00     0.031 C 
ATOM     65  C   UNL A   1      44.282  32.021  29.011  1.00  0.00     0.034 A 
BRANCH  52  66
ATOM     66  C   UNL A   1      38.647  30.257  30.834  1.00  0.00     0.023 A 
ATOM     67  C   UNL A   1      38.466  29.827  32.164  1.00  0.00     0.012 A 
ATOM     68  C   UNL A   1      37.659  31.053  30.224  1.00  0.00     0.148 A 
ATOM     69  C   UNL A   1      37.309  30.158  32.867  1.00  0.00     0.002 A 
ATOM     70  C   UNL A   1      36.527  31.416  30.945  1.00  0.00     0.091 A 
ATOM     71  F   UNL A   1      37.838  31.431  28.951  1.00  0.00    -0.205 F 
ATOM     72  C   UNL A   1      36.345  30.962  32.262  1.00  0.00     0.022 A 
BRANCH  70  73
ATOM     73  S   UNL A   1      35.265  32.507  30.279  1.00  0.00     0.127 S 
ATOM     74  O   UNL A   1      34.356  32.634  31.417  1.00  0.00    -0.237 OA
ATOM     75  O   UNL A   1      36.032  33.715  29.974  1.00  0.00    -0.237 OA
ATOM     76  O   UNL A   1      34.717  31.825  29.115  1.00  0.00    -0.744 OA
ENDBRANCH  70  73
ENDBRANCH  52  66
BRANCH  53  77
ATOM     77  C   UNL A   1      46.801  27.631  25.669  1.00  0.00     0.023 A 
ATOM     78  C   UNL A   1      46.802  27.857  24.280  1.00  0.00     0.012 A 
ATOM     79  C   UNL A   1      47.946  27.080  26.277  1.00  0.00     0.148 A 
ATOM     80  C   UNL A   1      47.910  27.513  23.505  1.00  0.00     0.002 A 
ATOM     81  C   UNL A   1      49.067  26.791  25.507  1.00  0.00     0.091 A 
ATOM     82  F   UNL A   1      47.919  26.855  27.598  1.00  0.00    -0.205 F 
ATOM     83  C   UNL A   1      49.046  26.991  24.119  1.00  0.00     0.022 A 
BRANCH  81  84
ATOM     84  S   UNL A   1      50.616  26.242  26.235  1.00  0.00     0.127 S 
ATOM     85  O   UNL A   1      51.489  26.176  25.066  1.00  0.00    -0.237 OA
ATOM     86  O   UNL A   1      50.913  27.328  27.169  1.00  0.00    -0.237 OA
ATOM     87  O   UNL A   1      50.316  24.968  26.876  1.00  0.00    -0.744 OA
ENDBRANCH  81  84
ENDBRANCH  53  77
BRANCH  65  88
ATOM     88  C   UNL A   1      44.975  33.334  29.271  1.00  0.00     0.023 A 
ATOM     89  C   UNL A   1      45.810  33.475  30.396  1.00  0.00     0.012 A 
ATOM     90  C   UNL A   1      44.864  34.398  28.353  1.00  0.00     0.148 A 
ATOM     91  C   UNL A   1      46.500  34.665  30.621  1.00  0.00     0.002 A 
ATOM     92  C   UNL A   1      45.592  35.564  28.558  1.00  0.00     0.091 A 
ATOM     93  F   UNL A   1      44.050  34.250  27.297  1.00  0.00    -0.205 F 
ATOM     94  C   UNL A   1      46.401  35.704  29.698  1.00  0.00     0.022 A 
BRANCH  92  95
ATOM     95  S   UNL A   1      45.602  36.913  27.373  1.00  0.00     0.127 S 
ATOM     96  O   UNL A   1      44.193  37.304  27.354  1.00  0.00    -0.237 OA
ATOM     97  O   UNL A   1      46.494  37.881  28.010  1.00  0.00    -0.237 OA
ATOM     98  O   UNL A   1      46.111  36.351  26.129  1.00  0.00    -0.744 OA
ENDBRANCH  92  95
ENDBRANCH  65  88
ENDBRANCH  39  40
ENDBRANCH  32  34
ENDBRANCH  31  32
ENDBRANCH  30  31
ENDBRANCH   1  30
TORSDOF 22
ENDMDL
MODEL 2
REMARK VINA RESULT:     -11.2      1.681      2.128
REMARK SMILES CCCc1cc(OC(F)(F)F)cc2c1O[C@H](C(F)(F)F)C(C(=O)OCCOCCOC(=O)c1ccc(-c3c4nc(c(-c5cccc(S(=O)(=O)[O-])c5F)c5ccc([nH]5)c(-c5cccc(S(=O)(=O)[O-])c5F)c5nc(c(-c6cccc(S(=O)(=O)[O-])c6F)c6ccc3[nH]6)C=C5)C=C4)cc1)=C2
REMARK SMILES IDX 28 1 27 2 26 3 25 4 24 5 22 6 23 7 21 8 4 9 5 10 14 11 6 12
REMARK SMILES IDX 13 13 15 14 12 15 96 16 16 17 3 18 2 19 1 20 7 21 8 22 9 23
REMARK SMILES IDX 10 24 11 25 17 26 18 27 19 28 20 29 29 30 30 31 31 32 32 33
REMARK SMILES IDX 33 34 34 35 95 36 35 37 94 38 36 39 37 40 38 41 88 42 39 43
REMARK SMILES IDX 93 44 87 45 89 46 40 47 92 48 86 49 85 50 41 52 73 53 53 54
REMARK SMILES IDX 72 55 54 56 57 57 71 58 90 59 55 60 56 61 70 63 91 64 58 65
REMARK SMILES IDX 42 66 43 67 51 68 44 69 46 70 52 71 45 72 47 73 48 74 49 75
REMARK SMILES IDX 50 76 74 77 75 78 83 79 76 80 78 81 84 82 77 83 79 84 80 85
REMARK SMILES IDX 81 86 82 87 59 88 60 89 68 90 61 91 63 92 69 93 62 94 64 95
REMARK SMILES IDX 65 96 66 97 67 98
REMARK H PARENT 89 51 57 62
REMARK Flexibility Score: inf
ROOT
ATOM      1  C   UNL A   1      35.736  21.608  25.829  1.00  0.00     0.202 C 
ENDROOT
BRANCH   1   2
ATOM      2  O   UNL A   1      34.430  21.139  25.514  1.00  0.00    -0.374 OA
BRANCH   2   3
ATOM      3  C   UNL A   1      33.465  21.081  26.565  1.00  0.00     0.202 C 
BRANCH   3   4
ATOM      4  C   UNL A   1      33.434  22.220  27.589  1.00  0.00     0.261 C 
BRANCH   4   5
ATOM      5  O   UNL A   1      32.952  23.454  27.022  1.00  0.00    -0.460 OA
BRANCH   5   6
ATOM      6  C   UNL A   1      31.614  23.497  26.836  1.00  0.00     0.338 C 
ATOM      7  O   UNL A   1      30.764  23.118  27.629  1.00  0.00    -0.246 OA
BRANCH   6   8
ATOM      8  C   UNL A   1      31.237  24.208  25.604  1.00  0.00     0.087 C 
ATOM      9  C   UNL A   1      31.609  27.171  22.725  1.00  0.00    -0.002 A 
ATOM     10  C   UNL A   1      30.509  27.997  22.442  1.00  0.00     0.054 A 
ATOM     11  C   UNL A   1      31.439  26.181  23.695  1.00  0.00     0.131 A 
ATOM     12  C   UNL A   1      29.294  27.848  23.128  1.00  0.00     0.130 A 
ATOM     13  C   UNL A   1      30.245  26.031  24.423  1.00  0.00     0.021 A 
ATOM     14  O   UNL A   1      32.520  25.384  23.928  1.00  0.00    -0.475 OA
ATOM     15  C   UNL A   1      29.171  26.868  24.124  1.00  0.00     0.058 A 
ATOM     16  C   UNL A   1      30.226  25.093  25.554  1.00  0.00     0.027 C 
ATOM     17  C   UNL A   1      32.228  24.092  24.476  1.00  0.00     0.316 C 
BRANCH   9  18
ATOM     18  C   UNL A   1      32.896  27.300  21.933  1.00  0.00     0.039 C 
BRANCH  18  19
ATOM     19  C   UNL A   1      34.027  28.161  22.536  1.00  0.00     0.001 C 
ATOM     20  C   UNL A   1      33.667  28.957  23.791  1.00  0.00     0.004 C 
ENDBRANCH  18  19
ENDBRANCH   9  18
BRANCH  12  21
ATOM     21  O   UNL A   1      28.162  28.591  22.928  1.00  0.00    -0.406 OA
BRANCH  21  22
ATOM     22  C   UNL A   1      28.270  30.001  23.017  1.00  0.00     0.573 C 
ATOM     23  F   UNL A   1      29.473  30.372  23.506  1.00  0.00    -0.132 F 
ATOM     24  F   UNL A   1      28.082  30.581  21.810  1.00  0.00    -0.132 F 
ATOM     25  F   UNL A   1      27.315  30.465  23.853  1.00  0.00    -0.132 F 
ENDBRANCH  21  22
ENDBRANCH  12  21
BRANCH  17  26
ATOM     26  C   UNL A   1      31.839  23.122  23.348  1.00  0.00     0.430 C 
ATOM     27  F   UNL A   1      30.563  23.269  22.930  1.00  0.00    -0.167 F 
ATOM     28  F   UNL A   1      32.637  23.290  22.263  1.00  0.00    -0.167 F 
ATOM     29  F   UNL A   1      31.988  21.830  23.723  1.00  0.00    -0.167 F 
ENDBRANCH  17  26
ENDBRANCH   6   8
ENDBRANCH   5   6
ENDBRANCH   4   5
ENDBRANCH   3   4
ENDBRANCH   2   3
ENDBRANCH   1   2
BRANCH   1  30
ATOM     30  C   UNL A   1      36.953  20.796  25.364  1.00  0.00     0.261 C 
BRANCH  30  31
ATOM     31  O   UNL A   1      38.130  21.589  25.170  1.00  0.00    -0.460 OA
BRANCH  31  32
ATOM     32  C   UNL A   1      39.136  21.301  26.030  1.00  0.00     0.338 C 
ATOM     33  O   UNL A   1      39.670  20.213  26.207  1.00  0.00    -0.246 OA
BRANCH  32  34
ATOM     34  C   UNL A   1      39.658  22.542  26.622  1.00  0.00     0.060 A 
ATOM     35  C   UNL A   1      39.127  23.752  26.154  1.00  0.00     0.016 A 
ATOM     36  C   UNL A   1      40.683  22.528  27.569  1.00  0.00     0.016 A 
ATOM     37  C   UNL A   1      39.653  24.959  26.600  1.00  0.00     0.010 A 
ATOM     38  C   UNL A   1      41.219  23.743  28.005  1.00  0.00     0.010 A 
ATOM     39  C   UNL A   1      40.730  24.959  27.496  1.00  0.00    -0.014 A 
BRANCH  39  40
ATOM     40  C   UNL A   1      41.436  26.228  27.779  1.00  0.00     0.031 A 
ATOM     41  C   UNL A   1      40.686  27.339  28.459  1.00  0.00     0.074 A 
ATOM     42  C   UNL A   1      42.728  26.382  27.442  1.00  0.00     0.049 A 
ATOM     43  N   UNL A   1      41.099  28.533  28.789  1.00  0.00    -0.248 NA
ATOM     44  C   UNL A   1      39.282  27.068  28.812  1.00  0.00     0.031 C 
ATOM     45  C   UNL A   1      43.554  25.371  26.783  1.00  0.00     0.029 A 
ATOM     46  N   UNL A   1      43.565  27.459  27.589  1.00  0.00    -0.354 N 
ATOM     47  C   UNL A   1      40.004  29.166  29.365  1.00  0.00     0.074 A 
ATOM     48  C   UNL A   1      38.903  28.228  29.328  1.00  0.00     0.031 C 
ATOM     49  C   UNL A   1      44.774  25.886  26.556  1.00  0.00     0.029 A 
ATOM     50  C   UNL A   1      44.807  27.267  27.033  1.00  0.00     0.049 A 
ATOM     51  H   UNL A   1      43.301  28.288  28.048  1.00  0.00     0.167 HD
ATOM     52  C   UNL A   1      39.927  30.410  29.891  1.00  0.00     0.034 A 
ATOM     53  C   UNL A   1      45.843  28.121  26.907  1.00  0.00     0.034 A 
ATOM     54  C   UNL A   1      41.029  31.330  29.944  1.00  0.00     0.049 A 
ATOM     55  C   UNL A   1      45.724  29.507  27.483  1.00  0.00     0.074 A 
ATOM     56  C   UNL A   1      41.068  32.596  30.499  1.00  0.00     0.029 A 
ATOM     57  N   UNL A   1      42.286  31.088  29.411  1.00  0.00    -0.354 N 
ATOM     58  N   UNL A   1      44.722  30.048  28.134  1.00  0.00    -0.248 NA
ATOM     59  C   UNL A   1      46.890  30.390  27.339  1.00  0.00     0.031 C 
ATOM     60  C   UNL A   1      42.342  33.131  30.279  1.00  0.00     0.029 A 
ATOM     61  C   UNL A   1      43.105  32.186  29.611  1.00  0.00     0.049 A 
ATOM     62  H   UNL A   1      42.556  30.258  28.956  1.00  0.00     0.167 HD
ATOM     63  C   UNL A   1      45.149  31.318  28.507  1.00  0.00     0.074 A 
ATOM     64  C   UNL A   1      46.507  31.458  28.025  1.00  0.00     0.031 C 
ATOM     65  C   UNL A   1      44.473  32.286  29.174  1.00  0.00     0.034 A 
BRANCH  52  66
ATOM     66  C   UNL A   1      38.609  30.839  30.479  1.00  0.00     0.023 A 
ATOM     67  C   UNL A   1      38.362  30.647  31.853  1.00  0.00     0.012 A 
ATOM     68  C   UNL A   1      37.639  31.481  29.685  1.00  0.00     0.148 A 
ATOM     69  C   UNL A   1      37.159  31.059  32.423  1.00  0.00     0.002 A 
ATOM     70  C   UNL A   1      36.459  31.928  30.269  1.00  0.00     0.091 A 
ATOM     71  F   UNL A   1      37.882  31.632  28.376  1.00  0.00    -0.205 F 
ATOM     72  C   UNL A   1      36.213  31.709  31.634  1.00  0.00     0.022 A 
BRANCH  70  73
ATOM     73  S   UNL A   1      35.212  32.841  29.353  1.00  0.00     0.127 S 
ATOM     74  O   UNL A   1      35.920  34.084  29.051  1.00  0.00    -0.237 OA
ATOM     75  O   UNL A   1      34.982  31.974  28.197  1.00  0.00    -0.237 OA
ATOM     76  O   UNL A   1      34.072  32.973  30.250  1.00  0.00    -0.744 OA
ENDBRANCH  70  73
ENDBRANCH  52  66
BRANCH  53  77
ATOM     77  C   UNL A   1      47.097  27.674  26.237  1.00  0.00     0.023 A 
ATOM     78  C   UNL A   1      48.066  26.967  26.974  1.00  0.00     0.012 A 
ATOM     79  C   UNL A   1      47.323  27.928  24.870  1.00  0.00     0.148 A 
ATOM     80  C   UNL A   1      49.251  26.547  26.370  1.00  0.00     0.002 A 
ATOM     81  C   UNL A   1      48.481  27.458  24.261  1.00  0.00     0.091 A 
ATOM     82  F   UNL A   1      46.397  28.618  24.190  1.00  0.00    -0.205 F 
ATOM     83  C   UNL A   1      49.454  26.783  25.011  1.00  0.00     0.022 A 
BRANCH  81  84
ATOM     84  S   UNL A   1      48.760  27.601  22.492  1.00  0.00     0.127 S 
ATOM     85  O   UNL A   1      50.150  28.047  22.444  1.00  0.00    -0.237 OA
ATOM     86  O   UNL A   1      48.535  26.228  22.038  1.00  0.00    -0.237 OA
ATOM     87  O   UNL A   1      47.770  28.557  22.015  1.00  0.00    -0.744 OA
ENDBRANCH  81  84
ENDBRANCH  53  77
BRANCH  65  88
ATOM     88  C   UNL A   1      45.199  33.575  29.462  1.00  0.00     0.023 A 
ATOM     89  C   UNL A   1      45.995  33.689  30.618  1.00  0.00     0.012 A 
ATOM     90  C   UNL A   1      45.158  34.643  28.542  1.00  0.00     0.148 A 
ATOM     91  C   UNL A   1      46.715  34.856  30.871  1.00  0.00     0.002 A 
ATOM     92  C   UNL A   1      45.916  35.783  28.776  1.00  0.00     0.091 A 
ATOM     93  F   UNL A   1      44.380  34.522  27.456  1.00  0.00    -0.205 F 
ATOM     94  C   UNL A   1      46.686  35.897  29.945  1.00  0.00     0.022 A 
BRANCH  92  95
ATOM     95  S   UNL A   1      46.015  37.132  27.593  1.00  0.00     0.127 S 
ATOM     96  O   UNL A   1      44.729  37.798  27.791  1.00  0.00    -0.237 OA
ATOM     97  O   UNL A   1      47.173  37.885  28.076  1.00  0.00    -0.237 OA
ATOM     98  O   UNL A   1      46.203  36.509  26.289  1.00  0.00    -0.744 OA
ENDBRANCH  92  95
ENDBRANCH  65  88
ENDBRANCH  39  40
ENDBRANCH  32  34
ENDBRANCH  31  32
ENDBRANCH  30  31
ENDBRANCH   1  30
TORSDOF 22
ENDMDL
MODEL 3
REMARK VINA RESULT:     -10.8      4.980      8.371
REMARK SMILES CCCc1cc(OC(F)(F)F)cc2c1O[C@H](C(F)(F)F)C(C(=O)OCCOCCOC(=O)c1ccc(-c3c4nc(c(-c5cccc(S(=O)(=O)[O-])c5F)c5ccc([nH]5)c(-c5cccc(S(=O)(=O)[O-])c5F)c5nc(c(-c6cccc(S(=O)(=O)[O-])c6F)c6ccc3[nH]6)C=C5)C=C4)cc1)=C2
REMARK SMILES IDX 28 1 27 2 26 3 25 4 24 5 22 6 23 7 21 8 4 9 5 10 14 11 6 12
REMARK SMILES IDX 13 13 15 14 12 15 96 16 16 17 3 18 2 19 1 20 7 21 8 22 9 23
REMARK SMILES IDX 10 24 11 25 17 26 18 27 19 28 20 29 29 30 30 31 31 32 32 33
REMARK SMILES IDX 33 34 34 35 95 36 35 37 94 38 36 39 37 40 38 41 88 42 39 43
REMARK SMILES IDX 93 44 87 45 89 46 40 47 92 48 86 49 85 50 41 52 73 53 53 54
REMARK SMILES IDX 72 55 54 56 57 57 71 58 90 59 55 60 56 61 70 63 91 64 58 65
REMARK SMILES IDX 42 66 43 67 51 68 44 69 46 70 52 71 45 72 47 73 48 74 49 75
REMARK SMILES IDX 50 76 74 77 75 78 83 79 76 80 78 81 84 82 77 83 79 84 80 85
REMARK SMILES IDX 81 86 82 87 59 88 60 89 68 90 61 91 63 92 69 93 62 94 64 95
REMARK SMILES IDX 65 96 66 97 67 98
REMARK H PARENT 89 51 57 62
REMARK Flexibility Score: inf
ROOT
ATOM      1  C   UNL A   1      31.702  29.829  25.647  1.00  0.00     0.202 C 
ENDROOT
BRANCH   1   2
ATOM      2  O   UNL A   1      30.702  30.071  24.665  1.00  0.00    -0.374 OA
BRANCH   2   3
ATOM      3  C   UNL A   1      30.344  28.999  23.791  1.00  0.00     0.202 C 
BRANCH   3   4
ATOM      4  C   UNL A   1      31.108  27.677  23.909  1.00  0.00     0.261 C 
BRANCH   4   5
ATOM      5  O   UNL A   1      30.412  26.711  24.721  1.00  0.00    -0.460 OA
BRANCH   5   6
ATOM      6  C   UNL A   1      31.150  26.199  25.731  1.00  0.00     0.338 C 
ATOM      7  O   UNL A   1      31.026  26.461  26.919  1.00  0.00    -0.246 OA
BRANCH   6   8
ATOM      8  C   UNL A   1      32.061  25.134  25.281  1.00  0.00     0.087 C 
ATOM      9  C   UNL A   1      33.446  21.231  25.068  1.00  0.00    -0.002 A 
ATOM     10  C   UNL A   1      34.777  20.952  25.419  1.00  0.00     0.054 A 
ATOM     11  C   UNL A   1      33.023  22.558  25.146  1.00  0.00     0.131 A 
ATOM     12  C   UNL A   1      35.640  21.969  25.856  1.00  0.00     0.130 A 
ATOM     13  C   UNL A   1      33.854  23.592  25.614  1.00  0.00     0.021 A 
ATOM     14  O   UNL A   1      31.732  22.794  24.777  1.00  0.00    -0.475 OA
ATOM     15  C   UNL A   1      35.169  23.287  25.960  1.00  0.00     0.058 A 
ATOM     16  C   UNL A   1      33.263  24.918  25.845  1.00  0.00     0.027 C 
ATOM     17  C   UNL A   1      31.449  24.130  24.340  1.00  0.00     0.316 C 
BRANCH   9  18
ATOM     18  C   UNL A   1      32.542  20.134  24.537  1.00  0.00     0.039 C 
BRANCH  18  19
ATOM     19  C   UNL A   1      33.204  18.816  24.081  1.00  0.00     0.001 C 
ATOM     20  C   UNL A   1      32.522  18.089  22.921  1.00  0.00     0.004 C 
ENDBRANCH  18  19
ENDBRANCH   9  18
BRANCH  12  21
ATOM     21  O   UNL A   1      36.950  21.811  26.216  1.00  0.00    -0.406 OA
BRANCH  21  22
ATOM     22  C   UNL A   1      37.870  21.410  25.214  1.00  0.00     0.573 C 
ATOM     23  F   UNL A   1      39.125  21.813  25.511  1.00  0.00    -0.132 F 
ATOM     24  F   UNL A   1      37.859  20.068  25.052  1.00  0.00    -0.132 F 
ATOM     25  F   UNL A   1      37.515  21.974  24.039  1.00  0.00    -0.132 F 
ENDBRANCH  21  22
ENDBRANCH  12  21
BRANCH  17  26
ATOM     26  C   UNL A   1      31.832  24.289  22.859  1.00  0.00     0.430 C 
ATOM     27  F   UNL A   1      32.099  23.116  22.245  1.00  0.00    -0.167 F 
ATOM     28  F   UNL A   1      30.836  24.890  22.160  1.00  0.00    -0.167 F 
ATOM     29  F   UNL A   1      32.922  25.075  22.705  1.00  0.00    -0.167 F 
ENDBRANCH  17  26
ENDBRANCH   6   8
ENDBRANCH   5   6
ENDBRANCH   4   5
ENDBRANCH   3   4
ENDBRANCH   2   3
ENDBRANCH   1   2
BRANCH   1  30
ATOM     30  C   UNL A   1      32.194  30.995  26.515  1.00  0.00     0.261 C 
BRANCH  30  31
ATOM     31  O   UNL A   1      33.620  31.060  26.634  1.00  0.00    -0.460 OA
BRANCH  31  32
ATOM     32  C   UNL A   1      34.055  31.903  27.600  1.00  0.00     0.338 C 
ATOM     33  O   UNL A   1      33.440  32.839  28.096  1.00  0.00    -0.246 OA
BRANCH  32  34
ATOM     34  C   UNL A   1      35.339  31.430  28.135  1.00  0.00     0.060 A 
ATOM     35  C   UNL A   1      35.411  30.094  28.552  1.00  0.00     0.016 A 
ATOM     36  C   UNL A   1      36.432  32.286  28.282  1.00  0.00     0.016 A 
ATOM     37  C   UNL A   1      36.566  29.618  29.161  1.00  0.00     0.010 A 
ATOM     38  C   UNL A   1      37.587  31.809  28.909  1.00  0.00     0.010 A 
ATOM     39  C   UNL A   1      37.644  30.485  29.380  1.00  0.00    -0.014 A 
BRANCH  39  40
ATOM     40  C   UNL A   1      38.767  30.042  30.236  1.00  0.00     0.031 A 
ATOM     41  C   UNL A   1      38.908  30.633  31.611  1.00  0.00     0.074 A 
ATOM     42  C   UNL A   1      39.639  29.119  29.796  1.00  0.00     0.049 A 
ATOM     43  N   UNL A   1      39.817  30.403  32.520  1.00  0.00    -0.248 NA
ATOM     44  C   UNL A   1      37.889  31.617  32.014  1.00  0.00     0.031 C 
ATOM     45  C   UNL A   1      39.596  28.476  28.484  1.00  0.00     0.029 A 
ATOM     46  N   UNL A   1      40.747  28.581  30.400  1.00  0.00    -0.354 N 
ATOM     47  C   UNL A   1      39.497  31.229  33.591  1.00  0.00     0.074 A 
ATOM     48  C   UNL A   1      38.318  31.976  33.214  1.00  0.00     0.031 C 
ATOM     49  C   UNL A   1      40.649  27.649  28.370  1.00  0.00     0.029 A 
ATOM     50  C   UNL A   1      41.450  27.722  29.590  1.00  0.00     0.049 A 
ATOM     51  H   UNL A   1      41.012  28.790  31.324  1.00  0.00     0.167 HD
ATOM     52  C   UNL A   1      40.123  31.343  34.786  1.00  0.00     0.034 A 
ATOM     53  C   UNL A   1      42.619  27.085  29.806  1.00  0.00     0.034 A 
ATOM     54  C   UNL A   1      41.283  30.583  35.162  1.00  0.00     0.049 A 
ATOM     55  C   UNL A   1      43.304  27.245  31.138  1.00  0.00     0.074 A 
ATOM     56  C   UNL A   1      41.962  30.588  36.367  1.00  0.00     0.029 A 
ATOM     57  N   UNL A   1      41.944  29.688  34.333  1.00  0.00    -0.354 N 
ATOM     58  N   UNL A   1      42.923  27.935  32.186  1.00  0.00    -0.248 NA
ATOM     59  C   UNL A   1      44.564  26.511  31.330  1.00  0.00     0.031 C 
ATOM     60  C   UNL A   1      43.050  29.716  36.258  1.00  0.00     0.029 A 
ATOM     61  C   UNL A   1      43.032  29.146  34.995  1.00  0.00     0.049 A 
ATOM     62  H   UNL A   1      41.678  29.472  33.410  1.00  0.00     0.167 HD
ATOM     63  C   UNL A   1      43.874  27.691  33.171  1.00  0.00     0.074 A 
ATOM     64  C   UNL A   1      44.839  26.774  32.601  1.00  0.00     0.031 C 
ATOM     65  C   UNL A   1      43.950  28.191  34.429  1.00  0.00     0.034 A 
BRANCH  52  66
ATOM     66  C   UNL A   1      39.545  32.307  35.787  1.00  0.00     0.023 A 
ATOM     67  C   UNL A   1      38.562  31.865  36.694  1.00  0.00     0.012 A 
ATOM     68  C   UNL A   1      40.013  33.633  35.865  1.00  0.00     0.148 A 
ATOM     69  C   UNL A   1      38.031  32.735  37.646  1.00  0.00     0.002 A 
ATOM     70  C   UNL A   1      39.510  34.483  36.844  1.00  0.00     0.091 A 
ATOM     71  F   UNL A   1      40.930  34.042  34.977  1.00  0.00    -0.205 F 
ATOM     72  C   UNL A   1      38.513  34.039  37.728  1.00  0.00     0.022 A 
BRANCH  70  73
ATOM     73  S   UNL A   1      40.119  36.156  37.078  1.00  0.00     0.127 S 
ATOM     74  O   UNL A   1      39.754  36.782  35.808  1.00  0.00    -0.237 OA
ATOM     75  O   UNL A   1      39.337  36.611  38.228  1.00  0.00    -0.237 OA
ATOM     76  O   UNL A   1      41.548  36.033  37.326  1.00  0.00    -0.744 OA
ENDBRANCH  70  73
ENDBRANCH  52  66
BRANCH  53  77
ATOM     77  C   UNL A   1      43.194  26.208  28.748  1.00  0.00     0.023 A 
ATOM     78  C   UNL A   1      42.785  24.864  28.658  1.00  0.00     0.012 A 
ATOM     79  C   UNL A   1      44.128  26.707  27.818  1.00  0.00     0.148 A 
ATOM     80  C   UNL A   1      43.318  24.023  27.681  1.00  0.00     0.002 A 
ATOM     81  C   UNL A   1      44.612  25.878  26.812  1.00  0.00     0.091 A 
ATOM     82  F   UNL A   1      44.518  27.984  27.931  1.00  0.00    -0.205 F 
ATOM     83  C   UNL A   1      44.223  24.532  26.752  1.00  0.00     0.022 A 
BRANCH  81  84
ATOM     84  S   UNL A   1      45.676  26.485  25.498  1.00  0.00     0.127 S 
ATOM     85  O   UNL A   1      44.888  27.592  24.961  1.00  0.00    -0.237 OA
ATOM     86  O   UNL A   1      46.875  26.882  26.238  1.00  0.00    -0.237 OA
ATOM     87  O   UNL A   1      45.876  25.354  24.602  1.00  0.00    -0.744 OA
ENDBRANCH  81  84
ENDBRANCH  53  77
BRANCH  65  88
ATOM     88  C   UNL A   1      45.094  27.733  35.297  1.00  0.00     0.023 A 
ATOM     89  C   UNL A   1      46.289  28.478  35.332  1.00  0.00     0.012 A 
ATOM     90  C   UNL A   1      44.952  26.611  36.139  1.00  0.00     0.148 A 
ATOM     91  C   UNL A   1      47.336  28.097  36.170  1.00  0.00     0.002 A 
ATOM     92  C   UNL A   1      45.981  26.266  37.006  1.00  0.00     0.091 A 
ATOM     93  F   UNL A   1      43.814  25.905  36.077  1.00  0.00    -0.205 F 
ATOM     94  C   UNL A   1      47.179  27.000  37.014  1.00  0.00     0.022 A 
BRANCH  92  95
ATOM     95  S   UNL A   1      45.829  24.930  38.197  1.00  0.00     0.127 S 
ATOM     96  O   UNL A   1      47.139  24.957  38.845  1.00  0.00    -0.237 OA
ATOM     97  O   UNL A   1      44.723  25.387  39.038  1.00  0.00    -0.237 OA
ATOM     98  O   UNL A   1      45.540  23.732  37.420  1.00  0.00    -0.744 OA
ENDBRANCH  92  95
ENDBRANCH  65  88
ENDBRANCH  39  40
ENDBRANCH  32  34
ENDBRANCH  31  32
ENDBRANCH  30  31
ENDBRANCH   1  30
TORSDOF 22
ENDMDL
