MODEL 1
REMARK VINA RESULT:     -13.7      0.000      0.000
REMARK SMILES O=C(OCCOCCOC(=O)c1ccc(-c2c3nc(c(-c4cccc(S(=O)(=O)[O-])c4F)c4ccc([nH]4)c(-c4cccc(S(=O)(=O)[O-])c4F)c4nc(c(-c5cccc(S(=O)(=O)[O-])c5F)c5ccc2[nH]5)C=C4)C=C3)cc1)C1=Cc2cc(Cl)cc(-c3ccccc3)c2O[C@@H]1C(F)(F)F
REMARK SMILES IDX 7 1 6 2 5 3 4 4 3 5 2 6 1 7 75 8 76 9 91 10 77 11 90 12
REMARK SMILES IDX 78 13 89 14 79 15 82 16 80 17 81 18 92 19 93 20 94 21 95 22
REMARK SMILES IDX 83 23 84 24 88 25 85 26 87 27 86 28 8 29 9 30 10 31 11 32
REMARK SMILES IDX 12 33 13 34 74 35 14 36 73 37 15 38 16 39 17 40 67 41 18 42
REMARK SMILES IDX 72 43 66 44 68 45 19 46 71 47 65 48 64 49 20 51 52 52 32 53
REMARK SMILES IDX 51 54 33 55 36 56 50 57 69 58 34 59 35 60 49 62 70 63 37 64
REMARK SMILES IDX 21 65 22 66 30 67 23 68 25 69 31 70 24 71 26 72 27 73 28 74
REMARK SMILES IDX 29 75 53 76 54 77 62 78 55 79 57 80 63 81 56 82 58 83 59 84
REMARK SMILES IDX 60 85 61 86 38 87 39 88 47 89 40 90 42 91 48 92 41 93 43 94
REMARK SMILES IDX 44 95 45 96 46 97
REMARK H PARENT 68 50 36 61
REMARK Flexibility Score: inf
ROOT
ATOM      1  C   UNL A   1      30.653  31.221  25.092  1.00  0.00     0.202 C 
ENDROOT
BRANCH   1   2
ATOM      2  O   UNL A   1      29.556  31.640  24.243  1.00  0.00    -0.374 OA
BRANCH   2   3
ATOM      3  C   UNL A   1      28.476  30.855  23.301  1.00  0.00     0.202 C 
BRANCH   3   4
ATOM      4  C   UNL A   1      28.189  28.725  22.957  1.00  0.00     0.261 C 
BRANCH   4   5
ATOM      5  O   UNL A   1      29.187  27.584  23.393  1.00  0.00    -0.460 OA
BRANCH   5   6
ATOM      6  C   UNL A   1      30.381  27.660  22.794  1.00  0.00     0.338 C 
ATOM      7  O   UNL A   1      30.707  27.530  21.642  1.00  0.00    -0.246 OA
BRANCH   6   8
ATOM      8  C   UNL A   1      31.124  27.654  24.025  1.00  0.00     0.087 C 
ATOM      9  C   UNL A   1      30.400  26.874  25.036  1.00  0.00     0.027 C 
ATOM     10  C   UNL A   1      32.857  27.195  23.295  1.00  0.00     0.316 C 
ATOM     11  C   UNL A   1      30.968  25.269  25.637  1.00  0.00     0.019 A 
ATOM     12  O   UNL A   1      33.464  25.451  23.928  1.00  0.00    -0.475 OA
ATOM     13  C   UNL A   1      30.049  24.601  26.405  1.00  0.00     0.032 A 
ATOM     14  C   UNL A   1      32.413  24.461  25.055  1.00  0.00     0.135 A 
ATOM     15  C   UNL A   1      30.340  23.262  26.623  1.00  0.00     0.042 A 
ATOM     16  C   UNL A   1      32.664  23.117  25.423  1.00  0.00     0.026 A 
ATOM     17  Cl  UNL A   1      29.198  22.341  27.545  1.00  0.00    -0.084 Cl
ATOM     18  C   UNL A   1      31.523  22.587  26.143  1.00  0.00     0.033 A 
BRANCH  10  19
ATOM     19  C   UNL A   1      33.435  28.694  23.365  1.00  0.00     0.430 C 
ATOM     20  F   UNL A   1      33.378  29.279  24.576  1.00  0.00    -0.167 F 
ATOM     21  F   UNL A   1      34.781  28.622  23.107  1.00  0.00    -0.167 F 
ATOM     22  F   UNL A   1      32.981  29.554  22.423  1.00  0.00    -0.167 F 
ENDBRANCH  10  19
BRANCH  16  23
ATOM     23  C   UNL A   1      33.853  22.037  25.285  1.00  0.00    -0.015 A 
ATOM     24  C   UNL A   1      35.399  22.937  25.595  1.00  0.00     0.009 A 
ATOM     25  C   UNL A   1      34.060  20.077  24.800  1.00  0.00     0.009 A 
ATOM     26  C   UNL A   1      36.944  22.078  25.463  1.00  0.00     0.001 A 
ATOM     27  C   UNL A   1      35.695  19.329  24.763  1.00  0.00     0.001 A 
ATOM     28  C   UNL A   1      37.081  20.352  25.070  1.00  0.00     0.000 A 
ENDBRANCH  16  23
ENDBRANCH   6   8
ENDBRANCH   5   6
ENDBRANCH   4   5
ENDBRANCH   3   4
ENDBRANCH   2   3
ENDBRANCH   1   2
BRANCH   1  29
ATOM     29  C   UNL A   1      30.937  32.022  26.363  1.00  0.00     0.261 C 
BRANCH  29  30
ATOM     30  O   UNL A   1      32.244  31.788  26.816  1.00  0.00    -0.460 OA
BRANCH  30  31
ATOM     31  C   UNL A   1      32.768  32.839  27.468  1.00  0.00     0.338 C 
ATOM     32  O   UNL A   1      32.229  33.872  27.810  1.00  0.00    -0.246 OA
BRANCH  31  33
ATOM     33  C   UNL A   1      34.155  32.459  27.681  1.00  0.00     0.060 A 
ATOM     34  C   UNL A   1      34.452  30.734  27.977  1.00  0.00     0.016 A 
ATOM     35  C   UNL A   1      35.341  33.741  27.965  1.00  0.00     0.016 A 
ATOM     36  C   UNL A   1      35.965  30.134  28.637  1.00  0.00     0.010 A 
ATOM     37  C   UNL A   1      36.922  33.261  28.664  1.00  0.00     0.010 A 
ATOM     38  C   UNL A   1      37.279  31.300  29.050  1.00  0.00    -0.014 A 
BRANCH  38  39
ATOM     39  C   UNL A   1      38.357  30.355  29.859  1.00  0.00     0.031 A 
ATOM     40  C   UNL A   1      38.686  30.630  31.336  1.00  0.00     0.074 A 
ATOM     41  C   UNL A   1      39.003  29.291  29.329  1.00  0.00     0.049 A 
ATOM     42  N   UNL A   1      39.777  30.365  32.020  1.00  0.00    -0.248 NA
ATOM     43  C   UNL A   1      37.669  31.330  32.130  1.00  0.00     0.031 C 
ATOM     44  C   UNL A   1      38.740  28.665  28.042  1.00  0.00     0.029 A 
ATOM     45  N   UNL A   1      40.115  28.609  29.795  1.00  0.00    -0.354 N 
ATOM     46  C   UNL A   1      39.636  31.013  33.250  1.00  0.00     0.074 A 
ATOM     47  C   UNL A   1      38.364  31.701  33.196  1.00  0.00     0.031 C 
ATOM     48  C   UNL A   1      39.746  27.833  27.733  1.00  0.00     0.029 A 
ATOM     49  C   UNL A   1      40.709  27.822  28.830  1.00  0.00     0.049 A 
ATOM     50  H   UNL A   1      40.448  28.679  30.719  1.00  0.00     0.167 HD
ATOM     51  C   UNL A   1      40.451  31.018  34.339  1.00  0.00     0.034 A 
ATOM     52  C   UNL A   1      41.893  27.176  28.797  1.00  0.00     0.034 A 
ATOM     53  C   UNL A   1      41.593  30.152  34.497  1.00  0.00     0.049 A 
ATOM     54  C   UNL A   1      42.776  27.144  30.016  1.00  0.00     0.074 A 
ATOM     55  C   UNL A   1      42.374  29.954  35.626  1.00  0.00     0.029 A 
ATOM     56  N   UNL A   1      42.089  29.304  33.524  1.00  0.00    -0.354 N 
ATOM     57  N   UNL A   1      42.627  27.758  31.162  1.00  0.00    -0.248 NA
ATOM     58  C   UNL A   1      43.951  26.256  29.963  1.00  0.00     0.031 C 
ATOM     59  C   UNL A   1      43.356  29.005  35.326  1.00  0.00     0.029 A 
ATOM     60  C   UNL A   1      43.159  28.577  34.024  1.00  0.00     0.049 A 
ATOM     61  H   UNL A   1      41.734  29.227  32.608  1.00  0.00     0.167 HD
ATOM     62  C   UNL A   1      43.636  27.272  31.990  1.00  0.00     0.074 A 
ATOM     63  C   UNL A   1      44.398  26.321  31.209  1.00  0.00     0.031 C 
ATOM     64  C   UNL A   1      43.889  27.580  33.285  1.00  0.00     0.034 A 
BRANCH  51  65
ATOM     65  C   UNL A   1      40.116  31.950  35.493  1.00  0.00     0.023 A 
ATOM     66  C   UNL A   1      40.803  33.170  35.658  1.00  0.00     0.012 A 
ATOM     67  C   UNL A   1      39.071  31.635  36.390  1.00  0.00     0.148 A 
ATOM     68  C   UNL A   1      40.531  34.006  36.742  1.00  0.00     0.002 A 
ATOM     69  C   UNL A   1      38.754  32.510  37.426  1.00  0.00     0.091 A 
ATOM     70  F   UNL A   1      38.407  30.481  36.225  1.00  0.00    -0.205 F 
ATOM     71  C   UNL A   1      39.502  33.680  37.620  1.00  0.00     0.022 A 
BRANCH  69  72
ATOM     72  S   UNL A   1      37.362  32.248  38.534  1.00  0.00     0.127 S 
ATOM     73  O   UNL A   1      37.856  32.844  39.775  1.00  0.00    -0.237 OA
ATOM     74  O   UNL A   1      36.298  33.008  37.876  1.00  0.00    -0.237 OA
ATOM     75  O   UNL A   1      37.142  30.810  38.572  1.00  0.00    -0.744 OA
ENDBRANCH  69  72
ENDBRANCH  51  65
BRANCH  52  76
ATOM     76  C   UNL A   1      42.277  26.404  27.580  1.00  0.00     0.023 A 
ATOM     77  C   UNL A   1      42.928  27.075  26.528  1.00  0.00     0.012 A 
ATOM     78  C   UNL A   1      42.022  25.023  27.466  1.00  0.00     0.148 A 
ATOM     79  C   UNL A   1      43.289  26.395  25.366  1.00  0.00     0.002 A 
ATOM     80  C   UNL A   1      42.424  24.342  26.322  1.00  0.00     0.091 A 
ATOM     81  F   UNL A   1      41.407  24.405  28.484  1.00  0.00    -0.205 F 
ATOM     82  C   UNL A   1      43.043  25.030  25.265  1.00  0.00     0.022 A 
BRANCH  80  83
ATOM     83  S   UNL A   1      42.245  22.565  26.127  1.00  0.00     0.127 S 
ATOM     84  O   UNL A   1      42.904  22.062  27.331  1.00  0.00    -0.237 OA
ATOM     85  O   UNL A   1      40.789  22.416  26.114  1.00  0.00    -0.237 OA
ATOM     86  O   UNL A   1      42.902  22.234  24.871  1.00  0.00    -0.744 OA
ENDBRANCH  80  83
ENDBRANCH  52  76
BRANCH  64  87
ATOM     87  C   UNL A   1      44.981  26.823  34.001  1.00  0.00     0.023 A 
ATOM     88  C   UNL A   1      46.299  27.321  34.033  1.00  0.00     0.012 A 
ATOM     89  C   UNL A   1      44.677  25.636  34.703  1.00  0.00     0.148 A 
ATOM     90  C   UNL A   1      47.301  26.632  34.718  1.00  0.00     0.002 A 
ATOM     91  C   UNL A   1      45.669  24.986  35.428  1.00  0.00     0.091 A 
ATOM     92  F   UNL A   1      43.424  25.164  34.647  1.00  0.00    -0.205 F 
ATOM     93  C   UNL A   1      46.985  25.473  35.424  1.00  0.00     0.022 A 
BRANCH  91  94
ATOM     94  S   UNL A   1      45.334  23.544  36.447  1.00  0.00     0.127 S 
ATOM     95  O   UNL A   1      46.684  23.082  36.764  1.00  0.00    -0.237 OA
ATOM     96  O   UNL A   1      44.608  24.127  37.576  1.00  0.00    -0.237 OA
ATOM     97  O   UNL A   1      44.544  22.640  35.622  1.00  0.00    -0.744 OA
ENDBRANCH  91  94
ENDBRANCH  64  87
ENDBRANCH  38  39
ENDBRANCH  31  33
ENDBRANCH  30  31
ENDBRANCH  29  30
ENDBRANCH   1  29
TORSDOF 19
ENDMDL
MODEL 2
REMARK VINA RESULT:     -12.2      2.179      2.653
REMARK SMILES O=C(OCCOCCOC(=O)c1ccc(-c2c3nc(c(-c4cccc(S(=O)(=O)[O-])c4F)c4ccc([nH]4)c(-c4cccc(S(=O)(=O)[O-])c4F)c4nc(c(-c5cccc(S(=O)(=O)[O-])c5F)c5ccc2[nH]5)C=C4)C=C3)cc1)C1=Cc2cc(Cl)cc(-c3ccccc3)c2O[C@@H]1C(F)(F)F
REMARK SMILES IDX 7 1 6 2 5 3 4 4 3 5 2 6 1 7 75 8 76 9 91 10 77 11 90 12
REMARK SMILES IDX 78 13 89 14 79 15 82 16 80 17 81 18 92 19 93 20 94 21 95 22
REMARK SMILES IDX 83 23 84 24 88 25 85 26 87 27 86 28 8 29 9 30 10 31 11 32
REMARK SMILES IDX 12 33 13 34 74 35 14 36 73 37 15 38 16 39 17 40 67 41 18 42
REMARK SMILES IDX 72 43 66 44 68 45 19 46 71 47 65 48 64 49 20 51 52 52 32 53
REMARK SMILES IDX 51 54 33 55 36 56 50 57 69 58 34 59 35 60 49 62 70 63 37 64
REMARK SMILES IDX 21 65 22 66 30 67 23 68 25 69 31 70 24 71 26 72 27 73 28 74
REMARK SMILES IDX 29 75 53 76 54 77 62 78 55 79 57 80 63 81 56 82 58 83 59 84
REMARK SMILES IDX 60 85 61 86 38 87 39 88 47 89 40 90 42 91 48 92 41 93 43 94
REMARK SMILES IDX 44 95 45 96 46 97
REMARK H PARENT 68 50 36 61
REMARK Flexibility Score: inf
ROOT
ATOM      1  C   UNL A   1      31.000  31.501  25.709  1.00  0.00     0.202 C 
ENDROOT
BRANCH   1   2
ATOM      2  O   UNL A   1      29.939  31.857  24.787  1.00  0.00    -0.374 OA
BRANCH   2   3
ATOM      3  C   UNL A   1      29.037  31.027  23.707  1.00  0.00     0.202 C 
BRANCH   3   4
ATOM      4  C   UNL A   1      29.420  29.130  22.710  1.00  0.00     0.261 C 
BRANCH   4   5
ATOM      5  O   UNL A   1      29.780  27.774  23.430  1.00  0.00    -0.460 OA
BRANCH   5   6
ATOM      6  C   UNL A   1      31.096  27.560  23.543  1.00  0.00     0.338 C 
ATOM      7  O   UNL A   1      32.019  27.865  22.833  1.00  0.00    -0.246 OA
BRANCH   6   8
ATOM      8  C   UNL A   1      30.964  26.618  24.621  1.00  0.00     0.087 C 
ATOM      9  C   UNL A   1      30.651  25.289  24.081  1.00  0.00     0.027 C 
ATOM     10  C   UNL A   1      32.579  27.077  25.584  1.00  0.00     0.316 C 
ATOM     11  C   UNL A   1      31.819  23.914  24.108  1.00  0.00     0.019 A 
ATOM     12  O   UNL A   1      33.853  25.597  25.597  1.00  0.00    -0.475 OA
ATOM     13  C   UNL A   1      31.428  22.832  23.362  1.00  0.00     0.032 A 
ATOM     14  C   UNL A   1      33.452  24.027  24.743  1.00  0.00     0.135 A 
ATOM     15  C   UNL A   1      32.427  21.899  23.126  1.00  0.00     0.042 A 
ATOM     16  C   UNL A   1      34.364  22.967  24.528  1.00  0.00     0.026 A 
ATOM     17  Cl  UNL A   1      32.019  20.527  22.148  1.00  0.00    -0.084 Cl
ATOM     18  C   UNL A   1      33.774  21.987  23.638  1.00  0.00     0.033 A 
BRANCH  10  19
ATOM     19  C   UNL A   1      31.825  27.937  26.713  1.00  0.00     0.430 C 
ATOM     20  F   UNL A   1      32.627  28.555  27.600  1.00  0.00    -0.167 F 
ATOM     21  F   UNL A   1      31.191  28.974  26.077  1.00  0.00    -0.167 F 
ATOM     22  F   UNL A   1      30.820  27.310  27.370  1.00  0.00    -0.167 F 
ENDBRANCH  10  19
BRANCH  16  23
ATOM     23  C   UNL A   1      35.845  22.542  25.006  1.00  0.00    -0.015 A 
ATOM     24  C   UNL A   1      36.556  24.000  25.822  1.00  0.00     0.009 A 
ATOM     25  C   UNL A   1      37.071  20.931  24.863  1.00  0.00     0.009 A 
ATOM     26  C   UNL A   1      38.221  23.930  26.427  1.00  0.00     0.001 A 
ATOM     27  C   UNL A   1      38.720  20.990  25.578  1.00  0.00     0.001 A 
ATOM     28  C   UNL A   1      39.250  22.487  26.313  1.00  0.00     0.000 A 
ENDBRANCH  16  23
ENDBRANCH   6   8
ENDBRANCH   5   6
ENDBRANCH   4   5
ENDBRANCH   3   4
ENDBRANCH   2   3
ENDBRANCH   1   2
BRANCH   1  29
ATOM     29  C   UNL A   1      31.336  32.470  26.842  1.00  0.00     0.261 C 
BRANCH  29  30
ATOM     30  O   UNL A   1      32.674  32.885  26.760  1.00  0.00    -0.460 OA
BRANCH  30  31
ATOM     31  C   UNL A   1      33.103  33.493  27.878  1.00  0.00     0.338 C 
ATOM     32  O   UNL A   1      32.532  34.311  28.569  1.00  0.00    -0.246 OA
BRANCH  31  33
ATOM     33  C   UNL A   1      34.431  32.940  28.086  1.00  0.00     0.060 A 
ATOM     34  C   UNL A   1      34.493  31.282  28.719  1.00  0.00     0.016 A 
ATOM     35  C   UNL A   1      35.816  34.039  28.025  1.00  0.00     0.016 A 
ATOM     36  C   UNL A   1      35.953  30.584  29.402  1.00  0.00     0.010 A 
ATOM     37  C   UNL A   1      37.364  33.453  28.717  1.00  0.00     0.010 A 
ATOM     38  C   UNL A   1      37.459  31.576  29.484  1.00  0.00    -0.014 A 
BRANCH  38  39
ATOM     39  C   UNL A   1      38.452  30.646  30.410  1.00  0.00     0.031 A 
ATOM     40  C   UNL A   1      38.662  30.965  31.899  1.00  0.00     0.074 A 
ATOM     41  C   UNL A   1      39.125  29.557  29.970  1.00  0.00     0.049 A 
ATOM     42  N   UNL A   1      39.689  30.710  32.680  1.00  0.00    -0.248 NA
ATOM     43  C   UNL A   1      37.593  31.703  32.583  1.00  0.00     0.031 C 
ATOM     44  C   UNL A   1      38.959  28.892  28.685  1.00  0.00     0.029 A 
ATOM     45  N   UNL A   1      40.184  28.878  30.547  1.00  0.00    -0.354 N 
ATOM     46  C   UNL A   1      39.456  31.401  33.872  1.00  0.00     0.074 A 
ATOM     47  C   UNL A   1      38.203  32.101  33.691  1.00  0.00     0.031 C 
ATOM     48  C   UNL A   1      39.976  28.039  28.487  1.00  0.00     0.029 A 
ATOM     49  C   UNL A   1      40.844  28.053  29.660  1.00  0.00     0.049 A 
ATOM     50  H   UNL A   1      40.441  28.974  31.493  1.00  0.00     0.167 HD
ATOM     51  C   UNL A   1      40.178  31.432  35.025  1.00  0.00     0.034 A 
ATOM     52  C   UNL A   1      42.018  27.392  29.747  1.00  0.00     0.034 A 
ATOM     53  C   UNL A   1      41.291  30.558  35.305  1.00  0.00     0.049 A 
ATOM     54  C   UNL A   1      42.796  27.389  31.036  1.00  0.00     0.074 A 
ATOM     55  C   UNL A   1      41.972  30.388  36.500  1.00  0.00     0.029 A 
ATOM     56  N   UNL A   1      41.853  29.672  34.403  1.00  0.00    -0.354 N 
ATOM     57  N   UNL A   1      42.562  28.043  32.144  1.00  0.00    -0.248 NA
ATOM     58  C   UNL A   1      43.959  26.487  31.108  1.00  0.00     0.031 C 
ATOM     59  C   UNL A   1      42.963  29.418  36.313  1.00  0.00     0.029 A 
ATOM     60  C   UNL A   1      42.867  28.950  35.014  1.00  0.00     0.049 A 
ATOM     61  H   UNL A   1      41.574  29.569  33.464  1.00  0.00     0.167 HD
ATOM     62  C   UNL A   1      43.492  27.573  33.069  1.00  0.00     0.074 A 
ATOM     63  C   UNL A   1      44.302  26.588  32.385  1.00  0.00     0.031 C 
ATOM     64  C   UNL A   1      43.641  27.921  34.369  1.00  0.00     0.034 A 
BRANCH  51  65
ATOM     65  C   UNL A   1      39.763  32.405  36.116  1.00  0.00     0.023 A 
ATOM     66  C   UNL A   1      40.299  33.709  36.164  1.00  0.00     0.012 A 
ATOM     67  C   UNL A   1      38.788  32.039  37.072  1.00  0.00     0.148 A 
ATOM     68  C   UNL A   1      39.955  34.589  37.191  1.00  0.00     0.002 A 
ATOM     69  C   UNL A   1      38.395  32.949  38.050  1.00  0.00     0.091 A 
ATOM     70  F   UNL A   1      38.267  30.804  37.019  1.00  0.00    -0.205 F 
ATOM     71  C   UNL A   1      38.999  34.212  38.128  1.00  0.00     0.022 A 
BRANCH  69  72
ATOM     72  S   UNL A   1      37.075  32.611  39.224  1.00  0.00     0.127 S 
ATOM     73  O   UNL A   1      35.886  32.800  38.396  1.00  0.00    -0.237 OA
ATOM     74  O   UNL A   1      37.343  31.220  39.595  1.00  0.00    -0.237 OA
ATOM     75  O   UNL A   1      37.246  33.569  40.307  1.00  0.00    -0.744 OA
ENDBRANCH  69  72
ENDBRANCH  51  65
BRANCH  52  76
ATOM     76  C   UNL A   1      42.489  26.575  28.591  1.00  0.00     0.023 A 
ATOM     77  C   UNL A   1      41.826  25.367  28.299  1.00  0.00     0.012 A 
ATOM     78  C   UNL A   1      43.561  26.990  27.777  1.00  0.00     0.148 A 
ATOM     79  C   UNL A   1      42.244  24.566  27.239  1.00  0.00     0.002 A 
ATOM     80  C   UNL A   1      43.945  26.206  26.694  1.00  0.00     0.091 A 
ATOM     81  F   UNL A   1      44.172  28.146  28.071  1.00  0.00    -0.205 F 
ATOM     82  C   UNL A   1      43.298  24.986  26.434  1.00  0.00     0.022 A 
BRANCH  80  83
ATOM     83  S   UNL A   1      45.225  26.699  25.534  1.00  0.00     0.127 S 
ATOM     84  O   UNL A   1      46.374  26.891  26.418  1.00  0.00    -0.237 OA
ATOM     85  O   UNL A   1      45.306  25.523  24.667  1.00  0.00    -0.237 OA
ATOM     86  O   UNL A   1      44.730  27.903  24.883  1.00  0.00    -0.744 OA
ENDBRANCH  80  83
ENDBRANCH  52  76
BRANCH  64  87
ATOM     87  C   UNL A   1      44.660  27.175  35.197  1.00  0.00     0.023 A 
ATOM     88  C   UNL A   1      44.312  25.980  35.859  1.00  0.00     0.012 A 
ATOM     89  C   UNL A   1      45.993  27.633  35.263  1.00  0.00     0.148 A 
ATOM     90  C   UNL A   1      45.262  25.278  36.602  1.00  0.00     0.002 A 
ATOM     91  C   UNL A   1      46.946  26.900  35.960  1.00  0.00     0.091 A 
ATOM     92  F   UNL A   1      46.305  28.781  34.645  1.00  0.00    -0.205 F 
ATOM     93  C   UNL A   1      46.580  25.729  36.643  1.00  0.00     0.022 A 
BRANCH  91  94
ATOM     94  S   UNL A   1      48.685  27.351  35.985  1.00  0.00     0.127 S 
ATOM     95  O   UNL A   1      48.656  28.613  36.722  1.00  0.00    -0.237 OA
ATOM     96  O   UNL A   1      49.283  26.233  36.716  1.00  0.00    -0.237 OA
ATOM     97  O   UNL A   1      49.098  27.452  34.592  1.00  0.00    -0.744 OA
ENDBRANCH  91  94
ENDBRANCH  64  87
ENDBRANCH  38  39
ENDBRANCH  31  33
ENDBRANCH  30  31
ENDBRANCH  29  30
ENDBRANCH   1  29
TORSDOF 19
ENDMDL
MODEL 3
REMARK VINA RESULT:     -12.0      2.366      2.815
REMARK SMILES O=C(OCCOCCOC(=O)c1ccc(-c2c3nc(c(-c4cccc(S(=O)(=O)[O-])c4F)c4ccc([nH]4)c(-c4cccc(S(=O)(=O)[O-])c4F)c4nc(c(-c5cccc(S(=O)(=O)[O-])c5F)c5ccc2[nH]5)C=C4)C=C3)cc1)C1=Cc2cc(Cl)cc(-c3ccccc3)c2O[C@@H]1C(F)(F)F
REMARK SMILES IDX 7 1 6 2 5 3 4 4 3 5 2 6 1 7 75 8 76 9 91 10 77 11 90 12
REMARK SMILES IDX 78 13 89 14 79 15 82 16 80 17 81 18 92 19 93 20 94 21 95 22
REMARK SMILES IDX 83 23 84 24 88 25 85 26 87 27 86 28 8 29 9 30 10 31 11 32
REMARK SMILES IDX 12 33 13 34 74 35 14 36 73 37 15 38 16 39 17 40 67 41 18 42
REMARK SMILES IDX 72 43 66 44 68 45 19 46 71 47 65 48 64 49 20 51 52 52 32 53
REMARK SMILES IDX 51 54 33 55 36 56 50 57 69 58 34 59 35 60 49 62 70 63 37 64
REMARK SMILES IDX 21 65 22 66 30 67 23 68 25 69 31 70 24 71 26 72 27 73 28 74
REMARK SMILES IDX 29 75 53 76 54 77 62 78 55 79 57 80 63 81 56 82 58 83 59 84
REMARK SMILES IDX 60 85 61 86 38 87 39 88 47 89 40 90 42 91 48 92 41 93 43 94
REMARK SMILES IDX 44 95 45 96 46 97
REMARK H PARENT 68 50 36 61
REMARK Flexibility Score: inf
ROOT
ATOM      1  C   UNL A   1      31.482  31.640  26.090  1.00  0.00     0.202 C 
ENDROOT
BRANCH   1   2
ATOM      2  O   UNL A   1      30.372  32.076  25.267  1.00  0.00    -0.374 OA
BRANCH   2   3
ATOM      3  C   UNL A   1      29.447  31.362  24.124  1.00  0.00     0.202 C 
BRANCH   3   4
ATOM      4  C   UNL A   1      29.734  29.498  23.039  1.00  0.00     0.261 C 
BRANCH   4   5
ATOM      5  O   UNL A   1      30.127  28.113  23.684  1.00  0.00    -0.460 OA
BRANCH   5   6
ATOM      6  C   UNL A   1      31.435  27.992  23.938  1.00  0.00     0.338 C 
ATOM      7  O   UNL A   1      32.404  28.391  23.345  1.00  0.00    -0.246 OA
BRANCH   6   8
ATOM      8  C   UNL A   1      31.259  27.004  24.967  1.00  0.00     0.087 C 
ATOM      9  C   UNL A   1      30.864  25.726  24.362  1.00  0.00     0.027 C 
ATOM     10  C   UNL A   1      32.907  27.317  25.932  1.00  0.00     0.316 C 
ATOM     11  C   UNL A   1      31.951  24.286  24.302  1.00  0.00     0.019 A 
ATOM     12  O   UNL A   1      34.093  25.769  25.852  1.00  0.00    -0.475 OA
ATOM     13  C   UNL A   1      31.491  23.269  23.505  1.00  0.00     0.032 A 
ATOM     14  C   UNL A   1      33.593  24.271  24.922  1.00  0.00     0.135 A 
ATOM     15  C   UNL A   1      32.432  22.294  23.209  1.00  0.00     0.042 A 
ATOM     16  C   UNL A   1      34.441  23.173  24.641  1.00  0.00     0.026 A 
ATOM     17  Cl  UNL A   1      31.936  21.002  22.165  1.00  0.00    -0.084 Cl
ATOM     18  C   UNL A   1      33.787  22.277  23.708  1.00  0.00     0.033 A 
BRANCH  10  19
ATOM     19  C   UNL A   1      32.215  28.159  27.115  1.00  0.00     0.430 C 
ATOM     20  F   UNL A   1      31.795  27.435  28.169  1.00  0.00    -0.167 F 
ATOM     21  F   UNL A   1      33.179  28.975  27.649  1.00  0.00    -0.167 F 
ATOM     22  F   UNL A   1      31.242  29.024  26.742  1.00  0.00    -0.167 F 
ENDBRANCH  10  19
BRANCH  16  23
ATOM     23  C   UNL A   1      35.898  22.640  25.078  1.00  0.00    -0.015 A 
ATOM     24  C   UNL A   1      36.742  24.042  25.864  1.00  0.00     0.009 A 
ATOM     25  C   UNL A   1      36.994  20.940  24.907  1.00  0.00     0.009 A 
ATOM     26  C   UNL A   1      38.414  23.849  26.419  1.00  0.00     0.001 A 
ATOM     27  C   UNL A   1      38.664  20.877  25.574  1.00  0.00     0.001 A 
ATOM     28  C   UNL A   1      39.327  22.332  26.284  1.00  0.00     0.000 A 
ENDBRANCH  16  23
ENDBRANCH   6   8
ENDBRANCH   5   6
ENDBRANCH   4   5
ENDBRANCH   3   4
ENDBRANCH   2   3
ENDBRANCH   1   2
BRANCH   1  29
ATOM     29  C   UNL A   1      31.756  32.385  27.396  1.00  0.00     0.261 C 
BRANCH  29  30
ATOM     30  O   UNL A   1      32.816  33.292  27.238  1.00  0.00    -0.460 OA
BRANCH  30  31
ATOM     31  C   UNL A   1      33.283  33.759  28.407  1.00  0.00     0.338 C 
ATOM     32  O   UNL A   1      32.753  34.515  29.195  1.00  0.00    -0.246 OA
BRANCH  31  33
ATOM     33  C   UNL A   1      34.594  33.142  28.527  1.00  0.00     0.060 A 
ATOM     34  C   UNL A   1      34.632  31.542  29.295  1.00  0.00     0.016 A 
ATOM     35  C   UNL A   1      36.022  34.142  28.229  1.00  0.00     0.016 A 
ATOM     36  C   UNL A   1      36.116  30.811  29.886  1.00  0.00     0.010 A 
ATOM     37  C   UNL A   1      37.601  33.518  28.809  1.00  0.00     0.010 A 
ATOM     38  C   UNL A   1      37.674  31.709  29.726  1.00  0.00    -0.014 A 
BRANCH  38  39
ATOM     39  C   UNL A   1      38.708  30.797  30.625  1.00  0.00     0.031 A 
ATOM     40  C   UNL A   1      38.989  31.149  32.095  1.00  0.00     0.074 A 
ATOM     41  C   UNL A   1      39.357  29.695  30.179  1.00  0.00     0.049 A 
ATOM     42  N   UNL A   1      40.052  30.909  32.832  1.00  0.00    -0.248 NA
ATOM     43  C   UNL A   1      37.956  31.907  32.812  1.00  0.00     0.031 C 
ATOM     44  C   UNL A   1      39.129  29.002  28.920  1.00  0.00     0.029 A 
ATOM     45  N   UNL A   1      40.441  29.026  30.722  1.00  0.00    -0.354 N 
ATOM     46  C   UNL A   1      39.878  31.628  34.018  1.00  0.00     0.074 A 
ATOM     47  C   UNL A   1      38.619  32.328  33.880  1.00  0.00     0.031 C 
ATOM     48  C   UNL A   1      40.133  28.141  28.694  1.00  0.00     0.029 A 
ATOM     49  C   UNL A   1      41.056  28.179  29.824  1.00  0.00     0.049 A 
ATOM     50  H   UNL A   1      40.742  29.144  31.652  1.00  0.00     0.167 HD
ATOM     51  C   UNL A   1      40.654  31.683  35.133  1.00  0.00     0.034 A 
ATOM     52  C   UNL A   1      42.231  27.517  29.871  1.00  0.00     0.034 A 
ATOM     53  C   UNL A   1      41.776  30.812  35.381  1.00  0.00     0.049 A 
ATOM     54  C   UNL A   1      43.070  27.541  31.120  1.00  0.00     0.074 A 
ATOM     55  C   UNL A   1      42.513  30.669  36.546  1.00  0.00     0.029 A 
ATOM     56  N   UNL A   1      42.293  29.904  34.474  1.00  0.00    -0.354 N 
ATOM     57  N   UNL A   1      42.890  28.221  32.223  1.00  0.00    -0.248 NA
ATOM     58  C   UNL A   1      44.232  26.637  31.159  1.00  0.00     0.031 C 
ATOM     59  C   UNL A   1      43.491  29.691  36.335  1.00  0.00     0.029 A 
ATOM     60  C   UNL A   1      43.333  29.193  35.053  1.00  0.00     0.049 A 
ATOM     61  H   UNL A   1      41.969  29.781  33.552  1.00  0.00     0.167 HD
ATOM     62  C   UNL A   1      43.862  27.769  33.113  1.00  0.00     0.074 A 
ATOM     63  C   UNL A   1      44.636  26.766  32.415  1.00  0.00     0.031 C 
ATOM     64  C   UNL A   1      44.074  28.147  34.397  1.00  0.00     0.034 A 
BRANCH  51  65
ATOM     65  C   UNL A   1      40.292  32.683  36.220  1.00  0.00     0.023 A 
ATOM     66  C   UNL A   1      39.354  32.355  37.221  1.00  0.00     0.012 A 
ATOM     67  C   UNL A   1      40.931  33.943  36.279  1.00  0.00     0.148 A 
ATOM     68  C   UNL A   1      38.985  33.286  38.192  1.00  0.00     0.002 A 
ATOM     69  C   UNL A   1      40.613  34.839  37.296  1.00  0.00     0.091 A 
ATOM     70  F   UNL A   1      41.834  34.250  35.336  1.00  0.00    -0.205 F 
ATOM     71  C   UNL A   1      39.619  34.524  38.234  1.00  0.00     0.022 A 
BRANCH  69  72
ATOM     72  S   UNL A   1      41.465  36.407  37.518  1.00  0.00     0.127 S 
ATOM     73  O   UNL A   1      40.461  37.190  38.237  1.00  0.00    -0.237 OA
ATOM     74  O   UNL A   1      42.622  36.016  38.324  1.00  0.00    -0.237 OA
ATOM     75  O   UNL A   1      41.792  36.880  36.181  1.00  0.00    -0.744 OA
ENDBRANCH  69  72
ENDBRANCH  51  65
BRANCH  52  76
ATOM     76  C   UNL A   1      42.645  26.671  28.713  1.00  0.00     0.023 A 
ATOM     77  C   UNL A   1      41.972  25.455  28.486  1.00  0.00     0.012 A 
ATOM     78  C   UNL A   1      43.673  27.067  27.835  1.00  0.00     0.148 A 
ATOM     79  C   UNL A   1      42.338  24.628  27.426  1.00  0.00     0.002 A 
ATOM     80  C   UNL A   1      44.004  26.257  26.754  1.00  0.00     0.091 A 
ATOM     81  F   UNL A   1      44.294  28.231  28.068  1.00  0.00    -0.205 F 
ATOM     82  C   UNL A   1      43.347  25.030  26.558  1.00  0.00     0.022 A 
BRANCH  80  83
ATOM     83  S   UNL A   1      45.221  26.722  25.517  1.00  0.00     0.127 S 
ATOM     84  O   UNL A   1      45.231  25.547  24.648  1.00  0.00    -0.237 OA
ATOM     85  O   UNL A   1      44.607  27.915  24.934  1.00  0.00    -0.237 OA
ATOM     86  O   UNL A   1      46.457  26.968  26.248  1.00  0.00    -0.744 OA
ENDBRANCH  80  83
ENDBRANCH  52  76
BRANCH  64  87
ATOM     87  C   UNL A   1      45.128  27.416  35.193  1.00  0.00     0.023 A 
ATOM     88  C   UNL A   1      46.424  27.953  35.332  1.00  0.00     0.012 A 
ATOM     89  C   UNL A   1      44.806  26.217  35.864  1.00  0.00     0.148 A 
ATOM     90  C   UNL A   1      47.389  27.289  36.090  1.00  0.00     0.002 A 
ATOM     91  C   UNL A   1      45.756  25.590  36.661  1.00  0.00     0.091 A 
ATOM     92  F   UNL A   1      43.576  25.708  35.707  1.00  0.00    -0.205 F 
ATOM     93  C   UNL A   1      47.054  26.116  36.764  1.00  0.00     0.022 A 
BRANCH  91  94
ATOM     94  S   UNL A   1      45.386  24.132  37.643  1.00  0.00     0.127 S 
ATOM     95  O   UNL A   1      44.899  23.202  36.626  1.00  0.00    -0.237 OA
ATOM     96  O   UNL A   1      46.696  23.795  38.202  1.00  0.00    -0.237 OA
ATOM     97  O   UNL A   1      44.397  24.548  38.629  1.00  0.00    -0.744 OA
ENDBRANCH  91  94
ENDBRANCH  64  87
ENDBRANCH  38  39
ENDBRANCH  31  33
ENDBRANCH  30  31
ENDBRANCH  29  30
ENDBRANCH   1  29
TORSDOF 19
ENDMDL
