MODEL 1
REMARK VINA RESULT:     -10.8      0.000      0.000
REMARK SMILES Cc1ccccc1/[NH+]=C1\S[C@@H](CC(=O)Nc2ccc(C(=O)OCCOCCOC(=O)c3ccc(-c4c5nc(c(-c6cccc(S(=O)(=O)[O-])c6F)c6ccc([nH]6)c(-c6cccc(S(=O)(=O)[O-])c6F)c6nc(c(-c7cccc(S(=O)(=O)[O-])c7F)c7ccc4[nH]7)C=C6)C=C5)cc3)cc2)C(=O)N1C
REMARK SMILES IDX 24 1 23 2 22 3 20 4 21 5 19 6 16 7 17 8 95 9 18 10 94 11
REMARK SMILES IDX 15 12 13 13 14 14 12 16 11 17 8 18 9 19 10 21 98 22 96 23
REMARK SMILES IDX 99 24 97 25 7 26 1 27 2 28 3 29 4 30 6 31 5 32 25 33 26 34
REMARK SMILES IDX 27 35 28 36 29 37 30 38 31 39 32 40 93 41 33 42 92 43 34 44
REMARK SMILES IDX 35 45 36 46 86 47 37 48 91 49 85 50 87 51 38 52 90 53 84 54
REMARK SMILES IDX 83 55 39 57 71 58 51 59 70 60 52 61 55 62 69 63 88 64 53 65
REMARK SMILES IDX 54 66 68 68 89 69 56 70 40 71 41 72 49 73 42 74 44 75 50 76
REMARK SMILES IDX 43 77 45 78 46 79 47 80 48 81 72 82 73 83 81 84 74 85 76 86
REMARK SMILES IDX 82 87 75 88 77 89 78 90 79 91 80 92 57 93 58 94 66 95 59 96
REMARK SMILES IDX 61 97 67 98 60 99 62 100 63 101 64 102 65 103
REMARK H PARENT 15 15 8 20 87 56 55 67
REMARK Flexibility Score: inf
ROOT
ATOM      1  C   UNL A   1      33.100  28.353  24.657  1.00  0.00     0.202 C 
ENDROOT
BRANCH   1   2
ATOM      2  C   UNL A   1      33.478  27.019  25.199  1.00  0.00     0.261 C 
BRANCH   2   3
ATOM      3  O   UNL A   1      34.255  26.260  24.221  1.00  0.00    -0.460 OA
BRANCH   3   4
ATOM      4  C   UNL A   1      34.020  24.977  23.811  1.00  0.00     0.338 C 
ATOM      5  O   UNL A   1      33.224  24.536  23.003  1.00  0.00    -0.246 OA
BRANCH   4   6
ATOM      6  C   UNL A   1      34.981  24.119  24.523  1.00  0.00     0.060 A 
ATOM      7  C   UNL A   1      36.956  22.620  25.753  1.00  0.00     0.041 A 
ATOM      8  C   UNL A   1      36.955  22.792  24.380  1.00  0.00     0.027 A 
ATOM      9  C   UNL A   1      35.848  22.999  26.503  1.00  0.00     0.027 A 
ATOM     10  C   UNL A   1      36.021  23.587  23.772  1.00  0.00     0.018 A 
ATOM     11  C   UNL A   1      34.846  23.763  25.877  1.00  0.00     0.018 A 
BRANCH   7  12
ATOM     12  N   UNL A   1      38.151  22.162  26.319  1.00  0.00    -0.326 N 
ATOM     13  C   UNL A   1      39.279  22.968  26.433  1.00  0.00     0.226 C 
ATOM     14  O   UNL A   1      40.408  22.488  26.511  1.00  0.00    -0.275 OA
ATOM     15  H   UNL A   1      38.195  21.237  26.650  1.00  0.00     0.169 HD
BRANCH  13  16
ATOM     16  C   UNL A   1      39.019  24.454  26.701  1.00  0.00     0.128 C 
BRANCH  16  17
ATOM     17  C   UNL A   1      40.170  25.374  27.057  1.00  0.00     0.183 C 
ATOM     18  N   UNL A   1      41.755  28.212  28.663  1.00  0.00    -0.234 N 
ATOM     19  C   UNL A   1      40.893  27.595  27.942  1.00  0.00     0.319 C 
ATOM     20  H   UNL A   1      42.363  28.800  28.159  1.00  0.00     0.313 HD
ATOM     21  S   UNL A   1      39.581  26.553  28.344  1.00  0.00    -0.022 SA
ATOM     22  N   UNL A   1      40.989  27.582  26.582  1.00  0.00    -0.193 N 
ATOM     23  C   UNL A   1      40.815  26.321  26.043  1.00  0.00     0.324 C 
ATOM     24  C   UNL A   1      41.431  28.723  25.804  1.00  0.00     0.301 C 
ATOM     25  O   UNL A   1      41.269  25.963  24.961  1.00  0.00    -0.245 OA
BRANCH  18  26
ATOM     26  C   UNL A   1      41.981  28.195  30.053  1.00  0.00     0.128 A 
ATOM     27  C   UNL A   1      43.594  26.170  30.334  1.00  0.00     0.049 C 
ATOM     28  C   UNL A   1      42.848  27.378  30.818  1.00  0.00    -0.004 A 
ATOM     29  C   UNL A   1      43.070  27.681  32.182  1.00  0.00     0.008 A 
ATOM     30  C   UNL A   1      42.515  28.802  32.784  1.00  0.00     0.001 A 
ATOM     31  C   UNL A   1      41.419  29.313  30.705  1.00  0.00     0.052 A 
ATOM     32  C   UNL A   1      41.687  29.624  32.042  1.00  0.00     0.004 A 
ENDBRANCH  18  26
ENDBRANCH  16  17
ENDBRANCH  13  16
ENDBRANCH   7  12
ENDBRANCH   4   6
ENDBRANCH   3   4
ENDBRANCH   2   3
ENDBRANCH   1   2
BRANCH   1  33
ATOM     33  O   UNL A   1      33.454  29.229  25.703  1.00  0.00    -0.374 OA
BRANCH  33  34
ATOM     34  C   UNL A   1      34.293  28.716  26.700  1.00  0.00     0.202 C 
BRANCH  34  35
ATOM     35  C   UNL A   1      34.915  29.862  27.482  1.00  0.00     0.261 C 
BRANCH  35  36
ATOM     36  O   UNL A   1      36.007  29.344  28.274  1.00  0.00    -0.460 OA
BRANCH  36  37
ATOM     37  C   UNL A   1      37.187  30.023  28.137  1.00  0.00     0.338 C 
ATOM     38  O   UNL A   1      38.050  29.718  27.328  1.00  0.00    -0.246 OA
BRANCH  37  39
ATOM     39  C   UNL A   1      37.372  30.996  29.261  1.00  0.00     0.060 A 
ATOM     40  C   UNL A   1      37.444  32.374  28.985  1.00  0.00     0.016 A 
ATOM     41  C   UNL A   1      37.777  30.531  30.510  1.00  0.00     0.016 A 
ATOM     42  C   UNL A   1      38.105  33.247  29.868  1.00  0.00     0.010 A 
ATOM     43  C   UNL A   1      38.471  31.388  31.351  1.00  0.00     0.010 A 
ATOM     44  C   UNL A   1      38.716  32.731  31.002  1.00  0.00    -0.014 A 
BRANCH  44  45
ATOM     45  C   UNL A   1      39.644  33.455  31.889  1.00  0.00     0.031 A 
ATOM     46  C   UNL A   1      39.082  34.052  33.116  1.00  0.00     0.074 A 
ATOM     47  C   UNL A   1      40.995  33.355  31.789  1.00  0.00     0.049 A 
ATOM     48  N   UNL A   1      39.768  34.747  33.954  1.00  0.00    -0.248 NA
ATOM     49  C   UNL A   1      37.667  33.962  33.476  1.00  0.00     0.031 C 
ATOM     50  C   UNL A   1      41.982  33.361  32.877  1.00  0.00     0.029 A 
ATOM     51  N   UNL A   1      41.805  33.144  30.671  1.00  0.00    -0.354 N 
ATOM     52  C   UNL A   1      39.022  34.822  35.101  1.00  0.00     0.074 A 
ATOM     53  C   UNL A   1      37.678  34.531  34.684  1.00  0.00     0.031 C 
ATOM     54  C   UNL A   1      43.228  33.416  32.369  1.00  0.00     0.029 A 
ATOM     55  C   UNL A   1      43.091  33.617  30.935  1.00  0.00     0.049 A 
ATOM     56  H   UNL A   1      41.515  32.727  29.828  1.00  0.00     0.167 HD
ATOM     57  C   UNL A   1      39.684  34.908  36.287  1.00  0.00     0.034 A 
ATOM     58  C   UNL A   1      43.691  34.552  30.153  1.00  0.00     0.034 A 
ATOM     59  C   UNL A   1      41.129  35.182  36.069  1.00  0.00     0.049 A 
ATOM     60  C   UNL A   1      43.996  35.721  31.028  1.00  0.00     0.074 A 
ATOM     61  C   UNL A   1      42.286  34.461  36.313  1.00  0.00     0.029 A 
ATOM     62  N   UNL A   1      41.518  36.261  35.259  1.00  0.00    -0.354 N 
ATOM     63  N   UNL A   1      43.309  35.957  32.111  1.00  0.00    -0.248 NA
ATOM     64  C   UNL A   1      45.155  36.593  30.888  1.00  0.00     0.031 C 
ATOM     65  C   UNL A   1      43.349  35.067  35.576  1.00  0.00     0.029 A 
ATOM     66  C   UNL A   1      42.858  36.183  34.911  1.00  0.00     0.049 A 
ATOM     67  H   UNL A   1      40.914  36.984  34.973  1.00  0.00     0.167 HD
ATOM     68  C   UNL A   1      43.952  36.878  32.864  1.00  0.00     0.074 A 
ATOM     69  C   UNL A   1      45.078  37.293  32.036  1.00  0.00     0.031 C 
ATOM     70  C   UNL A   1      43.513  37.222  34.106  1.00  0.00     0.034 A 
BRANCH  57  71
ATOM     71  C   UNL A   1      39.088  34.527  37.646  1.00  0.00     0.023 A 
ATOM     72  C   UNL A   1      39.444  35.331  38.750  1.00  0.00     0.012 A 
ATOM     73  C   UNL A   1      38.270  33.403  37.954  1.00  0.00     0.148 A 
ATOM     74  C   UNL A   1      39.026  35.048  40.061  1.00  0.00     0.002 A 
ATOM     75  C   UNL A   1      37.792  33.162  39.247  1.00  0.00     0.091 A 
ATOM     76  F   UNL A   1      38.000  32.484  37.029  1.00  0.00    -0.205 F 
ATOM     77  C   UNL A   1      38.184  33.976  40.308  1.00  0.00     0.022 A 
BRANCH  75  78
ATOM     78  S   UNL A   1      36.651  31.813  39.634  1.00  0.00     0.127 S 
ATOM     79  O   UNL A   1      36.584  31.876  41.094  1.00  0.00    -0.237 OA
ATOM     80  O   UNL A   1      35.428  32.238  38.952  1.00  0.00    -0.237 OA
ATOM     81  O   UNL A   1      37.248  30.595  39.100  1.00  0.00    -0.744 OA
ENDBRANCH  75  78
ENDBRANCH  57  71
BRANCH  58  82
ATOM     82  C   UNL A   1      43.253  34.517  28.725  1.00  0.00     0.023 A 
ATOM     83  C   UNL A   1      42.439  35.594  28.286  1.00  0.00     0.012 A 
ATOM     84  C   UNL A   1      43.939  33.763  27.755  1.00  0.00     0.148 A 
ATOM     85  C   UNL A   1      42.406  35.987  26.944  1.00  0.00     0.002 A 
ATOM     86  C   UNL A   1      43.930  34.183  26.421  1.00  0.00     0.091 A 
ATOM     87  F   UNL A   1      44.637  32.694  28.153  1.00  0.00    -0.205 F 
ATOM     88  C   UNL A   1      43.195  35.313  26.022  1.00  0.00     0.022 A 
BRANCH  86  89
ATOM     89  S   UNL A   1      44.952  33.409  25.158  1.00  0.00     0.127 S 
ATOM     90  O   UNL A   1      45.997  34.412  24.972  1.00  0.00    -0.237 OA
ATOM     91  O   UNL A   1      45.396  32.184  25.829  1.00  0.00    -0.237 OA
ATOM     92  O   UNL A   1      44.072  33.184  24.023  1.00  0.00    -0.744 OA
ENDBRANCH  86  89
ENDBRANCH  58  82
BRANCH  70  93
ATOM     93  C   UNL A   1      43.697  38.619  34.631  1.00  0.00     0.023 A 
ATOM     94  C   UNL A   1      44.358  38.858  35.857  1.00  0.00     0.012 A 
ATOM     95  C   UNL A   1      43.422  39.738  33.819  1.00  0.00     0.148 A 
ATOM     96  C   UNL A   1      44.670  40.143  36.292  1.00  0.00     0.002 A 
ATOM     97  C   UNL A   1      43.850  41.003  34.199  1.00  0.00     0.091 A 
ATOM     98  F   UNL A   1      42.749  39.586  32.671  1.00  0.00    -0.205 F 
ATOM     99  C   UNL A   1      44.440  41.216  35.448  1.00  0.00     0.022 A 
BRANCH  97 100
ATOM    100  S   UNL A   1      43.827  42.377  33.044  1.00  0.00     0.127 S 
ATOM    101  O   UNL A   1      42.401  42.489  32.748  1.00  0.00    -0.237 OA
ATOM    102  O   UNL A   1      44.373  43.467  33.855  1.00  0.00    -0.237 OA
ATOM    103  O   UNL A   1      44.679  41.972  31.935  1.00  0.00    -0.744 OA
ENDBRANCH  97 100
ENDBRANCH  70  93
ENDBRANCH  44  45
ENDBRANCH  37  39
ENDBRANCH  36  37
ENDBRANCH  35  36
ENDBRANCH  34  35
ENDBRANCH  33  34
ENDBRANCH   1  33
TORSDOF 21
ENDMDL
MODEL 2
REMARK VINA RESULT:     -10.6      5.528     11.631
REMARK SMILES Cc1ccccc1/[NH+]=C1\S[C@@H](CC(=O)Nc2ccc(C(=O)OCCOCCOC(=O)c3ccc(-c4c5nc(c(-c6cccc(S(=O)(=O)[O-])c6F)c6ccc([nH]6)c(-c6cccc(S(=O)(=O)[O-])c6F)c6nc(c(-c7cccc(S(=O)(=O)[O-])c7F)c7ccc4[nH]7)C=C6)C=C5)cc3)cc2)C(=O)N1C
REMARK SMILES IDX 24 1 23 2 22 3 20 4 21 5 19 6 16 7 17 8 95 9 18 10 94 11
REMARK SMILES IDX 15 12 13 13 14 14 12 16 11 17 8 18 9 19 10 21 98 22 96 23
REMARK SMILES IDX 99 24 97 25 7 26 1 27 2 28 3 29 4 30 6 31 5 32 25 33 26 34
REMARK SMILES IDX 27 35 28 36 29 37 30 38 31 39 32 40 93 41 33 42 92 43 34 44
REMARK SMILES IDX 35 45 36 46 86 47 37 48 91 49 85 50 87 51 38 52 90 53 84 54
REMARK SMILES IDX 83 55 39 57 71 58 51 59 70 60 52 61 55 62 69 63 88 64 53 65
REMARK SMILES IDX 54 66 68 68 89 69 56 70 40 71 41 72 49 73 42 74 44 75 50 76
REMARK SMILES IDX 43 77 45 78 46 79 47 80 48 81 72 82 73 83 81 84 74 85 76 86
REMARK SMILES IDX 82 87 75 88 77 89 78 90 79 91 80 92 57 93 58 94 66 95 59 96
REMARK SMILES IDX 61 97 67 98 60 99 62 100 63 101 64 102 65 103
REMARK H PARENT 15 15 8 20 87 56 55 67
REMARK Flexibility Score: inf
ROOT
ATOM      1  C   UNL A   1      34.846  31.533  28.477  1.00  0.00     0.202 C 
ENDROOT
BRANCH   1   2
ATOM      2  C   UNL A   1      33.662  31.911  27.658  1.00  0.00     0.261 C 
BRANCH   2   3
ATOM      3  O   UNL A   1      33.120  30.748  26.958  1.00  0.00    -0.460 OA
BRANCH   3   4
ATOM      4  C   UNL A   1      32.014  30.724  26.154  1.00  0.00     0.338 C 
ATOM      5  O   UNL A   1      31.004  31.402  26.173  1.00  0.00    -0.246 OA
BRANCH   4   6
ATOM      6  C   UNL A   1      32.250  29.686  25.136  1.00  0.00     0.060 A 
ATOM      7  C   UNL A   1      32.612  27.886  23.065  1.00  0.00     0.041 A 
ATOM      8  C   UNL A   1      31.401  28.534  23.231  1.00  0.00     0.027 A 
ATOM      9  C   UNL A   1      33.580  27.953  24.061  1.00  0.00     0.027 A 
ATOM     10  C   UNL A   1      31.236  29.475  24.211  1.00  0.00     0.018 A 
ATOM     11  C   UNL A   1      33.396  28.871  25.112  1.00  0.00     0.018 A 
BRANCH   7  12
ATOM     12  N   UNL A   1      32.825  27.280  21.822  1.00  0.00    -0.326 N 
ATOM     13  C   UNL A   1      32.737  25.904  21.639  1.00  0.00     0.226 C 
ATOM     14  O   UNL A   1      33.322  25.338  20.717  1.00  0.00    -0.275 OA
ATOM     15  H   UNL A   1      33.045  27.847  21.049  1.00  0.00     0.169 HD
BRANCH  13  16
ATOM     16  C   UNL A   1      31.688  25.179  22.488  1.00  0.00     0.128 C 
BRANCH  16  17
ATOM     17  C   UNL A   1      32.123  24.277  23.627  1.00  0.00     0.183 C 
ATOM     18  N   UNL A   1      32.401  21.153  25.445  1.00  0.00    -0.234 N 
ATOM     19  C   UNL A   1      31.810  22.115  24.836  1.00  0.00     0.319 C 
ATOM     20  H   UNL A   1      32.232  21.119  26.414  1.00  0.00     0.313 HD
ATOM     21  S   UNL A   1      31.710  22.541  23.170  1.00  0.00    -0.022 SA
ATOM     22  N   UNL A   1      31.211  23.126  25.527  1.00  0.00    -0.193 N 
ATOM     23  C   UNL A   1      31.529  24.377  25.033  1.00  0.00     0.324 C 
ATOM     24  C   UNL A   1      30.489  22.923  26.768  1.00  0.00     0.301 C 
ATOM     25  O   UNL A   1      31.497  25.410  25.694  1.00  0.00    -0.245 OA
BRANCH  18  26
ATOM     26  C   UNL A   1      33.247  20.135  24.965  1.00  0.00     0.128 A 
ATOM     27  C   UNL A   1      35.617  21.095  25.464  1.00  0.00     0.049 C 
ATOM     28  C   UNL A   1      34.657  20.025  25.034  1.00  0.00    -0.004 A 
ATOM     29  C   UNL A   1      35.281  18.808  24.670  1.00  0.00     0.008 A 
ATOM     30  C   UNL A   1      34.547  17.687  24.311  1.00  0.00     0.001 A 
ATOM     31  C   UNL A   1      32.537  18.981  24.575  1.00  0.00     0.052 A 
ATOM     32  C   UNL A   1      33.167  17.772  24.264  1.00  0.00     0.004 A 
ENDBRANCH  18  26
ENDBRANCH  16  17
ENDBRANCH  13  16
ENDBRANCH   7  12
ENDBRANCH   4   6
ENDBRANCH   3   4
ENDBRANCH   2   3
ENDBRANCH   1   2
BRANCH   1  33
ATOM     33  O   UNL A   1      34.713  32.348  29.618  1.00  0.00    -0.374 OA
BRANCH  33  34
ATOM     34  C   UNL A   1      35.881  32.618  30.343  1.00  0.00     0.202 C 
BRANCH  34  35
ATOM     35  C   UNL A   1      36.026  31.607  31.469  1.00  0.00     0.261 C 
BRANCH  35  36
ATOM     36  O   UNL A   1      37.303  30.943  31.333  1.00  0.00    -0.460 OA
BRANCH  36  37
ATOM     37  C   UNL A   1      37.323  29.921  30.423  1.00  0.00     0.338 C 
ATOM     38  O   UNL A   1      36.545  28.981  30.450  1.00  0.00    -0.246 OA
BRANCH  37  39
ATOM     39  C   UNL A   1      38.560  29.985  29.581  1.00  0.00     0.060 A 
ATOM     40  C   UNL A   1      38.580  29.357  28.322  1.00  0.00     0.016 A 
ATOM     41  C   UNL A   1      39.763  30.386  30.159  1.00  0.00     0.016 A 
ATOM     42  C   UNL A   1      39.796  28.948  27.745  1.00  0.00     0.010 A 
ATOM     43  C   UNL A   1      40.953  29.936  29.610  1.00  0.00     0.010 A 
ATOM     44  C   UNL A   1      40.979  29.142  28.445  1.00  0.00    -0.014 A 
BRANCH  44  45
ATOM     45  C   UNL A   1      42.289  28.562  28.103  1.00  0.00     0.031 A 
ATOM     46  C   UNL A   1      42.461  27.110  28.303  1.00  0.00     0.074 A 
ATOM     47  C   UNL A   1      43.221  29.219  27.363  1.00  0.00     0.049 A 
ATOM     48  N   UNL A   1      43.564  26.483  28.088  1.00  0.00    -0.248 NA
ATOM     49  C   UNL A   1      41.405  26.242  28.825  1.00  0.00     0.031 C 
ATOM     50  C   UNL A   1      44.151  28.653  26.376  1.00  0.00     0.029 A 
ATOM     51  N   UNL A   1      43.501  30.584  27.268  1.00  0.00    -0.354 N 
ATOM     52  C   UNL A   1      43.250  25.149  28.036  1.00  0.00     0.074 A 
ATOM     53  C   UNL A   1      41.985  25.044  28.711  1.00  0.00     0.031 C 
ATOM     54  C   UNL A   1      45.031  29.592  25.983  1.00  0.00     0.029 A 
ATOM     55  C   UNL A   1      44.812  30.758  26.824  1.00  0.00     0.049 A 
ATOM     56  H   UNL A   1      42.871  31.310  27.481  1.00  0.00     0.167 HD
ATOM     57  C   UNL A   1      44.004  24.347  27.237  1.00  0.00     0.034 A 
ATOM     58  C   UNL A   1      45.725  31.472  27.532  1.00  0.00     0.034 A 
ATOM     59  C   UNL A   1      45.224  25.058  26.773  1.00  0.00     0.049 A 
ATOM     60  C   UNL A   1      46.852  30.546  27.847  1.00  0.00     0.074 A 
ATOM     61  C   UNL A   1      45.672  25.478  25.531  1.00  0.00     0.029 A 
ATOM     62  N   UNL A   1      46.067  25.678  27.709  1.00  0.00    -0.354 N 
ATOM     63  N   UNL A   1      46.673  29.256  27.911  1.00  0.00    -0.248 NA
ATOM     64  C   UNL A   1      48.254  30.933  27.937  1.00  0.00     0.031 C 
ATOM     65  C   UNL A   1      46.729  26.416  25.736  1.00  0.00     0.029 A 
ATOM     66  C   UNL A   1      46.962  26.545  27.099  1.00  0.00     0.049 A 
ATOM     67  H   UNL A   1      46.028  25.518  28.680  1.00  0.00     0.167 HD
ATOM     68  C   UNL A   1      47.874  28.633  27.920  1.00  0.00     0.074 A 
ATOM     69  C   UNL A   1      48.841  29.722  27.991  1.00  0.00     0.031 C 
ATOM     70  C   UNL A   1      47.979  27.277  27.864  1.00  0.00     0.034 A 
BRANCH  57  71
ATOM     71  C   UNL A   1      43.547  22.995  26.682  1.00  0.00     0.023 A 
ATOM     72  C   UNL A   1      42.185  22.662  26.846  1.00  0.00     0.012 A 
ATOM     73  C   UNL A   1      44.348  21.983  26.081  1.00  0.00     0.148 A 
ATOM     74  C   UNL A   1      41.652  21.425  26.449  1.00  0.00     0.002 A 
ATOM     75  C   UNL A   1      43.805  20.779  25.618  1.00  0.00     0.091 A 
ATOM     76  F   UNL A   1      45.672  22.113  26.017  1.00  0.00    -0.205 F 
ATOM     77  C   UNL A   1      42.456  20.490  25.816  1.00  0.00     0.022 A 
BRANCH  75  78
ATOM     78  S   UNL A   1      44.783  19.538  24.739  1.00  0.00     0.127 S 
ATOM     79  O   UNL A   1      46.064  19.600  25.442  1.00  0.00    -0.237 OA
ATOM     80  O   UNL A   1      44.018  18.314  24.980  1.00  0.00    -0.237 OA
ATOM     81  O   UNL A   1      44.830  19.955  23.343  1.00  0.00    -0.744 OA
ENDBRANCH  75  78
ENDBRANCH  57  71
BRANCH  58  82
ATOM     82  C   UNL A   1      45.129  32.566  28.356  1.00  0.00     0.023 A 
ATOM     83  C   UNL A   1      44.460  33.599  27.650  1.00  0.00     0.012 A 
ATOM     84  C   UNL A   1      44.828  32.390  29.720  1.00  0.00     0.148 A 
ATOM     85  C   UNL A   1      43.439  34.349  28.242  1.00  0.00     0.002 A 
ATOM     86  C   UNL A   1      43.782  33.117  30.295  1.00  0.00     0.091 A 
ATOM     87  F   UNL A   1      45.517  31.476  30.413  1.00  0.00    -0.205 F 
ATOM     88  C   UNL A   1      43.065  34.069  29.549  1.00  0.00     0.022 A 
BRANCH  86  89
ATOM     89  S   UNL A   1      43.189  32.799  31.964  1.00  0.00     0.127 S 
ATOM     90  O   UNL A   1      41.981  33.619  32.007  1.00  0.00    -0.237 OA
ATOM     91  O   UNL A   1      42.944  31.355  31.934  1.00  0.00    -0.237 OA
ATOM     92  O   UNL A   1      44.268  33.205  32.850  1.00  0.00    -0.744 OA
ENDBRANCH  86  89
ENDBRANCH  58  82
BRANCH  70  93
ATOM     93  C   UNL A   1      49.100  26.558  28.562  1.00  0.00     0.023 A 
ATOM     94  C   UNL A   1      50.318  26.285  27.899  1.00  0.00     0.012 A 
ATOM     95  C   UNL A   1      49.061  26.339  29.954  1.00  0.00     0.148 A 
ATOM     96  C   UNL A   1      51.420  25.756  28.564  1.00  0.00     0.002 A 
ATOM     97  C   UNL A   1      50.203  25.932  30.633  1.00  0.00     0.091 A 
ATOM     98  F   UNL A   1      47.921  26.525  30.633  1.00  0.00    -0.205 F 
ATOM     99  C   UNL A   1      51.371  25.604  29.939  1.00  0.00     0.022 A 
BRANCH  97 100
ATOM    100  S   UNL A   1      50.283  25.978  32.425  1.00  0.00     0.127 S 
ATOM    101  O   UNL A   1      51.627  25.464  32.673  1.00  0.00    -0.237 OA
ATOM    102  O   UNL A   1      50.111  27.407  32.701  1.00  0.00    -0.237 OA
ATOM    103  O   UNL A   1      49.183  25.144  32.889  1.00  0.00    -0.744 OA
ENDBRANCH  97 100
ENDBRANCH  70  93
ENDBRANCH  44  45
ENDBRANCH  37  39
ENDBRANCH  36  37
ENDBRANCH  35  36
ENDBRANCH  34  35
ENDBRANCH  33  34
ENDBRANCH   1  33
TORSDOF 21
ENDMDL
MODEL 3
REMARK VINA RESULT:     -10.4      4.823     10.587
REMARK SMILES Cc1ccccc1/[NH+]=C1\S[C@@H](CC(=O)Nc2ccc(C(=O)OCCOCCOC(=O)c3ccc(-c4c5nc(c(-c6cccc(S(=O)(=O)[O-])c6F)c6ccc([nH]6)c(-c6cccc(S(=O)(=O)[O-])c6F)c6nc(c(-c7cccc(S(=O)(=O)[O-])c7F)c7ccc4[nH]7)C=C6)C=C5)cc3)cc2)C(=O)N1C
REMARK SMILES IDX 24 1 23 2 22 3 20 4 21 5 19 6 16 7 17 8 95 9 18 10 94 11
REMARK SMILES IDX 15 12 13 13 14 14 12 16 11 17 8 18 9 19 10 21 98 22 96 23
REMARK SMILES IDX 99 24 97 25 7 26 1 27 2 28 3 29 4 30 6 31 5 32 25 33 26 34
REMARK SMILES IDX 27 35 28 36 29 37 30 38 31 39 32 40 93 41 33 42 92 43 34 44
REMARK SMILES IDX 35 45 36 46 86 47 37 48 91 49 85 50 87 51 38 52 90 53 84 54
REMARK SMILES IDX 83 55 39 57 71 58 51 59 70 60 52 61 55 62 69 63 88 64 53 65
REMARK SMILES IDX 54 66 68 68 89 69 56 70 40 71 41 72 49 73 42 74 44 75 50 76
REMARK SMILES IDX 43 77 45 78 46 79 47 80 48 81 72 82 73 83 81 84 74 85 76 86
REMARK SMILES IDX 82 87 75 88 77 89 78 90 79 91 80 92 57 93 58 94 66 95 59 96
REMARK SMILES IDX 61 97 67 98 60 99 62 100 63 101 64 102 65 103
REMARK H PARENT 15 15 8 20 87 56 55 67
REMARK Flexibility Score: inf
ROOT
ATOM      1  C   UNL A   1      31.610  30.403  25.697  1.00  0.00     0.202 C 
ENDROOT
BRANCH   1   2
ATOM      2  C   UNL A   1      31.034  29.525  24.642  1.00  0.00     0.261 C 
BRANCH   2   3
ATOM      3  O   UNL A   1      31.993  29.310  23.561  1.00  0.00    -0.460 OA
BRANCH   3   4
ATOM      4  C   UNL A   1      33.088  28.492  23.593  1.00  0.00     0.338 C 
ATOM      5  O   UNL A   1      34.275  28.751  23.513  1.00  0.00    -0.246 OA
BRANCH   4   6
ATOM      6  C   UNL A   1      32.591  27.121  23.794  1.00  0.00     0.060 A 
ATOM      7  C   UNL A   1      31.736  24.494  23.961  1.00  0.00     0.041 A 
ATOM      8  C   UNL A   1      31.416  25.270  22.861  1.00  0.00     0.027 A 
ATOM      9  C   UNL A   1      32.289  25.083  25.092  1.00  0.00     0.027 A 
ATOM     10  C   UNL A   1      31.891  26.548  22.740  1.00  0.00     0.018 A 
ATOM     11  C   UNL A   1      32.725  26.418  25.005  1.00  0.00     0.018 A 
BRANCH   7  12
ATOM     12  N   UNL A   1      31.577  23.111  23.811  1.00  0.00    -0.326 N 
ATOM     13  C   UNL A   1      32.482  22.329  23.103  1.00  0.00     0.226 C 
ATOM     14  O   UNL A   1      32.153  21.253  22.607  1.00  0.00    -0.275 OA
ATOM     15  H   UNL A   1      30.795  22.677  24.223  1.00  0.00     0.169 HD
BRANCH  13  16
ATOM     16  C   UNL A   1      33.950  22.757  23.188  1.00  0.00     0.128 C 
BRANCH  16  17
ATOM     17  C   UNL A   1      34.841  22.205  24.285  1.00  0.00     0.183 C 
ATOM     18  N   UNL A   1      37.981  21.239  25.817  1.00  0.00    -0.234 N 
ATOM     19  C   UNL A   1      37.069  21.271  24.916  1.00  0.00     0.319 C 
ATOM     20  H   UNL A   1      38.070  20.373  26.276  1.00  0.00     0.313 HD
ATOM     21  S   UNL A   1      36.593  22.488  23.794  1.00  0.00    -0.022 SA
ATOM     22  N   UNL A   1      36.158  20.264  24.797  1.00  0.00    -0.193 N 
ATOM     23  C   UNL A   1      34.861  20.724  24.665  1.00  0.00     0.324 C 
ATOM     24  C   UNL A   1      36.487  18.865  24.995  1.00  0.00     0.301 C 
ATOM     25  O   UNL A   1      33.864  20.080  24.975  1.00  0.00    -0.245 OA
BRANCH  18  26
ATOM     26  C   UNL A   1      38.879  22.229  26.261  1.00  0.00     0.128 A 
ATOM     27  C   UNL A   1      41.131  20.927  26.387  1.00  0.00     0.049 C 
ATOM     28  C   UNL A   1      40.282  22.163  26.437  1.00  0.00    -0.004 A 
ATOM     29  C   UNL A   1      41.010  23.349  26.691  1.00  0.00     0.008 A 
ATOM     30  C   UNL A   1      40.400  24.595  26.705  1.00  0.00     0.001 A 
ATOM     31  C   UNL A   1      38.292  23.511  26.303  1.00  0.00     0.052 A 
ATOM     32  C   UNL A   1      39.034  24.678  26.509  1.00  0.00     0.004 A 
ENDBRANCH  18  26
ENDBRANCH  16  17
ENDBRANCH  13  16
ENDBRANCH   7  12
ENDBRANCH   4   6
ENDBRANCH   3   4
ENDBRANCH   2   3
ENDBRANCH   1   2
BRANCH   1  33
ATOM     33  O   UNL A   1      31.897  29.496  26.737  1.00  0.00    -0.374 OA
BRANCH  33  34
ATOM     34  C   UNL A   1      33.223  29.447  27.186  1.00  0.00     0.202 C 
BRANCH  34  35
ATOM     35  C   UNL A   1      33.790  30.856  27.254  1.00  0.00     0.261 C 
BRANCH  35  36
ATOM     36  O   UNL A   1      34.715  30.930  28.362  1.00  0.00    -0.460 OA
BRANCH  36  37
ATOM     37  C   UNL A   1      35.341  32.138  28.506  1.00  0.00     0.338 C 
ATOM     38  O   UNL A   1      35.089  33.113  27.816  1.00  0.00    -0.246 OA
BRANCH  37  39
ATOM     39  C   UNL A   1      36.522  32.017  29.421  1.00  0.00     0.060 A 
ATOM     40  C   UNL A   1      37.759  32.567  29.038  1.00  0.00     0.016 A 
ATOM     41  C   UNL A   1      36.479  31.112  30.479  1.00  0.00     0.016 A 
ATOM     42  C   UNL A   1      38.961  32.063  29.568  1.00  0.00     0.010 A 
ATOM     43  C   UNL A   1      37.668  30.586  30.960  1.00  0.00     0.010 A 
ATOM     44  C   UNL A   1      38.917  30.994  30.451  1.00  0.00    -0.014 A 
BRANCH  44  45
ATOM     45  C   UNL A   1      40.073  30.198  30.902  1.00  0.00     0.031 A 
ATOM     46  C   UNL A   1      40.395  28.978  30.138  1.00  0.00     0.074 A 
ATOM     47  C   UNL A   1      41.004  30.670  31.773  1.00  0.00     0.049 A 
ATOM     48  N   UNL A   1      41.347  28.169  30.446  1.00  0.00    -0.248 NA
ATOM     49  C   UNL A   1      39.622  28.529  28.979  1.00  0.00     0.031 C 
ATOM     50  C   UNL A   1      42.449  30.404  31.779  1.00  0.00     0.029 A 
ATOM     51  N   UNL A   1      40.876  31.575  32.829  1.00  0.00    -0.354 N 
ATOM     52  C   UNL A   1      41.563  27.382  29.345  1.00  0.00     0.074 A 
ATOM     53  C   UNL A   1      40.351  27.485  28.578  1.00  0.00     0.031 C 
ATOM     54  C   UNL A   1      43.005  30.908  32.897  1.00  0.00     0.029 A 
ATOM     55  C   UNL A   1      41.914  31.374  33.739  1.00  0.00     0.049 A 
ATOM     56  H   UNL A   1      40.165  32.250  32.917  1.00  0.00     0.167 HD
ATOM     57  C   UNL A   1      42.824  26.920  29.128  1.00  0.00     0.034 A 
ATOM     58  C   UNL A   1      41.682  31.099  35.049  1.00  0.00     0.034 A 
ATOM     59  C   UNL A   1      43.686  27.154  30.318  1.00  0.00     0.049 A 
ATOM     60  C   UNL A   1      42.310  29.775  35.333  1.00  0.00     0.074 A 
ATOM     61  C   UNL A   1      44.801  27.941  30.551  1.00  0.00     0.029 A 
ATOM     62  N   UNL A   1      43.259  26.716  31.582  1.00  0.00    -0.354 N 
ATOM     63  N   UNL A   1      42.499  28.896  34.388  1.00  0.00    -0.248 NA
ATOM     64  C   UNL A   1      42.923  29.393  36.598  1.00  0.00     0.031 C 
ATOM     65  C   UNL A   1      44.986  28.040  31.963  1.00  0.00     0.029 A 
ATOM     66  C   UNL A   1      44.012  27.281  32.600  1.00  0.00     0.049 A 
ATOM     67  H   UNL A   1      42.518  26.085  31.728  1.00  0.00     0.167 HD
ATOM     68  C   UNL A   1      43.329  27.925  34.834  1.00  0.00     0.074 A 
ATOM     69  C   UNL A   1      43.529  28.244  36.242  1.00  0.00     0.031 C 
ATOM     70  C   UNL A   1      43.789  26.943  34.011  1.00  0.00     0.034 A 
BRANCH  57  71
ATOM     71  C   UNL A   1      43.360  26.458  27.770  1.00  0.00     0.023 A 
ATOM     72  C   UNL A   1      43.084  27.284  26.658  1.00  0.00     0.012 A 
ATOM     73  C   UNL A   1      44.043  25.246  27.469  1.00  0.00     0.148 A 
ATOM     74  C   UNL A   1      43.454  26.940  25.348  1.00  0.00     0.002 A 
ATOM     75  C   UNL A   1      44.477  24.937  26.175  1.00  0.00     0.091 A 
ATOM     76  F   UNL A   1      44.218  24.314  28.403  1.00  0.00    -0.205 F 
ATOM     77  C   UNL A   1      44.169  25.777  25.106  1.00  0.00     0.022 A 
BRANCH  75  78
ATOM     78  S   UNL A   1      45.457  23.465  25.795  1.00  0.00     0.127 S 
ATOM     79  O   UNL A   1      46.551  23.566  26.762  1.00  0.00    -0.237 OA
ATOM     80  O   UNL A   1      44.508  22.384  26.064  1.00  0.00    -0.237 OA
ATOM     81  O   UNL A   1      45.861  23.581  24.400  1.00  0.00    -0.744 OA
ENDBRANCH  75  78
ENDBRANCH  57  71
BRANCH  58  82
ATOM     82  C   UNL A   1      40.413  31.686  35.574  1.00  0.00     0.023 A 
ATOM     83  C   UNL A   1      39.242  30.897  35.428  1.00  0.00     0.012 A 
ATOM     84  C   UNL A   1      40.411  32.705  36.544  1.00  0.00     0.148 A 
ATOM     85  C   UNL A   1      38.155  31.033  36.297  1.00  0.00     0.002 A 
ATOM     86  C   UNL A   1      39.336  32.812  37.433  1.00  0.00     0.091 A 
ATOM     87  F   UNL A   1      41.478  33.509  36.629  1.00  0.00    -0.205 F 
ATOM     88  C   UNL A   1      38.226  31.955  37.332  1.00  0.00     0.022 A 
BRANCH  86  89
ATOM     89  S   UNL A   1      39.350  33.939  38.835  1.00  0.00     0.127 S 
ATOM     90  O   UNL A   1      38.074  33.629  39.473  1.00  0.00    -0.237 OA
ATOM     91  O   UNL A   1      40.529  33.489  39.580  1.00  0.00    -0.237 OA
ATOM     92  O   UNL A   1      39.474  35.272  38.267  1.00  0.00    -0.744 OA
ENDBRANCH  86  89
ENDBRANCH  58  82
BRANCH  70  93
ATOM     93  C   UNL A   1      44.059  25.559  34.535  1.00  0.00     0.023 A 
ATOM     94  C   UNL A   1      43.096  24.532  34.416  1.00  0.00     0.012 A 
ATOM     95  C   UNL A   1      45.353  25.184  34.952  1.00  0.00     0.148 A 
ATOM     96  C   UNL A   1      43.375  23.211  34.757  1.00  0.00     0.002 A 
ATOM     97  C   UNL A   1      45.660  23.847  35.169  1.00  0.00     0.091 A 
ATOM     98  F   UNL A   1      46.295  26.117  35.139  1.00  0.00    -0.205 F 
ATOM     99  C   UNL A   1      44.668  22.864  35.109  1.00  0.00     0.022 A 
BRANCH  97 100
ATOM    100  S   UNL A   1      47.360  23.305  35.358  1.00  0.00     0.127 S 
ATOM    101  O   UNL A   1      48.003  23.945  34.214  1.00  0.00    -0.237 OA
ATOM    102  O   UNL A   1      47.718  23.872  36.660  1.00  0.00    -0.237 OA
ATOM    103  O   UNL A   1      47.314  21.850  35.333  1.00  0.00    -0.744 OA
ENDBRANCH  97 100
ENDBRANCH  70  93
ENDBRANCH  44  45
ENDBRANCH  37  39
ENDBRANCH  36  37
ENDBRANCH  35  36
ENDBRANCH  34  35
ENDBRANCH  33  34
ENDBRANCH   1  33
TORSDOF 21
ENDMDL
