MODEL 1
REMARK VINA RESULT:     -10.7      0.000      0.000
REMARK SMILES Cc1ccc(C(=O)NC2(CC(=O)OCCOCCOC(=O)c3ccc(-c4c5nc(c(-c6cccc(S(=O)(=O)[O-])c6F)c6ccc([nH]6)c(-c6cccc(S(=O)(=O)[O-])c6F)c6nc(c(-c7cccc(S(=O)(=O)[O-])c7F)c7ccc4[nH]7)C=C6)C=C5)cc3)CCC2)cc1
REMARK SMILES IDX 16 1 15 2 14 3 13 4 11 5 12 6 10 7 9 8 85 9 87 10 86 11 8 12
REMARK SMILES IDX 6 13 7 14 5 16 1 17 2 18 3 19 89 20 4 21 88 22 17 23 18 24
REMARK SMILES IDX 19 25 20 26 21 27 22 28 23 29 84 30 24 31 83 32 25 33 26 34
REMARK SMILES IDX 27 35 77 36 28 37 82 38 76 39 78 40 29 41 81 42 75 43 74 44
REMARK SMILES IDX 30 46 62 47 42 48 61 49 43 50 46 51 60 52 79 53 44 54 45 55
REMARK SMILES IDX 59 57 80 58 47 59 31 60 32 61 40 62 33 63 35 64 41 65 34 66
REMARK SMILES IDX 36 67 37 68 38 69 39 70 63 71 64 72 72 73 65 74 67 75 73 76
REMARK SMILES IDX 66 77 68 78 69 79 70 80 71 81 48 82 49 83 57 84 50 85 52 86
REMARK SMILES IDX 58 87 51 88 53 89 54 90 55 91 56 92
REMARK H PARENT 8 15 78 45 46 56
REMARK Flexibility Score: inf
ROOT
ATOM      1  O   UNL A   1      35.297  32.075  28.088  1.00  0.00    -0.374 OA
ENDROOT
BRANCH   1   2
ATOM      2  C   UNL A   1      35.472  30.750  27.643  1.00  0.00     0.202 C 
BRANCH   2   3
ATOM      3  C   UNL A   1      34.072  30.118  27.209  1.00  0.00     0.261 C 
BRANCH   3   4
ATOM      4  O   UNL A   1      33.637  28.342  26.322  1.00  0.00    -0.463 OA
BRANCH   4   5
ATOM      5  C   UNL A   1      33.876  27.138  25.535  1.00  0.00     0.308 C 
ATOM      6  O   UNL A   1      34.265  26.104  26.088  1.00  0.00    -0.252 OA
BRANCH   5   7
ATOM      7  C   UNL A   1      33.619  27.095  24.027  1.00  0.00     0.151 C 
BRANCH   7   8
ATOM      8  C   UNL A   1      32.531  26.161  23.416  1.00  0.00     0.051 C 
ATOM      9  C   UNL A   1      33.197  24.904  22.716  1.00  0.00     0.029 C 
ATOM     10  C   UNL A   1      31.867  26.334  21.964  1.00  0.00     0.029 C 
ATOM     11  C   UNL A   1      33.135  25.702  21.398  1.00  0.00     0.005 C 
BRANCH   8  12
ATOM     12  N   UNL A   1      31.496  25.745  24.387  1.00  0.00    -0.346 N 
ATOM     13  C   UNL A   1      30.312  26.379  24.637  1.00  0.00     0.251 C 
ATOM     14  O   UNL A   1      29.496  25.954  25.444  1.00  0.00    -0.269 OA
ATOM     15  H   UNL A   1      31.680  24.928  24.906  1.00  0.00     0.164 HD
BRANCH  13  16
ATOM     16  C   UNL A   1      30.150  27.713  24.063  1.00  0.00     0.039 A 
ATOM     17  C   UNL A   1      27.729  32.085  23.030  1.00  0.00     0.044 C 
ATOM     18  C   UNL A   1      28.615  30.934  23.447  1.00  0.00    -0.051 A 
ATOM     19  C   UNL A   1      27.904  29.409  22.880  1.00  0.00     0.004 A 
ATOM     20  C   UNL A   1      30.123  30.836  24.371  1.00  0.00     0.004 A 
ATOM     21  C   UNL A   1      28.581  27.819  23.219  1.00  0.00     0.014 A 
ATOM     22  C   UNL A   1      30.942  29.237  24.631  1.00  0.00     0.014 A 
ENDBRANCH  13  16
ENDBRANCH   8  12
ENDBRANCH   7   8
ENDBRANCH   5   7
ENDBRANCH   4   5
ENDBRANCH   3   4
ENDBRANCH   2   3
ENDBRANCH   1   2
BRANCH   1  23
ATOM     23  C   UNL A   1      34.009  32.630  27.945  1.00  0.00     0.202 C 
BRANCH  23  24
ATOM     24  C   UNL A   1      33.991  33.684  29.033  1.00  0.00     0.261 C 
BRANCH  24  25
ATOM     25  O   UNL A   1      34.175  32.990  30.302  1.00  0.00    -0.460 OA
BRANCH  25  26
ATOM     26  C   UNL A   1      34.257  33.772  31.428  1.00  0.00     0.338 C 
ATOM     27  O   UNL A   1      33.376  34.529  31.803  1.00  0.00    -0.246 OA
BRANCH  26  28
ATOM     28  C   UNL A   1      35.633  33.674  32.063  1.00  0.00     0.060 A 
ATOM     29  C   UNL A   1      36.704  34.479  31.615  1.00  0.00     0.016 A 
ATOM     30  C   UNL A   1      35.942  32.590  32.894  1.00  0.00     0.016 A 
ATOM     31  C   UNL A   1      38.062  34.108  31.858  1.00  0.00     0.010 A 
ATOM     32  C   UNL A   1      37.280  32.169  33.043  1.00  0.00     0.010 A 
ATOM     33  C   UNL A   1      38.357  32.849  32.415  1.00  0.00    -0.014 A 
BRANCH  33  34
ATOM     34  C   UNL A   1      39.694  32.139  32.316  1.00  0.00     0.031 A 
ATOM     35  C   UNL A   1      39.534  30.915  31.529  1.00  0.00     0.074 A 
ATOM     36  C   UNL A   1      40.933  32.219  32.925  1.00  0.00     0.049 A 
ATOM     37  N   UNL A   1      39.869  29.746  31.972  1.00  0.00    -0.248 NA
ATOM     38  C   UNL A   1      38.729  30.916  30.304  1.00  0.00     0.031 C 
ATOM     39  C   UNL A   1      42.191  31.675  32.399  1.00  0.00     0.029 A 
ATOM     40  N   UNL A   1      41.429  32.903  34.047  1.00  0.00    -0.354 N 
ATOM     41  C   UNL A   1      39.611  28.925  30.911  1.00  0.00     0.074 A 
ATOM     42  C   UNL A   1      38.590  29.606  30.142  1.00  0.00     0.031 C 
ATOM     43  C   UNL A   1      43.201  31.918  33.261  1.00  0.00     0.029 A 
ATOM     44  C   UNL A   1      42.696  32.523  34.507  1.00  0.00     0.049 A 
ATOM     45  H   UNL A   1      40.911  33.615  34.488  1.00  0.00     0.167 HD
ATOM     46  C   UNL A   1      40.576  28.083  30.440  1.00  0.00     0.034 A 
ATOM     47  C   UNL A   1      43.261  32.475  35.784  1.00  0.00     0.034 A 
ATOM     48  C   UNL A   1      41.865  28.223  31.170  1.00  0.00     0.049 A 
ATOM     49  C   UNL A   1      43.742  31.042  35.931  1.00  0.00     0.074 A 
ATOM     50  C   UNL A   1      43.122  28.713  30.833  1.00  0.00     0.029 A 
ATOM     51  N   UNL A   1      41.914  28.104  32.563  1.00  0.00    -0.354 N 
ATOM     52  N   UNL A   1      44.045  30.251  34.941  1.00  0.00    -0.248 NA
ATOM     53  C   UNL A   1      43.656  30.339  37.208  1.00  0.00     0.031 C 
ATOM     54  C   UNL A   1      43.948  28.742  31.999  1.00  0.00     0.029 A 
ATOM     55  C   UNL A   1      43.205  28.281  33.068  1.00  0.00     0.049 A 
ATOM     56  H   UNL A   1      41.127  27.916  33.124  1.00  0.00     0.167 HD
ATOM     57  C   UNL A   1      43.750  28.977  35.336  1.00  0.00     0.074 A 
ATOM     58  C   UNL A   1      43.612  29.070  36.783  1.00  0.00     0.031 C 
ATOM     59  C   UNL A   1      43.474  27.955  34.470  1.00  0.00     0.034 A 
BRANCH  46  60
ATOM     60  C   UNL A   1      40.397  27.570  29.011  1.00  0.00     0.023 A 
ATOM     61  C   UNL A   1      39.552  26.474  28.784  1.00  0.00     0.012 A 
ATOM     62  C   UNL A   1      41.132  28.036  27.886  1.00  0.00     0.148 A 
ATOM     63  C   UNL A   1      39.553  25.777  27.572  1.00  0.00     0.002 A 
ATOM     64  C   UNL A   1      41.222  27.276  26.717  1.00  0.00     0.091 A 
ATOM     65  F   UNL A   1      41.753  29.226  27.944  1.00  0.00    -0.205 F 
ATOM     66  C   UNL A   1      40.430  26.140  26.559  1.00  0.00     0.022 A 
BRANCH  64  67
ATOM     67  S   UNL A   1      42.496  27.599  25.480  1.00  0.00     0.127 S 
ATOM     68  O   UNL A   1      42.028  28.834  24.843  1.00  0.00    -0.237 OA
ATOM     69  O   UNL A   1      43.700  27.758  26.289  1.00  0.00    -0.237 OA
ATOM     70  O   UNL A   1      42.460  26.442  24.592  1.00  0.00    -0.744 OA
ENDBRANCH  64  67
ENDBRANCH  46  60
BRANCH  47  71
ATOM     71  C   UNL A   1      42.942  33.278  37.104  1.00  0.00     0.023 A 
ATOM     72  C   UNL A   1      43.962  34.030  37.743  1.00  0.00     0.012 A 
ATOM     73  C   UNL A   1      41.657  33.410  37.707  1.00  0.00     0.148 A 
ATOM     74  C   UNL A   1      43.665  35.049  38.697  1.00  0.00     0.002 A 
ATOM     75  C   UNL A   1      41.338  34.519  38.524  1.00  0.00     0.091 A 
ATOM     76  F   UNL A   1      40.716  32.510  37.391  1.00  0.00    -0.205 F 
ATOM     77  C   UNL A   1      42.340  35.369  38.986  1.00  0.00     0.022 A 
BRANCH  75  78
ATOM     78  S   UNL A   1      39.632  35.104  38.812  1.00  0.00     0.127 S 
ATOM     79  O   UNL A   1      38.912  34.546  37.670  1.00  0.00    -0.237 OA
ATOM     80  O   UNL A   1      39.295  34.463  40.084  1.00  0.00    -0.237 OA
ATOM     81  O   UNL A   1      39.730  36.556  38.836  1.00  0.00    -0.744 OA
ENDBRANCH  75  78
ENDBRANCH  47  71
BRANCH  59  82
ATOM     82  C   UNL A   1      43.407  26.515  34.934  1.00  0.00     0.023 A 
ATOM     83  C   UNL A   1      42.189  25.941  35.351  1.00  0.00     0.012 A 
ATOM     84  C   UNL A   1      44.568  25.731  35.129  1.00  0.00     0.148 A 
ATOM     85  C   UNL A   1      42.094  24.615  35.767  1.00  0.00     0.002 A 
ATOM     86  C   UNL A   1      44.485  24.434  35.610  1.00  0.00     0.091 A 
ATOM     87  F   UNL A   1      45.777  26.249  34.908  1.00  0.00    -0.205 F 
ATOM     88  C   UNL A   1      43.245  23.856  35.886  1.00  0.00     0.022 A 
BRANCH  86  89
ATOM     89  S   UNL A   1      45.947  23.469  35.999  1.00  0.00     0.127 S 
ATOM     90  O   UNL A   1      45.346  22.250  36.543  1.00  0.00    -0.237 OA
ATOM     91  O   UNL A   1      46.557  23.314  34.680  1.00  0.00    -0.237 OA
ATOM     92  O   UNL A   1      46.723  24.247  36.952  1.00  0.00    -0.744 OA
ENDBRANCH  86  89
ENDBRANCH  59  82
ENDBRANCH  33  34
ENDBRANCH  26  28
ENDBRANCH  25  26
ENDBRANCH  24  25
ENDBRANCH  23  24
ENDBRANCH   1  23
TORSDOF 20
ENDMDL
MODEL 2
REMARK VINA RESULT:     -10.7      5.246     10.008
REMARK SMILES Cc1ccc(C(=O)NC2(CC(=O)OCCOCCOC(=O)c3ccc(-c4c5nc(c(-c6cccc(S(=O)(=O)[O-])c6F)c6ccc([nH]6)c(-c6cccc(S(=O)(=O)[O-])c6F)c6nc(c(-c7cccc(S(=O)(=O)[O-])c7F)c7ccc4[nH]7)C=C6)C=C5)cc3)CCC2)cc1
REMARK SMILES IDX 16 1 15 2 14 3 13 4 11 5 12 6 10 7 9 8 85 9 87 10 86 11 8 12
REMARK SMILES IDX 6 13 7 14 5 16 1 17 2 18 3 19 89 20 4 21 88 22 17 23 18 24
REMARK SMILES IDX 19 25 20 26 21 27 22 28 23 29 84 30 24 31 83 32 25 33 26 34
REMARK SMILES IDX 27 35 77 36 28 37 82 38 76 39 78 40 29 41 81 42 75 43 74 44
REMARK SMILES IDX 30 46 62 47 42 48 61 49 43 50 46 51 60 52 79 53 44 54 45 55
REMARK SMILES IDX 59 57 80 58 47 59 31 60 32 61 40 62 33 63 35 64 41 65 34 66
REMARK SMILES IDX 36 67 37 68 38 69 39 70 63 71 64 72 72 73 65 74 67 75 73 76
REMARK SMILES IDX 66 77 68 78 69 79 70 80 71 81 48 82 49 83 57 84 50 85 52 86
REMARK SMILES IDX 58 87 51 88 53 89 54 90 55 91 56 92
REMARK H PARENT 8 15 78 45 46 56
REMARK Flexibility Score: inf
ROOT
ATOM      1  O   UNL A   1      33.679  32.898  28.423  1.00  0.00    -0.374 OA
ENDROOT
BRANCH   1   2
ATOM      2  C   UNL A   1      32.849  33.618  27.542  1.00  0.00     0.202 C 
BRANCH   2   3
ATOM      3  C   UNL A   1      31.692  32.677  26.971  1.00  0.00     0.261 C 
BRANCH   3   4
ATOM      4  O   UNL A   1      31.753  30.764  26.291  1.00  0.00    -0.463 OA
BRANCH   4   5
ATOM      5  C   UNL A   1      31.749  29.307  26.370  1.00  0.00     0.308 C 
ATOM      6  O   UNL A   1      32.334  28.736  27.296  1.00  0.00    -0.252 OA
BRANCH   5   7
ATOM      7  C   UNL A   1      30.997  28.446  25.353  1.00  0.00     0.151 C 
BRANCH   7   8
ATOM      8  C   UNL A   1      31.102  28.722  23.822  1.00  0.00     0.051 C 
ATOM      9  C   UNL A   1      30.012  29.777  23.364  1.00  0.00     0.029 C 
ATOM     10  C   UNL A   1      30.408  27.843  22.671  1.00  0.00     0.029 C 
ATOM     11  C   UNL A   1      29.113  28.578  23.003  1.00  0.00     0.005 C 
BRANCH   8  12
ATOM     12  N   UNL A   1      32.455  29.128  23.387  1.00  0.00    -0.346 N 
ATOM     13  C   UNL A   1      33.536  28.310  23.214  1.00  0.00     0.251 C 
ATOM     14  O   UNL A   1      34.621  28.725  22.827  1.00  0.00    -0.269 OA
ATOM     15  H   UNL A   1      32.591  30.086  23.202  1.00  0.00     0.164 HD
BRANCH  13  16
ATOM     16  C   UNL A   1      33.413  26.947  23.725  1.00  0.00     0.039 A 
ATOM     17  C   UNL A   1      34.501  21.971  24.054  1.00  0.00     0.044 C 
ATOM     18  C   UNL A   1      34.246  23.455  24.195  1.00  0.00    -0.051 A 
ATOM     19  C   UNL A   1      33.651  24.099  22.651  1.00  0.00     0.004 A 
ATOM     20  C   UNL A   1      34.452  24.600  25.531  1.00  0.00     0.004 A 
ATOM     21  C   UNL A   1      33.303  25.801  22.361  1.00  0.00     0.014 A 
ATOM     22  C   UNL A   1      33.976  26.340  25.333  1.00  0.00     0.014 A 
ENDBRANCH  13  16
ENDBRANCH   8  12
ENDBRANCH   7   8
ENDBRANCH   5   7
ENDBRANCH   4   5
ENDBRANCH   3   4
ENDBRANCH   2   3
ENDBRANCH   1   2
BRANCH   1  23
ATOM     23  C   UNL A   1      34.957  32.540  27.944  1.00  0.00     0.202 C 
BRANCH  23  24
ATOM     24  C   UNL A   1      34.813  31.047  27.732  1.00  0.00     0.261 C 
BRANCH  24  25
ATOM     25  O   UNL A   1      36.158  30.509  27.569  1.00  0.00    -0.460 OA
BRANCH  25  26
ATOM     26  C   UNL A   1      36.791  30.067  28.705  1.00  0.00     0.338 C 
ATOM     27  O   UNL A   1      36.212  29.717  29.720  1.00  0.00    -0.246 OA
BRANCH  26  28
ATOM     28  C   UNL A   1      38.298  30.205  28.581  1.00  0.00     0.060 A 
ATOM     29  C   UNL A   1      39.001  29.613  27.508  1.00  0.00     0.016 A 
ATOM     30  C   UNL A   1      39.048  30.665  29.671  1.00  0.00     0.016 A 
ATOM     31  C   UNL A   1      40.400  29.337  27.601  1.00  0.00     0.010 A 
ATOM     32  C   UNL A   1      40.404  30.299  29.803  1.00  0.00     0.010 A 
ATOM     33  C   UNL A   1      41.070  29.513  28.826  1.00  0.00    -0.014 A 
BRANCH  33  34
ATOM     34  C   UNL A   1      42.386  28.861  29.206  1.00  0.00     0.031 A 
ATOM     35  C   UNL A   1      43.472  29.828  29.038  1.00  0.00     0.074 A 
ATOM     36  C   UNL A   1      42.849  27.582  29.455  1.00  0.00     0.049 A 
ATOM     37  N   UNL A   1      44.509  29.598  28.299  1.00  0.00    -0.248 NA
ATOM     38  C   UNL A   1      43.308  31.217  29.476  1.00  0.00     0.031 C 
ATOM     39  C   UNL A   1      44.081  27.234  30.176  1.00  0.00     0.029 A 
ATOM     40  N   UNL A   1      42.311  26.296  29.284  1.00  0.00    -0.354 N 
ATOM     41  C   UNL A   1      45.273  30.716  28.477  1.00  0.00     0.074 A 
ATOM     42  C   UNL A   1      44.340  31.761  28.841  1.00  0.00     0.031 C 
ATOM     43  C   UNL A   1      44.234  25.893  30.218  1.00  0.00     0.029 A 
ATOM     44  C   UNL A   1      43.199  25.220  29.413  1.00  0.00     0.049 A 
ATOM     45  H   UNL A   1      41.358  26.158  29.085  1.00  0.00     0.167 HD
ATOM     46  C   UNL A   1      46.579  30.606  28.857  1.00  0.00     0.034 A 
ATOM     47  C   UNL A   1      43.261  23.969  28.793  1.00  0.00     0.034 A 
ATOM     48  C   UNL A   1      46.995  29.193  29.078  1.00  0.00     0.049 A 
ATOM     49  C   UNL A   1      44.656  23.912  28.197  1.00  0.00     0.074 A 
ATOM     50  C   UNL A   1      47.339  28.450  30.201  1.00  0.00     0.029 A 
ATOM     51  N   UNL A   1      46.814  28.230  28.080  1.00  0.00    -0.354 N 
ATOM     52  N   UNL A   1      45.680  24.594  28.626  1.00  0.00    -0.248 NA
ATOM     53  C   UNL A   1      44.906  23.272  26.909  1.00  0.00     0.031 C 
ATOM     54  C   UNL A   1      47.502  27.079  29.830  1.00  0.00     0.029 A 
ATOM     55  C   UNL A   1      47.249  26.963  28.478  1.00  0.00     0.049 A 
ATOM     56  H   UNL A   1      46.425  28.424  27.197  1.00  0.00     0.167 HD
ATOM     57  C   UNL A   1      46.477  24.851  27.546  1.00  0.00     0.074 A 
ATOM     58  C   UNL A   1      46.012  23.922  26.526  1.00  0.00     0.031 C 
ATOM     59  C   UNL A   1      47.354  25.899  27.477  1.00  0.00     0.034 A 
BRANCH  46  60
ATOM     60  C   UNL A   1      47.214  31.845  29.488  1.00  0.00     0.023 A 
ATOM     61  C   UNL A   1      47.894  32.753  28.665  1.00  0.00     0.012 A 
ATOM     62  C   UNL A   1      47.288  32.093  30.887  1.00  0.00     0.148 A 
ATOM     63  C   UNL A   1      48.730  33.744  29.188  1.00  0.00     0.002 A 
ATOM     64  C   UNL A   1      48.209  33.003  31.411  1.00  0.00     0.091 A 
ATOM     65  F   UNL A   1      46.462  31.441  31.723  1.00  0.00    -0.205 F 
ATOM     66  C   UNL A   1      48.935  33.833  30.558  1.00  0.00     0.022 A 
BRANCH  64  67
ATOM     67  S   UNL A   1      48.649  32.995  33.162  1.00  0.00     0.127 S 
ATOM     68  O   UNL A   1      49.870  33.805  33.196  1.00  0.00    -0.237 OA
ATOM     69  O   UNL A   1      47.492  33.623  33.790  1.00  0.00    -0.237 OA
ATOM     70  O   UNL A   1      48.879  31.590  33.484  1.00  0.00    -0.744 OA
ENDBRANCH  64  67
ENDBRANCH  46  60
BRANCH  47  71
ATOM     71  C   UNL A   1      42.147  23.067  28.135  1.00  0.00     0.023 A 
ATOM     72  C   UNL A   1      40.982  23.663  27.587  1.00  0.00     0.012 A 
ATOM     73  C   UNL A   1      42.226  21.657  27.942  1.00  0.00     0.148 A 
ATOM     74  C   UNL A   1      40.137  22.966  26.671  1.00  0.00     0.002 A 
ATOM     75  C   UNL A   1      41.494  21.012  26.918  1.00  0.00     0.091 A 
ATOM     76  F   UNL A   1      43.100  20.965  28.686  1.00  0.00    -0.205 F 
ATOM     77  C   UNL A   1      40.474  21.683  26.248  1.00  0.00     0.022 A 
BRANCH  75  78
ATOM     78  S   UNL A   1      41.973  19.406  26.191  1.00  0.00     0.127 S 
ATOM     79  O   UNL A   1      42.996  19.793  25.222  1.00  0.00    -0.237 OA
ATOM     80  O   UNL A   1      42.510  18.691  27.350  1.00  0.00    -0.237 OA
ATOM     81  O   UNL A   1      40.747  18.868  25.621  1.00  0.00    -0.744 OA
ENDBRANCH  75  78
ENDBRANCH  47  71
BRANCH  59  82
ATOM     82  C   UNL A   1      48.393  25.996  26.380  1.00  0.00     0.023 A 
ATOM     83  C   UNL A   1      49.754  25.738  26.643  1.00  0.00     0.012 A 
ATOM     84  C   UNL A   1      48.087  26.499  25.095  1.00  0.00     0.148 A 
ATOM     85  C   UNL A   1      50.729  25.803  25.650  1.00  0.00     0.002 A 
ATOM     86  C   UNL A   1      49.067  26.632  24.125  1.00  0.00     0.091 A 
ATOM     87  F   UNL A   1      46.852  26.914  24.809  1.00  0.00    -0.205 F 
ATOM     88  C   UNL A   1      50.382  26.241  24.384  1.00  0.00     0.022 A 
BRANCH  86  89
ATOM     89  S   UNL A   1      48.736  27.399  22.536  1.00  0.00     0.127 S 
ATOM     90  O   UNL A   1      49.798  28.404  22.478  1.00  0.00    -0.237 OA
ATOM     91  O   UNL A   1      48.910  26.271  21.623  1.00  0.00    -0.237 OA
ATOM     92  O   UNL A   1      47.386  27.938  22.604  1.00  0.00    -0.744 OA
ENDBRANCH  86  89
ENDBRANCH  59  82
ENDBRANCH  33  34
ENDBRANCH  26  28
ENDBRANCH  25  26
ENDBRANCH  24  25
ENDBRANCH  23  24
ENDBRANCH   1  23
TORSDOF 20
ENDMDL
MODEL 3
REMARK VINA RESULT:     -10.6      6.471      9.802
REMARK SMILES Cc1ccc(C(=O)NC2(CC(=O)OCCOCCOC(=O)c3ccc(-c4c5nc(c(-c6cccc(S(=O)(=O)[O-])c6F)c6ccc([nH]6)c(-c6cccc(S(=O)(=O)[O-])c6F)c6nc(c(-c7cccc(S(=O)(=O)[O-])c7F)c7ccc4[nH]7)C=C6)C=C5)cc3)CCC2)cc1
REMARK SMILES IDX 16 1 15 2 14 3 13 4 11 5 12 6 10 7 9 8 85 9 87 10 86 11 8 12
REMARK SMILES IDX 6 13 7 14 5 16 1 17 2 18 3 19 89 20 4 21 88 22 17 23 18 24
REMARK SMILES IDX 19 25 20 26 21 27 22 28 23 29 84 30 24 31 83 32 25 33 26 34
REMARK SMILES IDX 27 35 77 36 28 37 82 38 76 39 78 40 29 41 81 42 75 43 74 44
REMARK SMILES IDX 30 46 62 47 42 48 61 49 43 50 46 51 60 52 79 53 44 54 45 55
REMARK SMILES IDX 59 57 80 58 47 59 31 60 32 61 40 62 33 63 35 64 41 65 34 66
REMARK SMILES IDX 36 67 37 68 38 69 39 70 63 71 64 72 72 73 65 74 67 75 73 76
REMARK SMILES IDX 66 77 68 78 69 79 70 80 71 81 48 82 49 83 57 84 50 85 52 86
REMARK SMILES IDX 58 87 51 88 53 89 54 90 55 91 56 92
REMARK H PARENT 8 15 78 45 46 56
REMARK Flexibility Score: inf
ROOT
ATOM      1  O   UNL A   1      39.102  21.854  25.963  1.00  0.00    -0.374 OA
ENDROOT
BRANCH   1   2
ATOM      2  C   UNL A   1      37.960  21.987  25.150  1.00  0.00     0.202 C 
BRANCH   2   3
ATOM      3  C   UNL A   1      37.058  20.672  25.234  1.00  0.00     0.261 C 
BRANCH   3   4
ATOM      4  O   UNL A   1      35.120  20.357  24.709  1.00  0.00    -0.463 OA
BRANCH   4   5
ATOM      5  C   UNL A   1      33.668  20.445  24.812  1.00  0.00     0.308 C 
ATOM      6  O   UNL A   1      32.979  19.422  24.743  1.00  0.00    -0.252 OA
BRANCH   5   7
ATOM      7  C   UNL A   1      32.956  21.779  25.046  1.00  0.00     0.151 C 
BRANCH   7   8
ATOM      8  C   UNL A   1      32.964  22.468  26.444  1.00  0.00     0.051 C 
ATOM      9  C   UNL A   1      33.688  23.877  26.375  1.00  0.00     0.029 C 
ATOM     10  C   UNL A   1      34.055  22.218  27.596  1.00  0.00     0.029 C 
ATOM     11  C   UNL A   1      34.975  23.152  26.816  1.00  0.00     0.005 C 
BRANCH   8  12
ATOM     12  N   UNL A   1      31.621  22.587  27.051  1.00  0.00    -0.346 N 
ATOM     13  C   UNL A   1      30.675  23.527  26.757  1.00  0.00     0.251 C 
ATOM     14  O   UNL A   1      29.573  23.542  27.292  1.00  0.00    -0.269 OA
ATOM     15  H   UNL A   1      31.386  21.921  27.738  1.00  0.00     0.164 HD
BRANCH  13  16
ATOM     16  C   UNL A   1      31.106  24.656  25.936  1.00  0.00     0.039 A 
ATOM     17  C   UNL A   1      30.611  28.346  22.445  1.00  0.00     0.044 C 
ATOM     18  C   UNL A   1      30.808  27.438  23.638  1.00  0.00    -0.051 A 
ATOM     19  C   UNL A   1      30.577  25.750  23.136  1.00  0.00     0.004 A 
ATOM     20  C   UNL A   1      31.174  27.738  25.344  1.00  0.00     0.004 A 
ATOM     21  C   UNL A   1      30.643  24.377  24.236  1.00  0.00     0.014 A 
ATOM     22  C   UNL A   1      31.393  26.352  26.497  1.00  0.00     0.014 A 
ENDBRANCH  13  16
ENDBRANCH   8  12
ENDBRANCH   7   8
ENDBRANCH   5   7
ENDBRANCH   4   5
ENDBRANCH   3   4
ENDBRANCH   2   3
ENDBRANCH   1   2
BRANCH   1  23
ATOM     23  C   UNL A   1      39.432  22.953  26.783  1.00  0.00     0.202 C 
BRANCH  23  24
ATOM     24  C   UNL A   1      40.866  22.650  27.164  1.00  0.00     0.261 C 
BRANCH  24  25
ATOM     25  O   UNL A   1      41.718  23.438  26.281  1.00  0.00    -0.460 OA
BRANCH  25  26
ATOM     26  C   UNL A   1      42.757  22.778  25.672  1.00  0.00     0.338 C 
ATOM     27  O   UNL A   1      42.663  21.673  25.162  1.00  0.00    -0.246 OA
BRANCH  26  28
ATOM     28  C   UNL A   1      44.061  23.537  25.841  1.00  0.00     0.060 A 
ATOM     29  C   UNL A   1      45.251  22.874  26.213  1.00  0.00     0.016 A 
ATOM     30  C   UNL A   1      44.048  24.936  25.920  1.00  0.00     0.016 A 
ATOM     31  C   UNL A   1      46.341  23.583  26.807  1.00  0.00     0.010 A 
ATOM     32  C   UNL A   1      45.079  25.617  26.600  1.00  0.00     0.010 A 
ATOM     33  C   UNL A   1      46.184  24.933  27.173  1.00  0.00    -0.014 A 
BRANCH  33  34
ATOM     34  C   UNL A   1      47.038  25.671  28.186  1.00  0.00     0.031 A 
ATOM     35  C   UNL A   1      48.442  25.598  27.778  1.00  0.00     0.074 A 
ATOM     36  C   UNL A   1      46.882  26.192  29.457  1.00  0.00     0.049 A 
ATOM     37  N   UNL A   1      49.374  25.135  28.548  1.00  0.00    -0.248 NA
ATOM     38  C   UNL A   1      48.823  25.788  26.375  1.00  0.00     0.031 C 
ATOM     39  C   UNL A   1      47.744  27.199  30.090  1.00  0.00     0.029 A 
ATOM     40  N   UNL A   1      45.880  26.098  30.436  1.00  0.00    -0.354 N 
ATOM     41  C   UNL A   1      50.507  25.308  27.805  1.00  0.00     0.074 A 
ATOM     42  C   UNL A   1      50.062  25.314  26.427  1.00  0.00     0.031 C 
ATOM     43  C   UNL A   1      47.310  27.464  31.341  1.00  0.00     0.029 A 
ATOM     44  C   UNL A   1      46.205  26.564  31.716  1.00  0.00     0.049 A 
ATOM     45  H   UNL A   1      44.992  25.724  30.232  1.00  0.00     0.167 HD
ATOM     46  C   UNL A   1      51.581  25.967  28.328  1.00  0.00     0.034 A 
ATOM     47  C   UNL A   1      45.815  26.157  32.995  1.00  0.00     0.034 A 
ATOM     48  C   UNL A   1      51.330  26.470  29.707  1.00  0.00     0.049 A 
ATOM     49  C   UNL A   1      47.123  25.882  33.718  1.00  0.00     0.074 A 
ATOM     50  C   UNL A   1      51.175  27.735  30.262  1.00  0.00     0.029 A 
ATOM     51  N   UNL A   1      50.894  25.605  30.716  1.00  0.00    -0.354 N 
ATOM     52  N   UNL A   1      48.271  26.415  33.412  1.00  0.00    -0.248 NA
ATOM     53  C   UNL A   1      47.248  24.781  34.668  1.00  0.00     0.031 C 
ATOM     54  C   UNL A   1      50.793  27.607  31.634  1.00  0.00     0.029 A 
ATOM     55  C   UNL A   1      50.697  26.263  31.932  1.00  0.00     0.049 A 
ATOM     56  H   UNL A   1      50.744  24.641  30.583  1.00  0.00     0.167 HD
ATOM     57  C   UNL A   1      49.238  25.502  33.726  1.00  0.00     0.074 A 
ATOM     58  C   UNL A   1      48.565  24.550  34.599  1.00  0.00     0.031 C 
ATOM     59  C   UNL A   1      50.475  25.470  33.144  1.00  0.00     0.034 A 
BRANCH  46  60
ATOM     60  C   UNL A   1      52.590  26.533  27.329  1.00  0.00     0.023 A 
ATOM     61  C   UNL A   1      53.734  25.784  27.021  1.00  0.00     0.012 A 
ATOM     62  C   UNL A   1      52.530  27.840  26.772  1.00  0.00     0.148 A 
ATOM     63  C   UNL A   1      54.825  26.343  26.347  1.00  0.00     0.002 A 
ATOM     64  C   UNL A   1      53.658  28.435  26.203  1.00  0.00     0.091 A 
ATOM     65  F   UNL A   1      51.371  28.520  26.793  1.00  0.00    -0.205 F 
ATOM     66  C   UNL A   1      54.812  27.684  25.990  1.00  0.00     0.022 A 
BRANCH  64  67
ATOM     67  S   UNL A   1      53.744  30.217  25.925  1.00  0.00     0.127 S 
ATOM     68  O   UNL A   1      52.787  30.425  24.834  1.00  0.00    -0.237 OA
ATOM     69  O   UNL A   1      53.321  30.766  27.209  1.00  0.00    -0.237 OA
ATOM     70  O   UNL A   1      55.128  30.470  25.536  1.00  0.00    -0.744 OA
ENDBRANCH  64  67
ENDBRANCH  46  60
BRANCH  47  71
ATOM     71  C   UNL A   1      44.524  25.415  33.513  1.00  0.00     0.023 A 
ATOM     72  C   UNL A   1      44.341  24.034  33.244  1.00  0.00     0.012 A 
ATOM     73  C   UNL A   1      43.511  25.986  34.337  1.00  0.00     0.148 A 
ATOM     74  C   UNL A   1      43.411  23.238  33.978  1.00  0.00     0.002 A 
ATOM     75  C   UNL A   1      42.706  25.183  35.179  1.00  0.00     0.091 A 
ATOM     76  F   UNL A   1      43.411  27.322  34.381  1.00  0.00    -0.205 F 
ATOM     77  C   UNL A   1      42.689  23.799  35.029  1.00  0.00     0.022 A 
BRANCH  75  78
ATOM     78  S   UNL A   1      41.866  25.811  36.674  1.00  0.00     0.127 S 
ATOM     79  O   UNL A   1      41.032  24.678  37.065  1.00  0.00    -0.237 OA
ATOM     80  O   UNL A   1      42.989  26.050  37.582  1.00  0.00    -0.237 OA
ATOM     81  O   UNL A   1      41.142  26.993  36.231  1.00  0.00    -0.744 OA
ENDBRANCH  75  78
ENDBRANCH  47  71
BRANCH  59  82
ATOM     82  C   UNL A   1      51.594  24.614  33.699  1.00  0.00     0.023 A 
ATOM     83  C   UNL A   1      52.677  25.192  34.391  1.00  0.00     0.012 A 
ATOM     84  C   UNL A   1      51.696  23.232  33.419  1.00  0.00     0.148 A 
ATOM     85  C   UNL A   1      53.712  24.428  34.928  1.00  0.00     0.002 A 
ATOM     86  C   UNL A   1      52.760  22.480  33.891  1.00  0.00     0.091 A 
ATOM     87  F   UNL A   1      50.795  22.633  32.639  1.00  0.00    -0.205 F 
ATOM     88  C   UNL A   1      53.747  23.066  34.686  1.00  0.00     0.022 A 
BRANCH  86  89
ATOM     89  S   UNL A   1      52.988  20.760  33.433  1.00  0.00     0.127 S 
ATOM     90  O   UNL A   1      53.340  20.887  32.018  1.00  0.00    -0.237 OA
ATOM     91  O   UNL A   1      54.092  20.367  34.305  1.00  0.00    -0.237 OA
ATOM     92  O   UNL A   1      51.725  20.086  33.691  1.00  0.00    -0.744 OA
ENDBRANCH  86  89
ENDBRANCH  59  82
ENDBRANCH  33  34
ENDBRANCH  26  28
ENDBRANCH  25  26
ENDBRANCH  24  25
ENDBRANCH  23  24
ENDBRANCH   1  23
TORSDOF 20
ENDMDL
