MODEL 1
REMARK VINA RESULT:     -12.1      0.000      0.000
REMARK SMILES COC(=O)c1ccc([C@H]2CC(=O)Nc3c(C(=O)OCCOCCOC(=O)c4ccc(-c5c6nc(c(-c7cccc(S(=O)(=O)[O-])c7F)c7ccc([nH]7)c(-c7cccc(S(=O)(=O)[O-])c7F)c7nc(c(-c8cccc(S(=O)(=O)[O-])c8F)c8ccc5[nH]8)C=C7)C=C6)cc4)cn(-c4ccccc4)c32)cc1
REMARK SMILES IDX 21 1 20 2 19 3 18 4 16 5 17 6 15 7 9 8 10 9 98 10 11 11
REMARK SMILES IDX 14 12 91 13 12 14 13 15 90 16 8 18 5 19 6 20 100 21 7 22
REMARK SMILES IDX 99 23 3 24 4 25 2 26 1 27 92 28 93 29 97 30 94 31 96 32
REMARK SMILES IDX 95 33 22 34 23 35 24 36 25 37 26 38 27 39 28 40 89 41 29 42
REMARK SMILES IDX 88 43 30 44 31 45 32 46 82 47 33 48 87 49 81 50 83 51 34 52
REMARK SMILES IDX 86 53 80 54 79 55 35 57 67 58 47 59 66 60 48 61 51 62 65 63
REMARK SMILES IDX 84 64 49 65 50 66 64 68 85 69 52 70 36 71 37 72 45 73 38 74
REMARK SMILES IDX 40 75 46 76 39 77 41 78 42 79 43 80 44 81 68 82 69 83 77 84
REMARK SMILES IDX 70 85 72 86 78 87 71 88 73 89 74 90 75 91 76 92 53 93 54 94
REMARK SMILES IDX 62 95 55 96 57 97 63 98 56 99 58 100 59 101 60 102 61 103
REMARK H PARENT 13 17 83 56 51 67
REMARK Flexibility Score: inf
ROOT
ATOM      1  O   UNL A   1      31.778  29.309  25.849  1.00  0.00    -0.374 OA
ENDROOT
BRANCH   1   2
ATOM      2  C   UNL A   1      31.180  29.770  24.637  1.00  0.00     0.202 C 
BRANCH   2   3
ATOM      3  C   UNL A   1      31.629  29.163  23.305  1.00  0.00     0.261 C 
BRANCH   3   4
ATOM      4  O   UNL A   1      30.544  28.641  22.525  1.00  0.00    -0.460 OA
BRANCH   4   5
ATOM      5  C   UNL A   1      29.840  27.645  23.129  1.00  0.00     0.341 C 
ATOM      6  O   UNL A   1      28.627  27.684  23.355  1.00  0.00    -0.246 OA
BRANCH   5   7
ATOM      7  C   UNL A   1      30.631  26.453  23.365  1.00  0.00     0.102 A 
ATOM      8  C   UNL A   1      33.083  23.743  22.637  1.00  0.00     0.078 C 
ATOM      9  C   UNL A   1      33.013  23.786  21.100  1.00  0.00     0.115 C 
ATOM     10  C   UNL A   1      32.075  24.705  23.223  1.00  0.00     0.055 A 
ATOM     11  C   UNL A   1      32.701  25.153  20.515  1.00  0.00     0.225 C 
ATOM     12  C   UNL A   1      31.477  25.719  22.505  1.00  0.00     0.078 A 
ATOM     13  N   UNL A   1      31.641  24.813  24.534  1.00  0.00    -0.317 N 
ATOM     14  O   UNL A   1      33.151  25.521  19.431  1.00  0.00    -0.275 OA
ATOM     15  N   UNL A   1      31.814  25.947  21.195  1.00  0.00    -0.324 N 
ATOM     16  C   UNL A   1      30.673  25.790  24.583  1.00  0.00     0.109 A 
ATOM     17  H   UNL A   1      31.403  26.708  20.726  1.00  0.00     0.170 HD
BRANCH   8  18
ATOM     18  C   UNL A   1      33.030  22.286  23.098  1.00  0.00    -0.038 A 
ATOM     19  C   UNL A   1      32.981  19.526  23.718  1.00  0.00     0.060 A 
ATOM     20  C   UNL A   1      32.019  20.073  22.864  1.00  0.00     0.016 A 
ATOM     21  C   UNL A   1      33.916  20.371  24.321  1.00  0.00     0.016 A 
ATOM     22  C   UNL A   1      32.049  21.437  22.554  1.00  0.00     0.005 A 
ATOM     23  C   UNL A   1      33.909  21.743  24.046  1.00  0.00     0.005 A 
BRANCH  19  24
ATOM     24  C   UNL A   1      32.996  18.055  23.929  1.00  0.00     0.337 C 
ATOM     25  O   UNL A   1      33.027  17.239  23.019  1.00  0.00    -0.246 OA
BRANCH  24  26
ATOM     26  O   UNL A   1      33.001  17.771  25.255  1.00  0.00    -0.465 OA
ATOM     27  C   UNL A   1      32.746  16.404  25.569  1.00  0.00     0.282 C 
ENDBRANCH  24  26
ENDBRANCH  19  24
ENDBRANCH   8  18
BRANCH  13  28
ATOM     28  C   UNL A   1      32.095  24.103  25.665  1.00  0.00     0.045 A 
ATOM     29  C   UNL A   1      33.384  24.336  26.149  1.00  0.00     0.026 A 
ATOM     30  C   UNL A   1      31.279  23.117  26.233  1.00  0.00     0.026 A 
ATOM     31  C   UNL A   1      33.881  23.542  27.179  1.00  0.00     0.002 A 
ATOM     32  C   UNL A   1      31.803  22.297  27.231  1.00  0.00     0.002 A 
ATOM     33  C   UNL A   1      33.102  22.507  27.699  1.00  0.00     0.000 A 
ENDBRANCH  13  28
ENDBRANCH   5   7
ENDBRANCH   4   5
ENDBRANCH   3   4
ENDBRANCH   2   3
ENDBRANCH   1   2
BRANCH   1  34
ATOM     34  C   UNL A   1      33.133  28.872  25.877  1.00  0.00     0.202 C 
BRANCH  34  35
ATOM     35  C   UNL A   1      33.880  28.824  27.201  1.00  0.00     0.261 C 
BRANCH  35  36
ATOM     36  O   UNL A   1      35.103  29.529  27.126  1.00  0.00    -0.460 OA
BRANCH  36  37
ATOM     37  C   UNL A   1      35.105  30.690  27.811  1.00  0.00     0.338 C 
ATOM     38  O   UNL A   1      34.467  31.705  27.554  1.00  0.00    -0.246 OA
BRANCH  37  39
ATOM     39  C   UNL A   1      36.104  30.594  28.873  1.00  0.00     0.060 A 
ATOM     40  C   UNL A   1      37.154  31.507  28.782  1.00  0.00     0.016 A 
ATOM     41  C   UNL A   1      36.202  29.391  29.587  1.00  0.00     0.016 A 
ATOM     42  C   UNL A   1      38.408  31.049  29.094  1.00  0.00     0.010 A 
ATOM     43  C   UNL A   1      37.453  28.932  29.883  1.00  0.00     0.010 A 
ATOM     44  C   UNL A   1      38.537  29.721  29.510  1.00  0.00    -0.014 A 
BRANCH  44  45
ATOM     45  C   UNL A   1      39.862  29.182  29.669  1.00  0.00     0.031 A 
ATOM     46  C   UNL A   1      40.302  29.333  31.072  1.00  0.00     0.074 A 
ATOM     47  C   UNL A   1      40.496  28.557  28.658  1.00  0.00     0.049 A 
ATOM     48  N   UNL A   1      41.132  30.207  31.536  1.00  0.00    -0.248 NA
ATOM     49  C   UNL A   1      39.504  28.655  32.110  1.00  0.00     0.031 C 
ATOM     50  C   UNL A   1      39.966  28.158  27.348  1.00  0.00     0.029 A 
ATOM     51  N   UNL A   1      41.740  28.021  28.641  1.00  0.00    -0.354 N 
ATOM     52  C   UNL A   1      41.163  29.956  32.903  1.00  0.00     0.074 A 
ATOM     53  C   UNL A   1      39.948  29.259  33.212  1.00  0.00     0.031 C 
ATOM     54  C   UNL A   1      40.779  27.216  26.810  1.00  0.00     0.029 A 
ATOM     55  C   UNL A   1      41.932  27.039  27.675  1.00  0.00     0.049 A 
ATOM     56  H   UNL A   1      42.450  28.304  29.262  1.00  0.00     0.167 HD
ATOM     57  C   UNL A   1      42.342  29.990  33.581  1.00  0.00     0.034 A 
ATOM     58  C   UNL A   1      42.914  26.097  27.674  1.00  0.00     0.034 A 
ATOM     59  C   UNL A   1      43.347  30.693  32.821  1.00  0.00     0.049 A 
ATOM     60  C   UNL A   1      43.965  26.567  28.612  1.00  0.00     0.074 A 
ATOM     61  C   UNL A   1      43.457  31.966  32.299  1.00  0.00     0.029 A 
ATOM     62  N   UNL A   1      44.245  29.912  32.131  1.00  0.00    -0.354 N 
ATOM     63  N   UNL A   1      44.674  27.642  28.402  1.00  0.00    -0.248 NA
ATOM     64  C   UNL A   1      43.858  26.146  30.003  1.00  0.00     0.031 C 
ATOM     65  C   UNL A   1      44.070  31.786  31.024  1.00  0.00     0.029 A 
ATOM     66  C   UNL A   1      44.387  30.434  30.874  1.00  0.00     0.049 A 
ATOM     67  H   UNL A   1      44.705  29.116  32.481  1.00  0.00     0.167 HD
ATOM     68  C   UNL A   1      44.693  28.285  29.634  1.00  0.00     0.074 A 
ATOM     69  C   UNL A   1      44.247  27.278  30.599  1.00  0.00     0.031 C 
ATOM     70  C   UNL A   1      44.747  29.645  29.716  1.00  0.00     0.034 A 
BRANCH  57  71
ATOM     71  C   UNL A   1      42.717  29.019  34.681  1.00  0.00     0.023 A 
ATOM     72  C   UNL A   1      43.283  29.579  35.847  1.00  0.00     0.012 A 
ATOM     73  C   UNL A   1      42.817  27.613  34.540  1.00  0.00     0.148 A 
ATOM     74  C   UNL A   1      43.970  28.796  36.779  1.00  0.00     0.002 A 
ATOM     75  C   UNL A   1      43.436  26.829  35.503  1.00  0.00     0.091 A 
ATOM     76  F   UNL A   1      42.432  27.012  33.416  1.00  0.00    -0.205 F 
ATOM     77  C   UNL A   1      44.045  27.418  36.609  1.00  0.00     0.022 A 
BRANCH  75  78
ATOM     78  S   UNL A   1      43.536  25.038  35.342  1.00  0.00     0.127 S 
ATOM     79  O   UNL A   1      44.192  24.671  36.593  1.00  0.00    -0.237 OA
ATOM     80  O   UNL A   1      42.123  24.673  35.249  1.00  0.00    -0.237 OA
ATOM     81  O   UNL A   1      44.299  24.790  34.126  1.00  0.00    -0.744 OA
ENDBRANCH  75  78
ENDBRANCH  57  71
BRANCH  58  82
ATOM     82  C   UNL A   1      42.838  24.675  27.241  1.00  0.00     0.023 A 
ATOM     83  C   UNL A   1      41.643  23.941  27.393  1.00  0.00     0.012 A 
ATOM     84  C   UNL A   1      43.850  24.120  26.425  1.00  0.00     0.148 A 
ATOM     85  C   UNL A   1      41.460  22.708  26.746  1.00  0.00     0.002 A 
ATOM     86  C   UNL A   1      43.670  22.891  25.794  1.00  0.00     0.091 A 
ATOM     87  F   UNL A   1      44.954  24.840  26.193  1.00  0.00    -0.205 F 
ATOM     88  C   UNL A   1      42.470  22.186  25.943  1.00  0.00     0.022 A 
BRANCH  86  89
ATOM     89  S   UNL A   1      44.927  22.173  24.726  1.00  0.00     0.127 S 
ATOM     90  O   UNL A   1      46.044  21.999  25.654  1.00  0.00    -0.237 OA
ATOM     91  O   UNL A   1      44.287  20.932  24.297  1.00  0.00    -0.237 OA
ATOM     92  O   UNL A   1      45.167  23.153  23.675  1.00  0.00    -0.744 OA
ENDBRANCH  86  89
ENDBRANCH  58  82
BRANCH  70  93
ATOM     93  C   UNL A   1      45.010  30.425  28.451  1.00  0.00     0.023 A 
ATOM     94  C   UNL A   1      43.981  30.925  27.624  1.00  0.00     0.012 A 
ATOM     95  C   UNL A   1      46.330  30.840  28.222  1.00  0.00     0.148 A 
ATOM     96  C   UNL A   1      44.271  31.818  26.586  1.00  0.00     0.002 A 
ATOM     97  C   UNL A   1      46.606  31.766  27.227  1.00  0.00     0.091 A 
ATOM     98  F   UNL A   1      47.289  30.356  29.026  1.00  0.00    -0.205 F 
ATOM     99  C   UNL A   1      45.583  32.252  26.400  1.00  0.00     0.022 A 
BRANCH  97 100
ATOM    100  S   UNL A   1      48.246  32.465  27.039  1.00  0.00     0.127 S 
ATOM    101  O   UNL A   1      49.021  31.305  26.604  1.00  0.00    -0.237 OA
ATOM    102  O   UNL A   1      48.033  33.483  26.009  1.00  0.00    -0.237 OA
ATOM    103  O   UNL A   1      48.609  33.004  28.343  1.00  0.00    -0.744 OA
ENDBRANCH  97 100
ENDBRANCH  70  93
ENDBRANCH  44  45
ENDBRANCH  37  39
ENDBRANCH  36  37
ENDBRANCH  35  36
ENDBRANCH  34  35
ENDBRANCH   1  34
TORSDOF 21
ENDMDL
MODEL 2
REMARK VINA RESULT:     -11.9      1.859      2.891
REMARK SMILES COC(=O)c1ccc([C@H]2CC(=O)Nc3c(C(=O)OCCOCCOC(=O)c4ccc(-c5c6nc(c(-c7cccc(S(=O)(=O)[O-])c7F)c7ccc([nH]7)c(-c7cccc(S(=O)(=O)[O-])c7F)c7nc(c(-c8cccc(S(=O)(=O)[O-])c8F)c8ccc5[nH]8)C=C7)C=C6)cc4)cn(-c4ccccc4)c32)cc1
REMARK SMILES IDX 21 1 20 2 19 3 18 4 16 5 17 6 15 7 9 8 10 9 98 10 11 11
REMARK SMILES IDX 14 12 91 13 12 14 13 15 90 16 8 18 5 19 6 20 100 21 7 22
REMARK SMILES IDX 99 23 3 24 4 25 2 26 1 27 92 28 93 29 97 30 94 31 96 32
REMARK SMILES IDX 95 33 22 34 23 35 24 36 25 37 26 38 27 39 28 40 89 41 29 42
REMARK SMILES IDX 88 43 30 44 31 45 32 46 82 47 33 48 87 49 81 50 83 51 34 52
REMARK SMILES IDX 86 53 80 54 79 55 35 57 67 58 47 59 66 60 48 61 51 62 65 63
REMARK SMILES IDX 84 64 49 65 50 66 64 68 85 69 52 70 36 71 37 72 45 73 38 74
REMARK SMILES IDX 40 75 46 76 39 77 41 78 42 79 43 80 44 81 68 82 69 83 77 84
REMARK SMILES IDX 70 85 72 86 78 87 71 88 73 89 74 90 75 91 76 92 53 93 54 94
REMARK SMILES IDX 62 95 55 96 57 97 63 98 56 99 58 100 59 101 60 102 61 103
REMARK H PARENT 13 17 83 56 51 67
REMARK Flexibility Score: inf
ROOT
ATOM      1  O   UNL A   1      34.887  32.272  27.878  1.00  0.00    -0.374 OA
ENDROOT
BRANCH   1   2
ATOM      2  C   UNL A   1      34.037  31.191  27.493  1.00  0.00     0.202 C 
BRANCH   2   3
ATOM      3  C   UNL A   1      34.597  29.766  27.487  1.00  0.00     0.261 C 
BRANCH   3   4
ATOM      4  O   UNL A   1      34.112  28.971  26.396  1.00  0.00    -0.460 OA
BRANCH   4   5
ATOM      5  C   UNL A   1      32.999  28.240  26.677  1.00  0.00     0.341 C 
ATOM      6  O   UNL A   1      32.040  28.650  27.337  1.00  0.00    -0.246 OA
BRANCH   5   7
ATOM      7  C   UNL A   1      32.980  26.955  26.004  1.00  0.00     0.102 A 
ATOM      8  C   UNL A   1      31.698  24.237  23.799  1.00  0.00     0.078 C 
ATOM      9  C   UNL A   1      30.205  24.607  23.836  1.00  0.00     0.115 C 
ATOM     10  C   UNL A   1      32.474  25.147  24.725  1.00  0.00     0.055 A 
ATOM     11  C   UNL A   1      29.919  26.089  24.010  1.00  0.00     0.225 C 
ATOM     12  C   UNL A   1      31.985  26.340  25.213  1.00  0.00     0.078 A 
ATOM     13  N   UNL A   1      33.779  25.020  25.171  1.00  0.00    -0.317 N 
ATOM     14  O   UNL A   1      28.935  26.630  23.508  1.00  0.00    -0.275 OA
ATOM     15  N   UNL A   1      30.751  26.803  24.832  1.00  0.00    -0.324 N 
ATOM     16  C   UNL A   1      34.032  26.052  26.046  1.00  0.00     0.109 A 
ATOM     17  H   UNL A   1      30.452  27.681  25.163  1.00  0.00     0.170 HD
BRANCH   8  18
ATOM     18  C   UNL A   1      31.844  22.728  23.995  1.00  0.00    -0.038 A 
ATOM     19  C   UNL A   1      32.338  19.956  24.264  1.00  0.00     0.060 A 
ATOM     20  C   UNL A   1      32.276  20.540  22.997  1.00  0.00     0.016 A 
ATOM     21  C   UNL A   1      32.076  20.742  25.390  1.00  0.00     0.016 A 
ATOM     22  C   UNL A   1      32.037  21.912  22.865  1.00  0.00     0.005 A 
ATOM     23  C   UNL A   1      31.788  22.103  25.249  1.00  0.00     0.005 A 
BRANCH  19  24
ATOM     24  C   UNL A   1      32.716  18.522  24.374  1.00  0.00     0.337 C 
ATOM     25  O   UNL A   1      32.731  17.903  25.428  1.00  0.00    -0.246 OA
BRANCH  24  26
ATOM     26  O   UNL A   1      33.003  18.018  23.149  1.00  0.00    -0.465 OA
ATOM     27  C   UNL A   1      33.949  16.951  23.155  1.00  0.00     0.282 C 
ENDBRANCH  24  26
ENDBRANCH  19  24
ENDBRANCH   8  18
BRANCH  13  28
ATOM     28  C   UNL A   1      34.736  24.051  24.806  1.00  0.00     0.045 A 
ATOM     29  C   UNL A   1      35.352  23.286  25.798  1.00  0.00     0.026 A 
ATOM     30  C   UNL A   1      35.115  23.930  23.463  1.00  0.00     0.026 A 
ATOM     31  C   UNL A   1      36.391  22.427  25.453  1.00  0.00     0.002 A 
ATOM     32  C   UNL A   1      36.188  23.102  23.135  1.00  0.00     0.002 A 
ATOM     33  C   UNL A   1      36.826  22.356  24.128  1.00  0.00     0.000 A 
ENDBRANCH  13  28
ENDBRANCH   5   7
ENDBRANCH   4   5
ENDBRANCH   3   4
ENDBRANCH   2   3
ENDBRANCH   1   2
BRANCH   1  34
ATOM     34  C   UNL A   1      34.419  33.298  28.748  1.00  0.00     0.202 C 
BRANCH  34  35
ATOM     35  C   UNL A   1      34.398  33.058  30.250  1.00  0.00     0.261 C 
BRANCH  35  36
ATOM     36  O   UNL A   1      35.706  32.893  30.761  1.00  0.00    -0.460 OA
BRANCH  36  37
ATOM     37  C   UNL A   1      35.944  31.661  31.256  1.00  0.00     0.338 C 
ATOM     38  O   UNL A   1      35.660  31.241  32.372  1.00  0.00    -0.246 OA
BRANCH  37  39
ATOM     39  C   UNL A   1      36.724  30.914  30.271  1.00  0.00     0.060 A 
ATOM     40  C   UNL A   1      36.766  29.535  30.472  1.00  0.00     0.016 A 
ATOM     41  C   UNL A   1      37.692  31.605  29.527  1.00  0.00     0.016 A 
ATOM     42  C   UNL A   1      37.963  28.908  30.242  1.00  0.00     0.010 A 
ATOM     43  C   UNL A   1      38.887  30.981  29.312  1.00  0.00     0.010 A 
ATOM     44  C   UNL A   1      39.035  29.684  29.793  1.00  0.00    -0.014 A 
BRANCH  44  45
ATOM     45  C   UNL A   1      40.336  29.071  29.719  1.00  0.00     0.031 A 
ATOM     46  C   UNL A   1      40.915  28.955  31.074  1.00  0.00     0.074 A 
ATOM     47  C   UNL A   1      40.832  28.607  28.556  1.00  0.00     0.049 A 
ATOM     48  N   UNL A   1      41.836  29.698  31.592  1.00  0.00    -0.248 NA
ATOM     49  C   UNL A   1      40.181  28.139  32.058  1.00  0.00     0.031 C 
ATOM     50  C   UNL A   1      40.159  28.468  27.259  1.00  0.00     0.029 A 
ATOM     51  N   UNL A   1      42.036  28.032  28.319  1.00  0.00    -0.354 N 
ATOM     52  C   UNL A   1      41.981  29.210  32.885  1.00  0.00     0.074 A 
ATOM     53  C   UNL A   1      40.762  28.521  33.194  1.00  0.00     0.031 C 
ATOM     54  C   UNL A   1      40.859  27.602  26.487  1.00  0.00     0.029 A 
ATOM     55  C   UNL A   1      42.077  27.228  27.184  1.00  0.00     0.049 A 
ATOM     56  H   UNL A   1      42.817  28.171  28.902  1.00  0.00     0.167 HD
ATOM     57  C   UNL A   1      43.219  29.075  33.433  1.00  0.00     0.034 A 
ATOM     58  C   UNL A   1      42.997  26.260  26.921  1.00  0.00     0.034 A 
ATOM     59  C   UNL A   1      44.187  29.858  32.704  1.00  0.00     0.049 A 
ATOM     60  C   UNL A   1      44.159  26.514  27.812  1.00  0.00     0.074 A 
ATOM     61  C   UNL A   1      44.322  31.198  32.398  1.00  0.00     0.029 A 
ATOM     62  N   UNL A   1      44.968  29.175  31.801  1.00  0.00    -0.354 N 
ATOM     63  N   UNL A   1      44.906  27.579  27.716  1.00  0.00    -0.248 NA
ATOM     64  C   UNL A   1      44.159  25.860  29.113  1.00  0.00     0.031 C 
ATOM     65  C   UNL A   1      44.799  31.219  31.055  1.00  0.00     0.029 A 
ATOM     66  C   UNL A   1      45.021  29.903  30.644  1.00  0.00     0.049 A 
ATOM     67  H   UNL A   1      45.411  28.311  31.960  1.00  0.00     0.167 HD
ATOM     68  C   UNL A   1      45.080  27.994  29.031  1.00  0.00     0.074 A 
ATOM     69  C   UNL A   1      44.669  26.852  29.851  1.00  0.00     0.031 C 
ATOM     70  C   UNL A   1      45.222  29.316  29.337  1.00  0.00     0.034 A 
BRANCH  57  71
ATOM     71  C   UNL A   1      43.639  27.911  34.306  1.00  0.00     0.023 A 
ATOM     72  C   UNL A   1      44.278  28.237  35.522  1.00  0.00     0.012 A 
ATOM     73  C   UNL A   1      43.706  26.557  33.897  1.00  0.00     0.148 A 
ATOM     74  C   UNL A   1      45.003  27.287  36.248  1.00  0.00     0.002 A 
ATOM     75  C   UNL A   1      44.365  25.601  34.657  1.00  0.00     0.091 A 
ATOM     76  F   UNL A   1      43.249  26.182  32.704  1.00  0.00    -0.205 F 
ATOM     77  C   UNL A   1      45.045  25.967  35.816  1.00  0.00     0.022 A 
BRANCH  75  78
ATOM     78  S   UNL A   1      44.426  23.873  34.155  1.00  0.00     0.127 S 
ATOM     79  O   UNL A   1      45.228  23.953  32.938  1.00  0.00    -0.237 OA
ATOM     80  O   UNL A   1      45.093  23.257  35.302  1.00  0.00    -0.237 OA
ATOM     81  O   UNL A   1      43.039  23.460  33.979  1.00  0.00    -0.744 OA
ENDBRANCH  75  78
ENDBRANCH  57  71
BRANCH  58  82
ATOM     82  C   UNL A   1      42.797  24.941  26.262  1.00  0.00     0.023 A 
ATOM     83  C   UNL A   1      43.738  24.455  25.330  1.00  0.00     0.012 A 
ATOM     84  C   UNL A   1      41.829  24.035  26.751  1.00  0.00     0.148 A 
ATOM     85  C   UNL A   1      43.722  23.114  24.913  1.00  0.00     0.002 A 
ATOM     86  C   UNL A   1      41.808  22.709  26.327  1.00  0.00     0.091 A 
ATOM     87  F   UNL A   1      40.985  24.450  27.703  1.00  0.00    -0.205 F 
ATOM     88  C   UNL A   1      42.760  22.241  25.414  1.00  0.00     0.022 A 
BRANCH  86  89
ATOM     89  S   UNL A   1      40.608  21.524  26.953  1.00  0.00     0.127 S 
ATOM     90  O   UNL A   1      39.343  22.205  26.675  1.00  0.00    -0.237 OA
ATOM     91  O   UNL A   1      40.872  20.355  26.119  1.00  0.00    -0.237 OA
ATOM     92  O   UNL A   1      40.904  21.366  28.371  1.00  0.00    -0.744 OA
ENDBRANCH  86  89
ENDBRANCH  58  82
BRANCH  70  93
ATOM     93  C   UNL A   1      45.409  30.294  28.204  1.00  0.00     0.023 A 
ATOM     94  C   UNL A   1      44.333  30.882  27.505  1.00  0.00     0.012 A 
ATOM     95  C   UNL A   1      46.706  30.785  27.995  1.00  0.00     0.148 A 
ATOM     96  C   UNL A   1      44.553  31.938  26.613  1.00  0.00     0.002 A 
ATOM     97  C   UNL A   1      46.914  31.866  27.151  1.00  0.00     0.091 A 
ATOM     98  F   UNL A   1      47.711  30.214  28.676  1.00  0.00    -0.205 F 
ATOM     99  C   UNL A   1      45.843  32.441  26.449  1.00  0.00     0.022 A 
BRANCH  97 100
ATOM    100  S   UNL A   1      48.523  32.642  27.015  1.00  0.00     0.127 S 
ATOM    101  O   UNL A   1      48.795  33.019  28.401  1.00  0.00    -0.237 OA
ATOM    102  O   UNL A   1      49.353  31.551  26.501  1.00  0.00    -0.237 OA
ATOM    103  O   UNL A   1      48.360  33.754  26.087  1.00  0.00    -0.744 OA
ENDBRANCH  97 100
ENDBRANCH  70  93
ENDBRANCH  44  45
ENDBRANCH  37  39
ENDBRANCH  36  37
ENDBRANCH  35  36
ENDBRANCH  34  35
ENDBRANCH   1  34
TORSDOF 21
ENDMDL
MODEL 3
REMARK VINA RESULT:     -11.8      1.854      2.864
REMARK SMILES COC(=O)c1ccc([C@H]2CC(=O)Nc3c(C(=O)OCCOCCOC(=O)c4ccc(-c5c6nc(c(-c7cccc(S(=O)(=O)[O-])c7F)c7ccc([nH]7)c(-c7cccc(S(=O)(=O)[O-])c7F)c7nc(c(-c8cccc(S(=O)(=O)[O-])c8F)c8ccc5[nH]8)C=C7)C=C6)cc4)cn(-c4ccccc4)c32)cc1
REMARK SMILES IDX 21 1 20 2 19 3 18 4 16 5 17 6 15 7 9 8 10 9 98 10 11 11
REMARK SMILES IDX 14 12 91 13 12 14 13 15 90 16 8 18 5 19 6 20 100 21 7 22
REMARK SMILES IDX 99 23 3 24 4 25 2 26 1 27 92 28 93 29 97 30 94 31 96 32
REMARK SMILES IDX 95 33 22 34 23 35 24 36 25 37 26 38 27 39 28 40 89 41 29 42
REMARK SMILES IDX 88 43 30 44 31 45 32 46 82 47 33 48 87 49 81 50 83 51 34 52
REMARK SMILES IDX 86 53 80 54 79 55 35 57 67 58 47 59 66 60 48 61 51 62 65 63
REMARK SMILES IDX 84 64 49 65 50 66 64 68 85 69 52 70 36 71 37 72 45 73 38 74
REMARK SMILES IDX 40 75 46 76 39 77 41 78 42 79 43 80 44 81 68 82 69 83 77 84
REMARK SMILES IDX 70 85 72 86 78 87 71 88 73 89 74 90 75 91 76 92 53 93 54 94
REMARK SMILES IDX 62 95 55 96 57 97 63 98 56 99 58 100 59 101 60 102 61 103
REMARK H PARENT 13 17 83 56 51 67
REMARK Flexibility Score: inf
ROOT
ATOM      1  O   UNL A   1      35.156  32.164  28.131  1.00  0.00    -0.374 OA
ENDROOT
BRANCH   1   2
ATOM      2  C   UNL A   1      34.423  31.247  27.319  1.00  0.00     0.202 C 
BRANCH   2   3
ATOM      3  C   UNL A   1      34.471  29.752  27.651  1.00  0.00     0.261 C 
BRANCH   3   4
ATOM      4  O   UNL A   1      34.060  28.916  26.560  1.00  0.00    -0.460 OA
BRANCH   4   5
ATOM      5  C   UNL A   1      32.966  28.148  26.814  1.00  0.00     0.341 C 
ATOM      6  O   UNL A   1      31.999  28.510  27.491  1.00  0.00    -0.246 OA
BRANCH   5   7
ATOM      7  C   UNL A   1      32.976  26.890  26.093  1.00  0.00     0.102 A 
ATOM      8  C   UNL A   1      31.770  24.244  23.762  1.00  0.00     0.078 C 
ATOM      9  C   UNL A   1      30.271  24.594  23.785  1.00  0.00     0.115 C 
ATOM     10  C   UNL A   1      32.517  25.127  24.736  1.00  0.00     0.055 A 
ATOM     11  C   UNL A   1      29.963  26.065  24.010  1.00  0.00     0.225 C 
ATOM     12  C   UNL A   1      32.003  26.295  25.260  1.00  0.00     0.078 A 
ATOM     13  N   UNL A   1      33.815  24.998  25.202  1.00  0.00    -0.317 N 
ATOM     14  O   UNL A   1      28.982  26.613  23.510  1.00  0.00    -0.275 OA
ATOM     15  N   UNL A   1      30.771  26.757  24.874  1.00  0.00    -0.324 N 
ATOM     16  C   UNL A   1      34.038  26.000  26.120  1.00  0.00     0.109 A 
ATOM     17  H   UNL A   1      30.454  27.618  25.232  1.00  0.00     0.170 HD
BRANCH   8  18
ATOM     18  C   UNL A   1      31.931  22.731  23.902  1.00  0.00    -0.038 A 
ATOM     19  C   UNL A   1      32.456  19.956  24.076  1.00  0.00     0.060 A 
ATOM     20  C   UNL A   1      32.414  20.589  22.831  1.00  0.00     0.016 A 
ATOM     21  C   UNL A   1      32.158  20.694  25.225  1.00  0.00     0.016 A 
ATOM     22  C   UNL A   1      32.160  21.962  22.747  1.00  0.00     0.005 A 
ATOM     23  C   UNL A   1      31.855  22.057  25.130  1.00  0.00     0.005 A 
BRANCH  19  24
ATOM     24  C   UNL A   1      32.850  18.524  24.138  1.00  0.00     0.337 C 
ATOM     25  O   UNL A   1      33.845  18.070  23.592  1.00  0.00    -0.246 OA
BRANCH  24  26
ATOM     26  O   UNL A   1      31.972  17.829  24.902  1.00  0.00    -0.465 OA
ATOM     27  C   UNL A   1      32.569  17.082  25.959  1.00  0.00     0.282 C 
ENDBRANCH  24  26
ENDBRANCH  19  24
ENDBRANCH   8  18
BRANCH  13  28
ATOM     28  C   UNL A   1      34.790  24.056  24.818  1.00  0.00     0.045 A 
ATOM     29  C   UNL A   1      35.205  24.001  23.485  1.00  0.00     0.026 A 
ATOM     30  C   UNL A   1      35.265  23.133  25.759  1.00  0.00     0.026 A 
ATOM     31  C   UNL A   1      36.065  22.985  23.078  1.00  0.00     0.002 A 
ATOM     32  C   UNL A   1      36.088  22.092  25.330  1.00  0.00     0.002 A 
ATOM     33  C   UNL A   1      36.484  22.017  23.993  1.00  0.00     0.000 A 
ENDBRANCH  13  28
ENDBRANCH   5   7
ENDBRANCH   4   5
ENDBRANCH   3   4
ENDBRANCH   2   3
ENDBRANCH   1   2
BRANCH   1  34
ATOM     34  C   UNL A   1      34.502  32.946  29.126  1.00  0.00     0.202 C 
BRANCH  34  35
ATOM     35  C   UNL A   1      34.766  32.666  30.597  1.00  0.00     0.261 C 
BRANCH  35  36
ATOM     36  O   UNL A   1      36.152  32.626  30.870  1.00  0.00    -0.460 OA
BRANCH  36  37
ATOM     37  C   UNL A   1      36.584  31.429  31.320  1.00  0.00     0.338 C 
ATOM     38  O   UNL A   1      36.241  30.855  32.348  1.00  0.00    -0.246 OA
BRANCH  37  39
ATOM     39  C   UNL A   1      37.644  30.960  30.430  1.00  0.00     0.060 A 
ATOM     40  C   UNL A   1      37.575  29.610  30.089  1.00  0.00     0.016 A 
ATOM     41  C   UNL A   1      38.832  31.703  30.361  1.00  0.00     0.016 A 
ATOM     42  C   UNL A   1      38.758  28.920  30.032  1.00  0.00     0.010 A 
ATOM     43  C   UNL A   1      40.008  31.011  30.319  1.00  0.00     0.010 A 
ATOM     44  C   UNL A   1      39.940  29.622  30.285  1.00  0.00    -0.014 A 
BRANCH  44  45
ATOM     45  C   UNL A   1      41.165  28.874  30.402  1.00  0.00     0.031 A 
ATOM     46  C   UNL A   1      41.569  28.791  31.821  1.00  0.00     0.074 A 
ATOM     47  C   UNL A   1      41.736  28.283  29.335  1.00  0.00     0.049 A 
ATOM     48  N   UNL A   1      42.501  29.468  32.405  1.00  0.00    -0.248 NA
ATOM     49  C   UNL A   1      40.641  28.124  32.754  1.00  0.00     0.031 C 
ATOM     50  C   UNL A   1      41.203  28.126  27.976  1.00  0.00     0.029 A 
ATOM     51  N   UNL A   1      42.887  27.572  29.277  1.00  0.00    -0.354 N 
ATOM     52  C   UNL A   1      42.444  29.057  33.731  1.00  0.00     0.074 A 
ATOM     53  C   UNL A   1      41.128  28.520  33.929  1.00  0.00     0.031 C 
ATOM     54  C   UNL A   1      41.887  27.142  27.343  1.00  0.00     0.029 A 
ATOM     55  C   UNL A   1      42.968  26.692  28.202  1.00  0.00     0.049 A 
ATOM     56  H   UNL A   1      43.608  27.668  29.942  1.00  0.00     0.167 HD
ATOM     57  C   UNL A   1      43.588  28.831  34.431  1.00  0.00     0.034 A 
ATOM     58  C   UNL A   1      43.799  25.619  28.106  1.00  0.00     0.034 A 
ATOM     59  C   UNL A   1      44.714  29.459  33.782  1.00  0.00     0.049 A 
ATOM     60  C   UNL A   1      44.873  25.811  29.114  1.00  0.00     0.074 A 
ATOM     61  C   UNL A   1      45.030  30.753  33.421  1.00  0.00     0.029 A 
ATOM     62  N   UNL A   1      45.512  28.638  33.019  1.00  0.00    -0.354 N 
ATOM     63  N   UNL A   1      45.739  26.783  29.051  1.00  0.00    -0.248 NA
ATOM     64  C   UNL A   1      44.652  25.250  30.441  1.00  0.00     0.031 C 
ATOM     65  C   UNL A   1      45.657  30.634  32.146  1.00  0.00     0.029 A 
ATOM     66  C   UNL A   1      45.777  29.277  31.838  1.00  0.00     0.049 A 
ATOM     67  H   UNL A   1      45.835  27.746  33.278  1.00  0.00     0.167 HD
ATOM     68  C   UNL A   1      45.808  27.267  30.352  1.00  0.00     0.074 A 
ATOM     69  C   UNL A   1      45.182  26.232  31.178  1.00  0.00     0.031 C 
ATOM     70  C   UNL A   1      46.059  28.584  30.600  1.00  0.00     0.034 A 
BRANCH  57  71
ATOM     71  C   UNL A   1      43.774  27.693  35.412  1.00  0.00     0.023 A 
ATOM     72  C   UNL A   1      44.156  28.049  36.723  1.00  0.00     0.012 A 
ATOM     73  C   UNL A   1      43.878  26.322  35.071  1.00  0.00     0.148 A 
ATOM     74  C   UNL A   1      44.679  27.109  37.617  1.00  0.00     0.002 A 
ATOM     75  C   UNL A   1      44.329  25.379  35.984  1.00  0.00     0.091 A 
ATOM     76  F   UNL A   1      43.668  25.911  33.822  1.00  0.00    -0.205 F 
ATOM     77  C   UNL A   1      44.763  25.772  37.248  1.00  0.00     0.022 A 
BRANCH  75  78
ATOM     78  S   UNL A   1      44.432  23.631  35.565  1.00  0.00     0.127 S 
ATOM     79  O   UNL A   1      45.015  23.075  36.782  1.00  0.00    -0.237 OA
ATOM     80  O   UNL A   1      43.025  23.300  35.340  1.00  0.00    -0.237 OA
ATOM     81  O   UNL A   1      45.261  23.557  34.369  1.00  0.00    -0.744 OA
ENDBRANCH  75  78
ENDBRANCH  57  71
BRANCH  58  82
ATOM     82  C   UNL A   1      43.530  24.286  27.501  1.00  0.00     0.023 A 
ATOM     83  C   UNL A   1      42.275  23.663  27.666  1.00  0.00     0.012 A 
ATOM     84  C   UNL A   1      44.407  23.749  26.531  1.00  0.00     0.148 A 
ATOM     85  C   UNL A   1      41.905  22.557  26.885  1.00  0.00     0.002 A 
ATOM     86  C   UNL A   1      44.041  22.645  25.765  1.00  0.00     0.091 A 
ATOM     87  F   UNL A   1      45.564  24.379  26.293  1.00  0.00    -0.205 F 
ATOM     88  C   UNL A   1      42.785  22.051  25.932  1.00  0.00     0.022 A 
BRANCH  86  89
ATOM     89  S   UNL A   1      45.123  21.957  24.502  1.00  0.00     0.127 S 
ATOM     90  O   UNL A   1      46.361  21.747  25.252  1.00  0.00    -0.237 OA
ATOM     91  O   UNL A   1      44.416  20.735  24.131  1.00  0.00    -0.237 OA
ATOM     92  O   UNL A   1      45.217  22.972  23.460  1.00  0.00    -0.744 OA
ENDBRANCH  86  89
ENDBRANCH  58  82
BRANCH  70  93
ATOM     93  C   UNL A   1      46.481  29.458  29.445  1.00  0.00     0.023 A 
ATOM     94  C   UNL A   1      47.765  29.400  28.860  1.00  0.00     0.012 A 
ATOM     95  C   UNL A   1      45.476  30.199  28.807  1.00  0.00     0.148 A 
ATOM     96  C   UNL A   1      48.035  30.073  27.663  1.00  0.00     0.002 A 
ATOM     97  C   UNL A   1      45.732  30.821  27.594  1.00  0.00     0.091 A 
ATOM     98  F   UNL A   1      44.263  30.234  29.379  1.00  0.00    -0.205 F 
ATOM     99  C   UNL A   1      47.012  30.770  27.021  1.00  0.00     0.022 A 
BRANCH  97 100
ATOM    100  S   UNL A   1      44.421  31.606  26.658  1.00  0.00     0.127 S 
ATOM    101  O   UNL A   1      45.122  32.021  25.445  1.00  0.00    -0.237 OA
ATOM    102  O   UNL A   1      43.471  30.508  26.473  1.00  0.00    -0.237 OA
ATOM    103  O   UNL A   1      43.921  32.692  27.492  1.00  0.00    -0.744 OA
ENDBRANCH  97 100
ENDBRANCH  70  93
ENDBRANCH  44  45
ENDBRANCH  37  39
ENDBRANCH  36  37
ENDBRANCH  35  36
ENDBRANCH  34  35
ENDBRANCH   1  34
TORSDOF 21
ENDMDL
