MODEL 1
REMARK VINA RESULT:     -11.7      0.000      0.000
REMARK SMILES O=C(OCCOCCOC(=O)c1ccccc1Nc1cccc(S(F)(F)(F)(F)F)c1)c1ccc(-c2c3nc(c(-c4cccc(S(=O)(=O)[O-])c4F)c4ccc([nH]4)c(-c4cccc(S(=O)(=O)[O-])c4F)c4nc(c(-c5cccc(S(=O)(=O)[O-])c5F)c5ccc2[nH]5)C=C4)C=C3)cc1
REMARK SMILES IDX 6 1 5 2 4 3 3 4 2 5 1 6 31 7 32 8 93 9 33 10 92 11 34 12
REMARK SMILES IDX 35 13 36 14 86 15 37 16 91 17 85 18 87 19 38 20 90 21 84 22
REMARK SMILES IDX 83 23 39 25 71 26 51 27 70 28 52 29 55 30 69 31 88 32 53 33
REMARK SMILES IDX 54 34 68 36 89 37 56 38 40 39 41 40 49 41 42 42 44 43 50 44
REMARK SMILES IDX 43 45 45 46 46 47 47 48 48 49 72 50 73 51 81 52 74 53 76 54
REMARK SMILES IDX 82 55 75 56 77 57 78 58 79 59 80 60 57 61 58 62 66 63 59 64
REMARK SMILES IDX 61 65 67 66 60 67 62 68 63 69 64 70 65 71 7 72 8 73 9 74
REMARK SMILES IDX 10 75 11 76 12 77 13 78 17 79 14 80 16 81 15 82 18 83 19 85
REMARK SMILES IDX 20 86 30 87 21 88 23 89 22 90 24 91 25 92 26 93 27 94 28 95
REMARK SMILES IDX 29 96
REMARK H PARENT 87 24 55 35 18 84
REMARK Flexibility Score: inf
ROOT
ATOM      1  O   UNL A   1      37.320  20.737  24.735  1.00  0.00    -0.374 OA
ENDROOT
BRANCH   1   2
ATOM      2  C   UNL A   1      38.127  19.595  24.982  1.00  0.00     0.202 C 
BRANCH   2   3
ATOM      3  C   UNL A   1      39.328  19.996  25.824  1.00  0.00     0.261 C 
BRANCH   3   4
ATOM      4  O   UNL A   1      40.361  19.036  25.662  1.00  0.00    -0.460 OA
BRANCH   4   5
ATOM      5  C   UNL A   1      41.707  19.385  25.953  1.00  0.00     0.338 C 
ATOM      6  O   UNL A   1      42.624  18.512  25.860  1.00  0.00    -0.246 OA
BRANCH   5   7
ATOM      7  C   UNL A   1      42.049  20.805  26.376  1.00  0.00     0.060 A 
ATOM      8  C   UNL A   1      42.291  21.742  25.386  1.00  0.00     0.016 A 
ATOM      9  C   UNL A   1      42.207  21.104  27.660  1.00  0.00     0.016 A 
ATOM     10  C   UNL A   1      42.980  22.892  25.839  1.00  0.00     0.010 A 
ATOM     11  C   UNL A   1      42.762  22.304  28.035  1.00  0.00     0.010 A 
ATOM     12  C   UNL A   1      43.081  23.254  27.105  1.00  0.00    -0.014 A 
BRANCH  12  13
ATOM     13  C   UNL A   1      43.526  24.650  27.506  1.00  0.00     0.031 A 
ATOM     14  C   UNL A   1      44.875  24.998  27.423  1.00  0.00     0.074 A 
ATOM     15  C   UNL A   1      42.518  25.534  27.851  1.00  0.00     0.049 A 
ATOM     16  N   UNL A   1      45.419  26.201  27.618  1.00  0.00    -0.248 NA
ATOM     17  C   UNL A   1      45.951  24.053  27.090  1.00  0.00     0.031 C 
ATOM     18  C   UNL A   1      41.154  25.192  27.928  1.00  0.00     0.029 A 
ATOM     19  N   UNL A   1      42.638  26.867  28.175  1.00  0.00    -0.354 N 
ATOM     20  C   UNL A   1      46.739  26.146  27.431  1.00  0.00     0.074 A 
ATOM     21  C   UNL A   1      47.101  24.763  27.095  1.00  0.00     0.031 C 
ATOM     22  C   UNL A   1      40.462  26.300  28.305  1.00  0.00     0.029 A 
ATOM     23  C   UNL A   1      41.383  27.353  28.468  1.00  0.00     0.049 A 
ATOM     24  H   UNL A   1      43.475  27.383  28.193  1.00  0.00     0.167 HD
ATOM     25  C   UNL A   1      47.654  27.196  27.525  1.00  0.00     0.034 A 
ATOM     26  C   UNL A   1      41.039  28.638  28.860  1.00  0.00     0.034 A 
ATOM     27  C   UNL A   1      47.305  28.491  27.875  1.00  0.00     0.049 A 
ATOM     28  C   UNL A   1      41.964  29.674  29.012  1.00  0.00     0.074 A 
ATOM     29  C   UNL A   1      48.214  29.562  27.967  1.00  0.00     0.029 A 
ATOM     30  N   UNL A   1      46.053  28.970  28.192  1.00  0.00    -0.354 N 
ATOM     31  N   UNL A   1      43.278  29.629  28.786  1.00  0.00    -0.248 NA
ATOM     32  C   UNL A   1      41.617  31.029  29.457  1.00  0.00     0.031 C 
ATOM     33  C   UNL A   1      47.522  30.670  28.344  1.00  0.00     0.029 A 
ATOM     34  C   UNL A   1      46.170  30.309  28.494  1.00  0.00     0.049 A 
ATOM     35  H   UNL A   1      45.220  28.447  28.202  1.00  0.00     0.167 HD
ATOM     36  C   UNL A   1      43.826  30.822  29.022  1.00  0.00     0.074 A 
ATOM     37  C   UNL A   1      42.766  31.739  29.464  1.00  0.00     0.031 C 
ATOM     38  C   UNL A   1      45.167  31.185  28.882  1.00  0.00     0.034 A 
BRANCH  25  39
ATOM     39  C   UNL A   1      49.116  26.902  27.228  1.00  0.00     0.023 A 
ATOM     40  C   UNL A   1      49.796  26.201  28.210  1.00  0.00     0.012 A 
ATOM     41  C   UNL A   1      49.702  27.225  26.081  1.00  0.00     0.148 A 
ATOM     42  C   UNL A   1      51.194  26.137  28.004  1.00  0.00     0.002 A 
ATOM     43  C   UNL A   1      51.046  27.009  25.898  1.00  0.00     0.091 A 
ATOM     44  F   UNL A   1      48.981  27.763  25.101  1.00  0.00    -0.205 F 
ATOM     45  C   UNL A   1      51.793  26.375  26.851  1.00  0.00     0.022 A 
BRANCH  43  46
ATOM     46  S   UNL A   1      51.839  27.572  24.372  1.00  0.00     0.127 S 
ATOM     47  O   UNL A   1      51.280  26.784  23.185  1.00  0.00    -0.237 OA
ATOM     48  O   UNL A   1      51.561  29.064  24.170  1.00  0.00    -0.237 OA
ATOM     49  O   UNL A   1      53.527  27.317  24.479  1.00  0.00    -0.744 OA
ENDBRANCH  43  46
ENDBRANCH  25  39
BRANCH  26  50
ATOM     50  C   UNL A   1      39.576  28.935  29.140  1.00  0.00     0.023 A 
ATOM     51  C   UNL A   1      38.688  29.211  28.113  1.00  0.00     0.012 A 
ATOM     52  C   UNL A   1      39.202  29.012  30.412  1.00  0.00     0.148 A 
ATOM     53  C   UNL A   1      37.497  29.845  28.539  1.00  0.00     0.002 A 
ATOM     54  C   UNL A   1      37.971  29.517  30.750  1.00  0.00     0.091 A 
ATOM     55  F   UNL A   1      40.029  28.598  31.368  1.00  0.00    -0.205 F 
ATOM     56  C   UNL A   1      37.065  29.865  29.787  1.00  0.00     0.022 A 
BRANCH  54  57
ATOM     57  S   UNL A   1      37.539  29.724  32.496  1.00  0.00     0.127 S 
ATOM     58  O   UNL A   1      38.641  30.515  33.204  1.00  0.00    -0.237 OA
ATOM     59  O   UNL A   1      36.215  30.482  32.608  1.00  0.00    -0.237 OA
ATOM     60  O   UNL A   1      37.379  28.187  33.229  1.00  0.00    -0.744 OA
ENDBRANCH  54  57
ENDBRANCH  26  50
BRANCH  38  61
ATOM     61  C   UNL A   1      45.550  32.626  29.173  1.00  0.00     0.023 A 
ATOM     62  C   UNL A   1      45.835  32.981  30.482  1.00  0.00     0.012 A 
ATOM     63  C   UNL A   1      45.544  33.531  28.201  1.00  0.00     0.148 A 
ATOM     64  C   UNL A   1      45.818  34.376  30.715  1.00  0.00     0.002 A 
ATOM     65  C   UNL A   1      45.667  34.868  28.488  1.00  0.00     0.091 A 
ATOM     66  F   UNL A   1      45.417  33.137  26.937  1.00  0.00    -0.205 F 
ATOM     67  C   UNL A   1      45.892  35.294  29.769  1.00  0.00     0.022 A 
BRANCH  65  68
ATOM     68  S   UNL A   1      45.533  36.084  27.154  1.00  0.00     0.127 S 
ATOM     69  O   UNL A   1      44.066  36.483  26.974  1.00  0.00    -0.237 OA
ATOM     70  O   UNL A   1      46.360  37.321  27.507  1.00  0.00    -0.237 OA
ATOM     71  O   UNL A   1      46.120  35.401  25.700  1.00  0.00    -0.744 OA
ENDBRANCH  65  68
ENDBRANCH  38  61
ENDBRANCH  12  13
ENDBRANCH   5   7
ENDBRANCH   4   5
ENDBRANCH   3   4
ENDBRANCH   2   3
ENDBRANCH   1   2
BRANCH   1  72
ATOM     72  C   UNL A   1      37.799  21.830  25.503  1.00  0.00     0.202 C 
BRANCH  72  73
ATOM     73  C   UNL A   1      36.973  23.068  25.194  1.00  0.00     0.261 C 
BRANCH  73  74
ATOM     74  O   UNL A   1      35.621  22.692  24.977  1.00  0.00    -0.460 OA
BRANCH  74  75
ATOM     75  C   UNL A   1      34.632  23.007  25.947  1.00  0.00     0.340 C 
ATOM     76  O   UNL A   1      34.860  22.793  27.178  1.00  0.00    -0.246 OA
BRANCH  75  77
ATOM     77  C   UNL A   1      33.302  23.599  25.511  1.00  0.00     0.083 A 
ATOM     78  C   UNL A   1      33.217  24.869  24.965  1.00  0.00     0.018 A 
ATOM     79  C   UNL A   1      32.245  22.796  25.556  1.00  0.00     0.053 A 
ATOM     80  C   UNL A   1      31.890  25.314  24.753  1.00  0.00     0.001 A 
ATOM     81  C   UNL A   1      31.000  23.260  25.204  1.00  0.00     0.027 A 
ATOM     82  C   UNL A   1      30.833  24.524  24.713  1.00  0.00     0.002 A 
BRANCH  79  83
ATOM     83  N   UNL A   1      32.408  21.401  25.987  1.00  0.00    -0.355 N 
ATOM     84  H   UNL A   1      32.348  21.170  26.942  1.00  0.00     0.167 HD
BRANCH  83  85
ATOM     85  C   UNL A   1      32.664  20.349  24.992  1.00  0.00     0.040 A 
ATOM     86  C   UNL A   1      32.236  20.600  23.699  1.00  0.00     0.026 A 
ATOM     87  C   UNL A   1      33.298  19.225  25.302  1.00  0.00     0.050 A 
ATOM     88  C   UNL A   1      32.268  19.465  22.854  1.00  0.00     0.004 A 
ATOM     89  C   UNL A   1      33.410  18.209  24.383  1.00  0.00     0.109 A 
ATOM     90  C   UNL A   1      32.955  18.365  23.103  1.00  0.00     0.024 A 
BRANCH  89  91
ATOM     91  S   UNL A   1      34.170  16.641  24.874  1.00  0.00     0.310 S 
ATOM     92  F   UNL A   1      34.318  16.166  23.368  1.00  0.00    -0.094 F 
ATOM     93  F   UNL A   1      32.740  15.980  24.870  1.00  0.00    -0.094 F 
ATOM     94  F   UNL A   1      34.822  15.295  25.299  1.00  0.00    -0.094 F 
ATOM     95  F   UNL A   1      35.606  17.285  24.736  1.00  0.00    -0.094 F 
ATOM     96  F   UNL A   1      33.532  17.983  24.334  1.00  0.00    -0.094 F 
ENDBRANCH  89  91
ENDBRANCH  83  85
ENDBRANCH  79  83
ENDBRANCH  75  77
ENDBRANCH  74  75
ENDBRANCH  73  74
ENDBRANCH  72  73
ENDBRANCH   1  72
TORSDOF 20
ENDMDL
MODEL 2
REMARK VINA RESULT:     -11.6      3.999      5.141
REMARK SMILES O=C(OCCOCCOC(=O)c1ccccc1Nc1cccc(S(F)(F)(F)(F)F)c1)c1ccc(-c2c3nc(c(-c4cccc(S(=O)(=O)[O-])c4F)c4ccc([nH]4)c(-c4cccc(S(=O)(=O)[O-])c4F)c4nc(c(-c5cccc(S(=O)(=O)[O-])c5F)c5ccc2[nH]5)C=C4)C=C3)cc1
REMARK SMILES IDX 6 1 5 2 4 3 3 4 2 5 1 6 31 7 32 8 93 9 33 10 92 11 34 12
REMARK SMILES IDX 35 13 36 14 86 15 37 16 91 17 85 18 87 19 38 20 90 21 84 22
REMARK SMILES IDX 83 23 39 25 71 26 51 27 70 28 52 29 55 30 69 31 88 32 53 33
REMARK SMILES IDX 54 34 68 36 89 37 56 38 40 39 41 40 49 41 42 42 44 43 50 44
REMARK SMILES IDX 43 45 45 46 46 47 47 48 48 49 72 50 73 51 81 52 74 53 76 54
REMARK SMILES IDX 82 55 75 56 77 57 78 58 79 59 80 60 57 61 58 62 66 63 59 64
REMARK SMILES IDX 61 65 67 66 60 67 62 68 63 69 64 70 65 71 7 72 8 73 9 74
REMARK SMILES IDX 10 75 11 76 12 77 13 78 17 79 14 80 16 81 15 82 18 83 19 85
REMARK SMILES IDX 20 86 30 87 21 88 23 89 22 90 24 91 25 92 26 93 27 94 28 95
REMARK SMILES IDX 29 96
REMARK H PARENT 87 24 55 35 18 84
REMARK Flexibility Score: inf
ROOT
ATOM      1  O   UNL A   1      35.070  22.711  25.872  1.00  0.00    -0.374 OA
ENDROOT
BRANCH   1   2
ATOM      2  C   UNL A   1      34.992  21.318  26.132  1.00  0.00     0.202 C 
BRANCH   2   3
ATOM      3  C   UNL A   1      35.828  20.564  25.111  1.00  0.00     0.261 C 
BRANCH   3   4
ATOM      4  O   UNL A   1      36.994  21.315  24.806  1.00  0.00    -0.460 OA
BRANCH   4   5
ATOM      5  C   UNL A   1      38.185  21.110  25.551  1.00  0.00     0.338 C 
ATOM      6  O   UNL A   1      38.619  19.932  25.745  1.00  0.00    -0.246 OA
BRANCH   5   7
ATOM      7  C   UNL A   1      38.942  22.301  26.117  1.00  0.00     0.060 A 
ATOM      8  C   UNL A   1      38.444  23.569  25.871  1.00  0.00     0.016 A 
ATOM      9  C   UNL A   1      40.100  22.126  26.743  1.00  0.00     0.016 A 
ATOM     10  C   UNL A   1      39.387  24.605  26.070  1.00  0.00     0.010 A 
ATOM     11  C   UNL A   1      40.910  23.198  27.028  1.00  0.00     0.010 A 
ATOM     12  C   UNL A   1      40.507  24.476  26.759  1.00  0.00    -0.014 A 
BRANCH  12  13
ATOM     13  C   UNL A   1      41.303  25.683  27.226  1.00  0.00     0.031 A 
ATOM     14  C   UNL A   1      42.624  25.848  26.805  1.00  0.00     0.074 A 
ATOM     15  C   UNL A   1      40.612  26.610  27.987  1.00  0.00     0.049 A 
ATOM     16  N   UNL A   1      43.421  26.896  27.019  1.00  0.00    -0.248 NA
ATOM     17  C   UNL A   1      43.371  24.850  26.026  1.00  0.00     0.031 C 
ATOM     18  C   UNL A   1      39.276  26.455  28.408  1.00  0.00     0.029 A 
ATOM     19  N   UNL A   1      41.068  27.817  28.468  1.00  0.00    -0.354 N 
ATOM     20  C   UNL A   1      44.609  26.696  26.445  1.00  0.00     0.074 A 
ATOM     21  C   UNL A   1      44.596  25.375  25.804  1.00  0.00     0.031 C 
ATOM     22  C   UNL A   1      38.936  27.547  29.142  1.00  0.00     0.029 A 
ATOM     23  C   UNL A   1      40.052  28.404  29.191  1.00  0.00     0.049 A 
ATOM     24  H   UNL A   1      41.964  28.196  28.321  1.00  0.00     0.167 HD
ATOM     25  C   UNL A   1      45.702  27.564  26.430  1.00  0.00     0.034 A 
ATOM     26  C   UNL A   1      40.079  29.615  29.864  1.00  0.00     0.034 A 
ATOM     27  C   UNL A   1      45.714  28.795  27.067  1.00  0.00     0.049 A 
ATOM     28  C   UNL A   1      41.193  30.458  29.898  1.00  0.00     0.074 A 
ATOM     29  C   UNL A   1      46.804  29.686  27.056  1.00  0.00     0.029 A 
ATOM     30  N   UNL A   1      44.707  29.370  27.811  1.00  0.00    -0.354 N 
ATOM     31  N   UNL A   1      42.367  30.275  29.292  1.00  0.00    -0.248 NA
ATOM     32  C   UNL A   1      41.244  31.727  30.635  1.00  0.00     0.031 C 
ATOM     33  C   UNL A   1      46.463  30.779  27.790  1.00  0.00     0.029 A 
ATOM     34  C   UNL A   1      45.155  30.588  28.272  1.00  0.00     0.049 A 
ATOM     35  H   UNL A   1      43.820  28.979  27.983  1.00  0.00     0.167 HD
ATOM     36  C   UNL A   1      43.177  31.305  29.541  1.00  0.00     0.074 A 
ATOM     37  C   UNL A   1      42.469  32.251  30.414  1.00  0.00     0.031 C 
ATOM     38  C   UNL A   1      44.479  31.497  29.072  1.00  0.00     0.034 A 
BRANCH  25  39
ATOM     39  C   UNL A   1      46.949  27.136  25.674  1.00  0.00     0.023 A 
ATOM     40  C   UNL A   1      47.832  26.337  26.381  1.00  0.00     0.012 A 
ATOM     41  C   UNL A   1      47.162  27.437  24.398  1.00  0.00     0.148 A 
ATOM     42  C   UNL A   1      49.072  26.139  25.731  1.00  0.00     0.002 A 
ATOM     43  C   UNL A   1      48.344  27.094  23.787  1.00  0.00     0.091 A 
ATOM     44  F   UNL A   1      46.225  28.078  23.707  1.00  0.00    -0.205 F 
ATOM     45  C   UNL A   1      49.287  26.356  24.446  1.00  0.00     0.022 A 
BRANCH  43  46
ATOM     46  S   UNL A   1      48.655  27.626  22.086  1.00  0.00     0.127 S 
ATOM     47  O   UNL A   1      48.651  26.407  21.161  1.00  0.00    -0.237 OA
ATOM     48  O   UNL A   1      47.561  28.603  21.647  1.00  0.00    -0.237 OA
ATOM     49  O   UNL A   1      50.178  28.401  22.000  1.00  0.00    -0.744 OA
ENDBRANCH  43  46
ENDBRANCH  25  39
BRANCH  26  50
ATOM     50  C   UNL A   1      38.827  30.051  30.606  1.00  0.00     0.023 A 
ATOM     51  C   UNL A   1      38.529  29.559  31.867  1.00  0.00     0.012 A 
ATOM     52  C   UNL A   1      37.982  30.847  29.961  1.00  0.00     0.148 A 
ATOM     53  C   UNL A   1      37.177  29.734  32.246  1.00  0.00     0.002 A 
ATOM     54  C   UNL A   1      36.723  31.082  30.458  1.00  0.00     0.091 A 
ATOM     55  F   UNL A   1      38.358  31.423  28.822  1.00  0.00    -0.205 F 
ATOM     56  C   UNL A   1      36.341  30.579  31.671  1.00  0.00     0.022 A 
BRANCH  54  57
ATOM     57  S   UNL A   1      35.553  32.073  29.496  1.00  0.00     0.127 S 
ATOM     58  O   UNL A   1      35.108  31.282  28.263  1.00  0.00    -0.237 OA
ATOM     59  O   UNL A   1      34.333  32.402  30.358  1.00  0.00    -0.237 OA
ATOM     60  O   UNL A   1      36.309  33.524  29.000  1.00  0.00    -0.744 OA
ENDBRANCH  54  57
ENDBRANCH  26  50
BRANCH  38  61
ATOM     61  C   UNL A   1      45.196  32.779  29.461  1.00  0.00     0.023 A 
ATOM     62  C   UNL A   1      45.067  33.883  28.634  1.00  0.00     0.012 A 
ATOM     63  C   UNL A   1      45.978  32.809  30.534  1.00  0.00     0.148 A 
ATOM     64  C   UNL A   1      46.037  34.887  28.864  1.00  0.00     0.002 A 
ATOM     65  C   UNL A   1      46.801  33.883  30.769  1.00  0.00     0.091 A 
ATOM     66  F   UNL A   1      45.964  31.790  31.388  1.00  0.00    -0.205 F 
ATOM     67  C   UNL A   1      46.770  34.985  29.957  1.00  0.00     0.022 A 
BRANCH  65  68
ATOM     68  S   UNL A   1      47.944  33.842  32.172  1.00  0.00     0.127 S 
ATOM     69  O   UNL A   1      48.812  35.103  32.160  1.00  0.00    -0.237 OA
ATOM     70  O   UNL A   1      47.148  33.784  33.477  1.00  0.00    -0.237 OA
ATOM     71  O   UNL A   1      48.944  32.461  32.052  1.00  0.00    -0.744 OA
ENDBRANCH  65  68
ENDBRANCH  38  61
ENDBRANCH  12  13
ENDBRANCH   5   7
ENDBRANCH   4   5
ENDBRANCH   3   4
ENDBRANCH   2   3
ENDBRANCH   1   2
BRANCH   1  72
ATOM     72  C   UNL A   1      34.363  23.421  26.879  1.00  0.00     0.202 C 
BRANCH  72  73
ATOM     73  C   UNL A   1      33.406  22.477  27.588  1.00  0.00     0.261 C 
BRANCH  73  74
ATOM     74  O   UNL A   1      32.138  23.102  27.722  1.00  0.00    -0.460 OA
BRANCH  74  75
ATOM     75  C   UNL A   1      31.108  22.827  26.783  1.00  0.00     0.340 C 
ATOM     76  O   UNL A   1      29.890  22.892  27.140  1.00  0.00    -0.246 OA
BRANCH  75  77
ATOM     77  C   UNL A   1      31.463  22.455  25.353  1.00  0.00     0.083 A 
ATOM     78  C   UNL A   1      31.774  21.153  24.998  1.00  0.00     0.018 A 
ATOM     79  C   UNL A   1      31.336  23.408  24.437  1.00  0.00     0.053 A 
ATOM     80  C   UNL A   1      32.221  21.015  23.662  1.00  0.00     0.001 A 
ATOM     81  C   UNL A   1      31.661  23.163  23.124  1.00  0.00     0.027 A 
ATOM     82  C   UNL A   1      32.034  21.914  22.713  1.00  0.00     0.002 A 
BRANCH  79  83
ATOM     83  N   UNL A   1      30.843  24.735  24.830  1.00  0.00    -0.355 N 
ATOM     84  H   UNL A   1      29.894  24.861  25.058  1.00  0.00     0.167 HD
BRANCH  83  85
ATOM     85  C   UNL A   1      31.768  25.877  24.881  1.00  0.00     0.040 A 
ATOM     86  C   UNL A   1      33.037  25.673  24.367  1.00  0.00     0.026 A 
ATOM     87  C   UNL A   1      31.404  27.057  25.369  1.00  0.00     0.050 A 
ATOM     88  C   UNL A   1      33.954  26.704  24.678  1.00  0.00     0.004 A 
ATOM     89  C   UNL A   1      32.325  28.065  25.520  1.00  0.00     0.109 A 
ATOM     90  C   UNL A   1      33.613  27.912  25.088  1.00  0.00     0.024 A 
BRANCH  89  91
ATOM     91  S   UNL A   1      31.826  29.620  26.303  1.00  0.00     0.310 S 
ATOM     92  F   UNL A   1      33.187  30.331  25.907  1.00  0.00    -0.094 F 
ATOM     93  F   UNL A   1      32.537  29.148  27.627  1.00  0.00    -0.094 F 
ATOM     94  F   UNL A   1      31.395  30.954  26.975  1.00  0.00    -0.094 F 
ATOM     95  F   UNL A   1      31.242  30.134  24.928  1.00  0.00    -0.094 F 
ATOM     96  F   UNL A   1      32.355  28.320  25.576  1.00  0.00    -0.094 F 
ENDBRANCH  89  91
ENDBRANCH  83  85
ENDBRANCH  79  83
ENDBRANCH  75  77
ENDBRANCH  74  75
ENDBRANCH  73  74
ENDBRANCH  72  73
ENDBRANCH   1  72
TORSDOF 20
ENDMDL
MODEL 3
REMARK VINA RESULT:     -11.4      3.839      4.945
REMARK SMILES O=C(OCCOCCOC(=O)c1ccccc1Nc1cccc(S(F)(F)(F)(F)F)c1)c1ccc(-c2c3nc(c(-c4cccc(S(=O)(=O)[O-])c4F)c4ccc([nH]4)c(-c4cccc(S(=O)(=O)[O-])c4F)c4nc(c(-c5cccc(S(=O)(=O)[O-])c5F)c5ccc2[nH]5)C=C4)C=C3)cc1
REMARK SMILES IDX 6 1 5 2 4 3 3 4 2 5 1 6 31 7 32 8 93 9 33 10 92 11 34 12
REMARK SMILES IDX 35 13 36 14 86 15 37 16 91 17 85 18 87 19 38 20 90 21 84 22
REMARK SMILES IDX 83 23 39 25 71 26 51 27 70 28 52 29 55 30 69 31 88 32 53 33
REMARK SMILES IDX 54 34 68 36 89 37 56 38 40 39 41 40 49 41 42 42 44 43 50 44
REMARK SMILES IDX 43 45 45 46 46 47 47 48 48 49 72 50 73 51 81 52 74 53 76 54
REMARK SMILES IDX 82 55 75 56 77 57 78 58 79 59 80 60 57 61 58 62 66 63 59 64
REMARK SMILES IDX 61 65 67 66 60 67 62 68 63 69 64 70 65 71 7 72 8 73 9 74
REMARK SMILES IDX 10 75 11 76 12 77 13 78 17 79 14 80 16 81 15 82 18 83 19 85
REMARK SMILES IDX 20 86 30 87 21 88 23 89 22 90 24 91 25 92 26 93 27 94 28 95
REMARK SMILES IDX 29 96
REMARK H PARENT 87 24 55 35 18 84
REMARK Flexibility Score: inf
ROOT
ATOM      1  O   UNL A   1      34.743  22.925  26.039  1.00  0.00    -0.374 OA
ENDROOT
BRANCH   1   2
ATOM      2  C   UNL A   1      35.564  21.825  25.679  1.00  0.00     0.202 C 
BRANCH   2   3
ATOM      3  C   UNL A   1      36.589  22.273  24.649  1.00  0.00     0.261 C 
BRANCH   3   4
ATOM      4  O   UNL A   1      37.670  21.352  24.624  1.00  0.00    -0.460 OA
BRANCH   4   5
ATOM      5  C   UNL A   1      38.512  21.215  25.759  1.00  0.00     0.338 C 
ATOM      6  O   UNL A   1      38.670  20.077  26.300  1.00  0.00    -0.246 OA
BRANCH   5   7
ATOM      7  C   UNL A   1      39.225  22.432  26.328  1.00  0.00     0.060 A 
ATOM      8  C   UNL A   1      38.764  23.687  25.967  1.00  0.00     0.016 A 
ATOM      9  C   UNL A   1      40.318  22.287  27.067  1.00  0.00     0.016 A 
ATOM     10  C   UNL A   1      39.695  24.728  26.197  1.00  0.00     0.010 A 
ATOM     11  C   UNL A   1      41.108  23.369  27.368  1.00  0.00     0.010 A 
ATOM     12  C   UNL A   1      40.744  24.632  26.993  1.00  0.00    -0.014 A 
BRANCH  12  13
ATOM     13  C   UNL A   1      41.505  25.859  27.465  1.00  0.00     0.031 A 
ATOM     14  C   UNL A   1      42.817  26.069  27.038  1.00  0.00     0.074 A 
ATOM     15  C   UNL A   1      40.790  26.758  28.239  1.00  0.00     0.049 A 
ATOM     16  N   UNL A   1      43.583  27.139  27.256  1.00  0.00    -0.248 NA
ATOM     17  C   UNL A   1      43.590  25.102  26.245  1.00  0.00     0.031 C 
ATOM     18  C   UNL A   1      39.463  26.557  28.667  1.00  0.00     0.029 A 
ATOM     19  N   UNL A   1      41.212  27.974  28.728  1.00  0.00    -0.354 N 
ATOM     20  C   UNL A   1      44.773  26.982  26.673  1.00  0.00     0.074 A 
ATOM     21  C   UNL A   1      44.797  25.666  26.020  1.00  0.00     0.031 C 
ATOM     22  C   UNL A   1      39.093  27.632  29.412  1.00  0.00     0.029 A 
ATOM     23  C   UNL A   1      40.183  28.523  29.462  1.00  0.00     0.049 A 
ATOM     24  H   UNL A   1      42.094  28.382  28.578  1.00  0.00     0.167 HD
ATOM     25  C   UNL A   1      45.838  27.884  26.660  1.00  0.00     0.034 A 
ATOM     26  C   UNL A   1      40.176  29.728  30.146  1.00  0.00     0.034 A 
ATOM     27  C   UNL A   1      45.817  29.109  27.307  1.00  0.00     0.049 A 
ATOM     28  C   UNL A   1      41.263  30.605  30.181  1.00  0.00     0.074 A 
ATOM     29  C   UNL A   1      46.878  30.034  27.297  1.00  0.00     0.029 A 
ATOM     30  N   UNL A   1      44.796  29.646  28.062  1.00  0.00    -0.354 N 
ATOM     31  N   UNL A   1      42.439  30.465  29.565  1.00  0.00    -0.248 NA
ATOM     32  C   UNL A   1      41.280  31.869  30.928  1.00  0.00     0.031 C 
ATOM     33  C   UNL A   1      46.508  31.108  28.043  1.00  0.00     0.029 A 
ATOM     34  C   UNL A   1      45.209  30.873  28.531  1.00  0.00     0.049 A 
ATOM     35  H   UNL A   1      43.924  29.225  28.236  1.00  0.00     0.167 HD
ATOM     36  C   UNL A   1      43.218  31.517  29.819  1.00  0.00     0.074 A 
ATOM     37  C   UNL A   1      42.487  32.433  30.704  1.00  0.00     0.031 C 
ATOM     38  C   UNL A   1      44.510  31.753  29.343  1.00  0.00     0.034 A 
BRANCH  25  39
ATOM     39  C   UNL A   1      47.093  27.501  25.892  1.00  0.00     0.023 A 
ATOM     40  C   UNL A   1      48.081  26.875  26.634  1.00  0.00     0.012 A 
ATOM     41  C   UNL A   1      47.225  27.681  24.582  1.00  0.00     0.148 A 
ATOM     42  C   UNL A   1      49.309  26.731  25.948  1.00  0.00     0.002 A 
ATOM     43  C   UNL A   1      48.412  27.393  23.953  1.00  0.00     0.091 A 
ATOM     44  F   UNL A   1      46.200  28.147  23.875  1.00  0.00    -0.205 F 
ATOM     45  C   UNL A   1      49.451  26.827  24.638  1.00  0.00     0.022 A 
BRANCH  43  46
ATOM     46  S   UNL A   1      48.601  27.765  22.193  1.00  0.00     0.127 S 
ATOM     47  O   UNL A   1      47.434  28.638  21.727  1.00  0.00    -0.237 OA
ATOM     48  O   UNL A   1      49.919  28.511  21.967  1.00  0.00    -0.237 OA
ATOM     49  O   UNL A   1      48.612  26.306  21.299  1.00  0.00    -0.744 OA
ENDBRANCH  43  46
ENDBRANCH  25  39
BRANCH  26  50
ATOM     50  C   UNL A   1      38.916  30.118  30.899  1.00  0.00     0.023 A 
ATOM     51  C   UNL A   1      38.633  29.593  32.149  1.00  0.00     0.012 A 
ATOM     52  C   UNL A   1      38.051  30.908  30.273  1.00  0.00     0.148 A 
ATOM     53  C   UNL A   1      37.278  29.727  32.535  1.00  0.00     0.002 A 
ATOM     54  C   UNL A   1      36.788  31.103  30.778  1.00  0.00     0.091 A 
ATOM     55  F   UNL A   1      38.411  31.517  29.146  1.00  0.00    -0.205 F 
ATOM     56  C   UNL A   1      36.421  30.564  31.980  1.00  0.00     0.022 A 
BRANCH  54  57
ATOM     57  S   UNL A   1      35.593  32.086  29.839  1.00  0.00     0.127 S 
ATOM     58  O   UNL A   1      34.443  32.506  30.758  1.00  0.00    -0.237 OA
ATOM     59  O   UNL A   1      36.283  33.333  29.283  1.00  0.00    -0.237 OA
ATOM     60  O   UNL A   1      34.978  31.151  28.546  1.00  0.00    -0.744 OA
ENDBRANCH  54  57
ENDBRANCH  26  50
BRANCH  38  61
ATOM     61  C   UNL A   1      45.189  33.053  29.739  1.00  0.00     0.023 A 
ATOM     62  C   UNL A   1      45.905  33.088  30.925  1.00  0.00     0.012 A 
ATOM     63  C   UNL A   1      45.038  34.143  28.994  1.00  0.00     0.148 A 
ATOM     64  C   UNL A   1      46.183  34.396  31.388  1.00  0.00     0.002 A 
ATOM     65  C   UNL A   1      45.456  35.368  29.453  1.00  0.00     0.091 A 
ATOM     66  F   UNL A   1      44.478  34.045  27.792  1.00  0.00    -0.205 F 
ATOM     67  C   UNL A   1      46.118  35.484  30.644  1.00  0.00     0.022 A 
BRANCH  65  68
ATOM     68  S   UNL A   1      45.127  36.849  28.467  1.00  0.00     0.127 S 
ATOM     69  O   UNL A   1      43.616  37.013  28.280  1.00  0.00    -0.237 OA
ATOM     70  O   UNL A   1      45.688  38.077  29.187  1.00  0.00    -0.237 OA
ATOM     71  O   UNL A   1      45.875  36.694  26.937  1.00  0.00    -0.744 OA
ENDBRANCH  65  68
ENDBRANCH  38  61
ENDBRANCH  12  13
ENDBRANCH   5   7
ENDBRANCH   4   5
ENDBRANCH   3   4
ENDBRANCH   2   3
ENDBRANCH   1   2
BRANCH   1  72
ATOM     72  C   UNL A   1      34.554  22.934  27.446  1.00  0.00     0.202 C 
BRANCH  72  73
ATOM     73  C   UNL A   1      33.325  22.111  27.797  1.00  0.00     0.261 C 
BRANCH  73  74
ATOM     74  O   UNL A   1      32.209  22.974  27.960  1.00  0.00    -0.460 OA
BRANCH  74  75
ATOM     75  C   UNL A   1      31.101  22.877  27.076  1.00  0.00     0.340 C 
ATOM     76  O   UNL A   1      29.917  22.917  27.536  1.00  0.00    -0.246 OA
BRANCH  75  77
ATOM     77  C   UNL A   1      31.332  22.724  25.582  1.00  0.00     0.083 A 
ATOM     78  C   UNL A   1      31.891  21.575  25.048  1.00  0.00     0.018 A 
ATOM     79  C   UNL A   1      30.857  23.687  24.800  1.00  0.00     0.053 A 
ATOM     80  C   UNL A   1      32.168  21.663  23.663  1.00  0.00     0.001 A 
ATOM     81  C   UNL A   1      31.045  23.639  23.440  1.00  0.00     0.027 A 
ATOM     82  C   UNL A   1      31.643  22.561  22.850  1.00  0.00     0.002 A 
BRANCH  79  83
ATOM     83  N   UNL A   1      30.122  24.812  25.396  1.00  0.00    -0.355 N 
ATOM     84  H   UNL A   1      29.264  24.655  25.850  1.00  0.00     0.167 HD
BRANCH  83  85
ATOM     85  C   UNL A   1      30.670  26.174  25.311  1.00  0.00     0.040 A 
ATOM     86  C   UNL A   1      31.499  26.576  26.345  1.00  0.00     0.026 A 
ATOM     87  C   UNL A   1      30.410  26.976  24.285  1.00  0.00     0.050 A 
ATOM     88  C   UNL A   1      31.779  27.963  26.349  1.00  0.00     0.004 A 
ATOM     89  C   UNL A   1      30.831  28.284  24.296  1.00  0.00     0.109 A 
ATOM     90  C   UNL A   1      31.605  28.766  25.315  1.00  0.00     0.024 A 
BRANCH  89  91
ATOM     91  S   UNL A   1      30.355  29.385  22.939  1.00  0.00     0.310 S 
ATOM     92  F   UNL A   1      29.877  28.173  22.036  1.00  0.00    -0.094 F 
ATOM     93  F   UNL A   1      31.791  29.193  22.318  1.00  0.00    -0.094 F 
ATOM     94  F   UNL A   1      29.948  30.333  21.777  1.00  0.00    -0.094 F 
ATOM     95  F   UNL A   1      28.881  29.454  23.502  1.00  0.00    -0.094 F 
ATOM     96  F   UNL A   1      30.720  28.336  24.064  1.00  0.00    -0.094 F 
ENDBRANCH  89  91
ENDBRANCH  83  85
ENDBRANCH  79  83
ENDBRANCH  75  77
ENDBRANCH  74  75
ENDBRANCH  73  74
ENDBRANCH  72  73
ENDBRANCH   1  72
TORSDOF 20
ENDMDL
