MODEL 1
REMARK VINA RESULT:      -9.9      0.000      0.000
REMARK SMILES O=C(Cc1cccnc1Cl)OCCOCCOC(=O)c1ccc(-c2c3nc(c(-c4cccc(S(=O)(=O)[O-])c4F)c4ccc([nH]4)c(-c4cccc(S(=O)(=O)[O-])c4F)c4nc(c(-c5cccc(S(=O)(=O)[O-])c5F)c5ccc2[nH]5)C=C4)C=C3)cc1
REMARK SMILES IDX 15 1 14 2 13 3 12 4 11 5 2 6 1 7 3 8 4 9 5 10 9 11 6 12 8 13
REMARK SMILES IDX 10 14 7 15 16 16 17 17 18 18 19 19 20 20 21 21 82 22 22 23
REMARK SMILES IDX 81 24 23 25 24 26 25 27 75 28 26 29 80 30 74 31 76 32 27 33
REMARK SMILES IDX 79 34 73 35 72 36 28 38 60 39 40 40 59 41 41 42 44 43 58 44
REMARK SMILES IDX 77 45 42 46 43 47 57 49 78 50 45 51 29 52 30 53 38 54 31 55
REMARK SMILES IDX 33 56 39 57 32 58 34 59 35 60 36 61 37 62 61 63 62 64 70 65
REMARK SMILES IDX 63 66 65 67 71 68 64 69 66 70 67 71 68 72 69 73 46 74 47 75
REMARK SMILES IDX 55 76 48 77 50 78 56 79 49 80 51 81 52 82 53 83 54 84
REMARK H PARENT 76 37 44 48
REMARK Flexibility Score: inf
ROOT
ATOM      1  C   UNL A   1      42.465  19.980  26.209  1.00  0.00     0.202 C 
ENDROOT
BRANCH   1   2
ATOM      2  O   UNL A   1      42.830  19.250  25.028  1.00  0.00    -0.374 OA
BRANCH   2   3
ATOM      3  C   UNL A   1      44.176  18.783  25.003  1.00  0.00     0.202 C 
BRANCH   3   4
ATOM      4  C   UNL A   1      45.157  19.543  24.111  1.00  0.00     0.261 C 
BRANCH   4   5
ATOM      5  O   UNL A   1      45.321  20.927  24.450  1.00  0.00    -0.463 OA
BRANCH   5   6
ATOM      6  C   UNL A   1      44.584  21.955  23.971  1.00  0.00     0.310 C 
ATOM      7  O   UNL A   1      44.347  22.009  22.764  1.00  0.00    -0.252 OA
BRANCH   6   8
ATOM      8  C   UNL A   1      44.138  23.077  24.886  1.00  0.00     0.161 C 
BRANCH   8   9
ATOM      9  C   UNL A   1      45.091  23.451  25.982  1.00  0.00     0.001 A 
ATOM     10  C   UNL A   1      44.716  23.293  27.323  1.00  0.00     0.009 A 
ATOM     11  C   UNL A   1      46.357  23.978  25.745  1.00  0.00     0.132 A 
ATOM     12  C   UNL A   1      45.535  23.766  28.340  1.00  0.00     0.020 A 
ATOM     13  N   UNL A   1      47.197  24.397  26.716  1.00  0.00    -0.244 NA
ATOM     14  Cl  UNL A   1      47.046  24.086  24.174  1.00  0.00    -0.062 Cl
ATOM     15  C   UNL A   1      46.754  24.313  27.987  1.00  0.00     0.113 A 
ENDBRANCH   8   9
ENDBRANCH   6   8
ENDBRANCH   5   6
ENDBRANCH   4   5
ENDBRANCH   3   4
ENDBRANCH   2   3
ENDBRANCH   1   2
BRANCH   1  16
ATOM     16  C   UNL A   1      41.161  19.525  26.875  1.00  0.00     0.261 C 
BRANCH  16  17
ATOM     17  O   UNL A   1      40.473  20.628  27.476  1.00  0.00    -0.460 OA
BRANCH  17  18
ATOM     18  C   UNL A   1      39.797  21.431  26.619  1.00  0.00     0.338 C 
ATOM     19  O   UNL A   1      38.953  21.096  25.803  1.00  0.00    -0.246 OA
BRANCH  18  20
ATOM     20  C   UNL A   1      40.062  22.835  26.995  1.00  0.00     0.060 A 
ATOM     21  C   UNL A   1      39.241  23.832  26.445  1.00  0.00     0.016 A 
ATOM     22  C   UNL A   1      41.062  23.164  27.912  1.00  0.00     0.016 A 
ATOM     23  C   UNL A   1      39.446  25.168  26.776  1.00  0.00     0.010 A 
ATOM     24  C   UNL A   1      41.274  24.500  28.236  1.00  0.00     0.010 A 
ATOM     25  C   UNL A   1      40.493  25.507  27.639  1.00  0.00    -0.014 A 
BRANCH  25  26
ATOM     26  C   UNL A   1      40.940  26.910  27.770  1.00  0.00     0.031 A 
ATOM     27  C   UNL A   1      42.286  27.264  27.208  1.00  0.00     0.074 A 
ATOM     28  C   UNL A   1      40.218  27.809  28.456  1.00  0.00     0.049 A 
ATOM     29  N   UNL A   1      42.990  28.351  27.362  1.00  0.00    -0.248 NA
ATOM     30  C   UNL A   1      42.936  26.232  26.382  1.00  0.00     0.031 C 
ATOM     31  C   UNL A   1      38.903  27.565  29.045  1.00  0.00     0.029 A 
ATOM     32  N   UNL A   1      40.526  29.095  28.826  1.00  0.00    -0.354 N 
ATOM     33  C   UNL A   1      44.190  28.112  26.705  1.00  0.00     0.074 A 
ATOM     34  C   UNL A   1      44.119  26.779  26.151  1.00  0.00     0.031 C 
ATOM     35  C   UNL A   1      38.541  28.645  29.757  1.00  0.00     0.029 A 
ATOM     36  C   UNL A   1      39.617  29.635  29.703  1.00  0.00     0.049 A 
ATOM     37  H   UNL A   1      41.316  29.580  28.496  1.00  0.00     0.167 HD
ATOM     38  C   UNL A   1      45.259  28.932  26.580  1.00  0.00     0.034 A 
ATOM     39  C   UNL A   1      39.676  30.773  30.425  1.00  0.00     0.034 A 
ATOM     40  C   UNL A   1      45.310  30.257  27.131  1.00  0.00     0.049 A 
ATOM     41  C   UNL A   1      40.874  31.673  30.276  1.00  0.00     0.074 A 
ATOM     42  C   UNL A   1      46.308  31.205  27.001  1.00  0.00     0.029 A 
ATOM     43  N   UNL A   1      44.330  30.810  27.941  1.00  0.00    -0.354 N 
ATOM     44  N   UNL A   1      41.953  31.495  29.553  1.00  0.00    -0.248 NA
ATOM     45  C   UNL A   1      40.850  32.944  31.015  1.00  0.00     0.031 C 
ATOM     46  C   UNL A   1      45.950  32.316  27.771  1.00  0.00     0.029 A 
ATOM     47  C   UNL A   1      44.706  32.080  28.337  1.00  0.00     0.049 A 
ATOM     48  H   UNL A   1      43.490  30.365  28.196  1.00  0.00     0.167 HD
ATOM     49  C   UNL A   1      42.720  32.644  29.718  1.00  0.00     0.074 A 
ATOM     50  C   UNL A   1      41.977  33.514  30.608  1.00  0.00     0.031 C 
ATOM     51  C   UNL A   1      43.928  32.950  29.184  1.00  0.00     0.034 A 
BRANCH  38  52
ATOM     52  C   UNL A   1      46.454  28.405  25.830  1.00  0.00     0.023 A 
ATOM     53  C   UNL A   1      46.430  28.323  24.423  1.00  0.00     0.012 A 
ATOM     54  C   UNL A   1      47.607  27.994  26.525  1.00  0.00     0.148 A 
ATOM     55  C   UNL A   1      47.513  27.793  23.723  1.00  0.00     0.002 A 
ATOM     56  C   UNL A   1      48.704  27.517  25.817  1.00  0.00     0.091 A 
ATOM     57  F   UNL A   1      47.605  28.050  27.865  1.00  0.00    -0.205 F 
ATOM     58  C   UNL A   1      48.652  27.399  24.419  1.00  0.00     0.022 A 
BRANCH  56  59
ATOM     59  S   UNL A   1      50.245  27.065  26.620  1.00  0.00     0.127 S 
ATOM     60  O   UNL A   1      50.938  26.350  25.548  1.00  0.00    -0.237 OA
ATOM     61  O   UNL A   1      50.815  28.372  26.949  1.00  0.00    -0.237 OA
ATOM     62  O   UNL A   1      49.874  26.260  27.774  1.00  0.00    -0.744 OA
ENDBRANCH  56  59
ENDBRANCH  38  52
BRANCH  39  63
ATOM     63  C   UNL A   1      38.557  31.111  31.346  1.00  0.00     0.023 A 
ATOM     64  C   UNL A   1      38.704  30.903  32.730  1.00  0.00     0.012 A 
ATOM     65  C   UNL A   1      37.376  31.706  30.860  1.00  0.00     0.148 A 
ATOM     66  C   UNL A   1      37.686  31.266  33.613  1.00  0.00     0.002 A 
ATOM     67  C   UNL A   1      36.391  32.117  31.750  1.00  0.00     0.091 A 
ATOM     68  F   UNL A   1      37.257  31.888  29.537  1.00  0.00    -0.205 F 
ATOM     69  C   UNL A   1      36.538  31.885  33.125  1.00  0.00     0.022 A 
BRANCH  67  70
ATOM     70  S   UNL A   1      34.942  33.044  31.230  1.00  0.00     0.127 S 
ATOM     71  O   UNL A   1      34.516  32.295  30.051  1.00  0.00    -0.237 OA
ATOM     72  O   UNL A   1      34.071  32.906  32.397  1.00  0.00    -0.237 OA
ATOM     73  O   UNL A   1      35.409  34.400  30.978  1.00  0.00    -0.744 OA
ENDBRANCH  67  70
ENDBRANCH  39  63
BRANCH  51  74
ATOM     74  C   UNL A   1      44.514  34.305  29.486  1.00  0.00     0.023 A 
ATOM     75  C   UNL A   1      45.402  34.472  30.564  1.00  0.00     0.012 A 
ATOM     76  C   UNL A   1      44.266  35.387  28.616  1.00  0.00     0.148 A 
ATOM     77  C   UNL A   1      46.023  35.703  30.784  1.00  0.00     0.002 A 
ATOM     78  C   UNL A   1      44.929  36.592  28.809  1.00  0.00     0.091 A 
ATOM     79  F   UNL A   1      43.404  35.208  27.605  1.00  0.00    -0.205 F 
ATOM     80  C   UNL A   1      45.798  36.756  29.900  1.00  0.00     0.022 A 
BRANCH  78  81
ATOM     81  S   UNL A   1      44.784  37.966  27.661  1.00  0.00     0.127 S 
ATOM     82  O   UNL A   1      43.453  37.744  27.097  1.00  0.00    -0.237 OA
ATOM     83  O   UNL A   1      44.886  39.122  28.550  1.00  0.00    -0.237 OA
ATOM     84  O   UNL A   1      45.886  37.825  26.720  1.00  0.00    -0.744 OA
ENDBRANCH  78  81
ENDBRANCH  51  74
ENDBRANCH  25  26
ENDBRANCH  18  20
ENDBRANCH  17  18
ENDBRANCH  16  17
ENDBRANCH   1  16
TORSDOF 18
ENDMDL
MODEL 2
REMARK VINA RESULT:      -9.5      5.733      9.330
REMARK SMILES O=C(Cc1cccnc1Cl)OCCOCCOC(=O)c1ccc(-c2c3nc(c(-c4cccc(S(=O)(=O)[O-])c4F)c4ccc([nH]4)c(-c4cccc(S(=O)(=O)[O-])c4F)c4nc(c(-c5cccc(S(=O)(=O)[O-])c5F)c5ccc2[nH]5)C=C4)C=C3)cc1
REMARK SMILES IDX 15 1 14 2 13 3 12 4 11 5 2 6 1 7 3 8 4 9 5 10 9 11 6 12 8 13
REMARK SMILES IDX 10 14 7 15 16 16 17 17 18 18 19 19 20 20 21 21 82 22 22 23
REMARK SMILES IDX 81 24 23 25 24 26 25 27 75 28 26 29 80 30 74 31 76 32 27 33
REMARK SMILES IDX 79 34 73 35 72 36 28 38 60 39 40 40 59 41 41 42 44 43 58 44
REMARK SMILES IDX 77 45 42 46 43 47 57 49 78 50 45 51 29 52 30 53 38 54 31 55
REMARK SMILES IDX 33 56 39 57 32 58 34 59 35 60 36 61 37 62 61 63 62 64 70 65
REMARK SMILES IDX 63 66 65 67 71 68 64 69 66 70 67 71 68 72 69 73 46 74 47 75
REMARK SMILES IDX 55 76 48 77 50 78 56 79 49 80 51 81 52 82 53 83 54 84
REMARK H PARENT 76 37 44 48
REMARK Flexibility Score: inf
ROOT
ATOM      1  C   UNL A   1      31.688  28.899  25.256  1.00  0.00     0.202 C 
ENDROOT
BRANCH   1   2
ATOM      2  O   UNL A   1      32.003  27.884  26.221  1.00  0.00    -0.374 OA
BRANCH   2   3
ATOM      3  C   UNL A   1      33.176  27.128  25.935  1.00  0.00     0.202 C 
BRANCH   3   4
ATOM      4  C   UNL A   1      33.659  27.119  24.485  1.00  0.00     0.261 C 
BRANCH   4   5
ATOM      5  O   UNL A   1      32.816  26.393  23.580  1.00  0.00    -0.463 OA
BRANCH   5   6
ATOM      6  C   UNL A   1      33.223  25.452  22.697  1.00  0.00     0.310 C 
ATOM      7  O   UNL A   1      33.653  25.809  21.600  1.00  0.00    -0.252 OA
BRANCH   6   8
ATOM      8  C   UNL A   1      33.063  23.979  23.010  1.00  0.00     0.161 C 
BRANCH   8   9
ATOM      9  C   UNL A   1      33.543  23.537  24.361  1.00  0.00     0.001 A 
ATOM     10  C   UNL A   1      32.647  23.469  25.437  1.00  0.00     0.009 A 
ATOM     11  C   UNL A   1      34.865  23.199  24.627  1.00  0.00     0.132 A 
ATOM     12  C   UNL A   1      33.110  23.197  26.717  1.00  0.00     0.020 A 
ATOM     13  N   UNL A   1      35.334  22.879  25.854  1.00  0.00    -0.244 NA
ATOM     14  Cl  UNL A   1      36.062  23.066  23.400  1.00  0.00    -0.062 Cl
ATOM     15  C   UNL A   1      34.453  22.918  26.874  1.00  0.00     0.113 A 
ENDBRANCH   8   9
ENDBRANCH   6   8
ENDBRANCH   5   6
ENDBRANCH   4   5
ENDBRANCH   3   4
ENDBRANCH   2   3
ENDBRANCH   1   2
BRANCH   1  16
ATOM     16  C   UNL A   1      31.786  30.338  25.775  1.00  0.00     0.261 C 
BRANCH  16  17
ATOM     17  O   UNL A   1      32.535  30.400  26.995  1.00  0.00    -0.460 OA
BRANCH  17  18
ATOM     18  C   UNL A   1      33.142  31.585  27.247  1.00  0.00     0.338 C 
ATOM     19  O   UNL A   1      32.628  32.692  27.253  1.00  0.00    -0.246 OA
BRANCH  18  20
ATOM     20  C   UNL A   1      34.497  31.308  27.767  1.00  0.00     0.060 A 
ATOM     21  C   UNL A   1      34.849  29.971  28.013  1.00  0.00     0.016 A 
ATOM     22  C   UNL A   1      35.424  32.334  27.959  1.00  0.00     0.016 A 
ATOM     23  C   UNL A   1      36.117  29.659  28.495  1.00  0.00     0.010 A 
ATOM     24  C   UNL A   1      36.689  32.023  28.450  1.00  0.00     0.010 A 
ATOM     25  C   UNL A   1      37.024  30.691  28.756  1.00  0.00    -0.014 A 
BRANCH  25  26
ATOM     26  C   UNL A   1      38.246  30.441  29.549  1.00  0.00     0.031 A 
ATOM     27  C   UNL A   1      39.233  29.450  29.004  1.00  0.00     0.074 A 
ATOM     28  C   UNL A   1      38.419  30.999  30.756  1.00  0.00     0.049 A 
ATOM     29  N   UNL A   1      40.269  28.907  29.582  1.00  0.00    -0.248 NA
ATOM     30  C   UNL A   1      38.996  28.988  27.626  1.00  0.00     0.031 C 
ATOM     31  C   UNL A   1      37.518  31.968  31.376  1.00  0.00     0.029 A 
ATOM     32  N   UNL A   1      39.387  30.775  31.704  1.00  0.00    -0.354 N 
ATOM     33  C   UNL A   1      40.772  27.996  28.663  1.00  0.00     0.074 A 
ATOM     34  C   UNL A   1      39.930  28.059  27.491  1.00  0.00     0.031 C 
ATOM     35  C   UNL A   1      37.941  32.211  32.628  1.00  0.00     0.029 A 
ATOM     36  C   UNL A   1      39.115  31.385  32.905  1.00  0.00     0.049 A 
ATOM     37  H   UNL A   1      40.193  30.235  31.539  1.00  0.00     0.167 HD
ATOM     38  C   UNL A   1      41.840  27.176  28.789  1.00  0.00     0.034 A 
ATOM     39  C   UNL A   1      39.713  31.245  34.105  1.00  0.00     0.034 A 
ATOM     40  C   UNL A   1      42.671  27.131  29.959  1.00  0.00     0.049 A 
ATOM     41  C   UNL A   1      40.900  30.326  34.230  1.00  0.00     0.074 A 
ATOM     42  C   UNL A   1      43.823  26.396  30.169  1.00  0.00     0.029 A 
ATOM     43  N   UNL A   1      42.420  27.831  31.129  1.00  0.00    -0.354 N 
ATOM     44  N   UNL A   1      41.447  29.558  33.317  1.00  0.00    -0.248 NA
ATOM     45  C   UNL A   1      41.572  30.276  35.536  1.00  0.00     0.031 C 
ATOM     46  C   UNL A   1      44.244  26.620  31.484  1.00  0.00     0.029 A 
ATOM     47  C   UNL A   1      43.384  27.534  32.075  1.00  0.00     0.049 A 
ATOM     48  H   UNL A   1      41.667  28.451  31.267  1.00  0.00     0.167 HD
ATOM     49  C   UNL A   1      42.547  28.963  33.926  1.00  0.00     0.074 A 
ATOM     50  C   UNL A   1      42.591  29.464  35.285  1.00  0.00     0.031 C 
ATOM     51  C   UNL A   1      43.438  28.082  33.407  1.00  0.00     0.034 A 
BRANCH  38  52
ATOM     52  C   UNL A   1      42.152  26.259  27.636  1.00  0.00     0.023 A 
ATOM     53  C   UNL A   1      42.875  26.737  26.524  1.00  0.00     0.012 A 
ATOM     54  C   UNL A   1      41.729  24.916  27.657  1.00  0.00     0.148 A 
ATOM     55  C   UNL A   1      43.127  25.909  25.431  1.00  0.00     0.002 A 
ATOM     56  C   UNL A   1      42.031  24.081  26.588  1.00  0.00     0.091 A 
ATOM     57  F   UNL A   1      41.017  24.484  28.708  1.00  0.00    -0.205 F 
ATOM     58  C   UNL A   1      42.714  24.580  25.467  1.00  0.00     0.022 A 
BRANCH  56  59
ATOM     59  S   UNL A   1      41.614  22.335  26.582  1.00  0.00     0.127 S 
ATOM     60  O   UNL A   1      42.205  21.887  27.842  1.00  0.00    -0.237 OA
ATOM     61  O   UNL A   1      40.152  22.368  26.571  1.00  0.00    -0.237 OA
ATOM     62  O   UNL A   1      42.216  21.785  25.376  1.00  0.00    -0.744 OA
ENDBRANCH  56  59
ENDBRANCH  38  52
BRANCH  39  63
ATOM     63  C   UNL A   1      39.189  32.002  35.274  1.00  0.00     0.023 A 
ATOM     64  C   UNL A   1      38.275  31.390  36.150  1.00  0.00     0.012 A 
ATOM     65  C   UNL A   1      39.651  33.303  35.558  1.00  0.00     0.148 A 
ATOM     66  C   UNL A   1      37.816  32.066  37.282  1.00  0.00     0.002 A 
ATOM     67  C   UNL A   1      39.235  33.947  36.716  1.00  0.00     0.091 A 
ATOM     68  F   UNL A   1      40.518  33.867  34.704  1.00  0.00    -0.205 F 
ATOM     69  C   UNL A   1      38.306  33.337  37.572  1.00  0.00     0.022 A 
BRANCH  67  70
ATOM     70  S   UNL A   1      39.913  35.525  37.243  1.00  0.00     0.127 S 
ATOM     71  O   UNL A   1      39.168  35.775  38.473  1.00  0.00    -0.237 OA
ATOM     72  O   UNL A   1      41.325  35.190  37.432  1.00  0.00    -0.237 OA
ATOM     73  O   UNL A   1      39.652  36.453  36.152  1.00  0.00    -0.744 OA
ENDBRANCH  67  70
ENDBRANCH  39  63
BRANCH  51  74
ATOM     74  C   UNL A   1      44.583  27.636  34.279  1.00  0.00     0.023 A 
ATOM     75  C   UNL A   1      45.767  28.395  34.340  1.00  0.00     0.012 A 
ATOM     76  C   UNL A   1      44.428  26.521  35.127  1.00  0.00     0.148 A 
ATOM     77  C   UNL A   1      46.788  28.039  35.222  1.00  0.00     0.002 A 
ATOM     78  C   UNL A   1      45.425  26.205  36.040  1.00  0.00     0.091 A 
ATOM     79  F   UNL A   1      43.298  25.805  35.039  1.00  0.00    -0.205 F 
ATOM     80  C   UNL A   1      46.612  26.955  36.081  1.00  0.00     0.022 A 
BRANCH  78  81
ATOM     81  S   UNL A   1      45.240  24.896  37.256  1.00  0.00     0.127 S 
ATOM     82  O   UNL A   1      44.038  25.323  37.972  1.00  0.00    -0.237 OA
ATOM     83  O   UNL A   1      45.060  23.715  36.412  1.00  0.00    -0.237 OA
ATOM     84  O   UNL A   1      46.464  24.899  38.044  1.00  0.00    -0.744 OA
ENDBRANCH  78  81
ENDBRANCH  51  74
ENDBRANCH  25  26
ENDBRANCH  18  20
ENDBRANCH  17  18
ENDBRANCH  16  17
ENDBRANCH   1  16
TORSDOF 18
ENDMDL
MODEL 3
REMARK VINA RESULT:      -9.4      1.808      2.195
REMARK SMILES O=C(Cc1cccnc1Cl)OCCOCCOC(=O)c1ccc(-c2c3nc(c(-c4cccc(S(=O)(=O)[O-])c4F)c4ccc([nH]4)c(-c4cccc(S(=O)(=O)[O-])c4F)c4nc(c(-c5cccc(S(=O)(=O)[O-])c5F)c5ccc2[nH]5)C=C4)C=C3)cc1
REMARK SMILES IDX 15 1 14 2 13 3 12 4 11 5 2 6 1 7 3 8 4 9 5 10 9 11 6 12 8 13
REMARK SMILES IDX 10 14 7 15 16 16 17 17 18 18 19 19 20 20 21 21 82 22 22 23
REMARK SMILES IDX 81 24 23 25 24 26 25 27 75 28 26 29 80 30 74 31 76 32 27 33
REMARK SMILES IDX 79 34 73 35 72 36 28 38 60 39 40 40 59 41 41 42 44 43 58 44
REMARK SMILES IDX 77 45 42 46 43 47 57 49 78 50 45 51 29 52 30 53 38 54 31 55
REMARK SMILES IDX 33 56 39 57 32 58 34 59 35 60 36 61 37 62 61 63 62 64 70 65
REMARK SMILES IDX 63 66 65 67 71 68 64 69 66 70 67 71 68 72 69 73 46 74 47 75
REMARK SMILES IDX 55 76 48 77 50 78 56 79 49 80 51 81 52 82 53 83 54 84
REMARK H PARENT 76 37 44 48
REMARK Flexibility Score: inf
ROOT
ATOM      1  C   UNL A   1      41.795  20.129  26.128  1.00  0.00     0.202 C 
ENDROOT
BRANCH   1   2
ATOM      2  O   UNL A   1      42.153  18.841  25.605  1.00  0.00    -0.374 OA
BRANCH   2   3
ATOM      3  C   UNL A   1      43.540  18.524  25.688  1.00  0.00     0.202 C 
BRANCH   3   4
ATOM      4  C   UNL A   1      44.422  18.962  24.520  1.00  0.00     0.261 C 
BRANCH   4   5
ATOM      5  O   UNL A   1      44.649  20.377  24.442  1.00  0.00    -0.463 OA
BRANCH   5   6
ATOM      6  C   UNL A   1      45.701  21.042  24.970  1.00  0.00     0.310 C 
ATOM      7  O   UNL A   1      46.841  20.727  24.626  1.00  0.00    -0.252 OA
BRANCH   6   8
ATOM      8  C   UNL A   1      45.492  22.092  26.042  1.00  0.00     0.161 C 
BRANCH   8   9
ATOM      9  C   UNL A   1      45.663  23.518  25.608  1.00  0.00     0.001 A 
ATOM     10  C   UNL A   1      46.940  24.096  25.586  1.00  0.00     0.009 A 
ATOM     11  C   UNL A   1      44.601  24.333  25.233  1.00  0.00     0.132 A 
ATOM     12  C   UNL A   1      47.090  25.451  25.321  1.00  0.00     0.020 A 
ATOM     13  N   UNL A   1      44.724  25.642  24.918  1.00  0.00    -0.244 NA
ATOM     14  Cl  UNL A   1      42.995  23.750  25.041  1.00  0.00    -0.062 Cl
ATOM     15  C   UNL A   1      45.959  26.177  25.003  1.00  0.00     0.113 A 
ENDBRANCH   8   9
ENDBRANCH   6   8
ENDBRANCH   5   6
ENDBRANCH   4   5
ENDBRANCH   3   4
ENDBRANCH   2   3
ENDBRANCH   1   2
BRANCH   1  16
ATOM     16  C   UNL A   1      40.792  20.102  27.288  1.00  0.00     0.261 C 
BRANCH  16  17
ATOM     17  O   UNL A   1      40.473  21.427  27.729  1.00  0.00    -0.460 OA
BRANCH  17  18
ATOM     18  C   UNL A   1      39.839  22.208  26.820  1.00  0.00     0.338 C 
ATOM     19  O   UNL A   1      39.093  21.842  25.925  1.00  0.00    -0.246 OA
BRANCH  18  20
ATOM     20  C   UNL A   1      39.993  23.617  27.234  1.00  0.00     0.060 A 
ATOM     21  C   UNL A   1      39.214  24.586  26.581  1.00  0.00     0.016 A 
ATOM     22  C   UNL A   1      40.847  23.977  28.278  1.00  0.00     0.016 A 
ATOM     23  C   UNL A   1      39.318  25.926  26.942  1.00  0.00     0.010 A 
ATOM     24  C   UNL A   1      40.959  25.318  28.632  1.00  0.00     0.010 A 
ATOM     25  C   UNL A   1      40.225  26.299  27.940  1.00  0.00    -0.014 A 
BRANCH  25  26
ATOM     26  C   UNL A   1      40.592  27.717  28.136  1.00  0.00     0.031 A 
ATOM     27  C   UNL A   1      42.050  28.070  28.070  1.00  0.00     0.074 A 
ATOM     28  C   UNL A   1      39.671  28.636  28.463  1.00  0.00     0.049 A 
ATOM     29  N   UNL A   1      42.651  29.180  28.398  1.00  0.00    -0.248 NA
ATOM     30  C   UNL A   1      42.954  27.008  27.595  1.00  0.00     0.031 C 
ATOM     31  C   UNL A   1      38.233  28.395  28.558  1.00  0.00     0.029 A 
ATOM     32  N   UNL A   1      39.824  29.948  28.838  1.00  0.00    -0.354 N 
ATOM     33  C   UNL A   1      44.006  28.934  28.229  1.00  0.00     0.074 A 
ATOM     34  C   UNL A   1      44.140  27.570  27.768  1.00  0.00     0.031 C 
ATOM     35  C   UNL A   1      37.639  29.504  29.025  1.00  0.00     0.029 A 
ATOM     36  C   UNL A   1      38.661  30.515  29.299  1.00  0.00     0.049 A 
ATOM     37  H   UNL A   1      40.679  30.432  28.782  1.00  0.00     0.167 HD
ATOM     38  C   UNL A   1      45.047  29.770  28.442  1.00  0.00     0.034 A 
ATOM     39  C   UNL A   1      38.455  31.693  29.922  1.00  0.00     0.034 A 
ATOM     40  C   UNL A   1      44.896  31.125  28.893  1.00  0.00     0.049 A 
ATOM     41  C   UNL A   1      39.626  32.611  30.155  1.00  0.00     0.074 A 
ATOM     42  C   UNL A   1      45.873  32.087  29.070  1.00  0.00     0.029 A 
ATOM     43  N   UNL A   1      43.690  31.700  29.265  1.00  0.00    -0.354 N 
ATOM     44  N   UNL A   1      40.893  32.419  29.877  1.00  0.00    -0.248 NA
ATOM     45  C   UNL A   1      39.337  33.921  30.758  1.00  0.00     0.031 C 
ATOM     46  C   UNL A   1      45.261  33.231  29.592  1.00  0.00     0.029 A 
ATOM     47  C   UNL A   1      43.897  32.998  29.690  1.00  0.00     0.049 A 
ATOM     48  H   UNL A   1      42.815  31.250  29.230  1.00  0.00     0.167 HD
ATOM     49  C   UNL A   1      41.548  33.593  30.235  1.00  0.00     0.074 A 
ATOM     50  C   UNL A   1      40.534  34.494  30.745  1.00  0.00     0.031 C 
ATOM     51  C   UNL A   1      42.867  33.897  30.149  1.00  0.00     0.034 A 
BRANCH  38  52
ATOM     52  C   UNL A   1      46.433  29.230  28.202  1.00  0.00     0.023 A 
ATOM     53  C   UNL A   1      47.056  29.406  26.950  1.00  0.00     0.012 A 
ATOM     54  C   UNL A   1      47.120  28.549  29.224  1.00  0.00     0.148 A 
ATOM     55  C   UNL A   1      48.319  28.869  26.703  1.00  0.00     0.002 A 
ATOM     56  C   UNL A   1      48.401  28.063  28.989  1.00  0.00     0.091 A 
ATOM     57  F   UNL A   1      46.503  28.363  30.401  1.00  0.00    -0.205 F 
ATOM     58  C   UNL A   1      48.994  28.206  27.724  1.00  0.00     0.022 A 
BRANCH  56  59
ATOM     59  S   UNL A   1      49.381  27.271  30.267  1.00  0.00     0.127 S 
ATOM     60  O   UNL A   1      50.427  26.622  29.478  1.00  0.00    -0.237 OA
ATOM     61  O   UNL A   1      49.835  28.415  31.058  1.00  0.00    -0.237 OA
ATOM     62  O   UNL A   1      48.475  26.373  30.968  1.00  0.00    -0.744 OA
ENDBRANCH  56  59
ENDBRANCH  38  52
BRANCH  39  63
ATOM     63  C   UNL A   1      37.081  32.056  30.361  1.00  0.00     0.023 A 
ATOM     64  C   UNL A   1      36.670  31.774  31.677  1.00  0.00     0.012 A 
ATOM     65  C   UNL A   1      36.205  32.744  29.498  1.00  0.00     0.148 A 
ATOM     66  C   UNL A   1      35.404  32.159  32.122  1.00  0.00     0.002 A 
ATOM     67  C   UNL A   1      34.969  33.174  29.965  1.00  0.00     0.091 A 
ATOM     68  F   UNL A   1      36.617  32.995  28.247  1.00  0.00    -0.205 F 
ATOM     69  C   UNL A   1      34.560  32.869  31.272  1.00  0.00     0.022 A 
BRANCH  67  70
ATOM     70  S   UNL A   1      33.873  34.211  28.990  1.00  0.00     0.127 S 
ATOM     71  O   UNL A   1      33.370  33.265  27.998  1.00  0.00    -0.237 OA
ATOM     72  O   UNL A   1      32.896  34.632  29.994  1.00  0.00    -0.237 OA
ATOM     73  O   UNL A   1      34.706  35.285  28.467  1.00  0.00    -0.744 OA
ENDBRANCH  67  70
ENDBRANCH  39  63
BRANCH  51  74
ATOM     74  C   UNL A   1      43.303  35.280  30.556  1.00  0.00     0.023 A 
ATOM     75  C   UNL A   1      43.856  35.505  31.830  1.00  0.00     0.012 A 
ATOM     76  C   UNL A   1      43.268  36.332  29.618  1.00  0.00     0.148 A 
ATOM     77  C   UNL A   1      44.353  36.764  32.172  1.00  0.00     0.002 A 
ATOM     78  C   UNL A   1      43.813  37.566  29.946  1.00  0.00     0.091 A 
ATOM     79  F   UNL A   1      42.721  36.097  28.416  1.00  0.00    -0.205 F 
ATOM     80  C   UNL A   1      44.345  37.788  31.227  1.00  0.00     0.022 A 
BRANCH  78  81
ATOM     81  S   UNL A   1      43.944  38.908  28.759  1.00  0.00     0.127 S 
ATOM     82  O   UNL A   1      42.550  39.079  28.348  1.00  0.00    -0.237 OA
ATOM     83  O   UNL A   1      44.476  39.995  29.580  1.00  0.00    -0.237 OA
ATOM     84  O   UNL A   1      44.844  38.439  27.715  1.00  0.00    -0.744 OA
ENDBRANCH  78  81
ENDBRANCH  51  74
ENDBRANCH  25  26
ENDBRANCH  18  20
ENDBRANCH  17  18
ENDBRANCH  16  17
ENDBRANCH   1  16
TORSDOF 18
ENDMDL
