MODEL 1
REMARK VINA RESULT:     -12.0      0.000      0.000
REMARK SMILES O=C(OCCOCCOC(=O)c1ccc(-c2c3nc(c(-c4cccc(S(=O)(=O)[O-])c4F)c4ccc([nH]4)c(-c4cccc(S(=O)(=O)[O-])c4F)c4nc(c(-c5cccc(S(=O)(=O)[O-])c5F)c5ccc2[nH]5)C=C4)C=C3)cc1)C1=Cc2c(ccc(Cl)c2Cl)O[C@H]1C(F)(F)F
REMARK SMILES IDX 7 1 6 2 5 3 4 4 3 5 2 6 1 7 75 8 76 9 86 10 77 11 85 12
REMARK SMILES IDX 78 13 83 14 79 15 81 16 84 17 80 18 82 19 87 20 88 21 89 22
REMARK SMILES IDX 90 23 8 24 9 25 10 26 11 27 12 28 13 29 74 30 14 31 73 32
REMARK SMILES IDX 15 33 16 34 17 35 67 36 18 37 72 38 66 39 68 40 19 41 71 42
REMARK SMILES IDX 65 43 64 44 20 46 52 47 32 48 51 49 33 50 36 51 50 52 69 53
REMARK SMILES IDX 34 54 35 55 49 57 70 58 37 59 21 60 22 61 30 62 23 63 25 64
REMARK SMILES IDX 31 65 24 66 26 67 27 68 28 69 29 70 53 71 54 72 62 73 55 74
REMARK SMILES IDX 57 75 63 76 56 77 58 78 59 79 60 80 61 81 38 82 39 83 47 84
REMARK SMILES IDX 40 85 42 86 48 87 41 88 43 89 44 90 45 91 46 92
REMARK H PARENT 68 45 36 56
REMARK Flexibility Score: inf
ROOT
ATOM      1  C   UNL A   1      34.564  21.339  24.921  1.00  0.00     0.202 C 
ENDROOT
BRANCH   1   2
ATOM      2  O   UNL A   1      34.485  22.648  25.480  1.00  0.00    -0.374 OA
BRANCH   2   3
ATOM      3  C   UNL A   1      34.429  22.645  26.908  1.00  0.00     0.202 C 
BRANCH   3   4
ATOM      4  C   UNL A   1      33.066  22.175  27.415  1.00  0.00     0.261 C 
BRANCH   4   5
ATOM      5  O   UNL A   1      32.178  23.266  27.737  1.00  0.00    -0.460 OA
BRANCH   5   6
ATOM      6  C   UNL A   1      31.239  23.845  26.960  1.00  0.00     0.338 C 
ATOM      7  O   UNL A   1      30.052  23.700  27.258  1.00  0.00    -0.246 OA
BRANCH   6   8
ATOM      8  C   UNL A   1      31.570  24.842  25.913  1.00  0.00     0.087 C 
ATOM      9  C   UNL A   1      32.404  25.880  26.017  1.00  0.00     0.029 C 
ATOM     10  C   UNL A   1      30.749  24.698  24.647  1.00  0.00     0.316 C 
ATOM     11  C   UNL A   1      31.931  27.140  25.470  1.00  0.00     0.037 A 
ATOM     12  O   UNL A   1      30.769  25.871  23.769  1.00  0.00    -0.475 OA
ATOM     13  C   UNL A   1      31.101  27.064  24.353  1.00  0.00     0.129 A 
ATOM     14  C   UNL A   1      32.152  28.387  26.096  1.00  0.00     0.070 A 
ATOM     15  C   UNL A   1      30.571  28.221  23.795  1.00  0.00     0.049 A 
ATOM     16  C   UNL A   1      31.576  29.544  25.559  1.00  0.00     0.060 A 
ATOM     17  Cl  UNL A   1      33.047  28.481  27.574  1.00  0.00    -0.082 Cl
ATOM     18  C   UNL A   1      30.800  29.458  24.403  1.00  0.00     0.026 A 
ATOM     19  Cl  UNL A   1      31.763  31.103  26.285  1.00  0.00    -0.083 Cl
BRANCH  10  20
ATOM     20  C   UNL A   1      31.219  23.461  23.826  1.00  0.00     0.430 C 
ATOM     21  F   UNL A   1      30.379  23.104  22.826  1.00  0.00    -0.167 F 
ATOM     22  F   UNL A   1      32.437  23.681  23.269  1.00  0.00    -0.167 F 
ATOM     23  F   UNL A   1      31.344  22.356  24.607  1.00  0.00    -0.167 F 
ENDBRANCH  10  20
ENDBRANCH   6   8
ENDBRANCH   5   6
ENDBRANCH   4   5
ENDBRANCH   3   4
ENDBRANCH   2   3
ENDBRANCH   1   2
BRANCH   1  24
ATOM     24  C   UNL A   1      35.871  20.622  25.275  1.00  0.00     0.261 C 
BRANCH  24  25
ATOM     25  O   UNL A   1      37.012  21.472  25.052  1.00  0.00    -0.460 OA
BRANCH  25  26
ATOM     26  C   UNL A   1      38.211  21.005  25.514  1.00  0.00     0.338 C 
ATOM     27  O   UNL A   1      38.632  19.881  25.404  1.00  0.00    -0.246 OA
BRANCH  26  28
ATOM     28  C   UNL A   1      39.006  22.129  26.099  1.00  0.00     0.060 A 
ATOM     29  C   UNL A   1      38.539  23.440  25.910  1.00  0.00     0.016 A 
ATOM     30  C   UNL A   1      40.166  21.920  26.851  1.00  0.00     0.016 A 
ATOM     31  C   UNL A   1      39.212  24.528  26.485  1.00  0.00     0.010 A 
ATOM     32  C   UNL A   1      40.841  23.006  27.419  1.00  0.00     0.010 A 
ATOM     33  C   UNL A   1      40.371  24.318  27.241  1.00  0.00    -0.014 A 
BRANCH  33  34
ATOM     34  C   UNL A   1      41.189  25.448  27.757  1.00  0.00     0.031 A 
ATOM     35  C   UNL A   1      40.504  26.534  28.536  1.00  0.00     0.074 A 
ATOM     36  C   UNL A   1      42.491  25.577  27.439  1.00  0.00     0.049 A 
ATOM     37  N   UNL A   1      40.981  27.677  28.956  1.00  0.00    -0.248 NA
ATOM     38  C   UNL A   1      39.090  26.307  28.878  1.00  0.00     0.031 C 
ATOM     39  C   UNL A   1      43.279  24.606  26.684  1.00  0.00     0.029 A 
ATOM     40  N   UNL A   1      43.370  26.612  27.670  1.00  0.00    -0.354 N 
ATOM     41  C   UNL A   1      39.919  28.323  29.573  1.00  0.00     0.074 A 
ATOM     42  C   UNL A   1      38.776  27.439  29.491  1.00  0.00     0.031 C 
ATOM     43  C   UNL A   1      44.507  25.110  26.467  1.00  0.00     0.029 A 
ATOM     44  C   UNL A   1      44.584  26.455  27.039  1.00  0.00     0.049 A 
ATOM     45  H   UNL A   1      43.151  27.389  28.233  1.00  0.00     0.167 HD
ATOM     46  C   UNL A   1      39.893  29.545  30.153  1.00  0.00     0.034 A 
ATOM     47  C   UNL A   1      45.619  27.310  26.900  1.00  0.00     0.034 A 
ATOM     48  C   UNL A   1      41.020  30.433  30.241  1.00  0.00     0.049 A 
ATOM     49  C   UNL A   1      45.544  28.684  27.526  1.00  0.00     0.074 A 
ATOM     50  C   UNL A   1      41.095  31.657  30.881  1.00  0.00     0.029 A 
ATOM     51  N   UNL A   1      42.249  30.215  29.645  1.00  0.00    -0.354 N 
ATOM     52  N   UNL A   1      44.595  29.209  28.262  1.00  0.00    -0.248 NA
ATOM     53  C   UNL A   1      46.695  29.579  27.318  1.00  0.00     0.031 C 
ATOM     54  C   UNL A   1      42.358  32.203  30.633  1.00  0.00     0.029 A 
ATOM     55  C   UNL A   1      43.080  31.300  29.870  1.00  0.00     0.049 A 
ATOM     56  H   UNL A   1      42.497  29.410  29.137  1.00  0.00     0.167 HD
ATOM     57  C   UNL A   1      45.048  30.473  28.628  1.00  0.00     0.074 A 
ATOM     58  C   UNL A   1      46.368  30.629  28.058  1.00  0.00     0.031 C 
ATOM     59  C   UNL A   1      44.416  31.429  29.354  1.00  0.00     0.034 A 
BRANCH  46  60
ATOM     60  C   UNL A   1      38.594  30.010  30.745  1.00  0.00     0.023 A 
ATOM     61  C   UNL A   1      38.322  29.773  32.106  1.00  0.00     0.012 A 
ATOM     62  C   UNL A   1      37.685  30.757  29.970  1.00  0.00     0.148 A 
ATOM     63  C   UNL A   1      37.151  30.258  32.686  1.00  0.00     0.002 A 
ATOM     64  C   UNL A   1      36.540  31.271  30.564  1.00  0.00     0.091 A 
ATOM     65  F   UNL A   1      37.961  30.949  28.673  1.00  0.00    -0.205 F 
ATOM     66  C   UNL A   1      36.268  31.016  31.918  1.00  0.00     0.022 A 
BRANCH  64  67
ATOM     67  S   UNL A   1      35.379  32.318  29.683  1.00  0.00     0.127 S 
ATOM     68  O   UNL A   1      34.880  31.403  28.657  1.00  0.00    -0.237 OA
ATOM     69  O   UNL A   1      34.411  32.646  30.730  1.00  0.00    -0.237 OA
ATOM     70  O   UNL A   1      36.149  33.448  29.184  1.00  0.00    -0.744 OA
ENDBRANCH  64  67
ENDBRANCH  46  60
BRANCH  47  71
ATOM     71  C   UNL A   1      46.833  26.919  26.122  1.00  0.00     0.023 A 
ATOM     72  C   UNL A   1      47.801  26.086  26.717  1.00  0.00     0.012 A 
ATOM     73  C   UNL A   1      47.060  27.409  24.821  1.00  0.00     0.148 A 
ATOM     74  C   UNL A   1      48.993  25.791  26.054  1.00  0.00     0.002 A 
ATOM     75  C   UNL A   1      48.224  27.062  24.142  1.00  0.00     0.091 A 
ATOM     76  F   UNL A   1      46.143  28.220  24.276  1.00  0.00    -0.205 F 
ATOM     77  C   UNL A   1      49.201  26.273  24.765  1.00  0.00     0.022 A 
BRANCH  75  78
ATOM     78  S   UNL A   1      48.516  27.537  22.434  1.00  0.00     0.127 S 
ATOM     79  O   UNL A   1      49.761  28.291  22.542  1.00  0.00    -0.237 OA
ATOM     80  O   UNL A   1      48.638  26.236  21.775  1.00  0.00    -0.237 OA
ATOM     81  O   UNL A   1      47.340  28.299  22.036  1.00  0.00    -0.744 OA
ENDBRANCH  75  78
ENDBRANCH  47  71
BRANCH  59  82
ATOM     82  C   UNL A   1      45.141  32.726  29.614  1.00  0.00     0.023 A 
ATOM     83  C   UNL A   1      45.969  32.851  30.749  1.00  0.00     0.012 A 
ATOM     84  C   UNL A   1      45.086  33.781  28.681  1.00  0.00     0.148 A 
ATOM     85  C   UNL A   1      46.711  34.014  30.962  1.00  0.00     0.002 A 
ATOM     86  C   UNL A   1      45.866  34.916  28.875  1.00  0.00     0.091 A 
ATOM     87  F   UNL A   1      44.284  33.650  27.615  1.00  0.00    -0.205 F 
ATOM     88  C   UNL A   1      46.670  35.039  30.019  1.00  0.00     0.022 A 
BRANCH  86  89
ATOM     89  S   UNL A   1      45.957  36.246  27.669  1.00  0.00     0.127 S 
ATOM     90  O   UNL A   1      47.211  36.899  28.041  1.00  0.00    -0.237 OA
ATOM     91  O   UNL A   1      46.003  35.514  26.403  1.00  0.00    -0.237 OA
ATOM     92  O   UNL A   1      44.757  37.050  27.862  1.00  0.00    -0.744 OA
ENDBRANCH  86  89
ENDBRANCH  59  82
ENDBRANCH  33  34
ENDBRANCH  26  28
ENDBRANCH  25  26
ENDBRANCH  24  25
ENDBRANCH   1  24
TORSDOF 18
ENDMDL
MODEL 2
REMARK VINA RESULT:     -11.9      5.323      9.984
REMARK SMILES O=C(OCCOCCOC(=O)c1ccc(-c2c3nc(c(-c4cccc(S(=O)(=O)[O-])c4F)c4ccc([nH]4)c(-c4cccc(S(=O)(=O)[O-])c4F)c4nc(c(-c5cccc(S(=O)(=O)[O-])c5F)c5ccc2[nH]5)C=C4)C=C3)cc1)C1=Cc2c(ccc(Cl)c2Cl)O[C@H]1C(F)(F)F
REMARK SMILES IDX 7 1 6 2 5 3 4 4 3 5 2 6 1 7 75 8 76 9 86 10 77 11 85 12
REMARK SMILES IDX 78 13 83 14 79 15 81 16 84 17 80 18 82 19 87 20 88 21 89 22
REMARK SMILES IDX 90 23 8 24 9 25 10 26 11 27 12 28 13 29 74 30 14 31 73 32
REMARK SMILES IDX 15 33 16 34 17 35 67 36 18 37 72 38 66 39 68 40 19 41 71 42
REMARK SMILES IDX 65 43 64 44 20 46 52 47 32 48 51 49 33 50 36 51 50 52 69 53
REMARK SMILES IDX 34 54 35 55 49 57 70 58 37 59 21 60 22 61 30 62 23 63 25 64
REMARK SMILES IDX 31 65 24 66 26 67 27 68 28 69 29 70 53 71 54 72 62 73 55 74
REMARK SMILES IDX 57 75 63 76 56 77 58 78 59 79 60 80 61 81 38 82 39 83 47 84
REMARK SMILES IDX 40 85 42 86 48 87 41 88 43 89 44 90 45 91 46 92
REMARK H PARENT 68 45 36 56
REMARK Flexibility Score: inf
ROOT
ATOM      1  C   UNL A   1      31.247  29.592  24.101  1.00  0.00     0.202 C 
ENDROOT
BRANCH   1   2
ATOM      2  O   UNL A   1      29.966  29.009  23.873  1.00  0.00    -0.374 OA
BRANCH   2   3
ATOM      3  C   UNL A   1      29.888  28.288  22.642  1.00  0.00     0.202 C 
BRANCH   3   4
ATOM      4  C   UNL A   1      31.174  27.508  22.366  1.00  0.00     0.261 C 
BRANCH   4   5
ATOM      5  O   UNL A   1      31.029  26.089  22.583  1.00  0.00    -0.460 OA
BRANCH   5   6
ATOM      6  C   UNL A   1      31.112  25.400  23.741  1.00  0.00     0.338 C 
ATOM      7  O   UNL A   1      30.144  25.404  24.502  1.00  0.00    -0.246 OA
BRANCH   6   8
ATOM      8  C   UNL A   1      32.212  24.447  24.027  1.00  0.00     0.087 C 
ATOM      9  C   UNL A   1      32.625  23.433  23.263  1.00  0.00     0.029 C 
ATOM     10  C   UNL A   1      32.816  24.604  25.408  1.00  0.00     0.316 C 
ATOM     11  C   UNL A   1      32.878  22.176  23.946  1.00  0.00     0.037 A 
ATOM     12  O   UNL A   1      33.611  23.460  25.861  1.00  0.00    -0.475 OA
ATOM     13  C   UNL A   1      33.356  22.261  25.253  1.00  0.00     0.129 A 
ATOM     14  C   UNL A   1      32.529  20.918  23.408  1.00  0.00     0.070 A 
ATOM     15  C   UNL A   1      33.583  21.106  25.991  1.00  0.00     0.049 A 
ATOM     16  C   UNL A   1      32.713  19.761  24.172  1.00  0.00     0.060 A 
ATOM     17  Cl  UNL A   1      31.786  20.806  21.849  1.00  0.00    -0.082 Cl
ATOM     18  C   UNL A   1      33.253  19.859  25.456  1.00  0.00     0.026 A 
ATOM     19  Cl  UNL A   1      32.275  18.187  23.605  1.00  0.00    -0.083 Cl
BRANCH  10  20
ATOM     20  C   UNL A   1      33.707  25.880  25.475  1.00  0.00     0.430 C 
ATOM     21  F   UNL A   1      33.748  26.592  24.325  1.00  0.00    -0.167 F 
ATOM     22  F   UNL A   1      33.282  26.719  26.452  1.00  0.00    -0.167 F 
ATOM     23  F   UNL A   1      35.001  25.577  25.761  1.00  0.00    -0.167 F 
ENDBRANCH  10  20
ENDBRANCH   6   8
ENDBRANCH   5   6
ENDBRANCH   4   5
ENDBRANCH   3   4
ENDBRANCH   2   3
ENDBRANCH   1   2
BRANCH   1  24
ATOM     24  C   UNL A   1      31.652  29.573  25.578  1.00  0.00     0.261 C 
BRANCH  24  25
ATOM     25  O   UNL A   1      32.980  30.099  25.763  1.00  0.00    -0.460 OA
BRANCH  25  26
ATOM     26  C   UNL A   1      33.127  31.027  26.756  1.00  0.00     0.338 C 
ATOM     27  O   UNL A   1      32.315  31.852  27.092  1.00  0.00    -0.246 OA
BRANCH  26  28
ATOM     28  C   UNL A   1      34.426  30.813  27.467  1.00  0.00     0.060 A 
ATOM     29  C   UNL A   1      34.783  29.500  27.815  1.00  0.00     0.016 A 
ATOM     30  C   UNL A   1      35.306  31.859  27.760  1.00  0.00     0.016 A 
ATOM     31  C   UNL A   1      36.015  29.233  28.429  1.00  0.00     0.010 A 
ATOM     32  C   UNL A   1      36.532  31.594  28.380  1.00  0.00     0.010 A 
ATOM     33  C   UNL A   1      36.897  30.281  28.720  1.00  0.00    -0.014 A 
BRANCH  33  34
ATOM     34  C   UNL A   1      38.152  30.062  29.488  1.00  0.00     0.031 A 
ATOM     35  C   UNL A   1      39.172  29.105  28.940  1.00  0.00     0.074 A 
ATOM     36  C   UNL A   1      38.333  30.604  30.707  1.00  0.00     0.049 A 
ATOM     37  N   UNL A   1      40.263  28.651  29.500  1.00  0.00    -0.248 NA
ATOM     38  C   UNL A   1      38.923  28.582  27.587  1.00  0.00     0.031 C 
ATOM     39  C   UNL A   1      37.424  31.540  31.363  1.00  0.00     0.029 A 
ATOM     40  N   UNL A   1      39.329  30.399  31.637  1.00  0.00    -0.354 N 
ATOM     41  C   UNL A   1      40.810  27.759  28.588  1.00  0.00     0.074 A 
ATOM     42  C   UNL A   1      39.942  27.748  27.430  1.00  0.00     0.031 C 
ATOM     43  C   UNL A   1      37.872  31.789  32.607  1.00  0.00     0.029 A 
ATOM     44  C   UNL A   1      39.083  31.004  32.850  1.00  0.00     0.049 A 
ATOM     45  H   UNL A   1      40.139  29.871  31.452  1.00  0.00     0.167 HD
ATOM     46  C   UNL A   1      41.930  27.010  28.703  1.00  0.00     0.034 A 
ATOM     47  C   UNL A   1      39.731  30.904  34.030  1.00  0.00     0.034 A 
ATOM     48  C   UNL A   1      42.801  27.011  29.847  1.00  0.00     0.049 A 
ATOM     49  C   UNL A   1      40.958  30.028  34.137  1.00  0.00     0.074 A 
ATOM     50  C   UNL A   1      43.999  26.339  30.010  1.00  0.00     0.029 A 
ATOM     51  N   UNL A   1      42.553  27.683  31.031  1.00  0.00    -0.354 N 
ATOM     52  N   UNL A   1      41.562  29.330  33.207  1.00  0.00    -0.248 NA
ATOM     53  C   UNL A   1      41.606  29.941  35.457  1.00  0.00     0.031 C 
ATOM     54  C   UNL A   1      44.454  26.566  31.312  1.00  0.00     0.029 A 
ATOM     55  C   UNL A   1      43.557  27.411  31.945  1.00  0.00     0.049 A 
ATOM     56  H   UNL A   1      41.779  28.267  31.200  1.00  0.00     0.167 HD
ATOM     57  C   UNL A   1      42.672  28.753  33.820  1.00  0.00     0.074 A 
ATOM     58  C   UNL A   1      42.674  29.203  35.194  1.00  0.00     0.031 C 
ATOM     59  C   UNL A   1      43.593  27.908  33.295  1.00  0.00     0.034 A 
BRANCH  46  60
ATOM     60  C   UNL A   1      42.292  26.112  27.556  1.00  0.00     0.023 A 
ATOM     61  C   UNL A   1      43.140  26.586  26.537  1.00  0.00     0.012 A 
ATOM     62  C   UNL A   1      41.858  24.772  27.537  1.00  0.00     0.148 A 
ATOM     63  C   UNL A   1      43.539  25.741  25.502  1.00  0.00     0.002 A 
ATOM     64  C   UNL A   1      42.291  23.926  26.525  1.00  0.00     0.091 A 
ATOM     65  F   UNL A   1      41.033  24.355  28.509  1.00  0.00    -0.205 F 
ATOM     66  C   UNL A   1      43.124  24.411  25.504  1.00  0.00     0.022 A 
BRANCH  64  67
ATOM     67  S   UNL A   1      41.873  22.181  26.476  1.00  0.00     0.127 S 
ATOM     68  O   UNL A   1      42.286  21.743  27.810  1.00  0.00    -0.237 OA
ATOM     69  O   UNL A   1      40.426  22.221  26.268  1.00  0.00    -0.237 OA
ATOM     70  O   UNL A   1      42.636  21.612  25.375  1.00  0.00    -0.744 OA
ENDBRANCH  64  67
ENDBRANCH  46  60
BRANCH  47  71
ATOM     71  C   UNL A   1      39.240  31.638  35.234  1.00  0.00     0.023 A 
ATOM     72  C   UNL A   1      38.317  31.016  36.099  1.00  0.00     0.012 A 
ATOM     73  C   UNL A   1      39.636  32.963  35.498  1.00  0.00     0.148 A 
ATOM     74  C   UNL A   1      37.761  31.715  37.171  1.00  0.00     0.002 A 
ATOM     75  C   UNL A   1      39.123  33.635  36.604  1.00  0.00     0.091 A 
ATOM     76  F   UNL A   1      40.495  33.552  34.654  1.00  0.00    -0.205 F 
ATOM     77  C   UNL A   1      38.169  33.021  37.428  1.00  0.00     0.022 A 
BRANCH  75  78
ATOM     78  S   UNL A   1      39.687  35.273  37.077  1.00  0.00     0.127 S 
ATOM     79  O   UNL A   1      41.126  35.067  37.214  1.00  0.00    -0.237 OA
ATOM     80  O   UNL A   1      39.287  36.077  35.921  1.00  0.00    -0.237 OA
ATOM     81  O   UNL A   1      38.969  35.593  38.303  1.00  0.00    -0.744 OA
ENDBRANCH  75  78
ENDBRANCH  47  71
BRANCH  59  82
ATOM     82  C   UNL A   1      44.712  27.427  34.184  1.00  0.00     0.023 A 
ATOM     83  C   UNL A   1      45.875  28.209  34.333  1.00  0.00     0.012 A 
ATOM     84  C   UNL A   1      44.567  26.254  34.954  1.00  0.00     0.148 A 
ATOM     85  C   UNL A   1      46.885  27.821  35.215  1.00  0.00     0.002 A 
ATOM     86  C   UNL A   1      45.555  25.900  35.866  1.00  0.00     0.091 A 
ATOM     87  F   UNL A   1      43.460  25.516  34.789  1.00  0.00    -0.205 F 
ATOM     88  C   UNL A   1      46.718  26.676  35.990  1.00  0.00     0.022 A 
BRANCH  86  89
ATOM     89  S   UNL A   1      45.388  24.498  36.979  1.00  0.00     0.127 S 
ATOM     90  O   UNL A   1      44.162  24.836  37.700  1.00  0.00    -0.237 OA
ATOM     91  O   UNL A   1      45.259  23.377  36.048  1.00  0.00    -0.237 OA
ATOM     92  O   UNL A   1      46.599  24.479  37.789  1.00  0.00    -0.744 OA
ENDBRANCH  86  89
ENDBRANCH  59  82
ENDBRANCH  33  34
ENDBRANCH  26  28
ENDBRANCH  25  26
ENDBRANCH  24  25
ENDBRANCH   1  24
TORSDOF 18
ENDMDL
MODEL 3
REMARK VINA RESULT:     -11.9      5.302      9.950
REMARK SMILES O=C(OCCOCCOC(=O)c1ccc(-c2c3nc(c(-c4cccc(S(=O)(=O)[O-])c4F)c4ccc([nH]4)c(-c4cccc(S(=O)(=O)[O-])c4F)c4nc(c(-c5cccc(S(=O)(=O)[O-])c5F)c5ccc2[nH]5)C=C4)C=C3)cc1)C1=Cc2c(ccc(Cl)c2Cl)O[C@H]1C(F)(F)F
REMARK SMILES IDX 7 1 6 2 5 3 4 4 3 5 2 6 1 7 75 8 76 9 86 10 77 11 85 12
REMARK SMILES IDX 78 13 83 14 79 15 81 16 84 17 80 18 82 19 87 20 88 21 89 22
REMARK SMILES IDX 90 23 8 24 9 25 10 26 11 27 12 28 13 29 74 30 14 31 73 32
REMARK SMILES IDX 15 33 16 34 17 35 67 36 18 37 72 38 66 39 68 40 19 41 71 42
REMARK SMILES IDX 65 43 64 44 20 46 52 47 32 48 51 49 33 50 36 51 50 52 69 53
REMARK SMILES IDX 34 54 35 55 49 57 70 58 37 59 21 60 22 61 30 62 23 63 25 64
REMARK SMILES IDX 31 65 24 66 26 67 27 68 28 69 29 70 53 71 54 72 62 73 55 74
REMARK SMILES IDX 57 75 63 76 56 77 58 78 59 79 60 80 61 81 38 82 39 83 47 84
REMARK SMILES IDX 40 85 42 86 48 87 41 88 43 89 44 90 45 91 46 92
REMARK H PARENT 68 45 36 56
REMARK Flexibility Score: inf
ROOT
ATOM      1  C   UNL A   1      31.383  29.159  24.607  1.00  0.00     0.202 C 
ENDROOT
BRANCH   1   2
ATOM      2  O   UNL A   1      31.846  27.815  24.499  1.00  0.00    -0.374 OA
BRANCH   2   3
ATOM      3  C   UNL A   1      33.038  27.692  23.720  1.00  0.00     0.202 C 
BRANCH   3   4
ATOM      4  C   UNL A   1      32.763  27.023  22.374  1.00  0.00     0.261 C 
BRANCH   4   5
ATOM      5  O   UNL A   1      33.638  25.906  22.111  1.00  0.00    -0.460 OA
BRANCH   5   6
ATOM      6  C   UNL A   1      33.335  24.592  22.058  1.00  0.00     0.338 C 
ATOM      7  O   UNL A   1      33.190  24.062  20.955  1.00  0.00    -0.246 OA
BRANCH   6   8
ATOM      8  C   UNL A   1      33.408  23.706  23.246  1.00  0.00     0.087 C 
ATOM      9  C   UNL A   1      34.442  23.546  24.075  1.00  0.00     0.029 C 
ATOM     10  C   UNL A   1      32.198  22.811  23.418  1.00  0.00     0.316 C 
ATOM     11  C   UNL A   1      34.764  22.178  24.443  1.00  0.00     0.037 A 
ATOM     12  O   UNL A   1      32.400  21.678  24.325  1.00  0.00    -0.475 OA
ATOM     13  C   UNL A   1      33.695  21.289  24.534  1.00  0.00     0.129 A 
ATOM     14  C   UNL A   1      36.087  21.698  24.560  1.00  0.00     0.070 A 
ATOM     15  C   UNL A   1      33.921  19.951  24.838  1.00  0.00     0.049 A 
ATOM     16  C   UNL A   1      36.313  20.342  24.818  1.00  0.00     0.060 A 
ATOM     17  Cl  UNL A   1      37.431  22.755  24.292  1.00  0.00    -0.082 Cl
ATOM     18  C   UNL A   1      35.228  19.477  24.970  1.00  0.00     0.026 A 
ATOM     19  Cl  UNL A   1      37.900  19.665  24.937  1.00  0.00    -0.083 Cl
BRANCH  10  20
ATOM     20  C   UNL A   1      30.975  23.633  23.923  1.00  0.00     0.430 C 
ATOM     21  F   UNL A   1      31.290  24.854  24.418  1.00  0.00    -0.167 F 
ATOM     22  F   UNL A   1      30.072  23.823  22.929  1.00  0.00    -0.167 F 
ATOM     23  F   UNL A   1      30.317  22.993  24.926  1.00  0.00    -0.167 F 
ENDBRANCH  10  20
ENDBRANCH   6   8
ENDBRANCH   5   6
ENDBRANCH   4   5
ENDBRANCH   3   4
ENDBRANCH   2   3
ENDBRANCH   1   2
BRANCH   1  24
ATOM     24  C   UNL A   1      31.697  29.786  25.969  1.00  0.00     0.261 C 
BRANCH  24  25
ATOM     25  O   UNL A   1      32.986  30.428  25.964  1.00  0.00    -0.460 OA
BRANCH  25  26
ATOM     26  C   UNL A   1      33.184  31.388  26.918  1.00  0.00     0.338 C 
ATOM     27  O   UNL A   1      32.408  32.251  27.238  1.00  0.00    -0.246 OA
BRANCH  26  28
ATOM     28  C   UNL A   1      34.490  31.156  27.611  1.00  0.00     0.060 A 
ATOM     29  C   UNL A   1      34.820  29.842  27.981  1.00  0.00     0.016 A 
ATOM     30  C   UNL A   1      35.400  32.186  27.866  1.00  0.00     0.016 A 
ATOM     31  C   UNL A   1      36.056  29.558  28.581  1.00  0.00     0.010 A 
ATOM     32  C   UNL A   1      36.630  31.904  28.471  1.00  0.00     0.010 A 
ATOM     33  C   UNL A   1      36.969  30.589  28.834  1.00  0.00    -0.014 A 
BRANCH  33  34
ATOM     34  C   UNL A   1      38.231  30.355  29.585  1.00  0.00     0.031 A 
ATOM     35  C   UNL A   1      39.230  29.381  29.027  1.00  0.00     0.074 A 
ATOM     36  C   UNL A   1      38.438  30.900  30.799  1.00  0.00     0.049 A 
ATOM     37  N   UNL A   1      40.322  28.913  29.573  1.00  0.00    -0.248 NA
ATOM     38  C   UNL A   1      38.954  28.856  27.679  1.00  0.00     0.031 C 
ATOM     39  C   UNL A   1      37.552  31.852  31.463  1.00  0.00     0.029 A 
ATOM     40  N   UNL A   1      39.443  30.684  31.715  1.00  0.00    -0.354 N 
ATOM     41  C   UNL A   1      40.842  28.010  28.657  1.00  0.00     0.074 A 
ATOM     42  C   UNL A   1      39.958  28.007  27.512  1.00  0.00     0.031 C 
ATOM     43  C   UNL A   1      38.021  32.099  32.699  1.00  0.00     0.029 A 
ATOM     44  C   UNL A   1      39.223  31.298  32.929  1.00  0.00     0.049 A 
ATOM     45  H   UNL A   1      40.243  30.144  31.521  1.00  0.00     0.167 HD
ATOM     46  C   UNL A   1      41.954  27.246  28.760  1.00  0.00     0.034 A 
ATOM     47  C   UNL A   1      39.886  31.193  34.100  1.00  0.00     0.034 A 
ATOM     48  C   UNL A   1      42.840  27.239  29.891  1.00  0.00     0.049 A 
ATOM     49  C   UNL A   1      41.102  30.300  34.193  1.00  0.00     0.074 A 
ATOM     50  C   UNL A   1      44.031  26.550  30.040  1.00  0.00     0.029 A 
ATOM     51  N   UNL A   1      42.619  27.919  31.076  1.00  0.00    -0.354 N 
ATOM     52  N   UNL A   1      41.683  29.589  33.258  1.00  0.00    -0.248 NA
ATOM     53  C   UNL A   1      41.767  30.210  35.505  1.00  0.00     0.031 C 
ATOM     54  C   UNL A   1      44.507  26.776  31.334  1.00  0.00     0.029 A 
ATOM     55  C   UNL A   1      43.632  27.636  31.977  1.00  0.00     0.049 A 
ATOM     56  H   UNL A   1      41.856  28.515  31.253  1.00  0.00     0.167 HD
ATOM     57  C   UNL A   1      42.793  28.999  33.858  1.00  0.00     0.074 A 
ATOM     58  C   UNL A   1      42.821  29.454  35.229  1.00  0.00     0.031 C 
ATOM     59  C   UNL A   1      43.694  28.138  33.323  1.00  0.00     0.034 A 
BRANCH  46  60
ATOM     60  C   UNL A   1      42.286  26.337  27.612  1.00  0.00     0.023 A 
ATOM     61  C   UNL A   1      43.136  26.790  26.585  1.00  0.00     0.012 A 
ATOM     62  C   UNL A   1      41.822  25.007  27.600  1.00  0.00     0.148 A 
ATOM     63  C   UNL A   1      43.507  25.935  25.548  1.00  0.00     0.002 A 
ATOM     64  C   UNL A   1      42.229  24.150  26.586  1.00  0.00     0.091 A 
ATOM     65  F   UNL A   1      40.998  24.610  28.579  1.00  0.00    -0.205 F 
ATOM     66  C   UNL A   1      43.063  24.614  25.556  1.00  0.00     0.022 A 
BRANCH  64  67
ATOM     67  S   UNL A   1      41.773  22.414  26.544  1.00  0.00     0.127 S 
ATOM     68  O   UNL A   1      42.312  21.939  27.818  1.00  0.00    -0.237 OA
ATOM     69  O   UNL A   1      40.312  22.485  26.490  1.00  0.00    -0.237 OA
ATOM     70  O   UNL A   1      42.405  21.857  25.358  1.00  0.00    -0.744 OA
ENDBRANCH  64  67
ENDBRANCH  46  60
BRANCH  47  71
ATOM     71  C   UNL A   1      39.423  31.939  35.308  1.00  0.00     0.023 A 
ATOM     72  C   UNL A   1      38.499  31.337  36.184  1.00  0.00     0.012 A 
ATOM     73  C   UNL A   1      39.848  33.258  35.564  1.00  0.00     0.148 A 
ATOM     74  C   UNL A   1      37.968  32.050  37.261  1.00  0.00     0.002 A 
ATOM     75  C   UNL A   1      39.361  33.941  36.673  1.00  0.00     0.091 A 
ATOM     76  F   UNL A   1      40.709  33.827  34.709  1.00  0.00    -0.205 F 
ATOM     77  C   UNL A   1      38.405  33.348  37.510  1.00  0.00     0.022 A 
BRANCH  75  78
ATOM     78  S   UNL A   1      39.961  35.570  37.136  1.00  0.00     0.127 S 
ATOM     79  O   UNL A   1      41.399  35.338  37.248  1.00  0.00    -0.237 OA
ATOM     80  O   UNL A   1      39.555  36.381  35.988  1.00  0.00    -0.237 OA
ATOM     81  O   UNL A   1      39.271  35.901  38.375  1.00  0.00    -0.744 OA
ENDBRANCH  75  78
ENDBRANCH  47  71
BRANCH  59  82
ATOM     82  C   UNL A   1      44.819  27.645  34.199  1.00  0.00     0.023 A 
ATOM     83  C   UNL A   1      46.010  28.393  34.299  1.00  0.00     0.012 A 
ATOM     84  C   UNL A   1      44.655  26.499  35.004  1.00  0.00     0.148 A 
ATOM     85  C   UNL A   1      47.027  27.995  35.167  1.00  0.00     0.002 A 
ATOM     86  C   UNL A   1      45.653  26.137  35.902  1.00  0.00     0.091 A 
ATOM     87  F   UNL A   1      43.521  25.793  34.886  1.00  0.00    -0.205 F 
ATOM     88  C   UNL A   1      46.843  26.877  35.977  1.00  0.00     0.022 A 
BRANCH  86  89
ATOM     89  S   UNL A   1      45.468  24.772  37.057  1.00  0.00     0.127 S 
ATOM     90  O   UNL A   1      45.316  23.634  36.151  1.00  0.00    -0.237 OA
ATOM     91  O   UNL A   1      46.737  24.807  37.783  1.00  0.00    -0.237 OA
ATOM     92  O   UNL A   1      44.297  25.082  37.866  1.00  0.00    -0.744 OA
ENDBRANCH  86  89
ENDBRANCH  59  82
ENDBRANCH  33  34
ENDBRANCH  26  28
ENDBRANCH  25  26
ENDBRANCH  24  25
ENDBRANCH   1  24
TORSDOF 18
ENDMDL
