MODEL 1
REMARK VINA RESULT:     -10.0      0.000      0.000
REMARK SMILES COc1ccc(-c2ccc3n(c2=O)C[C@H]2C[C@@H]3CN(C(=O)CCCC(=O)OCCOCCOC(=O)c3ccc(-c4c5nc(c(-c6cccc(S(=O)(=O)[O-])c6F)c6ccc([nH]6)c(-c6cccc(S(=O)(=O)[O-])c6F)c6nc(c(-c7cccc(S(=O)(=O)[O-])c7F)c7ccc4[nH]7)C=C6)C=C5)cc3)C2)cc1
REMARK SMILES IDX 28 1 27 2 25 3 26 4 24 5 23 6 22 7 20 8 21 9 19 10 7 11 8 12
REMARK SMILES IDX 12 13 9 14 11 15 13 16 10 17 14 18 17 19 15 20 16 21 18 22
REMARK SMILES IDX 99 23 6 24 3 25 4 26 101 27 5 28 100 29 2 30 1 31 29 32
REMARK SMILES IDX 30 33 31 34 32 35 33 36 34 37 35 38 36 39 37 40 98 41 38 42
REMARK SMILES IDX 97 43 39 44 40 45 41 46 91 47 42 48 96 49 90 50 92 51 43 52
REMARK SMILES IDX 95 53 89 54 88 55 44 57 76 58 56 59 75 60 57 61 60 62 74 63
REMARK SMILES IDX 93 64 58 65 59 66 73 68 94 69 61 70 45 71 46 72 54 73 47 74
REMARK SMILES IDX 49 75 55 76 48 77 50 78 51 79 52 80 53 81 77 82 78 83 86 84
REMARK SMILES IDX 79 85 81 86 87 87 80 88 82 89 83 90 84 91 85 92 62 93 63 94
REMARK SMILES IDX 71 95 64 96 66 97 72 98 65 99 67 100 68 101 69 102 70 103
REMARK H PARENT 92 56 60 67
REMARK Flexibility Score: inf
ROOT
ATOM      1  C   UNL A   1      33.105  30.873  27.414  1.00  0.00     0.261 C 
ENDROOT
BRANCH   1   2
ATOM      2  O   UNL A   1      33.633  29.907  26.488  1.00  0.00    -0.463 OA
BRANCH   2   3
ATOM      3  C   UNL A   1      33.145  28.643  26.594  1.00  0.00     0.305 C 
ATOM      4  O   UNL A   1      32.388  28.267  27.480  1.00  0.00    -0.252 OA
BRANCH   3   5
ATOM      5  C   UNL A   1      33.668  27.710  25.521  1.00  0.00     0.123 C 
BRANCH   5   6
ATOM      6  C   UNL A   1      33.697  26.213  25.827  1.00  0.00     0.022 C 
BRANCH   6   7
ATOM      7  C   UNL A   1      34.754  25.388  25.088  1.00  0.00     0.101 C 
BRANCH   7   8
ATOM      8  C   UNL A   1      34.841  23.946  25.564  1.00  0.00     0.222 C 
ATOM      9  O   UNL A   1      35.649  23.663  26.453  1.00  0.00    -0.275 OA
BRANCH   8  10
ATOM     10  N   UNL A   1      34.006  22.999  24.990  1.00  0.00    -0.342 N 
ATOM     11  C   UNL A   1      30.670  26.474  23.270  1.00  0.00     0.047 A 
ATOM     12  C   UNL A   1      31.471  26.200  22.227  1.00  0.00     0.016 A 
ATOM     13  C   UNL A   1      30.467  25.415  24.321  1.00  0.00     0.258 A 
ATOM     14  C   UNL A   1      32.126  24.929  22.100  1.00  0.00     0.023 A 
ATOM     15  N   UNL A   1      31.133  24.193  24.123  1.00  0.00    -0.311 N 
ATOM     16  O   UNL A   1      29.730  25.632  25.283  1.00  0.00    -0.269 OA
ATOM     17  C   UNL A   1      31.957  23.965  23.019  1.00  0.00     0.026 A 
ATOM     18  C   UNL A   1      30.849  23.129  25.087  1.00  0.00     0.131 C 
ATOM     19  C   UNL A   1      32.700  22.644  22.895  1.00  0.00     0.056 C 
ATOM     20  C   UNL A   1      31.749  21.886  25.028  1.00  0.00     0.029 C 
ATOM     21  C   UNL A   1      31.933  21.504  23.567  1.00  0.00     0.019 C 
ATOM     22  C   UNL A   1      34.092  22.774  23.543  1.00  0.00     0.129 C 
ATOM     23  C   UNL A   1      33.121  22.084  25.704  1.00  0.00     0.125 C 
BRANCH  11  24
ATOM     24  C   UNL A   1      29.982  27.775  23.346  1.00  0.00    -0.013 A 
ATOM     25  C   UNL A   1      28.716  30.281  23.431  1.00  0.00     0.118 A 
ATOM     26  C   UNL A   1      28.001  29.147  23.044  1.00  0.00     0.047 A 
ATOM     27  C   UNL A   1      30.049  30.161  23.821  1.00  0.00     0.047 A 
ATOM     28  C   UNL A   1      28.634  27.901  22.988  1.00  0.00     0.013 A 
ATOM     29  C   UNL A   1      30.679  28.914  23.774  1.00  0.00     0.013 A 
BRANCH  25  30
ATOM     30  O   UNL A   1      28.026  31.463  23.447  1.00  0.00    -0.497 OA
ATOM     31  C   UNL A   1      28.839  32.592  23.134  1.00  0.00     0.278 C 
ENDBRANCH  25  30
ENDBRANCH  11  24
ENDBRANCH   8  10
ENDBRANCH   7   8
ENDBRANCH   6   7
ENDBRANCH   5   6
ENDBRANCH   3   5
ENDBRANCH   2   3
ENDBRANCH   1   2
BRANCH   1  32
ATOM     32  C   UNL A   1      34.192  31.783  27.984  1.00  0.00     0.202 C 
BRANCH  32  33
ATOM     33  O   UNL A   1      34.327  33.078  27.403  1.00  0.00    -0.374 OA
BRANCH  33  34
ATOM     34  C   UNL A   1      34.791  34.139  28.232  1.00  0.00     0.202 C 
BRANCH  34  35
ATOM     35  C   UNL A   1      34.213  34.257  29.649  1.00  0.00     0.261 C 
BRANCH  35  36
ATOM     36  O   UNL A   1      35.176  34.125  30.707  1.00  0.00    -0.460 OA
BRANCH  36  37
ATOM     37  C   UNL A   1      35.166  32.910  31.316  1.00  0.00     0.338 C 
ATOM     38  O   UNL A   1      34.217  32.365  31.851  1.00  0.00    -0.246 OA
BRANCH  37  39
ATOM     39  C   UNL A   1      36.460  32.223  31.138  1.00  0.00     0.060 A 
ATOM     40  C   UNL A   1      36.679  31.049  31.870  1.00  0.00     0.016 A 
ATOM     41  C   UNL A   1      37.486  32.786  30.378  1.00  0.00     0.016 A 
ATOM     42  C   UNL A   1      37.941  30.455  31.877  1.00  0.00     0.010 A 
ATOM     43  C   UNL A   1      38.754  32.194  30.395  1.00  0.00     0.010 A 
ATOM     44  C   UNL A   1      38.995  31.045  31.169  1.00  0.00    -0.014 A 
BRANCH  44  45
ATOM     45  C   UNL A   1      40.372  30.510  31.312  1.00  0.00     0.031 A 
ATOM     46  C   UNL A   1      40.848  29.421  30.390  1.00  0.00     0.074 A 
ATOM     47  C   UNL A   1      41.189  30.989  32.268  1.00  0.00     0.049 A 
ATOM     48  N   UNL A   1      41.999  28.799  30.372  1.00  0.00    -0.248 NA
ATOM     49  C   UNL A   1      39.906  28.976  29.351  1.00  0.00     0.031 C 
ATOM     50  C   UNL A   1      40.843  32.047  33.216  1.00  0.00     0.029 A 
ATOM     51  N   UNL A   1      42.466  30.627  32.615  1.00  0.00    -0.354 N 
ATOM     52  C   UNL A   1      41.913  27.874  29.338  1.00  0.00     0.074 A 
ATOM     53  C   UNL A   1      40.595  28.011  28.757  1.00  0.00     0.031 C 
ATOM     54  C   UNL A   1      41.872  32.225  34.062  1.00  0.00     0.029 A 
ATOM     55  C   UNL A   1      42.936  31.278  33.731  1.00  0.00     0.049 A 
ATOM     56  H   UNL A   1      42.995  29.965  32.113  1.00  0.00     0.167 HD
ATOM     57  C   UNL A   1      42.853  27.002  28.902  1.00  0.00     0.034 A 
ATOM     58  C   UNL A   1      44.080  31.109  34.424  1.00  0.00     0.034 A 
ATOM     59  C   UNL A   1      44.170  26.878  29.469  1.00  0.00     0.049 A 
ATOM     60  C   UNL A   1      45.089  30.099  33.947  1.00  0.00     0.074 A 
ATOM     61  C   UNL A   1      45.213  26.068  29.055  1.00  0.00     0.029 A 
ATOM     62  N   UNL A   1      44.619  27.567  30.584  1.00  0.00    -0.354 N 
ATOM     63  N   UNL A   1      45.049  29.331  32.885  1.00  0.00    -0.248 NA
ATOM     64  C   UNL A   1      46.313  29.949  34.749  1.00  0.00     0.031 C 
ATOM     65  C   UNL A   1      46.284  26.249  29.938  1.00  0.00     0.029 A 
ATOM     66  C   UNL A   1      45.914  27.185  30.889  1.00  0.00     0.049 A 
ATOM     67  H   UNL A   1      44.094  28.233  31.086  1.00  0.00     0.167 HD
ATOM     68  C   UNL A   1      46.247  28.624  32.879  1.00  0.00     0.074 A 
ATOM     69  C   UNL A   1      47.004  29.077  34.028  1.00  0.00     0.031 C 
ATOM     70  C   UNL A   1      46.675  27.672  32.011  1.00  0.00     0.034 A 
BRANCH  57  71
ATOM     71  C   UNL A   1      42.506  26.127  27.727  1.00  0.00     0.023 A 
ATOM     72  C   UNL A   1      42.613  26.646  26.421  1.00  0.00     0.012 A 
ATOM     73  C   UNL A   1      42.138  24.779  27.909  1.00  0.00     0.148 A 
ATOM     74  C   UNL A   1      42.337  25.843  25.314  1.00  0.00     0.002 A 
ATOM     75  C   UNL A   1      41.899  23.976  26.800  1.00  0.00     0.091 A 
ATOM     76  F   UNL A   1      42.017  24.312  29.159  1.00  0.00    -0.205 F 
ATOM     77  C   UNL A   1      41.991  24.508  25.502  1.00  0.00     0.022 A 
BRANCH  75  78
ATOM     78  S   UNL A   1      41.514  22.227  26.937  1.00  0.00     0.127 S 
ATOM     79  O   UNL A   1      40.134  22.266  27.420  1.00  0.00    -0.237 OA
ATOM     80  O   UNL A   1      41.664  21.766  25.556  1.00  0.00    -0.237 OA
ATOM     81  O   UNL A   1      42.487  21.676  27.870  1.00  0.00    -0.744 OA
ENDBRANCH  75  78
ENDBRANCH  57  71
BRANCH  58  82
ATOM     82  C   UNL A   1      44.339  31.939  35.636  1.00  0.00     0.023 A 
ATOM     83  C   UNL A   1      45.101  33.116  35.521  1.00  0.00     0.012 A 
ATOM     84  C   UNL A   1      43.805  31.585  36.891  1.00  0.00     0.148 A 
ATOM     85  C   UNL A   1      45.346  33.915  36.639  1.00  0.00     0.002 A 
ATOM     86  C   UNL A   1      44.000  32.418  37.986  1.00  0.00     0.091 A 
ATOM     87  F   UNL A   1      43.101  30.448  36.985  1.00  0.00    -0.205 F 
ATOM     88  C   UNL A   1      44.787  33.574  37.868  1.00  0.00     0.022 A 
BRANCH  86  89
ATOM     89  S   UNL A   1      43.190  32.134  39.565  1.00  0.00     0.127 S 
ATOM     90  O   UNL A   1      41.808  31.897  39.155  1.00  0.00    -0.237 OA
ATOM     91  O   UNL A   1      43.899  30.953  40.061  1.00  0.00    -0.237 OA
ATOM     92  O   UNL A   1      43.425  33.338  40.349  1.00  0.00    -0.744 OA
ENDBRANCH  86  89
ENDBRANCH  58  82
BRANCH  70  93
ATOM     93  C   UNL A   1      48.025  27.053  32.264  1.00  0.00     0.023 A 
ATOM     94  C   UNL A   1      48.122  25.918  33.094  1.00  0.00     0.012 A 
ATOM     95  C   UNL A   1      49.181  27.544  31.627  1.00  0.00     0.148 A 
ATOM     96  C   UNL A   1      49.353  25.300  33.308  1.00  0.00     0.002 A 
ATOM     97  C   UNL A   1      50.398  26.896  31.809  1.00  0.00     0.091 A 
ATOM     98  F   UNL A   1      49.072  28.636  30.854  1.00  0.00    -0.205 F 
ATOM     99  C   UNL A   1      50.488  25.781  32.658  1.00  0.00     0.022 A 
BRANCH  97 100
ATOM    100  S   UNL A   1      51.894  27.390  30.944  1.00  0.00     0.127 S 
ATOM    101  O   UNL A   1      52.130  28.722  31.497  1.00  0.00    -0.237 OA
ATOM    102  O   UNL A   1      52.853  26.372  31.374  1.00  0.00    -0.237 OA
ATOM    103  O   UNL A   1      51.566  27.350  29.525  1.00  0.00    -0.744 OA
ENDBRANCH  97 100
ENDBRANCH  70  93
ENDBRANCH  44  45
ENDBRANCH  37  39
ENDBRANCH  36  37
ENDBRANCH  35  36
ENDBRANCH  34  35
ENDBRANCH  33  34
ENDBRANCH  32  33
ENDBRANCH   1  32
TORSDOF 23
ENDMDL
MODEL 2
REMARK VINA RESULT:      -9.5      3.965      7.450
REMARK SMILES COc1ccc(-c2ccc3n(c2=O)C[C@H]2C[C@@H]3CN(C(=O)CCCC(=O)OCCOCCOC(=O)c3ccc(-c4c5nc(c(-c6cccc(S(=O)(=O)[O-])c6F)c6ccc([nH]6)c(-c6cccc(S(=O)(=O)[O-])c6F)c6nc(c(-c7cccc(S(=O)(=O)[O-])c7F)c7ccc4[nH]7)C=C6)C=C5)cc3)C2)cc1
REMARK SMILES IDX 28 1 27 2 25 3 26 4 24 5 23 6 22 7 20 8 21 9 19 10 7 11 8 12
REMARK SMILES IDX 12 13 9 14 11 15 13 16 10 17 14 18 17 19 15 20 16 21 18 22
REMARK SMILES IDX 99 23 6 24 3 25 4 26 101 27 5 28 100 29 2 30 1 31 29 32
REMARK SMILES IDX 30 33 31 34 32 35 33 36 34 37 35 38 36 39 37 40 98 41 38 42
REMARK SMILES IDX 97 43 39 44 40 45 41 46 91 47 42 48 96 49 90 50 92 51 43 52
REMARK SMILES IDX 95 53 89 54 88 55 44 57 76 58 56 59 75 60 57 61 60 62 74 63
REMARK SMILES IDX 93 64 58 65 59 66 73 68 94 69 61 70 45 71 46 72 54 73 47 74
REMARK SMILES IDX 49 75 55 76 48 77 50 78 51 79 52 80 53 81 77 82 78 83 86 84
REMARK SMILES IDX 79 85 81 86 87 87 80 88 82 89 83 90 84 91 85 92 62 93 63 94
REMARK SMILES IDX 71 95 64 96 66 97 72 98 65 99 67 100 68 101 69 102 70 103
REMARK H PARENT 92 56 60 67
REMARK Flexibility Score: inf
ROOT
ATOM      1  C   UNL A   1      33.282  30.660  27.484  1.00  0.00     0.261 C 
ENDROOT
BRANCH   1   2
ATOM      2  O   UNL A   1      33.900  29.642  26.679  1.00  0.00    -0.463 OA
BRANCH   2   3
ATOM      3  C   UNL A   1      33.316  28.415  26.706  1.00  0.00     0.305 C 
ATOM      4  O   UNL A   1      32.478  28.067  27.529  1.00  0.00    -0.252 OA
BRANCH   3   5
ATOM      5  C   UNL A   1      33.836  27.482  25.632  1.00  0.00     0.123 C 
BRANCH   5   6
ATOM      6  C   UNL A   1      33.754  25.978  25.889  1.00  0.00     0.022 C 
BRANCH   6   7
ATOM      7  C   UNL A   1      34.920  25.134  25.369  1.00  0.00     0.101 C 
BRANCH   7   8
ATOM      8  C   UNL A   1      34.747  23.643  25.611  1.00  0.00     0.222 C 
ATOM      9  O   UNL A   1      35.244  23.145  26.626  1.00  0.00    -0.275 OA
BRANCH   8  10
ATOM     10  N   UNL A   1      34.031  22.893  24.689  1.00  0.00    -0.342 N 
ATOM     11  C   UNL A   1      31.276  26.882  23.058  1.00  0.00     0.047 A 
ATOM     12  C   UNL A   1      32.282  26.756  22.176  1.00  0.00     0.016 A 
ATOM     13  C   UNL A   1      30.811  25.657  23.800  1.00  0.00     0.258 A 
ATOM     14  C   UNL A   1      32.907  25.487  21.930  1.00  0.00     0.023 A 
ATOM     15  N   UNL A   1      31.465  24.450  23.499  1.00  0.00    -0.311 N 
ATOM     16  O   UNL A   1      29.885  25.738  24.607  1.00  0.00    -0.269 OA
ATOM     17  C   UNL A   1      32.506  24.379  22.573  1.00  0.00     0.026 A 
ATOM     18  C   UNL A   1      30.939  23.243  24.139  1.00  0.00     0.131 C 
ATOM     19  C   UNL A   1      33.216  23.054  22.338  1.00  0.00     0.056 C 
ATOM     20  C   UNL A   1      31.789  21.971  24.017  1.00  0.00     0.029 C 
ATOM     21  C   UNL A   1      32.282  21.868  22.581  1.00  0.00     0.019 C 
ATOM     22  C   UNL A   1      34.431  22.948  23.279  1.00  0.00     0.129 C 
ATOM     23  C   UNL A   1      32.981  21.927  24.994  1.00  0.00     0.125 C 
BRANCH  11  24
ATOM     24  C   UNL A   1      30.631  28.192  23.255  1.00  0.00    -0.013 A 
ATOM     25  C   UNL A   1      29.469  30.724  23.607  1.00  0.00     0.118 A 
ATOM     26  C   UNL A   1      29.021  29.883  22.589  1.00  0.00     0.047 A 
ATOM     27  C   UNL A   1      30.463  30.288  24.481  1.00  0.00     0.047 A 
ATOM     28  C   UNL A   1      29.608  28.627  22.403  1.00  0.00     0.013 A 
ATOM     29  C   UNL A   1      31.044  29.029  24.302  1.00  0.00     0.013 A 
BRANCH  25  30
ATOM     30  O   UNL A   1      28.849  31.941  23.713  1.00  0.00    -0.497 OA
ATOM     31  C   UNL A   1      28.036  32.257  22.585  1.00  0.00     0.278 C 
ENDBRANCH  25  30
ENDBRANCH  11  24
ENDBRANCH   8  10
ENDBRANCH   7   8
ENDBRANCH   6   7
ENDBRANCH   5   6
ENDBRANCH   3   5
ENDBRANCH   2   3
ENDBRANCH   1   2
BRANCH   1  32
ATOM     32  C   UNL A   1      34.261  31.768  27.870  1.00  0.00     0.202 C 
BRANCH  32  33
ATOM     33  O   UNL A   1      33.951  33.090  27.435  1.00  0.00    -0.374 OA
BRANCH  33  34
ATOM     34  C   UNL A   1      34.406  34.181  28.230  1.00  0.00     0.202 C 
BRANCH  34  35
ATOM     35  C   UNL A   1      33.997  34.218  29.709  1.00  0.00     0.261 C 
BRANCH  35  36
ATOM     36  O   UNL A   1      35.088  34.124  30.639  1.00  0.00    -0.460 OA
BRANCH  36  37
ATOM     37  C   UNL A   1      35.259  32.883  31.168  1.00  0.00     0.338 C 
ATOM     38  O   UNL A   1      34.400  32.166  31.650  1.00  0.00    -0.246 OA
BRANCH  37  39
ATOM     39  C   UNL A   1      36.644  32.414  30.970  1.00  0.00     0.060 A 
ATOM     40  C   UNL A   1      37.484  32.377  32.091  1.00  0.00     0.016 A 
ATOM     41  C   UNL A   1      37.148  32.147  29.697  1.00  0.00     0.016 A 
ATOM     42  C   UNL A   1      38.844  32.112  31.935  1.00  0.00     0.010 A 
ATOM     43  C   UNL A   1      38.516  31.891  29.543  1.00  0.00     0.010 A 
ATOM     44  C   UNL A   1      39.375  31.904  30.656  1.00  0.00    -0.014 A 
BRANCH  44  45
ATOM     45  C   UNL A   1      40.843  31.791  30.474  1.00  0.00     0.031 A 
ATOM     46  C   UNL A   1      41.670  33.035  30.299  1.00  0.00     0.074 A 
ATOM     47  C   UNL A   1      41.432  30.581  30.456  1.00  0.00     0.049 A 
ATOM     48  N   UNL A   1      42.958  33.148  30.095  1.00  0.00    -0.248 NA
ATOM     49  C   UNL A   1      40.956  34.319  30.364  1.00  0.00     0.031 C 
ATOM     50  C   UNL A   1      40.736  29.306  30.621  1.00  0.00     0.029 A 
ATOM     51  N   UNL A   1      42.744  30.229  30.261  1.00  0.00    -0.354 N 
ATOM     52  C   UNL A   1      43.206  34.511  29.985  1.00  0.00     0.074 A 
ATOM     53  C   UNL A   1      41.934  35.185  30.137  1.00  0.00     0.031 C 
ATOM     54  C   UNL A   1      41.624  28.306  30.486  1.00  0.00     0.029 A 
ATOM     55  C   UNL A   1      42.942  28.870  30.199  1.00  0.00     0.049 A 
ATOM     56  H   UNL A   1      43.472  30.886  30.174  1.00  0.00     0.167 HD
ATOM     57  C   UNL A   1      44.388  35.143  29.790  1.00  0.00     0.034 A 
ATOM     58  C   UNL A   1      44.054  28.162  29.915  1.00  0.00     0.034 A 
ATOM     59  C   UNL A   1      45.654  34.473  29.656  1.00  0.00     0.049 A 
ATOM     60  C   UNL A   1      45.346  28.890  29.655  1.00  0.00     0.074 A 
ATOM     61  C   UNL A   1      46.913  35.032  29.520  1.00  0.00     0.029 A 
ATOM     62  N   UNL A   1      45.821  33.099  29.619  1.00  0.00    -0.354 N 
ATOM     63  N   UNL A   1      45.589  30.178  29.693  1.00  0.00    -0.248 NA
ATOM     64  C   UNL A   1      46.524  28.067  29.339  1.00  0.00     0.031 C 
ATOM     65  C   UNL A   1      47.839  33.993  29.374  1.00  0.00     0.029 A 
ATOM     66  C   UNL A   1      47.158  32.788  29.439  1.00  0.00     0.049 A 
ATOM     67  H   UNL A   1      45.096  32.438  29.711  1.00  0.00     0.167 HD
ATOM     68  C   UNL A   1      46.948  30.319  29.428  1.00  0.00     0.074 A 
ATOM     69  C   UNL A   1      47.480  28.982  29.260  1.00  0.00     0.031 C 
ATOM     70  C   UNL A   1      47.685  31.453  29.314  1.00  0.00     0.034 A 
BRANCH  57  71
ATOM     71  C   UNL A   1      44.377  36.649  29.743  1.00  0.00     0.023 A 
ATOM     72  C   UNL A   1      44.275  37.303  28.499  1.00  0.00     0.012 A 
ATOM     73  C   UNL A   1      44.401  37.412  30.927  1.00  0.00     0.148 A 
ATOM     74  C   UNL A   1      44.221  38.695  28.432  1.00  0.00     0.002 A 
ATOM     75  C   UNL A   1      44.311  38.797  30.854  1.00  0.00     0.091 A 
ATOM     76  F   UNL A   1      44.523  36.772  32.098  1.00  0.00    -0.205 F 
ATOM     77  C   UNL A   1      44.229  39.441  29.608  1.00  0.00     0.022 A 
BRANCH  75  78
ATOM     78  S   UNL A   1      44.244  39.840  32.315  1.00  0.00     0.127 S 
ATOM     79  O   UNL A   1      45.050  40.986  31.897  1.00  0.00    -0.237 OA
ATOM     80  O   UNL A   1      42.811  40.114  32.435  1.00  0.00    -0.237 OA
ATOM     81  O   UNL A   1      44.801  39.044  33.400  1.00  0.00    -0.744 OA
ENDBRANCH  75  78
ENDBRANCH  57  71
BRANCH  58  82
ATOM     82  C   UNL A   1      43.994  26.673  29.885  1.00  0.00     0.023 A 
ATOM     83  C   UNL A   1      44.342  25.941  31.036  1.00  0.00     0.012 A 
ATOM     84  C   UNL A   1      43.560  25.982  28.736  1.00  0.00     0.148 A 
ATOM     85  C   UNL A   1      44.282  24.546  31.035  1.00  0.00     0.002 A 
ATOM     86  C   UNL A   1      43.442  24.597  28.764  1.00  0.00     0.091 A 
ATOM     87  F   UNL A   1      43.253  26.695  27.644  1.00  0.00    -0.205 F 
ATOM     88  C   UNL A   1      43.821  23.875  29.905  1.00  0.00     0.022 A 
BRANCH  86  89
ATOM     89  S   UNL A   1      42.713  23.669  27.408  1.00  0.00     0.127 S 
ATOM     90  O   UNL A   1      41.292  23.723  27.737  1.00  0.00    -0.237 OA
ATOM     91  O   UNL A   1      43.110  24.467  26.247  1.00  0.00    -0.237 OA
ATOM     92  O   UNL A   1      43.330  22.351  27.459  1.00  0.00    -0.744 OA
ENDBRANCH  86  89
ENDBRANCH  58  82
BRANCH  70  93
ATOM     93  C   UNL A   1      49.150  31.304  28.995  1.00  0.00     0.023 A 
ATOM     94  C   UNL A   1      50.054  30.986  30.028  1.00  0.00     0.012 A 
ATOM     95  C   UNL A   1      49.621  31.406  27.671  1.00  0.00     0.148 A 
ATOM     96  C   UNL A   1      51.408  30.799  29.753  1.00  0.00     0.002 A 
ATOM     97  C   UNL A   1      50.965  31.174  27.397  1.00  0.00     0.091 A 
ATOM     98  F   UNL A   1      48.748  31.727  26.704  1.00  0.00    -0.205 F 
ATOM     99  C   UNL A   1      51.861  30.882  28.438  1.00  0.00     0.022 A 
BRANCH  97 100
ATOM    100  S   UNL A   1      51.622  31.172  25.725  1.00  0.00     0.127 S 
ATOM    101  O   UNL A   1      53.060  31.259  25.970  1.00  0.00    -0.237 OA
ATOM    102  O   UNL A   1      51.167  29.878  25.213  1.00  0.00    -0.237 OA
ATOM    103  O   UNL A   1      51.029  32.326  25.061  1.00  0.00    -0.744 OA
ENDBRANCH  97 100
ENDBRANCH  70  93
ENDBRANCH  44  45
ENDBRANCH  37  39
ENDBRANCH  36  37
ENDBRANCH  35  36
ENDBRANCH  34  35
ENDBRANCH  33  34
ENDBRANCH  32  33
ENDBRANCH   1  32
TORSDOF 23
ENDMDL
MODEL 3
REMARK VINA RESULT:      -9.4      4.731      9.108
REMARK SMILES COc1ccc(-c2ccc3n(c2=O)C[C@H]2C[C@@H]3CN(C(=O)CCCC(=O)OCCOCCOC(=O)c3ccc(-c4c5nc(c(-c6cccc(S(=O)(=O)[O-])c6F)c6ccc([nH]6)c(-c6cccc(S(=O)(=O)[O-])c6F)c6nc(c(-c7cccc(S(=O)(=O)[O-])c7F)c7ccc4[nH]7)C=C6)C=C5)cc3)C2)cc1
REMARK SMILES IDX 28 1 27 2 25 3 26 4 24 5 23 6 22 7 20 8 21 9 19 10 7 11 8 12
REMARK SMILES IDX 12 13 9 14 11 15 13 16 10 17 14 18 17 19 15 20 16 21 18 22
REMARK SMILES IDX 99 23 6 24 3 25 4 26 101 27 5 28 100 29 2 30 1 31 29 32
REMARK SMILES IDX 30 33 31 34 32 35 33 36 34 37 35 38 36 39 37 40 98 41 38 42
REMARK SMILES IDX 97 43 39 44 40 45 41 46 91 47 42 48 96 49 90 50 92 51 43 52
REMARK SMILES IDX 95 53 89 54 88 55 44 57 76 58 56 59 75 60 57 61 60 62 74 63
REMARK SMILES IDX 93 64 58 65 59 66 73 68 94 69 61 70 45 71 46 72 54 73 47 74
REMARK SMILES IDX 49 75 55 76 48 77 50 78 51 79 52 80 53 81 77 82 78 83 86 84
REMARK SMILES IDX 79 85 81 86 87 87 80 88 82 89 83 90 84 91 85 92 62 93 63 94
REMARK SMILES IDX 71 95 64 96 66 97 72 98 65 99 67 100 68 101 69 102 70 103
REMARK H PARENT 92 56 60 67
REMARK Flexibility Score: inf
ROOT
ATOM      1  C   UNL A   1      35.944  23.512  26.160  1.00  0.00     0.261 C 
ENDROOT
BRANCH   1   2
ATOM      2  O   UNL A   1      34.590  23.082  25.937  1.00  0.00    -0.463 OA
BRANCH   2   3
ATOM      3  C   UNL A   1      33.897  22.685  27.036  1.00  0.00     0.305 C 
ATOM      4  O   UNL A   1      34.256  21.793  27.795  1.00  0.00    -0.252 OA
BRANCH   3   5
ATOM      5  C   UNL A   1      32.588  23.428  27.217  1.00  0.00     0.123 C 
BRANCH   5   6
ATOM      6  C   UNL A   1      32.225  24.497  26.187  1.00  0.00     0.022 C 
BRANCH   6   7
ATOM      7  C   UNL A   1      31.940  25.898  26.733  1.00  0.00     0.101 C 
BRANCH   7   8
ATOM      8  C   UNL A   1      32.791  26.984  26.093  1.00  0.00     0.222 C 
ATOM      9  O   UNL A   1      33.726  27.464  26.740  1.00  0.00    -0.275 OA
BRANCH   8  10
ATOM     10  N   UNL A   1      32.493  27.394  24.801  1.00  0.00    -0.342 N 
ATOM     11  C   UNL A   1      31.950  22.624  23.037  1.00  0.00     0.047 A 
ATOM     12  C   UNL A   1      30.705  23.047  23.313  1.00  0.00     0.016 A 
ATOM     13  C   UNL A   1      32.997  23.645  22.680  1.00  0.00     0.258 A 
ATOM     14  C   UNL A   1      30.362  24.441  23.269  1.00  0.00     0.023 A 
ATOM     15  N   UNL A   1      32.584  24.988  22.649  1.00  0.00    -0.311 N 
ATOM     16  O   UNL A   1      34.144  23.287  22.413  1.00  0.00    -0.269 OA
ATOM     17  C   UNL A   1      31.275  25.371  22.947  1.00  0.00     0.026 A 
ATOM     18  C   UNL A   1      33.574  25.967  22.196  1.00  0.00     0.131 C 
ATOM     19  C   UNL A   1      30.906  26.847  22.957  1.00  0.00     0.056 C 
ATOM     20  C   UNL A   1      33.219  27.448  22.393  1.00  0.00     0.029 C 
ATOM     21  C   UNL A   1      31.769  27.646  21.979  1.00  0.00     0.019 C 
ATOM     22  C   UNL A   1      31.089  27.413  24.378  1.00  0.00     0.129 C 
ATOM     23  C   UNL A   1      33.435  27.949  23.835  1.00  0.00     0.125 C 
BRANCH  11  24
ATOM     24  C   UNL A   1      32.255  21.182  23.053  1.00  0.00    -0.013 A 
ATOM     25  C   UNL A   1      32.780  18.424  23.137  1.00  0.00     0.118 A 
ATOM     26  C   UNL A   1      32.238  19.000  21.988  1.00  0.00     0.047 A 
ATOM     27  C   UNL A   1      33.105  19.227  24.228  1.00  0.00     0.047 A 
ATOM     28  C   UNL A   1      31.963  20.371  21.950  1.00  0.00     0.013 A 
ATOM     29  C   UNL A   1      32.840  20.600  24.187  1.00  0.00     0.013 A 
BRANCH  25  30
ATOM     30  O   UNL A   1      33.007  17.074  23.096  1.00  0.00    -0.497 OA
ATOM     31  C   UNL A   1      33.143  16.489  24.389  1.00  0.00     0.278 C 
ENDBRANCH  25  30
ENDBRANCH  11  24
ENDBRANCH   8  10
ENDBRANCH   7   8
ENDBRANCH   6   7
ENDBRANCH   5   6
ENDBRANCH   3   5
ENDBRANCH   2   3
ENDBRANCH   1   2
BRANCH   1  32
ATOM     32  C   UNL A   1      36.967  22.503  25.637  1.00  0.00     0.202 C 
BRANCH  32  33
ATOM     33  O   UNL A   1      38.342  22.871  25.715  1.00  0.00    -0.374 OA
BRANCH  33  34
ATOM     34  C   UNL A   1      38.713  23.886  26.642  1.00  0.00     0.202 C 
BRANCH  34  35
ATOM     35  C   UNL A   1      39.971  24.714  26.343  1.00  0.00     0.261 C 
BRANCH  35  36
ATOM     36  O   UNL A   1      40.100  25.918  27.117  1.00  0.00    -0.460 OA
BRANCH  36  37
ATOM     37  C   UNL A   1      41.323  26.079  27.688  1.00  0.00     0.338 C 
ATOM     38  O   UNL A   1      42.325  25.420  27.475  1.00  0.00    -0.246 OA
BRANCH  37  39
ATOM     39  C   UNL A   1      41.349  27.282  28.541  1.00  0.00     0.060 A 
ATOM     40  C   UNL A   1      40.765  28.451  28.036  1.00  0.00     0.016 A 
ATOM     41  C   UNL A   1      42.048  27.304  29.749  1.00  0.00     0.016 A 
ATOM     42  C   UNL A   1      40.914  29.658  28.718  1.00  0.00     0.010 A 
ATOM     43  C   UNL A   1      42.203  28.519  30.428  1.00  0.00     0.010 A 
ATOM     44  C   UNL A   1      41.665  29.706  29.899  1.00  0.00    -0.014 A 
BRANCH  44  45
ATOM     45  C   UNL A   1      41.963  31.014  30.533  1.00  0.00     0.031 A 
ATOM     46  C   UNL A   1      43.245  31.727  30.201  1.00  0.00     0.074 A 
ATOM     47  C   UNL A   1      41.097  31.556  31.409  1.00  0.00     0.049 A 
ATOM     48  N   UNL A   1      43.706  32.859  30.670  1.00  0.00    -0.248 NA
ATOM     49  C   UNL A   1      44.122  31.085  29.210  1.00  0.00     0.031 C 
ATOM     50  C   UNL A   1      39.822  30.962  31.805  1.00  0.00     0.029 A 
ATOM     51  N   UNL A   1      41.175  32.712  32.143  1.00  0.00    -0.354 N 
ATOM     52  C   UNL A   1      44.934  33.054  30.051  1.00  0.00     0.074 A 
ATOM     53  C   UNL A   1      45.151  31.920  29.177  1.00  0.00     0.031 C 
ATOM     54  C   UNL A   1      39.251  31.742  32.738  1.00  0.00     0.029 A 
ATOM     55  C   UNL A   1      40.132  32.874  33.022  1.00  0.00     0.049 A 
ATOM     56  H   UNL A   1      41.908  33.364  32.048  1.00  0.00     0.167 HD
ATOM     57  C   UNL A   1      45.795  34.091  30.185  1.00  0.00     0.034 A 
ATOM     58  C   UNL A   1      39.924  33.811  33.969  1.00  0.00     0.034 A 
ATOM     59  C   UNL A   1      45.571  35.226  31.040  1.00  0.00     0.049 A 
ATOM     60  C   UNL A   1      40.921  34.928  34.132  1.00  0.00     0.074 A 
ATOM     61  C   UNL A   1      46.355  36.355  31.195  1.00  0.00     0.029 A 
ATOM     62  N   UNL A   1      44.494  35.367  31.900  1.00  0.00    -0.354 N 
ATOM     63  N   UNL A   1      42.008  35.171  33.440  1.00  0.00    -0.248 NA
ATOM     64  C   UNL A   1      40.650  35.916  35.188  1.00  0.00     0.031 C 
ATOM     65  C   UNL A   1      45.764  37.168  32.170  1.00  0.00     0.029 A 
ATOM     66  C   UNL A   1      44.603  36.552  32.607  1.00  0.00     0.049 A 
ATOM     67  H   UNL A   1      43.757  34.720  31.995  1.00  0.00     0.167 HD
ATOM     68  C   UNL A   1      42.538  36.348  33.961  1.00  0.00     0.074 A 
ATOM     69  C   UNL A   1      41.636  36.784  35.007  1.00  0.00     0.031 C 
ATOM     70  C   UNL A   1      43.679  36.998  33.618  1.00  0.00     0.034 A 
BRANCH  57  71
ATOM     71  C   UNL A   1      47.055  34.066  29.360  1.00  0.00     0.023 A 
ATOM     72  C   UNL A   1      48.209  33.441  29.875  1.00  0.00     0.012 A 
ATOM     73  C   UNL A   1      47.080  34.602  28.057  1.00  0.00     0.148 A 
ATOM     74  C   UNL A   1      49.375  33.369  29.114  1.00  0.00     0.002 A 
ATOM     75  C   UNL A   1      48.235  34.494  27.292  1.00  0.00     0.091 A 
ATOM     76  F   UNL A   1      45.981  35.214  27.596  1.00  0.00    -0.205 F 
ATOM     77  C   UNL A   1      49.386  33.885  27.821  1.00  0.00     0.022 A 
BRANCH  75  78
ATOM     78  S   UNL A   1      48.325  35.067  25.592  1.00  0.00     0.127 S 
ATOM     79  O   UNL A   1      47.114  34.480  25.019  1.00  0.00    -0.237 OA
ATOM     80  O   UNL A   1      48.281  36.521  25.751  1.00  0.00    -0.237 OA
ATOM     81  O   UNL A   1      49.581  34.552  25.063  1.00  0.00    -0.744 OA
ENDBRANCH  75  78
ENDBRANCH  57  71
BRANCH  58  82
ATOM     82  C   UNL A   1      38.704  33.742  34.823  1.00  0.00     0.023 A 
ATOM     83  C   UNL A   1      37.498  34.297  34.356  1.00  0.00     0.012 A 
ATOM     84  C   UNL A   1      38.725  33.099  36.077  1.00  0.00     0.148 A 
ATOM     85  C   UNL A   1      36.339  34.232  35.133  1.00  0.00     0.002 A 
ATOM     86  C   UNL A   1      37.554  32.985  36.816  1.00  0.00     0.091 A 
ATOM     87  F   UNL A   1      39.889  32.597  36.514  1.00  0.00    -0.205 F 
ATOM     88  C   UNL A   1      36.364  33.567  36.356  1.00  0.00     0.022 A 
BRANCH  86  89
ATOM     89  S   UNL A   1      37.464  32.013  38.325  1.00  0.00     0.127 S 
ATOM     90  O   UNL A   1      37.526  30.649  37.809  1.00  0.00    -0.237 OA
ATOM     91  O   UNL A   1      38.659  32.458  39.045  1.00  0.00    -0.237 OA
ATOM     92  O   UNL A   1      36.212  32.396  38.964  1.00  0.00    -0.744 OA
ENDBRANCH  86  89
ENDBRANCH  58  82
BRANCH  70  93
ATOM     93  C   UNL A   1      44.021  38.255  34.376  1.00  0.00     0.023 A 
ATOM     94  C   UNL A   1      43.627  39.504  33.858  1.00  0.00     0.012 A 
ATOM     95  C   UNL A   1      44.663  38.197  35.628  1.00  0.00     0.148 A 
ATOM     96  C   UNL A   1      43.891  40.679  34.560  1.00  0.00     0.002 A 
ATOM     97  C   UNL A   1      44.884  39.369  36.345  1.00  0.00     0.091 A 
ATOM     98  F   UNL A   1      45.046  37.000  36.097  1.00  0.00    -0.205 F 
ATOM     99  C   UNL A   1      44.509  40.611  35.808  1.00  0.00     0.022 A 
BRANCH  97 100
ATOM    100  S   UNL A   1      45.592  39.370  37.997  1.00  0.00     0.127 S 
ATOM    101  O   UNL A   1      46.932  38.842  37.746  1.00  0.00    -0.237 OA
ATOM    102  O   UNL A   1      45.552  40.789  38.352  1.00  0.00    -0.237 OA
ATOM    103  O   UNL A   1      44.725  38.521  38.803  1.00  0.00    -0.744 OA
ENDBRANCH  97 100
ENDBRANCH  70  93
ENDBRANCH  44  45
ENDBRANCH  37  39
ENDBRANCH  36  37
ENDBRANCH  35  36
ENDBRANCH  34  35
ENDBRANCH  33  34
ENDBRANCH  32  33
ENDBRANCH   1  32
TORSDOF 23
ENDMDL
