MODEL 1
REMARK VINA RESULT:     -10.1      0.000      0.000
REMARK SMILES C#CCN(CC(=O)OCCOCCOC(=O)c1ccc(-c2c3nc(c(-c4cccc(S(=O)(=O)[O-])c4F)c4ccc([nH]4)c(-c4cccc(S(=O)(=O)[O-])c4F)c4nc(c(-c5cccc(S(=O)(=O)[O-])c5F)c5ccc2[nH]5)C=C4)C=C3)cc1)C(=O)Cc1csc(-c2ccsc2)n1
REMARK SMILES IDX 10 1 9 2 8 3 6 4 7 5 5 6 4 7 3 8 2 9 1 10 80 11 81 12 82 13
REMARK SMILES IDX 83 14 84 15 92 16 85 17 86 18 87 19 88 20 91 21 89 22 90 23
REMARK SMILES IDX 11 24 12 25 13 26 14 27 15 28 16 29 17 30 18 31 79 32 19 33
REMARK SMILES IDX 78 34 20 35 21 36 22 37 72 38 23 39 77 40 71 41 73 42 24 43
REMARK SMILES IDX 76 44 70 45 69 46 25 48 57 49 37 50 56 51 38 52 41 53 55 54
REMARK SMILES IDX 74 55 39 56 40 57 54 59 75 60 42 61 26 62 27 63 35 64 28 65
REMARK SMILES IDX 30 66 36 67 29 68 31 69 32 70 33 71 34 72 58 73 59 74 67 75
REMARK SMILES IDX 60 76 62 77 68 78 61 79 63 80 64 81 65 82 66 83 43 84 44 85
REMARK SMILES IDX 52 86 45 87 47 88 53 89 46 90 48 91 49 92 50 93 51 94
REMARK H PARENT 73 47 41 58
REMARK Flexibility Score: inf
ROOT
ATOM      1  C   UNL A   1      36.722  21.978  25.453  1.00  0.00     0.202 C 
ENDROOT
BRANCH   1   2
ATOM      2  C   UNL A   1      36.549  23.472  25.146  1.00  0.00     0.261 C 
BRANCH   2   3
ATOM      3  O   UNL A   1      35.232  23.813  24.657  1.00  0.00    -0.462 OA
BRANCH   3   4
ATOM      4  C   UNL A   1      34.306  24.109  25.611  1.00  0.00     0.325 C 
ATOM      5  O   UNL A   1      34.014  25.249  25.961  1.00  0.00    -0.250 OA
BRANCH   4   6
ATOM      6  C   UNL A   1      33.632  22.886  26.255  1.00  0.00     0.243 C 
BRANCH   6   7
ATOM      7  N   UNL A   1      32.216  22.629  25.992  1.00  0.00    -0.320 N 
BRANCH   7   8
ATOM      8  C   UNL A   1      31.898  21.390  25.269  1.00  0.00     0.210 C 
BRANCH   8   9
ATOM      9  C   UNL A   1      32.226  21.651  23.808  1.00  0.00    -0.085 C 
ATOM     10  C   UNL A   1      32.508  21.875  22.554  1.00  0.00     0.006 C 
ENDBRANCH   8   9
ENDBRANCH   7   8
BRANCH   7  11
ATOM     11  C   UNL A   1      31.126  23.381  26.380  1.00  0.00     0.229 C 
ATOM     12  O   UNL A   1      30.787  23.354  27.578  1.00  0.00    -0.274 OA
BRANCH  11  13
ATOM     13  C   UNL A   1      30.300  24.322  25.525  1.00  0.00     0.157 C 
BRANCH  13  14
ATOM     14  C   UNL A   1      30.787  25.371  24.589  1.00  0.00     0.061 A 
ATOM     15  C   UNL A   1      31.529  25.215  23.433  1.00  0.00     0.091 A 
ATOM     16  N   UNL A   1      30.186  26.627  24.694  1.00  0.00    -0.241 NA
ATOM     17  S   UNL A   1      31.493  26.643  22.492  1.00  0.00    -0.122 S 
ATOM     18  C   UNL A   1      30.377  27.332  23.599  1.00  0.00     0.124 A 
BRANCH  18  19
ATOM     19  C   UNL A   1      29.604  28.596  23.333  1.00  0.00     0.021 A 
ATOM     20  C   UNL A   1      30.019  29.901  23.746  1.00  0.00     0.023 A 
ATOM     21  C   UNL A   1      28.372  28.629  22.715  1.00  0.00     0.076 A 
ATOM     22  C   UNL A   1      29.099  30.871  23.412  1.00  0.00     0.065 A 
ATOM     23  S   UNL A   1      27.729  30.214  22.625  1.00  0.00    -0.152 S 
ENDBRANCH  18  19
ENDBRANCH  13  14
ENDBRANCH  11  13
ENDBRANCH   7  11
ENDBRANCH   6   7
ENDBRANCH   4   6
ENDBRANCH   3   4
ENDBRANCH   2   3
ENDBRANCH   1   2
BRANCH   1  24
ATOM     24  O   UNL A   1      37.453  21.194  24.510  1.00  0.00    -0.374 OA
BRANCH  24  25
ATOM     25  C   UNL A   1      37.633  19.814  24.812  1.00  0.00     0.202 C 
BRANCH  25  26
ATOM     26  C   UNL A   1      38.946  19.375  25.468  1.00  0.00     0.261 C 
BRANCH  26  27
ATOM     27  O   UNL A   1      39.866  20.451  25.628  1.00  0.00    -0.460 OA
BRANCH  27  28
ATOM     28  C   UNL A   1      40.540  20.435  26.798  1.00  0.00     0.338 C 
ATOM     29  O   UNL A   1      41.067  19.477  27.347  1.00  0.00    -0.246 OA
BRANCH  28  30
ATOM     30  C   UNL A   1      40.721  21.818  27.244  1.00  0.00     0.060 A 
ATOM     31  C   UNL A   1      40.037  22.819  26.541  1.00  0.00     0.016 A 
ATOM     32  C   UNL A   1      41.571  22.123  28.308  1.00  0.00     0.016 A 
ATOM     33  C   UNL A   1      40.251  24.151  26.866  1.00  0.00     0.010 A 
ATOM     34  C   UNL A   1      41.788  23.458  28.628  1.00  0.00     0.010 A 
ATOM     35  C   UNL A   1      41.164  24.470  27.877  1.00  0.00    -0.014 A 
BRANCH  35  36
ATOM     36  C   UNL A   1      41.624  25.862  28.032  1.00  0.00     0.031 A 
ATOM     37  C   UNL A   1      42.991  26.211  27.524  1.00  0.00     0.074 A 
ATOM     38  C   UNL A   1      40.845  26.767  28.644  1.00  0.00     0.049 A 
ATOM     39  N   UNL A   1      43.648  27.333  27.622  1.00  0.00    -0.248 NA
ATOM     40  C   UNL A   1      43.723  25.142  26.820  1.00  0.00     0.031 C 
ATOM     41  C   UNL A   1      39.497  26.515  29.150  1.00  0.00     0.029 A 
ATOM     42  N   UNL A   1      41.091  28.074  28.969  1.00  0.00    -0.354 N 
ATOM     43  C   UNL A   1      44.888  27.092  27.043  1.00  0.00     0.074 A 
ATOM     44  C   UNL A   1      44.895  25.717  26.597  1.00  0.00     0.031 C 
ATOM     45  C   UNL A   1      39.040  27.629  29.745  1.00  0.00     0.029 A 
ATOM     46  C   UNL A   1      40.079  28.655  29.694  1.00  0.00     0.049 A 
ATOM     47  H   UNL A   1      41.913  28.550  28.709  1.00  0.00     0.167 HD
ATOM     48  C   UNL A   1      45.926  27.946  26.898  1.00  0.00     0.034 A 
ATOM     49  C   UNL A   1      40.020  29.872  30.269  1.00  0.00     0.034 A 
ATOM     50  C   UNL A   1      45.887  29.312  27.338  1.00  0.00     0.049 A 
ATOM     51  C   UNL A   1      41.200  30.795  30.116  1.00  0.00     0.074 A 
ATOM     52  C   UNL A   1      46.848  30.294  27.189  1.00  0.00     0.029 A 
ATOM     53  N   UNL A   1      44.831  29.882  28.037  1.00  0.00    -0.354 N 
ATOM     54  N   UNL A   1      42.325  30.596  29.470  1.00  0.00    -0.248 NA
ATOM     55  C   UNL A   1      41.096  32.118  30.747  1.00  0.00     0.031 C 
ATOM     56  C   UNL A   1      46.392  31.444  27.840  1.00  0.00     0.029 A 
ATOM     57  C   UNL A   1      45.125  31.194  28.349  1.00  0.00     0.049 A 
ATOM     58  H   UNL A   1      43.996  29.418  28.275  1.00  0.00     0.167 HD
ATOM     59  C   UNL A   1      43.040  31.784  29.572  1.00  0.00     0.074 A 
ATOM     60  C   UNL A   1      42.221  32.696  30.346  1.00  0.00     0.031 C 
ATOM     61  C   UNL A   1      44.262  32.094  29.072  1.00  0.00     0.034 A 
BRANCH  48  62
ATOM     62  C   UNL A   1      47.181  27.422  26.253  1.00  0.00     0.023 A 
ATOM     63  C   UNL A   1      47.408  27.617  24.875  1.00  0.00     0.012 A 
ATOM     64  C   UNL A   1      48.150  26.748  27.023  1.00  0.00     0.148 A 
ATOM     65  C   UNL A   1      48.556  27.110  24.265  1.00  0.00     0.002 A 
ATOM     66  C   UNL A   1      49.315  26.291  26.418  1.00  0.00     0.091 A 
ATOM     67  F   UNL A   1      47.907  26.547  28.325  1.00  0.00    -0.205 F 
ATOM     68  C   UNL A   1      49.512  26.457  25.038  1.00  0.00     0.022 A 
BRANCH  66  69
ATOM     69  S   UNL A   1      50.641  25.512  27.345  1.00  0.00     0.127 S 
ATOM     70  O   UNL A   1      51.677  25.376  26.322  1.00  0.00    -0.237 OA
ATOM     71  O   UNL A   1      50.928  26.516  28.372  1.00  0.00    -0.237 OA
ATOM     72  O   UNL A   1      50.095  24.263  27.854  1.00  0.00    -0.744 OA
ENDBRANCH  66  69
ENDBRANCH  48  62
BRANCH  49  73
ATOM     73  C   UNL A   1      38.788  30.295  30.988  1.00  0.00     0.023 A 
ATOM     74  C   UNL A   1      38.669  30.025  32.365  1.00  0.00     0.012 A 
ATOM     75  C   UNL A   1      37.758  31.000  30.335  1.00  0.00     0.148 A 
ATOM     76  C   UNL A   1      37.537  30.426  33.074  1.00  0.00     0.002 A 
ATOM     77  C   UNL A   1      36.656  31.442  31.058  1.00  0.00     0.091 A 
ATOM     78  F   UNL A   1      37.889  31.244  29.023  1.00  0.00    -0.205 F 
ATOM     79  C   UNL A   1      36.535  31.142  32.424  1.00  0.00     0.022 A 
BRANCH  77  80
ATOM     80  S   UNL A   1      35.377  32.477  30.338  1.00  0.00     0.127 S 
ATOM     81  O   UNL A   1      34.382  32.512  31.407  1.00  0.00    -0.237 OA
ATOM     82  O   UNL A   1      36.094  33.734  30.123  1.00  0.00    -0.237 OA
ATOM     83  O   UNL A   1      34.962  31.804  29.114  1.00  0.00    -0.744 OA
ENDBRANCH  77  80
ENDBRANCH  49  73
BRANCH  61  84
ATOM     84  C   UNL A   1      44.771  33.495  29.277  1.00  0.00     0.023 A 
ATOM     85  C   UNL A   1      45.504  33.820  30.434  1.00  0.00     0.012 A 
ATOM     86  C   UNL A   1      44.629  34.449  28.250  1.00  0.00     0.148 A 
ATOM     87  C   UNL A   1      46.076  35.084  30.573  1.00  0.00     0.002 A 
ATOM     88  C   UNL A   1      45.249  35.684  28.370  1.00  0.00     0.091 A 
ATOM     89  F   UNL A   1      43.915  34.117  27.165  1.00  0.00    -0.205 F 
ATOM     90  C   UNL A   1      45.963  36.009  29.535  1.00  0.00     0.022 A 
BRANCH  88  91
ATOM     91  S   UNL A   1      45.253  36.894  27.042  1.00  0.00     0.127 S 
ATOM     92  O   UNL A   1      45.972  36.177  25.989  1.00  0.00    -0.237 OA
ATOM     93  O   UNL A   1      43.824  37.076  26.789  1.00  0.00    -0.237 OA
ATOM     94  O   UNL A   1      45.933  38.069  27.566  1.00  0.00    -0.744 OA
ENDBRANCH  88  91
ENDBRANCH  61  84
ENDBRANCH  35  36
ENDBRANCH  28  30
ENDBRANCH  27  28
ENDBRANCH  26  27
ENDBRANCH  25  26
ENDBRANCH  24  25
ENDBRANCH   1  24
TORSDOF 24
ENDMDL
MODEL 2
REMARK VINA RESULT:      -9.6      2.365      3.293
REMARK SMILES C#CCN(CC(=O)OCCOCCOC(=O)c1ccc(-c2c3nc(c(-c4cccc(S(=O)(=O)[O-])c4F)c4ccc([nH]4)c(-c4cccc(S(=O)(=O)[O-])c4F)c4nc(c(-c5cccc(S(=O)(=O)[O-])c5F)c5ccc2[nH]5)C=C4)C=C3)cc1)C(=O)Cc1csc(-c2ccsc2)n1
REMARK SMILES IDX 10 1 9 2 8 3 6 4 7 5 5 6 4 7 3 8 2 9 1 10 80 11 81 12 82 13
REMARK SMILES IDX 83 14 84 15 92 16 85 17 86 18 87 19 88 20 91 21 89 22 90 23
REMARK SMILES IDX 11 24 12 25 13 26 14 27 15 28 16 29 17 30 18 31 79 32 19 33
REMARK SMILES IDX 78 34 20 35 21 36 22 37 72 38 23 39 77 40 71 41 73 42 24 43
REMARK SMILES IDX 76 44 70 45 69 46 25 48 57 49 37 50 56 51 38 52 41 53 55 54
REMARK SMILES IDX 74 55 39 56 40 57 54 59 75 60 42 61 26 62 27 63 35 64 28 65
REMARK SMILES IDX 30 66 36 67 29 68 31 69 32 70 33 71 34 72 58 73 59 74 67 75
REMARK SMILES IDX 60 76 62 77 68 78 61 79 63 80 64 81 65 82 66 83 43 84 44 85
REMARK SMILES IDX 52 86 45 87 47 88 53 89 46 90 48 91 49 92 50 93 51 94
REMARK H PARENT 73 47 41 58
REMARK Flexibility Score: inf
ROOT
ATOM      1  C   UNL A   1      35.262  21.588  26.261  1.00  0.00     0.202 C 
ENDROOT
BRANCH   1   2
ATOM      2  C   UNL A   1      34.143  22.575  26.625  1.00  0.00     0.261 C 
BRANCH   2   3
ATOM      3  O   UNL A   1      34.502  23.959  26.413  1.00  0.00    -0.462 OA
BRANCH   3   4
ATOM      4  C   UNL A   1      33.662  24.672  25.614  1.00  0.00     0.325 C 
ATOM      5  O   UNL A   1      32.757  25.391  26.029  1.00  0.00    -0.250 OA
BRANCH   4   6
ATOM      6  C   UNL A   1      33.913  24.509  24.106  1.00  0.00     0.243 C 
BRANCH   6   7
ATOM      7  N   UNL A   1      32.771  24.418  23.197  1.00  0.00    -0.320 N 
BRANCH   7   8
ATOM      8  C   UNL A   1      31.661  23.553  23.622  1.00  0.00     0.210 C 
BRANCH   8   9
ATOM      9  C   UNL A   1      32.179  22.126  23.554  1.00  0.00    -0.085 C 
ATOM     10  C   UNL A   1      32.625  20.902  23.496  1.00  0.00     0.006 C 
ENDBRANCH   8   9
ENDBRANCH   7   8
BRANCH   7  11
ATOM     11  C   UNL A   1      32.576  25.081  22.002  1.00  0.00     0.229 C 
ATOM     12  O   UNL A   1      33.288  24.766  21.030  1.00  0.00    -0.274 OA
BRANCH  11  13
ATOM     13  C   UNL A   1      31.530  26.132  21.687  1.00  0.00     0.157 C 
BRANCH  13  14
ATOM     14  C   UNL A   1      31.311  27.437  22.369  1.00  0.00     0.061 A 
ATOM     15  C   UNL A   1      30.141  28.167  22.474  1.00  0.00     0.091 A 
ATOM     16  N   UNL A   1      32.297  27.840  23.272  1.00  0.00    -0.241 NA
ATOM     17  S   UNL A   1      30.285  29.371  23.681  1.00  0.00    -0.122 S 
ATOM     18  C   UNL A   1      31.833  28.757  24.096  1.00  0.00     0.124 A 
BRANCH  18  19
ATOM     19  C   UNL A   1      32.589  29.154  25.335  1.00  0.00     0.021 A 
ATOM     20  C   UNL A   1      32.096  30.055  26.330  1.00  0.00     0.023 A 
ATOM     21  C   UNL A   1      33.874  28.741  25.619  1.00  0.00     0.076 A 
ATOM     22  C   UNL A   1      33.014  30.276  27.334  1.00  0.00     0.065 A 
ATOM     23  S   UNL A   1      34.473  29.422  27.072  1.00  0.00    -0.152 S 
ENDBRANCH  18  19
ENDBRANCH  13  14
ENDBRANCH  11  13
ENDBRANCH   7  11
ENDBRANCH   6   7
ENDBRANCH   4   6
ENDBRANCH   3   4
ENDBRANCH   2   3
ENDBRANCH   1   2
BRANCH   1  24
ATOM     24  O   UNL A   1      35.819  21.683  24.951  1.00  0.00    -0.374 OA
BRANCH  24  25
ATOM     25  C   UNL A   1      37.016  20.954  24.699  1.00  0.00     0.202 C 
BRANCH  25  26
ATOM     26  C   UNL A   1      38.191  21.120  25.670  1.00  0.00     0.261 C 
BRANCH  26  27
ATOM     27  O   UNL A   1      38.407  22.478  26.043  1.00  0.00    -0.460 OA
BRANCH  27  28
ATOM     28  C   UNL A   1      39.599  22.707  26.633  1.00  0.00     0.338 C 
ATOM     29  O   UNL A   1      40.560  21.953  26.701  1.00  0.00    -0.246 OA
BRANCH  28  30
ATOM     30  C   UNL A   1      39.652  24.116  27.032  1.00  0.00     0.060 A 
ATOM     31  C   UNL A   1      40.036  25.050  26.061  1.00  0.00     0.016 A 
ATOM     32  C   UNL A   1      39.359  24.501  28.341  1.00  0.00     0.016 A 
ATOM     33  C   UNL A   1      40.192  26.382  26.416  1.00  0.00     0.010 A 
ATOM     34  C   UNL A   1      39.521  25.835  28.697  1.00  0.00     0.010 A 
ATOM     35  C   UNL A   1      39.980  26.764  27.745  1.00  0.00    -0.014 A 
BRANCH  35  36
ATOM     36  C   UNL A   1      40.423  28.093  28.202  1.00  0.00     0.031 A 
ATOM     37  C   UNL A   1      41.896  28.379  28.211  1.00  0.00     0.074 A 
ATOM     38  C   UNL A   1      39.525  28.996  28.626  1.00  0.00     0.049 A 
ATOM     39  N   UNL A   1      42.531  29.431  28.647  1.00  0.00    -0.248 NA
ATOM     40  C   UNL A   1      42.773  27.327  27.666  1.00  0.00     0.031 C 
ATOM     41  C   UNL A   1      38.076  28.805  28.632  1.00  0.00     0.029 A 
ATOM     42  N   UNL A   1      39.706  30.243  29.162  1.00  0.00    -0.354 N 
ATOM     43  C   UNL A   1      43.881  29.148  28.480  1.00  0.00     0.074 A 
ATOM     44  C   UNL A   1      43.976  27.826  27.905  1.00  0.00     0.031 C 
ATOM     45  C   UNL A   1      37.496  29.891  29.170  1.00  0.00     0.029 A 
ATOM     46  C   UNL A   1      38.537  30.831  29.579  1.00  0.00     0.049 A 
ATOM     47  H   UNL A   1      40.588  30.674  29.241  1.00  0.00     0.167 HD
ATOM     48  C   UNL A   1      44.944  29.927  28.781  1.00  0.00     0.034 A 
ATOM     49  C   UNL A   1      38.343  31.989  30.240  1.00  0.00     0.034 A 
ATOM     50  C   UNL A   1      44.820  31.244  29.339  1.00  0.00     0.049 A 
ATOM     51  C   UNL A   1      39.546  32.826  30.588  1.00  0.00     0.074 A 
ATOM     52  C   UNL A   1      45.818  32.157  29.626  1.00  0.00     0.029 A 
ATOM     53  N   UNL A   1      43.618  31.827  29.716  1.00  0.00    -0.354 N 
ATOM     54  N   UNL A   1      40.812  32.600  30.326  1.00  0.00    -0.248 NA
ATOM     55  C   UNL A   1      39.296  34.087  31.299  1.00  0.00     0.031 C 
ATOM     56  C   UNL A   1      45.223  33.273  30.221  1.00  0.00     0.029 A 
ATOM     57  C   UNL A   1      43.849  33.077  30.256  1.00  0.00     0.049 A 
ATOM     58  H   UNL A   1      42.732  31.411  29.614  1.00  0.00     0.167 HD
ATOM     59  C   UNL A   1      41.503  33.712  30.792  1.00  0.00     0.074 A 
ATOM     60  C   UNL A   1      40.514  34.609  31.356  1.00  0.00     0.031 C 
ATOM     61  C   UNL A   1      42.834  33.970  30.757  1.00  0.00     0.034 A 
BRANCH  48  62
ATOM     62  C   UNL A   1      46.318  29.368  28.524  1.00  0.00     0.023 A 
ATOM     63  C   UNL A   1      46.979  29.635  27.308  1.00  0.00     0.012 A 
ATOM     64  C   UNL A   1      46.965  28.589  29.504  1.00  0.00     0.148 A 
ATOM     65  C   UNL A   1      48.241  29.098  27.052  1.00  0.00     0.002 A 
ATOM     66  C   UNL A   1      48.244  28.100  29.263  1.00  0.00     0.091 A 
ATOM     67  F   UNL A   1      46.312  28.323  30.644  1.00  0.00    -0.205 F 
ATOM     68  C   UNL A   1      48.876  28.340  28.032  1.00  0.00     0.022 A 
BRANCH  66  69
ATOM     69  S   UNL A   1      49.175  27.185  30.495  1.00  0.00     0.127 S 
ATOM     70  O   UNL A   1      50.448  26.974  29.808  1.00  0.00    -0.237 OA
ATOM     71  O   UNL A   1      49.232  28.137  31.606  1.00  0.00    -0.237 OA
ATOM     72  O   UNL A   1      48.404  25.981  30.769  1.00  0.00    -0.744 OA
ENDBRANCH  66  69
ENDBRANCH  48  62
BRANCH  49  73
ATOM     73  C   UNL A   1      36.962  32.438  30.562  1.00  0.00     0.023 A 
ATOM     74  C   UNL A   1      36.461  32.241  31.864  1.00  0.00     0.012 A 
ATOM     75  C   UNL A   1      36.160  33.098  29.610  1.00  0.00     0.148 A 
ATOM     76  C   UNL A   1      35.179  32.670  32.205  1.00  0.00     0.002 A 
ATOM     77  C   UNL A   1      34.902  33.568  29.971  1.00  0.00     0.091 A 
ATOM     78  F   UNL A   1      36.654  33.272  28.376  1.00  0.00    -0.205 F 
ATOM     79  C   UNL A   1      34.403  33.341  31.263  1.00  0.00     0.022 A 
BRANCH  77  80
ATOM     80  S   UNL A   1      33.882  34.551  28.866  1.00  0.00     0.127 S 
ATOM     81  O   UNL A   1      33.578  33.592  27.807  1.00  0.00    -0.237 OA
ATOM     82  O   UNL A   1      32.752  34.895  29.730  1.00  0.00    -0.237 OA
ATOM     83  O   UNL A   1      34.704  35.686  28.470  1.00  0.00    -0.744 OA
ENDBRANCH  77  80
ENDBRANCH  49  73
BRANCH  61  84
ATOM     84  C   UNL A   1      43.307  35.301  31.277  1.00  0.00     0.023 A 
ATOM     85  C   UNL A   1      43.749  35.424  32.608  1.00  0.00     0.012 A 
ATOM     86  C   UNL A   1      43.433  36.393  30.396  1.00  0.00     0.148 A 
ATOM     87  C   UNL A   1      44.296  36.625  33.059  1.00  0.00     0.002 A 
ATOM     88  C   UNL A   1      44.029  37.565  30.836  1.00  0.00     0.091 A 
ATOM     89  F   UNL A   1      42.991  36.251  29.138  1.00  0.00    -0.205 F 
ATOM     90  C   UNL A   1      44.452  37.688  32.170  1.00  0.00     0.022 A 
BRANCH  88  91
ATOM     91  S   UNL A   1      44.373  38.943  29.736  1.00  0.00     0.127 S 
ATOM     92  O   UNL A   1      43.025  39.387  29.385  1.00  0.00    -0.237 OA
ATOM     93  O   UNL A   1      45.108  39.857  30.610  1.00  0.00    -0.237 OA
ATOM     94  O   UNL A   1      45.152  38.398  28.634  1.00  0.00    -0.744 OA
ENDBRANCH  88  91
ENDBRANCH  61  84
ENDBRANCH  35  36
ENDBRANCH  28  30
ENDBRANCH  27  28
ENDBRANCH  26  27
ENDBRANCH  25  26
ENDBRANCH  24  25
ENDBRANCH   1  24
TORSDOF 24
ENDMDL
MODEL 3
REMARK VINA RESULT:      -9.2      2.945      8.375
REMARK SMILES C#CCN(CC(=O)OCCOCCOC(=O)c1ccc(-c2c3nc(c(-c4cccc(S(=O)(=O)[O-])c4F)c4ccc([nH]4)c(-c4cccc(S(=O)(=O)[O-])c4F)c4nc(c(-c5cccc(S(=O)(=O)[O-])c5F)c5ccc2[nH]5)C=C4)C=C3)cc1)C(=O)Cc1csc(-c2ccsc2)n1
REMARK SMILES IDX 10 1 9 2 8 3 6 4 7 5 5 6 4 7 3 8 2 9 1 10 80 11 81 12 82 13
REMARK SMILES IDX 83 14 84 15 92 16 85 17 86 18 87 19 88 20 91 21 89 22 90 23
REMARK SMILES IDX 11 24 12 25 13 26 14 27 15 28 16 29 17 30 18 31 79 32 19 33
REMARK SMILES IDX 78 34 20 35 21 36 22 37 72 38 23 39 77 40 71 41 73 42 24 43
REMARK SMILES IDX 76 44 70 45 69 46 25 48 57 49 37 50 56 51 38 52 41 53 55 54
REMARK SMILES IDX 74 55 39 56 40 57 54 59 75 60 42 61 26 62 27 63 35 64 28 65
REMARK SMILES IDX 30 66 36 67 29 68 31 69 32 70 33 71 34 72 58 73 59 74 67 75
REMARK SMILES IDX 60 76 62 77 68 78 61 79 63 80 64 81 65 82 66 83 43 84 44 85
REMARK SMILES IDX 52 86 45 87 47 88 53 89 46 90 48 91 49 92 50 93 51 94
REMARK H PARENT 73 47 41 58
REMARK Flexibility Score: inf
ROOT
ATOM      1  C   UNL A   1      35.109  21.810  26.309  1.00  0.00     0.202 C 
ENDROOT
BRANCH   1   2
ATOM      2  C   UNL A   1      33.951  22.718  26.749  1.00  0.00     0.261 C 
BRANCH   2   3
ATOM      3  O   UNL A   1      34.217  24.126  26.557  1.00  0.00    -0.462 OA
BRANCH   3   4
ATOM      4  C   UNL A   1      33.381  24.774  25.700  1.00  0.00     0.325 C 
ATOM      5  O   UNL A   1      32.421  25.455  26.053  1.00  0.00    -0.250 OA
BRANCH   4   6
ATOM      6  C   UNL A   1      33.712  24.587  24.211  1.00  0.00     0.243 C 
BRANCH   6   7
ATOM      7  N   UNL A   1      32.620  24.447  23.248  1.00  0.00    -0.320 N 
BRANCH   7   8
ATOM      8  C   UNL A   1      31.518  23.552  23.631  1.00  0.00     0.210 C 
BRANCH   8   9
ATOM      9  C   UNL A   1      32.073  22.138  23.567  1.00  0.00    -0.085 C 
ATOM     10  C   UNL A   1      32.549  20.926  23.512  1.00  0.00     0.006 C 
ENDBRANCH   8   9
ENDBRANCH   7   8
BRANCH   7  11
ATOM     11  C   UNL A   1      32.465  25.087  22.035  1.00  0.00     0.229 C 
ATOM     12  O   UNL A   1      33.166  24.713  21.077  1.00  0.00    -0.274 OA
BRANCH  11  13
ATOM     13  C   UNL A   1      31.471  26.177  21.686  1.00  0.00     0.157 C 
BRANCH  13  14
ATOM     14  C   UNL A   1      31.281  27.490  22.361  1.00  0.00     0.061 A 
ATOM     15  C   UNL A   1      30.133  28.258  22.440  1.00  0.00     0.091 A 
ATOM     16  N   UNL A   1      32.261  27.864  23.282  1.00  0.00    -0.241 NA
ATOM     17  S   UNL A   1      30.291  29.459  23.648  1.00  0.00    -0.122 S 
ATOM     18  C   UNL A   1      31.810  28.797  24.094  1.00  0.00     0.124 A 
BRANCH  18  19
ATOM     19  C   UNL A   1      32.553  29.173  25.348  1.00  0.00     0.021 A 
ATOM     20  C   UNL A   1      32.053  30.063  26.349  1.00  0.00     0.023 A 
ATOM     21  C   UNL A   1      33.832  28.749  25.642  1.00  0.00     0.076 A 
ATOM     22  C   UNL A   1      32.960  30.266  27.368  1.00  0.00     0.065 A 
ATOM     23  S   UNL A   1      34.417  29.408  27.111  1.00  0.00    -0.152 S 
ENDBRANCH  18  19
ENDBRANCH  13  14
ENDBRANCH  11  13
ENDBRANCH   7  11
ENDBRANCH   6   7
ENDBRANCH   4   6
ENDBRANCH   3   4
ENDBRANCH   2   3
ENDBRANCH   1   2
BRANCH   1  24
ATOM     24  O   UNL A   1      35.655  22.026  25.008  1.00  0.00    -0.374 OA
BRANCH  24  25
ATOM     25  C   UNL A   1      36.867  21.350  24.691  1.00  0.00     0.202 C 
BRANCH  25  26
ATOM     26  C   UNL A   1      38.038  21.447  25.677  1.00  0.00     0.261 C 
BRANCH  26  27
ATOM     27  O   UNL A   1      38.401  22.795  25.965  1.00  0.00    -0.460 OA
BRANCH  27  28
ATOM     28  C   UNL A   1      39.685  22.951  26.351  1.00  0.00     0.338 C 
ATOM     29  O   UNL A   1      40.625  22.192  26.157  1.00  0.00    -0.246 OA
BRANCH  28  30
ATOM     30  C   UNL A   1      39.841  24.303  26.893  1.00  0.00     0.060 A 
ATOM     31  C   UNL A   1      40.369  25.284  26.044  1.00  0.00     0.016 A 
ATOM     32  C   UNL A   1      39.505  24.587  28.218  1.00  0.00     0.016 A 
ATOM     33  C   UNL A   1      40.623  26.555  26.540  1.00  0.00     0.010 A 
ATOM     34  C   UNL A   1      39.764  25.859  28.715  1.00  0.00     0.010 A 
ATOM     35  C   UNL A   1      40.365  26.826  27.888  1.00  0.00    -0.014 A 
BRANCH  35  36
ATOM     36  C   UNL A   1      40.898  28.056  28.500  1.00  0.00     0.031 A 
ATOM     37  C   UNL A   1      39.916  29.054  29.040  1.00  0.00     0.074 A 
ATOM     38  C   UNL A   1      42.221  28.278  28.532  1.00  0.00     0.049 A 
ATOM     39  N   UNL A   1      40.133  30.239  29.540  1.00  0.00    -0.248 NA
ATOM     40  C   UNL A   1      38.494  28.668  28.998  1.00  0.00     0.031 C 
ATOM     41  C   UNL A   1      43.242  27.351  28.045  1.00  0.00     0.029 A 
ATOM     42  N   UNL A   1      42.928  29.366  28.967  1.00  0.00    -0.354 N 
ATOM     43  C   UNL A   1      38.877  30.761  29.822  1.00  0.00     0.074 A 
ATOM     44  C   UNL A   1      37.901  29.768  29.437  1.00  0.00     0.031 C 
ATOM     45  C   UNL A   1      44.450  27.922  28.189  1.00  0.00     0.029 A 
ATOM     46  C   UNL A   1      44.279  29.264  28.739  1.00  0.00     0.049 A 
ATOM     47  H   UNL A   1      42.509  30.144  29.401  1.00  0.00     0.167 HD
ATOM     48  C   UNL A   1      38.569  31.965  30.356  1.00  0.00     0.034 A 
ATOM     49  C   UNL A   1      45.256  30.171  28.933  1.00  0.00     0.034 A 
ATOM     50  C   UNL A   1      39.561  32.928  30.744  1.00  0.00     0.049 A 
ATOM     51  C   UNL A   1      44.884  31.514  29.505  1.00  0.00     0.074 A 
ATOM     52  C   UNL A   1      39.379  34.154  31.356  1.00  0.00     0.029 A 
ATOM     53  N   UNL A   1      40.925  32.780  30.534  1.00  0.00    -0.354 N 
ATOM     54  N   UNL A   1      43.705  31.957  29.871  1.00  0.00    -0.248 NA
ATOM     55  C   UNL A   1      45.977  32.474  29.713  1.00  0.00     0.031 C 
ATOM     56  C   UNL A   1      40.630  34.767  31.472  1.00  0.00     0.029 A 
ATOM     57  C   UNL A   1      41.596  33.901  30.980  1.00  0.00     0.049 A 
ATOM     58  H   UNL A   1      41.351  31.992  30.126  1.00  0.00     0.167 HD
ATOM     59  C   UNL A   1      43.919  33.224  30.401  1.00  0.00     0.074 A 
ATOM     60  C   UNL A   1      45.343  33.479  30.303  1.00  0.00     0.031 C 
ATOM     61  C   UNL A   1      43.023  34.099  30.921  1.00  0.00     0.034 A 
BRANCH  48  62
ATOM     62  C   UNL A   1      37.113  32.302  30.536  1.00  0.00     0.023 A 
ATOM     63  C   UNL A   1      36.440  31.937  31.720  1.00  0.00     0.012 A 
ATOM     64  C   UNL A   1      36.414  33.000  29.531  1.00  0.00     0.148 A 
ATOM     65  C   UNL A   1      35.084  32.221  31.882  1.00  0.00     0.002 A 
ATOM     66  C   UNL A   1      35.076  33.325  29.722  1.00  0.00     0.091 A 
ATOM     67  F   UNL A   1      37.061  33.314  28.401  1.00  0.00    -0.205 F 
ATOM     68  C   UNL A   1      34.406  32.923  30.888  1.00  0.00     0.022 A 
BRANCH  66  69
ATOM     69  S   UNL A   1      34.142  34.297  28.536  1.00  0.00     0.127 S 
ATOM     70  O   UNL A   1      32.846  34.412  29.203  1.00  0.00    -0.237 OA
ATOM     71  O   UNL A   1      34.913  35.541  28.484  1.00  0.00    -0.237 OA
ATOM     72  O   UNL A   1      34.143  33.531  27.298  1.00  0.00    -0.744 OA
ENDBRANCH  66  69
ENDBRANCH  48  62
BRANCH  49  73
ATOM     73  C   UNL A   1      46.670  29.815  28.635  1.00  0.00     0.023 A 
ATOM     74  C   UNL A   1      47.196  30.102  27.360  1.00  0.00     0.012 A 
ATOM     75  C   UNL A   1      47.508  29.243  29.611  1.00  0.00     0.148 A 
ATOM     76  C   UNL A   1      48.522  29.801  27.054  1.00  0.00     0.002 A 
ATOM     77  C   UNL A   1      48.844  28.992  29.316  1.00  0.00     0.091 A 
ATOM     78  F   UNL A   1      46.987  28.974  30.817  1.00  0.00    -0.205 F 
ATOM     79  C   UNL A   1      49.349  29.255  28.033  1.00  0.00     0.022 A 
BRANCH  77  80
ATOM     80  S   UNL A   1      50.015  28.409  30.547  1.00  0.00     0.127 S 
ATOM     81  O   UNL A   1      49.464  27.099  30.887  1.00  0.00    -0.237 OA
ATOM     82  O   UNL A   1      51.261  28.374  29.781  1.00  0.00    -0.237 OA
ATOM     83  O   UNL A   1      49.993  29.397  31.617  1.00  0.00    -0.744 OA
ENDBRANCH  77  80
ENDBRANCH  49  73
BRANCH  61  84
ATOM     84  C   UNL A   1      43.547  35.388  31.493  1.00  0.00     0.023 A 
ATOM     85  C   UNL A   1      43.716  36.513  30.665  1.00  0.00     0.012 A 
ATOM     86  C   UNL A   1      43.744  35.507  32.883  1.00  0.00     0.148 A 
ATOM     87  C   UNL A   1      44.090  37.740  31.214  1.00  0.00     0.002 A 
ATOM     88  C   UNL A   1      44.061  36.743  33.428  1.00  0.00     0.091 A 
ATOM     89  F   UNL A   1      43.590  34.415  33.646  1.00  0.00    -0.205 F 
ATOM     90  C   UNL A   1      44.246  37.858  32.594  1.00  0.00     0.022 A 
BRANCH  88  91
ATOM     91  S   UNL A   1      44.171  37.016  35.200  1.00  0.00     0.127 S 
ATOM     92  O   UNL A   1      45.342  36.215  35.552  1.00  0.00    -0.237 OA
ATOM     93  O   UNL A   1      44.375  38.462  35.276  1.00  0.00    -0.237 OA
ATOM     94  O   UNL A   1      42.911  36.549  35.761  1.00  0.00    -0.744 OA
ENDBRANCH  88  91
ENDBRANCH  61  84
ENDBRANCH  35  36
ENDBRANCH  28  30
ENDBRANCH  27  28
ENDBRANCH  26  27
ENDBRANCH  25  26
ENDBRANCH  24  25
ENDBRANCH   1  24
TORSDOF 24
ENDMDL
