MODEL 1
REMARK VINA RESULT:     -11.9      0.000      0.000
REMARK SMILES C[C@]1(C(=O)OCCOCCOC(=O)c2ccc(-c3c4nc(c(-c5cccc(S(=O)(=O)[O-])c5F)c5ccc([nH]5)c(-c5cccc(S(=O)(=O)[O-])c5F)c5nc(c(-c6cccc(S(=O)(=O)[O-])c6F)c6ccc3[nH]6)C=C5)C=C4)cc2)CCN(c2ccc([N+](=O)[O-])c(N)n2)C1
REMARK SMILES IDX 9 1 8 2 7 3 6 4 5 5 3 6 4 7 2 8 1 9 77 10 90 11 78 12 79 13
REMARK SMILES IDX 80 14 81 15 89 16 82 17 87 18 83 19 88 20 84 23 85 24 86 25
REMARK SMILES IDX 10 26 11 27 12 28 13 29 14 30 15 31 76 32 16 33 75 34 17 35
REMARK SMILES IDX 18 36 19 37 69 38 20 39 74 40 68 41 70 42 21 43 73 44 67 45
REMARK SMILES IDX 66 46 22 48 54 49 34 50 53 51 35 52 38 53 52 54 71 55 36 56
REMARK SMILES IDX 37 57 51 59 72 60 39 61 23 62 24 63 32 64 25 65 27 66 33 67
REMARK SMILES IDX 26 68 28 69 29 70 30 71 31 72 55 73 56 74 64 75 57 76 59 77
REMARK SMILES IDX 65 78 58 79 60 80 61 81 62 82 63 83 40 84 41 85 49 86 42 87
REMARK SMILES IDX 44 88 50 89 43 90 45 91 46 92 47 93 48 94
REMARK H PARENT 88 21 88 22 70 47 38 58
REMARK Flexibility Score: inf
ROOT
ATOM      1  C   UNL A   1      35.840  21.413  24.993  1.00  0.00     0.202 C 
ENDROOT
BRANCH   1   2
ATOM      2  O   UNL A   1      35.776  22.600  25.778  1.00  0.00    -0.374 OA
BRANCH   2   3
ATOM      3  C   UNL A   1      35.818  23.831  25.048  1.00  0.00     0.202 C 
BRANCH   3   4
ATOM      4  C   UNL A   1      34.717  24.851  25.373  1.00  0.00     0.261 C 
BRANCH   4   5
ATOM      5  O   UNL A   1      33.958  25.242  24.206  1.00  0.00    -0.463 OA
BRANCH   5   6
ATOM      6  C   UNL A   1      32.606  25.152  24.307  1.00  0.00     0.313 C 
ATOM      7  O   UNL A   1      31.893  26.033  24.776  1.00  0.00    -0.252 OA
BRANCH   6   8
ATOM      8  C   UNL A   1      32.027  23.873  23.712  1.00  0.00     0.084 C 
ATOM      9  C   UNL A   1      30.514  24.091  23.538  1.00  0.00     0.026 C 
ATOM     10  C   UNL A   1      32.698  23.549  22.363  1.00  0.00     0.042 C 
ATOM     11  C   UNL A   1      32.290  22.583  24.504  1.00  0.00     0.136 C 
ATOM     12  C   UNL A   1      32.449  22.059  22.141  1.00  0.00     0.119 C 
ATOM     13  N   UNL A   1      32.196  21.544  23.478  1.00  0.00    -0.355 N 
BRANCH  13  14
ATOM     14  C   UNL A   1      32.357  20.213  23.759  1.00  0.00     0.131 A 
ATOM     15  C   UNL A   1      32.415  19.282  22.727  1.00  0.00     0.054 A 
ATOM     16  N   UNL A   1      32.501  19.830  25.050  1.00  0.00    -0.207 NA
ATOM     17  C   UNL A   1      32.639  17.941  23.020  1.00  0.00     0.093 A 
ATOM     18  C   UNL A   1      32.654  18.521  25.354  1.00  0.00     0.204 A 
ATOM     19  C   UNL A   1      32.757  17.559  24.357  1.00  0.00     0.311 A 
BRANCH  18  20
ATOM     20  N   UNL A   1      32.780  18.268  26.708  1.00  0.00    -0.378 N 
ATOM     21  H   UNL A   1      33.574  18.587  27.196  1.00  0.00     0.158 HD
ATOM     22  H   UNL A   1      32.077  17.770  27.184  1.00  0.00     0.158 HD
ENDBRANCH  18  20
BRANCH  19  23
ATOM     23  N   UNL A   1      32.993  16.161  24.674  1.00  0.00     0.066 N 
ATOM     24  O   UNL A   1      32.285  15.652  25.558  1.00  0.00    -0.258 OA
ATOM     25  O   UNL A   1      33.890  15.562  24.063  1.00  0.00    -0.258 OA
ENDBRANCH  19  23
ENDBRANCH  13  14
ENDBRANCH   6   8
ENDBRANCH   5   6
ENDBRANCH   4   5
ENDBRANCH   3   4
ENDBRANCH   2   3
ENDBRANCH   1   2
BRANCH   1  26
ATOM     26  C   UNL A   1      37.157  20.634  25.033  1.00  0.00     0.261 C 
BRANCH  26  27
ATOM     27  O   UNL A   1      38.287  21.519  25.020  1.00  0.00    -0.460 OA
BRANCH  27  28
ATOM     28  C   UNL A   1      39.260  21.174  25.893  1.00  0.00     0.338 C 
ATOM     29  O   UNL A   1      39.864  20.108  25.934  1.00  0.00    -0.246 OA
BRANCH  28  30
ATOM     30  C   UNL A   1      39.647  22.326  26.726  1.00  0.00     0.060 A 
ATOM     31  C   UNL A   1      38.989  23.534  26.467  1.00  0.00     0.016 A 
ATOM     32  C   UNL A   1      40.675  22.263  27.671  1.00  0.00     0.016 A 
ATOM     33  C   UNL A   1      39.427  24.706  27.069  1.00  0.00     0.010 A 
ATOM     34  C   UNL A   1      41.113  23.445  28.280  1.00  0.00     0.010 A 
ATOM     35  C   UNL A   1      40.533  24.677  27.927  1.00  0.00    -0.014 A 
BRANCH  35  36
ATOM     36  C   UNL A   1      41.186  25.962  28.270  1.00  0.00     0.031 A 
ATOM     37  C   UNL A   1      42.592  26.211  27.793  1.00  0.00     0.074 A 
ATOM     38  C   UNL A   1      40.515  26.920  28.931  1.00  0.00     0.049 A 
ATOM     39  N   UNL A   1      43.318  27.295  27.885  1.00  0.00    -0.248 NA
ATOM     40  C   UNL A   1      43.271  25.089  27.125  1.00  0.00     0.031 C 
ATOM     41  C   UNL A   1      39.159  26.790  29.456  1.00  0.00     0.029 A 
ATOM     42  N   UNL A   1      40.896  28.191  29.280  1.00  0.00    -0.354 N 
ATOM     43  C   UNL A   1      44.542  26.980  27.308  1.00  0.00     0.074 A 
ATOM     44  C   UNL A   1      44.472  25.596  26.893  1.00  0.00     0.031 C 
ATOM     45  C   UNL A   1      38.828  27.928  30.088  1.00  0.00     0.029 A 
ATOM     46  C   UNL A   1      39.950  28.864  30.012  1.00  0.00     0.049 A 
ATOM     47  H   UNL A   1      41.765  28.582  29.030  1.00  0.00     0.167 HD
ATOM     48  C   UNL A   1      45.621  27.775  27.113  1.00  0.00     0.034 A 
ATOM     49  C   UNL A   1      39.988  30.093  30.564  1.00  0.00     0.034 A 
ATOM     50  C   UNL A   1      45.680  29.157  27.506  1.00  0.00     0.049 A 
ATOM     51  C   UNL A   1      41.186  30.971  30.321  1.00  0.00     0.074 A 
ATOM     52  C   UNL A   1      46.701  30.067  27.305  1.00  0.00     0.029 A 
ATOM     53  N   UNL A   1      44.677  29.825  28.193  1.00  0.00    -0.354 N 
ATOM     54  N   UNL A   1      42.279  30.707  29.645  1.00  0.00    -0.248 NA
ATOM     55  C   UNL A   1      41.137  32.332  30.872  1.00  0.00     0.031 C 
ATOM     56  C   UNL A   1      46.325  31.281  27.892  1.00  0.00     0.029 A 
ATOM     57  C   UNL A   1      45.059  31.134  28.436  1.00  0.00     0.049 A 
ATOM     58  H   UNL A   1      43.820  29.426  28.468  1.00  0.00     0.167 HD
ATOM     59  C   UNL A   1      43.034  31.874  29.663  1.00  0.00     0.074 A 
ATOM     60  C   UNL A   1      42.262  32.855  30.400  1.00  0.00     0.031 C 
ATOM     61  C   UNL A   1      44.260  32.111  29.133  1.00  0.00     0.034 A 
BRANCH  48  62
ATOM     62  C   UNL A   1      46.811  27.165  26.421  1.00  0.00     0.023 A 
ATOM     63  C   UNL A   1      46.892  27.196  25.013  1.00  0.00     0.012 A 
ATOM     64  C   UNL A   1      47.854  26.574  27.158  1.00  0.00     0.148 A 
ATOM     65  C   UNL A   1      47.969  26.609  24.350  1.00  0.00     0.002 A 
ATOM     66  C   UNL A   1      48.946  26.031  26.492  1.00  0.00     0.091 A 
ATOM     67  F   UNL A   1      47.750  26.526  28.494  1.00  0.00    -0.205 F 
ATOM     68  C   UNL A   1      49.000  26.035  25.088  1.00  0.00     0.022 A 
BRANCH  66  69
ATOM     69  S   UNL A   1      50.355  25.337  27.365  1.00  0.00     0.127 S 
ATOM     70  O   UNL A   1      51.270  25.043  26.264  1.00  0.00    -0.237 OA
ATOM     71  O   UNL A   1      50.770  26.449  28.221  1.00  0.00    -0.237 OA
ATOM     72  O   UNL A   1      49.841  24.181  28.087  1.00  0.00    -0.744 OA
ENDBRANCH  66  69
ENDBRANCH  48  62
BRANCH  49  73
ATOM     73  C   UNL A   1      38.823  30.568  31.360  1.00  0.00     0.023 A 
ATOM     74  C   UNL A   1      38.838  30.465  32.763  1.00  0.00     0.012 A 
ATOM     75  C   UNL A   1      37.726  31.186  30.726  1.00  0.00     0.148 A 
ATOM     76  C   UNL A   1      37.774  30.954  33.521  1.00  0.00     0.002 A 
ATOM     77  C   UNL A   1      36.696  31.722  31.490  1.00  0.00     0.091 A 
ATOM     78  F   UNL A   1      37.726  31.260  29.388  1.00  0.00    -0.205 F 
ATOM     79  C   UNL A   1      36.710  31.593  32.888  1.00  0.00     0.022 A 
BRANCH  77  80
ATOM     80  S   UNL A   1      35.364  32.687  30.770  1.00  0.00     0.127 S 
ATOM     81  O   UNL A   1      35.008  31.884  29.605  1.00  0.00    -0.237 OA
ATOM     82  O   UNL A   1      34.374  32.683  31.848  1.00  0.00    -0.237 OA
ATOM     83  O   UNL A   1      35.934  33.997  30.484  1.00  0.00    -0.744 OA
ENDBRANCH  77  80
ENDBRANCH  49  73
BRANCH  61  84
ATOM     84  C   UNL A   1      44.842  33.491  29.306  1.00  0.00     0.023 A 
ATOM     85  C   UNL A   1      45.593  33.794  30.459  1.00  0.00     0.012 A 
ATOM     86  C   UNL A   1      44.705  34.463  28.295  1.00  0.00     0.148 A 
ATOM     87  C   UNL A   1      46.168  35.054  30.620  1.00  0.00     0.002 A 
ATOM     88  C   UNL A   1      45.321  35.701  28.441  1.00  0.00     0.091 A 
ATOM     89  F   UNL A   1      43.970  34.164  27.214  1.00  0.00    -0.205 F 
ATOM     90  C   UNL A   1      46.042  36.002  29.608  1.00  0.00     0.022 A 
BRANCH  88  91
ATOM     91  S   UNL A   1      45.287  36.943  27.143  1.00  0.00     0.127 S 
ATOM     92  O   UNL A   1      43.852  37.104  26.920  1.00  0.00    -0.237 OA
ATOM     93  O   UNL A   1      45.935  38.086  27.786  1.00  0.00    -0.237 OA
ATOM     94  O   UNL A   1      46.038  36.374  26.032  1.00  0.00    -0.744 OA
ENDBRANCH  88  91
ENDBRANCH  61  84
ENDBRANCH  35  36
ENDBRANCH  28  30
ENDBRANCH  27  28
ENDBRANCH  26  27
ENDBRANCH   1  26
TORSDOF 20
ENDMDL
MODEL 2
REMARK VINA RESULT:     -11.6      4.845      9.853
REMARK SMILES C[C@]1(C(=O)OCCOCCOC(=O)c2ccc(-c3c4nc(c(-c5cccc(S(=O)(=O)[O-])c5F)c5ccc([nH]5)c(-c5cccc(S(=O)(=O)[O-])c5F)c5nc(c(-c6cccc(S(=O)(=O)[O-])c6F)c6ccc3[nH]6)C=C5)C=C4)cc2)CCN(c2ccc([N+](=O)[O-])c(N)n2)C1
REMARK SMILES IDX 9 1 8 2 7 3 6 4 5 5 3 6 4 7 2 8 1 9 77 10 90 11 78 12 79 13
REMARK SMILES IDX 80 14 81 15 89 16 82 17 87 18 83 19 88 20 84 23 85 24 86 25
REMARK SMILES IDX 10 26 11 27 12 28 13 29 14 30 15 31 76 32 16 33 75 34 17 35
REMARK SMILES IDX 18 36 19 37 69 38 20 39 74 40 68 41 70 42 21 43 73 44 67 45
REMARK SMILES IDX 66 46 22 48 54 49 34 50 53 51 35 52 38 53 52 54 71 55 36 56
REMARK SMILES IDX 37 57 51 59 72 60 39 61 23 62 24 63 32 64 25 65 27 66 33 67
REMARK SMILES IDX 26 68 28 69 29 70 30 71 31 72 55 73 56 74 64 75 57 76 59 77
REMARK SMILES IDX 65 78 58 79 60 80 61 81 62 82 63 83 40 84 41 85 49 86 42 87
REMARK SMILES IDX 44 88 50 89 43 90 45 91 46 92 47 93 48 94
REMARK H PARENT 88 21 88 22 70 47 38 58
REMARK Flexibility Score: inf
ROOT
ATOM      1  C   UNL A   1      31.521  30.478  25.609  1.00  0.00     0.202 C 
ENDROOT
BRANCH   1   2
ATOM      2  O   UNL A   1      32.734  29.757  25.415  1.00  0.00    -0.374 OA
BRANCH   2   3
ATOM      3  C   UNL A   1      32.821  28.997  24.205  1.00  0.00     0.202 C 
BRANCH   3   4
ATOM      4  C   UNL A   1      33.757  27.780  24.232  1.00  0.00     0.261 C 
BRANCH   4   5
ATOM      5  O   UNL A   1      33.165  26.608  23.627  1.00  0.00    -0.463 OA
BRANCH   5   6
ATOM      6  C   UNL A   1      32.676  25.670  24.479  1.00  0.00     0.313 C 
ATOM      7  O   UNL A   1      32.561  25.837  25.690  1.00  0.00    -0.252 OA
BRANCH   6   8
ATOM      8  C   UNL A   1      32.203  24.396  23.789  1.00  0.00     0.084 C 
ATOM      9  C   UNL A   1      30.706  24.570  23.477  1.00  0.00     0.026 C 
ATOM     10  C   UNL A   1      33.010  24.145  22.501  1.00  0.00     0.042 C 
ATOM     11  C   UNL A   1      32.436  23.087  24.559  1.00  0.00     0.136 C 
ATOM     12  C   UNL A   1      32.838  22.657  22.206  1.00  0.00     0.119 C 
ATOM     13  N   UNL A   1      32.478  22.085  23.494  1.00  0.00    -0.355 N 
BRANCH  13  14
ATOM     14  C   UNL A   1      32.661  20.749  23.744  1.00  0.00     0.131 A 
ATOM     15  C   UNL A   1      33.271  20.336  24.924  1.00  0.00     0.054 A 
ATOM     16  N   UNL A   1      32.199  19.847  22.846  1.00  0.00    -0.207 NA
ATOM     17  C   UNL A   1      33.397  18.978  25.195  1.00  0.00     0.093 A 
ATOM     18  C   UNL A   1      32.373  18.524  23.067  1.00  0.00     0.204 A 
ATOM     19  C   UNL A   1      32.941  18.061  24.247  1.00  0.00     0.311 A 
BRANCH  18  20
ATOM     20  N   UNL A   1      31.863  17.714  22.068  1.00  0.00    -0.378 N 
ATOM     21  H   UNL A   1      32.467  17.136  21.548  1.00  0.00     0.158 HD
ATOM     22  H   UNL A   1      30.897  17.715  21.879  1.00  0.00     0.158 HD
ENDBRANCH  18  20
BRANCH  19  23
ATOM     23  N   UNL A   1      33.066  16.640  24.522  1.00  0.00     0.066 N 
ATOM     24  O   UNL A   1      32.326  16.164  25.398  1.00  0.00    -0.258 OA
ATOM     25  O   UNL A   1      33.909  15.989  23.886  1.00  0.00    -0.258 OA
ENDBRANCH  19  23
ENDBRANCH  13  14
ENDBRANCH   6   8
ENDBRANCH   5   6
ENDBRANCH   4   5
ENDBRANCH   3   4
ENDBRANCH   2   3
ENDBRANCH   1   2
BRANCH   1  26
ATOM     26  C   UNL A   1      31.588  31.701  26.525  1.00  0.00     0.261 C 
BRANCH  26  27
ATOM     27  O   UNL A   1      32.530  31.504  27.590  1.00  0.00    -0.460 OA
BRANCH  27  28
ATOM     28  C   UNL A   1      33.371  32.546  27.775  1.00  0.00     0.338 C 
ATOM     29  O   UNL A   1      33.059  33.724  27.911  1.00  0.00    -0.246 OA
BRANCH  28  30
ATOM     30  C   UNL A   1      34.754  32.075  27.963  1.00  0.00     0.060 A 
ATOM     31  C   UNL A   1      34.928  30.696  28.131  1.00  0.00     0.016 A 
ATOM     32  C   UNL A   1      35.842  32.947  28.061  1.00  0.00     0.016 A 
ATOM     33  C   UNL A   1      36.166  30.193  28.507  1.00  0.00     0.010 A 
ATOM     34  C   UNL A   1      37.092  32.438  28.435  1.00  0.00     0.010 A 
ATOM     35  C   UNL A   1      37.237  31.069  28.724  1.00  0.00    -0.014 A 
BRANCH  35  36
ATOM     36  C   UNL A   1      38.423  30.556  29.450  1.00  0.00     0.031 A 
ATOM     37  C   UNL A   1      38.630  30.969  30.883  1.00  0.00     0.074 A 
ATOM     38  C   UNL A   1      39.261  29.682  28.869  1.00  0.00     0.049 A 
ATOM     39  N   UNL A   1      39.533  30.564  31.738  1.00  0.00    -0.248 NA
ATOM     40  C   UNL A   1      37.697  31.971  31.423  1.00  0.00     0.031 C 
ATOM     41  C   UNL A   1      39.173  29.222  27.485  1.00  0.00     0.029 A 
ATOM     42  N   UNL A   1      40.360  29.034  29.374  1.00  0.00    -0.354 N 
ATOM     43  C   UNL A   1      39.291  31.276  32.907  1.00  0.00     0.074 A 
ATOM     44  C   UNL A   1      38.174  32.157  32.644  1.00  0.00     0.031 C 
ATOM     45  C   UNL A   1      40.194  28.385  27.241  1.00  0.00     0.029 A 
ATOM     46  C   UNL A   1      41.007  28.253  28.449  1.00  0.00     0.049 A 
ATOM     47  H   UNL A   1      40.655  29.122  30.309  1.00  0.00     0.167 HD
ATOM     48  C   UNL A   1      39.920  31.187  34.102  1.00  0.00     0.034 A 
ATOM     49  C   UNL A   1      42.132  27.519  28.565  1.00  0.00     0.034 A 
ATOM     50  C   UNL A   1      41.016  30.294  34.368  1.00  0.00     0.049 A 
ATOM     51  C   UNL A   1      42.808  27.416  29.906  1.00  0.00     0.074 A 
ATOM     52  C   UNL A   1      41.687  30.085  35.558  1.00  0.00     0.029 A 
ATOM     53  N   UNL A   1      41.609  29.470  33.423  1.00  0.00    -0.354 N 
ATOM     54  N   UNL A   1      42.478  27.983  31.042  1.00  0.00    -0.248 NA
ATOM     55  C   UNL A   1      43.980  26.534  29.995  1.00  0.00     0.031 C 
ATOM     56  C   UNL A   1      42.703  29.150  35.328  1.00  0.00     0.029 A 
ATOM     57  C   UNL A   1      42.647  28.758  33.999  1.00  0.00     0.049 A 
ATOM     58  H   UNL A   1      41.332  29.403  32.481  1.00  0.00     0.167 HD
ATOM     59  C   UNL A   1      43.380  27.506  31.987  1.00  0.00     0.074 A 
ATOM     60  C   UNL A   1      44.257  26.585  31.292  1.00  0.00     0.031 C 
ATOM     61  C   UNL A   1      43.484  27.812  33.304  1.00  0.00     0.034 A 
BRANCH  48  62
ATOM     62  C   UNL A   1      39.415  32.067  35.215  1.00  0.00     0.023 A 
ATOM     63  C   UNL A   1      39.679  33.453  35.185  1.00  0.00     0.012 A 
ATOM     64  C   UNL A   1      38.671  31.531  36.283  1.00  0.00     0.148 A 
ATOM     65  C   UNL A   1      39.248  34.282  36.221  1.00  0.00     0.002 A 
ATOM     66  C   UNL A   1      38.207  32.371  37.289  1.00  0.00     0.091 A 
ATOM     67  F   UNL A   1      38.454  30.208  36.313  1.00  0.00    -0.205 F 
ATOM     68  C   UNL A   1      38.505  33.743  37.267  1.00  0.00     0.022 A 
BRANCH  66  69
ATOM     69  S   UNL A   1      37.180  31.775  38.637  1.00  0.00     0.127 S 
ATOM     70  O   UNL A   1      38.043  32.012  39.793  1.00  0.00    -0.237 OA
ATOM     71  O   UNL A   1      36.015  32.657  38.556  1.00  0.00    -0.237 OA
ATOM     72  O   UNL A   1      36.900  30.379  38.331  1.00  0.00    -0.744 OA
ENDBRANCH  66  69
ENDBRANCH  48  62
BRANCH  49  73
ATOM     73  C   UNL A   1      42.650  26.792  27.374  1.00  0.00     0.023 A 
ATOM     74  C   UNL A   1      43.512  27.442  26.471  1.00  0.00     0.012 A 
ATOM     75  C   UNL A   1      42.341  25.431  27.174  1.00  0.00     0.148 A 
ATOM     76  C   UNL A   1      44.043  26.754  25.379  1.00  0.00     0.002 A 
ATOM     77  C   UNL A   1      42.919  24.737  26.118  1.00  0.00     0.091 A 
ATOM     78  F   UNL A   1      41.507  24.837  28.039  1.00  0.00    -0.205 F 
ATOM     79  C   UNL A   1      43.758  25.401  25.210  1.00  0.00     0.022 A 
BRANCH  77  80
ATOM     80  S   UNL A   1      42.725  22.964  25.909  1.00  0.00     0.127 S 
ATOM     81  O   UNL A   1      41.306  22.782  26.202  1.00  0.00    -0.237 OA
ATOM     82  O   UNL A   1      43.093  22.786  24.504  1.00  0.00    -0.237 OA
ATOM     83  O   UNL A   1      43.649  22.351  26.854  1.00  0.00    -0.744 OA
ENDBRANCH  77  80
ENDBRANCH  49  73
BRANCH  61  84
ATOM     84  C   UNL A   1      44.570  27.130  34.096  1.00  0.00     0.023 A 
ATOM     85  C   UNL A   1      45.835  27.740  34.218  1.00  0.00     0.012 A 
ATOM     86  C   UNL A   1      44.317  25.923  34.776  1.00  0.00     0.148 A 
ATOM     87  C   UNL A   1      46.841  27.141  34.975  1.00  0.00     0.002 A 
ATOM     88  C   UNL A   1      45.309  25.356  35.568  1.00  0.00     0.091 A 
ATOM     89  F   UNL A   1      43.115  25.346  34.633  1.00  0.00    -0.205 F 
ATOM     90  C   UNL A   1      46.575  25.957  35.658  1.00  0.00     0.022 A 
BRANCH  88  91
ATOM     91  S   UNL A   1      45.019  23.884  36.557  1.00  0.00     0.127 S 
ATOM     92  O   UNL A   1      44.273  24.427  37.690  1.00  0.00    -0.237 OA
ATOM     93  O   UNL A   1      44.229  23.049  35.651  1.00  0.00    -0.237 OA
ATOM     94  O   UNL A   1      46.338  23.350  36.867  1.00  0.00    -0.744 OA
ENDBRANCH  88  91
ENDBRANCH  61  84
ENDBRANCH  35  36
ENDBRANCH  28  30
ENDBRANCH  27  28
ENDBRANCH  26  27
ENDBRANCH   1  26
TORSDOF 20
ENDMDL
MODEL 3
REMARK VINA RESULT:     -11.6      4.520      9.712
REMARK SMILES C[C@]1(C(=O)OCCOCCOC(=O)c2ccc(-c3c4nc(c(-c5cccc(S(=O)(=O)[O-])c5F)c5ccc([nH]5)c(-c5cccc(S(=O)(=O)[O-])c5F)c5nc(c(-c6cccc(S(=O)(=O)[O-])c6F)c6ccc3[nH]6)C=C5)C=C4)cc2)CCN(c2ccc([N+](=O)[O-])c(N)n2)C1
REMARK SMILES IDX 9 1 8 2 7 3 6 4 5 5 3 6 4 7 2 8 1 9 77 10 90 11 78 12 79 13
REMARK SMILES IDX 80 14 81 15 89 16 82 17 87 18 83 19 88 20 84 23 85 24 86 25
REMARK SMILES IDX 10 26 11 27 12 28 13 29 14 30 15 31 76 32 16 33 75 34 17 35
REMARK SMILES IDX 18 36 19 37 69 38 20 39 74 40 68 41 70 42 21 43 73 44 67 45
REMARK SMILES IDX 66 46 22 48 54 49 34 50 53 51 35 52 38 53 52 54 71 55 36 56
REMARK SMILES IDX 37 57 51 59 72 60 39 61 23 62 24 63 32 64 25 65 27 66 33 67
REMARK SMILES IDX 26 68 28 69 29 70 30 71 31 72 55 73 56 74 64 75 57 76 59 77
REMARK SMILES IDX 65 78 58 79 60 80 61 81 62 82 63 83 40 84 41 85 49 86 42 87
REMARK SMILES IDX 44 88 50 89 43 90 45 91 46 92 47 93 48 94
REMARK H PARENT 88 21 88 22 70 47 38 58
REMARK Flexibility Score: inf
ROOT
ATOM      1  C   UNL A   1      31.433  30.180  25.600  1.00  0.00     0.202 C 
ENDROOT
BRANCH   1   2
ATOM      2  O   UNL A   1      32.324  29.135  25.978  1.00  0.00    -0.374 OA
BRANCH   2   3
ATOM      3  C   UNL A   1      31.768  28.118  26.820  1.00  0.00     0.202 C 
BRANCH   3   4
ATOM      4  C   UNL A   1      31.100  26.935  26.104  1.00  0.00     0.261 C 
BRANCH   4   5
ATOM      5  O   UNL A   1      31.620  26.723  24.772  1.00  0.00    -0.463 OA
BRANCH   5   6
ATOM      6  C   UNL A   1      32.606  25.797  24.648  1.00  0.00     0.313 C 
ATOM      7  O   UNL A   1      33.716  25.904  25.161  1.00  0.00    -0.252 OA
BRANCH   6   8
ATOM      8  C   UNL A   1      32.192  24.556  23.867  1.00  0.00     0.084 C 
ATOM      9  C   UNL A   1      30.719  24.740  23.459  1.00  0.00     0.026 C 
ATOM     10  C   UNL A   1      33.088  24.369  22.628  1.00  0.00     0.042 C 
ATOM     11  C   UNL A   1      32.379  23.212  24.588  1.00  0.00     0.136 C 
ATOM     12  C   UNL A   1      32.948  22.896  22.252  1.00  0.00     0.119 C 
ATOM     13  N   UNL A   1      32.502  22.262  23.482  1.00  0.00    -0.355 N 
BRANCH  13  14
ATOM     14  C   UNL A   1      32.675  20.916  23.681  1.00  0.00     0.131 A 
ATOM     15  C   UNL A   1      33.291  20.454  24.839  1.00  0.00     0.054 A 
ATOM     16  N   UNL A   1      32.199  20.052  22.753  1.00  0.00    -0.207 NA
ATOM     17  C   UNL A   1      33.407  19.086  25.059  1.00  0.00     0.093 A 
ATOM     18  C   UNL A   1      32.364  18.721  22.923  1.00  0.00     0.204 A 
ATOM     19  C   UNL A   1      32.937  18.209  24.081  1.00  0.00     0.311 A 
BRANCH  18  20
ATOM     20  N   UNL A   1      31.840  17.953  21.899  1.00  0.00    -0.378 N 
ATOM     21  H   UNL A   1      31.233  17.206  22.106  1.00  0.00     0.158 HD
ATOM     22  H   UNL A   1      32.073  18.154  20.964  1.00  0.00     0.158 HD
ENDBRANCH  18  20
BRANCH  19  23
ATOM     23  N   UNL A   1      33.052  16.778  24.301  1.00  0.00     0.066 N 
ATOM     24  O   UNL A   1      32.550  16.321  25.341  1.00  0.00    -0.258 OA
ATOM     25  O   UNL A   1      33.654  16.098  23.456  1.00  0.00    -0.258 OA
ENDBRANCH  19  23
ENDBRANCH  13  14
ENDBRANCH   6   8
ENDBRANCH   5   6
ENDBRANCH   4   5
ENDBRANCH   3   4
ENDBRANCH   2   3
ENDBRANCH   1   2
BRANCH   1  26
ATOM     26  C   UNL A   1      31.572  31.506  26.352  1.00  0.00     0.261 C 
BRANCH  26  27
ATOM     27  O   UNL A   1      32.457  31.379  27.475  1.00  0.00    -0.460 OA
BRANCH  27  28
ATOM     28  C   UNL A   1      33.270  32.444  27.652  1.00  0.00     0.338 C 
ATOM     29  O   UNL A   1      32.928  33.615  27.773  1.00  0.00    -0.246 OA
BRANCH  28  30
ATOM     30  C   UNL A   1      34.663  32.010  27.854  1.00  0.00     0.060 A 
ATOM     31  C   UNL A   1      34.876  30.634  27.998  1.00  0.00     0.016 A 
ATOM     32  C   UNL A   1      35.724  32.912  27.987  1.00  0.00     0.016 A 
ATOM     33  C   UNL A   1      36.123  30.160  28.384  1.00  0.00     0.010 A 
ATOM     34  C   UNL A   1      36.982  32.432  28.371  1.00  0.00     0.010 A 
ATOM     35  C   UNL A   1      37.163  31.063  28.636  1.00  0.00    -0.014 A 
BRANCH  35  36
ATOM     36  C   UNL A   1      38.352  30.571  29.371  1.00  0.00     0.031 A 
ATOM     37  C   UNL A   1      38.581  31.047  30.780  1.00  0.00     0.074 A 
ATOM     38  C   UNL A   1      39.174  29.661  28.821  1.00  0.00     0.049 A 
ATOM     39  N   UNL A   1      39.490  30.673  31.643  1.00  0.00    -0.248 NA
ATOM     40  C   UNL A   1      37.665  32.084  31.284  1.00  0.00     0.031 C 
ATOM     41  C   UNL A   1      39.064  29.139  27.461  1.00  0.00     0.029 A 
ATOM     42  N   UNL A   1      40.272  29.026  29.343  1.00  0.00    -0.354 N 
ATOM     43  C   UNL A   1      39.270  31.441  32.781  1.00  0.00     0.074 A 
ATOM     44  C   UNL A   1      38.160  32.321  32.490  1.00  0.00     0.031 C 
ATOM     45  C   UNL A   1      40.074  28.280  27.245  1.00  0.00     0.029 A 
ATOM     46  C   UNL A   1      40.899  28.195  28.449  1.00  0.00     0.049 A 
ATOM     47  H   UNL A   1      40.579  29.153  30.270  1.00  0.00     0.167 HD
ATOM     48  C   UNL A   1      39.913  31.401  33.971  1.00  0.00     0.034 A 
ATOM     49  C   UNL A   1      42.018  27.455  28.585  1.00  0.00     0.034 A 
ATOM     50  C   UNL A   1      41.002  30.509  34.265  1.00  0.00     0.049 A 
ATOM     51  C   UNL A   1      42.709  27.407  29.921  1.00  0.00     0.074 A 
ATOM     52  C   UNL A   1      41.686  30.347  35.456  1.00  0.00     0.029 A 
ATOM     53  N   UNL A   1      41.574  29.635  33.353  1.00  0.00    -0.354 N 
ATOM     54  N   UNL A   1      42.399  28.029  31.033  1.00  0.00    -0.248 NA
ATOM     55  C   UNL A   1      43.873  26.517  30.038  1.00  0.00     0.031 C 
ATOM     56  C   UNL A   1      42.688  29.391  35.257  1.00  0.00     0.029 A 
ATOM     57  C   UNL A   1      42.612  28.939  33.949  1.00  0.00     0.049 A 
ATOM     58  H   UNL A   1      41.285  29.527  32.418  1.00  0.00     0.167 HD
ATOM     59  C   UNL A   1      43.307  27.587  31.989  1.00  0.00     0.074 A 
ATOM     60  C   UNL A   1      44.166  26.625  31.328  1.00  0.00     0.031 C 
ATOM     61  C   UNL A   1      43.430  27.952  33.289  1.00  0.00     0.034 A 
BRANCH  48  62
ATOM     62  C   UNL A   1      39.430  32.337  35.048  1.00  0.00     0.023 A 
ATOM     63  C   UNL A   1      38.408  31.921  35.927  1.00  0.00     0.012 A 
ATOM     64  C   UNL A   1      39.990  33.619  35.199  1.00  0.00     0.148 A 
ATOM     65  C   UNL A   1      37.923  32.783  36.911  1.00  0.00     0.002 A 
ATOM     66  C   UNL A   1      39.532  34.456  36.210  1.00  0.00     0.091 A 
ATOM     67  F   UNL A   1      40.939  34.011  34.336  1.00  0.00    -0.205 F 
ATOM     68  C   UNL A   1      38.490  34.046  37.059  1.00  0.00     0.022 A 
BRANCH  66  69
ATOM     69  S   UNL A   1      40.256  36.071  36.519  1.00  0.00     0.127 S 
ATOM     70  O   UNL A   1      39.526  36.498  37.712  1.00  0.00    -0.237 OA
ATOM     71  O   UNL A   1      41.663  35.743  36.752  1.00  0.00    -0.237 OA
ATOM     72  O   UNL A   1      40.011  36.850  35.314  1.00  0.00    -0.744 OA
ENDBRANCH  66  69
ENDBRANCH  48  62
BRANCH  49  73
ATOM     73  C   UNL A   1      42.514  26.667  27.423  1.00  0.00     0.023 A 
ATOM     74  C   UNL A   1      43.397  27.255  26.499  1.00  0.00     0.012 A 
ATOM     75  C   UNL A   1      42.161  25.311  27.273  1.00  0.00     0.148 A 
ATOM     76  C   UNL A   1      43.908  26.510  25.434  1.00  0.00     0.002 A 
ATOM     77  C   UNL A   1      42.718  24.560  26.246  1.00  0.00     0.091 A 
ATOM     78  F   UNL A   1      41.307  24.777  28.158  1.00  0.00    -0.205 F 
ATOM     79  C   UNL A   1      43.579  25.162  25.315  1.00  0.00     0.022 A 
BRANCH  77  80
ATOM     80  S   UNL A   1      42.467  22.787  26.102  1.00  0.00     0.127 S 
ATOM     81  O   UNL A   1      41.010  22.689  26.122  1.00  0.00    -0.237 OA
ATOM     82  O   UNL A   1      43.087  22.500  24.809  1.00  0.00    -0.237 OA
ATOM     83  O   UNL A   1      43.156  22.197  27.242  1.00  0.00    -0.744 OA
ENDBRANCH  77  80
ENDBRANCH  49  73
BRANCH  61  84
ATOM     84  C   UNL A   1      44.519  27.296  34.100  1.00  0.00     0.023 A 
ATOM     85  C   UNL A   1      45.785  27.906  34.194  1.00  0.00     0.012 A 
ATOM     86  C   UNL A   1      44.266  26.114  34.823  1.00  0.00     0.148 A 
ATOM     87  C   UNL A   1      46.794  27.332  34.967  1.00  0.00     0.002 A 
ATOM     88  C   UNL A   1      45.261  25.573  35.629  1.00  0.00     0.091 A 
ATOM     89  F   UNL A   1      43.062  25.535  34.706  1.00  0.00    -0.205 F 
ATOM     90  C   UNL A   1      46.529  26.173  35.692  1.00  0.00     0.022 A 
BRANCH  88  91
ATOM     91  S   UNL A   1      44.972  24.136  36.670  1.00  0.00     0.127 S 
ATOM     92  O   UNL A   1      46.326  23.810  37.113  1.00  0.00    -0.237 OA
ATOM     93  O   UNL A   1      44.102  24.675  37.715  1.00  0.00    -0.237 OA
ATOM     94  O   UNL A   1      44.334  23.148  35.809  1.00  0.00    -0.744 OA
ENDBRANCH  88  91
ENDBRANCH  61  84
ENDBRANCH  35  36
ENDBRANCH  28  30
ENDBRANCH  27  28
ENDBRANCH  26  27
ENDBRANCH   1  26
TORSDOF 20
ENDMDL
