MODEL 1
REMARK VINA RESULT:     -10.5      0.000      0.000
REMARK SMILES CCOc1cc(N2CCOCC2)ccc1[C@H]([NH3+])C(=O)OCCOCCOC(=O)c1ccc(-c2c3nc(c(-c4cccc(S(=O)(=O)[O-])c4F)c4ccc([nH]4)c(-c4cccc(S(=O)(=O)[O-])c4F)c4nc(c(-c5cccc(S(=O)(=O)[O-])c5F)c5ccc2[nH]5)C=C4)C=C3)cc1
REMARK SMILES IDX 23 1 22 2 21 3 20 4 18 5 19 6 16 7 15 8 4 9 5 10 6 11 14 12
REMARK SMILES IDX 13 13 3 14 2 15 1 16 7 17 8 18 12 19 9 20 11 21 10 22 17 23
REMARK SMILES IDX 24 27 25 28 26 29 27 30 28 31 29 32 30 33 91 34 31 35 90 36
REMARK SMILES IDX 32 37 33 38 34 39 84 40 35 41 89 42 83 43 85 44 36 45 88 46
REMARK SMILES IDX 82 47 81 48 37 50 69 51 49 52 68 53 50 54 53 55 67 56 86 57
REMARK SMILES IDX 51 58 52 59 66 61 87 62 54 63 38 64 39 65 47 66 40 67 42 68
REMARK SMILES IDX 48 69 41 70 43 71 44 72 45 73 46 74 70 75 71 76 79 77 72 78
REMARK SMILES IDX 74 79 80 80 73 81 75 82 76 83 77 84 78 85 55 86 56 87 64 88
REMARK SMILES IDX 57 89 59 90 65 91 58 92 60 93 61 94 62 95 63 96
REMARK H PARENT 17 24 17 25 17 26 85 49 53 60
REMARK Flexibility Score: inf
ROOT
ATOM      1  O   UNL A   1      30.676  29.380  24.742  1.00  0.00    -0.374 OA
ENDROOT
BRANCH   1   2
ATOM      2  C   UNL A   1      30.035  29.997  23.623  1.00  0.00     0.202 C 
BRANCH   2   3
ATOM      3  C   UNL A   1      30.133  29.178  22.334  1.00  0.00     0.261 C 
BRANCH   3   4
ATOM      4  O   UNL A   1      30.398  27.794  22.632  1.00  0.00    -0.459 OA
BRANCH   4   5
ATOM      5  C   UNL A   1      31.619  27.306  22.274  1.00  0.00     0.369 C 
ATOM      6  O   UNL A   1      32.682  27.906  22.413  1.00  0.00    -0.245 OA
BRANCH   5   7
ATOM      7  C   UNL A   1      31.527  25.892  21.666  1.00  0.00     0.326 C 
BRANCH   7   8
ATOM      8  C   UNL A   1      32.205  24.853  22.540  1.00  0.00     0.063 A 
ATOM      9  C   UNL A   1      31.620  24.291  23.688  1.00  0.00     0.131 A 
ATOM     10  C   UNL A   1      32.300  23.319  24.433  1.00  0.00     0.072 A 
ATOM     11  C   UNL A   1      33.583  22.895  24.061  1.00  0.00     0.040 A 
ATOM     12  C   UNL A   1      33.468  24.386  22.145  1.00  0.00     0.016 A 
ATOM     13  C   UNL A   1      34.146  23.430  22.900  1.00  0.00     0.027 A 
BRANCH   9  14
ATOM     14  O   UNL A   1      30.445  24.826  24.145  1.00  0.00    -0.493 OA
BRANCH  14  15
ATOM     15  C   UNL A   1      30.412  25.037  25.561  1.00  0.00     0.226 C 
ATOM     16  C   UNL A   1      31.323  26.220  25.840  1.00  0.00     0.049 C 
ENDBRANCH  14  15
ENDBRANCH   9  14
BRANCH  11  17
ATOM     17  N   UNL A   1      34.272  22.013  24.870  1.00  0.00    -0.367 N 
ATOM     18  C   UNL A   1      33.568  20.864  25.447  1.00  0.00     0.145 C 
ATOM     19  C   UNL A   1      35.415  22.499  25.654  1.00  0.00     0.145 C 
ATOM     20  C   UNL A   1      33.249  21.104  26.930  1.00  0.00     0.181 C 
ATOM     21  C   UNL A   1      35.011  22.674  27.130  1.00  0.00     0.181 C 
ATOM     22  O   UNL A   1      34.417  21.480  27.678  1.00  0.00    -0.378 OA
ENDBRANCH  11  17
ENDBRANCH   7   8
BRANCH   7  23
ATOM     23  N   UNL A   1      31.961  25.860  20.247  1.00  0.00    -0.342 N 
ATOM     24  H   UNL A   1      31.846  26.786  19.836  1.00  0.00     0.345 HD
ATOM     25  H   UNL A   1      31.393  25.187  19.733  1.00  0.00     0.345 HD
ATOM     26  H   UNL A   1      32.942  25.585  20.197  1.00  0.00     0.345 HD
ENDBRANCH   7  23
ENDBRANCH   5   7
ENDBRANCH   4   5
ENDBRANCH   3   4
ENDBRANCH   2   3
ENDBRANCH   1   2
BRANCH   1  27
ATOM     27  C   UNL A   1      31.835  30.062  25.227  1.00  0.00     0.202 C 
BRANCH  27  28
ATOM     28  C   UNL A   1      31.522  31.227  26.167  1.00  0.00     0.261 C 
BRANCH  28  29
ATOM     29  O   UNL A   1      32.339  31.169  27.351  1.00  0.00    -0.460 OA
BRANCH  29  30
ATOM     30  C   UNL A   1      33.162  32.233  27.531  1.00  0.00     0.338 C 
ATOM     31  O   UNL A   1      32.856  33.407  27.508  1.00  0.00    -0.246 OA
BRANCH  30  32
ATOM     32  C   UNL A   1      34.512  31.763  27.917  1.00  0.00     0.060 A 
ATOM     33  C   UNL A   1      34.678  30.389  28.128  1.00  0.00     0.016 A 
ATOM     34  C   UNL A   1      35.584  32.638  28.116  1.00  0.00     0.016 A 
ATOM     35  C   UNL A   1      35.893  29.893  28.597  1.00  0.00     0.010 A 
ATOM     36  C   UNL A   1      36.808  32.137  28.576  1.00  0.00     0.010 A 
ATOM     37  C   UNL A   1      36.955  30.768  28.863  1.00  0.00    -0.014 A 
BRANCH  37  38
ATOM     38  C   UNL A   1      38.153  30.267  29.587  1.00  0.00     0.031 A 
ATOM     39  C   UNL A   1      38.395  30.723  31.002  1.00  0.00     0.074 A 
ATOM     40  C   UNL A   1      39.002  29.395  29.011  1.00  0.00     0.049 A 
ATOM     41  N   UNL A   1      39.357  30.392  31.824  1.00  0.00    -0.248 NA
ATOM     42  C   UNL A   1      37.428  31.679  31.564  1.00  0.00     0.031 C 
ATOM     43  C   UNL A   1      38.888  28.877  27.650  1.00  0.00     0.029 A 
ATOM     44  N   UNL A   1      40.141  28.806  29.502  1.00  0.00    -0.354 N 
ATOM     45  C   UNL A   1      39.127  31.116  32.988  1.00  0.00     0.074 A 
ATOM     46  C   UNL A   1      37.947  31.921  32.758  1.00  0.00     0.031 C 
ATOM     47  C   UNL A   1      39.927  28.059  27.407  1.00  0.00     0.029 A 
ATOM     48  C   UNL A   1      40.788  28.009  28.589  1.00  0.00     0.049 A 
ATOM     49  H   UNL A   1      40.464  28.942  30.423  1.00  0.00     0.167 HD
ATOM     50  C   UNL A   1      39.816  31.097  34.153  1.00  0.00     0.034 A 
ATOM     51  C   UNL A   1      41.947  27.326  28.689  1.00  0.00     0.034 A 
ATOM     52  C   UNL A   1      40.971  30.278  34.400  1.00  0.00     0.049 A 
ATOM     53  C   UNL A   1      42.707  27.336  29.992  1.00  0.00     0.074 A 
ATOM     54  C   UNL A   1      41.698  30.151  35.571  1.00  0.00     0.029 A 
ATOM     55  N   UNL A   1      41.574  29.456  33.463  1.00  0.00    -0.354 N 
ATOM     56  N   UNL A   1      42.398  27.919  31.125  1.00  0.00    -0.248 NA
ATOM     57  C   UNL A   1      43.959  26.563  30.039  1.00  0.00     0.031 C 
ATOM     58  C   UNL A   1      42.758  29.269  35.333  1.00  0.00     0.029 A 
ATOM     59  C   UNL A   1      42.674  28.828  34.022  1.00  0.00     0.049 A 
ATOM     60  H   UNL A   1      41.265  29.336  32.536  1.00  0.00     0.167 HD
ATOM     61  C   UNL A   1      43.392  27.553  32.027  1.00  0.00     0.074 A 
ATOM     62  C   UNL A   1      44.304  26.684  31.315  1.00  0.00     0.031 C 
ATOM     63  C   UNL A   1      43.544  27.917  33.324  1.00  0.00     0.034 A 
BRANCH  50  64
ATOM     64  C   UNL A   1      39.315  31.971  35.272  1.00  0.00     0.023 A 
ATOM     65  C   UNL A   1      38.359  31.464  36.176  1.00  0.00     0.012 A 
ATOM     66  C   UNL A   1      39.828  33.269  35.462  1.00  0.00     0.148 A 
ATOM     67  C   UNL A   1      37.900  32.246  37.234  1.00  0.00     0.002 A 
ATOM     68  C   UNL A   1      39.397  34.026  36.544  1.00  0.00     0.091 A 
ATOM     69  F   UNL A   1      40.717  33.741  34.576  1.00  0.00    -0.205 F 
ATOM     70  C   UNL A   1      38.426  33.521  37.425  1.00  0.00     0.022 A 
BRANCH  68  71
ATOM     71  S   UNL A   1      40.071  35.649  36.917  1.00  0.00     0.127 S 
ATOM     72  O   UNL A   1      39.647  36.419  35.749  1.00  0.00    -0.237 OA
ATOM     73  O   UNL A   1      39.378  35.993  38.159  1.00  0.00    -0.237 OA
ATOM     74  O   UNL A   1      41.509  35.462  37.056  1.00  0.00    -0.744 OA
ENDBRANCH  68  71
ENDBRANCH  50  64
BRANCH  51  75
ATOM     75  C   UNL A   1      42.448  26.536  27.527  1.00  0.00     0.023 A 
ATOM     76  C   UNL A   1      43.290  27.147  26.579  1.00  0.00     0.012 A 
ATOM     77  C   UNL A   1      42.100  25.181  27.364  1.00  0.00     0.148 A 
ATOM     78  C   UNL A   1      43.751  26.433  25.472  1.00  0.00     0.002 A 
ATOM     79  C   UNL A   1      42.609  24.459  26.291  1.00  0.00     0.091 A 
ATOM     80  F   UNL A   1      41.282  24.622  28.267  1.00  0.00    -0.205 F 
ATOM     81  C   UNL A   1      43.420  25.089  25.333  1.00  0.00     0.022 A 
BRANCH  79  82
ATOM     82  S   UNL A   1      42.343  22.693  26.106  1.00  0.00     0.127 S 
ATOM     83  O   UNL A   1      42.994  22.424  24.826  1.00  0.00    -0.237 OA
ATOM     84  O   UNL A   1      43.039  22.160  27.277  1.00  0.00    -0.237 OA
ATOM     85  O   UNL A   1      40.898  22.508  26.133  1.00  0.00    -0.744 OA
ENDBRANCH  79  82
ENDBRANCH  51  75
BRANCH  63  86
ATOM     86  C   UNL A   1      44.718  27.354  34.085  1.00  0.00     0.023 A 
ATOM     87  C   UNL A   1      45.971  27.993  34.014  1.00  0.00     0.012 A 
ATOM     88  C   UNL A   1      44.558  26.241  34.937  1.00  0.00     0.148 A 
ATOM     89  C   UNL A   1      47.054  27.517  34.754  1.00  0.00     0.002 A 
ATOM     90  C   UNL A   1      45.629  25.802  35.707  1.00  0.00     0.091 A 
ATOM     91  F   UNL A   1      43.362  25.635  34.980  1.00  0.00    -0.205 F 
ATOM     92  C   UNL A   1      46.879  26.431  35.608  1.00  0.00     0.022 A 
BRANCH  90  93
ATOM     93  S   UNL A   1      45.472  24.472  36.905  1.00  0.00     0.127 S 
ATOM     94  O   UNL A   1      45.323  23.305  36.038  1.00  0.00    -0.237 OA
ATOM     95  O   UNL A   1      46.747  24.543  37.619  1.00  0.00    -0.237 OA
ATOM     96  O   UNL A   1      44.307  24.800  37.717  1.00  0.00    -0.744 OA
ENDBRANCH  90  93
ENDBRANCH  63  86
ENDBRANCH  37  38
ENDBRANCH  30  32
ENDBRANCH  29  30
ENDBRANCH  28  29
ENDBRANCH  27  28
ENDBRANCH   1  27
TORSDOF 22
ENDMDL
MODEL 2
REMARK VINA RESULT:     -10.1      2.706      8.628
REMARK SMILES CCOc1cc(N2CCOCC2)ccc1[C@H]([NH3+])C(=O)OCCOCCOC(=O)c1ccc(-c2c3nc(c(-c4cccc(S(=O)(=O)[O-])c4F)c4ccc([nH]4)c(-c4cccc(S(=O)(=O)[O-])c4F)c4nc(c(-c5cccc(S(=O)(=O)[O-])c5F)c5ccc2[nH]5)C=C4)C=C3)cc1
REMARK SMILES IDX 23 1 22 2 21 3 20 4 18 5 19 6 16 7 15 8 4 9 5 10 6 11 14 12
REMARK SMILES IDX 13 13 3 14 2 15 1 16 7 17 8 18 12 19 9 20 11 21 10 22 17 23
REMARK SMILES IDX 24 27 25 28 26 29 27 30 28 31 29 32 30 33 91 34 31 35 90 36
REMARK SMILES IDX 32 37 33 38 34 39 84 40 35 41 89 42 83 43 85 44 36 45 88 46
REMARK SMILES IDX 82 47 81 48 37 50 69 51 49 52 68 53 50 54 53 55 67 56 86 57
REMARK SMILES IDX 51 58 52 59 66 61 87 62 54 63 38 64 39 65 47 66 40 67 42 68
REMARK SMILES IDX 48 69 41 70 43 71 44 72 45 73 46 74 70 75 71 76 79 77 72 78
REMARK SMILES IDX 74 79 80 80 73 81 75 82 76 83 77 84 78 85 55 86 56 87 64 88
REMARK SMILES IDX 57 89 59 90 65 91 58 92 60 93 61 94 62 95 63 96
REMARK H PARENT 17 24 17 25 17 26 85 49 53 60
REMARK Flexibility Score: inf
ROOT
ATOM      1  O   UNL A   1      33.639  30.213  26.550  1.00  0.00    -0.374 OA
ENDROOT
BRANCH   1   2
ATOM      2  C   UNL A   1      33.347  29.307  25.484  1.00  0.00     0.202 C 
BRANCH   2   3
ATOM      3  C   UNL A   1      33.422  27.834  25.894  1.00  0.00     0.261 C 
BRANCH   3   4
ATOM      4  O   UNL A   1      32.597  27.026  25.035  1.00  0.00    -0.459 OA
BRANCH   4   5
ATOM      5  C   UNL A   1      33.227  26.322  24.052  1.00  0.00     0.369 C 
ATOM      6  O   UNL A   1      34.294  25.731  24.190  1.00  0.00    -0.245 OA
BRANCH   5   7
ATOM      7  C   UNL A   1      32.443  26.344  22.725  1.00  0.00     0.326 C 
BRANCH   7   8
ATOM      8  C   UNL A   1      31.326  27.371  22.742  1.00  0.00     0.063 A 
ATOM      9  C   UNL A   1      30.066  27.151  23.324  1.00  0.00     0.131 A 
ATOM     10  C   UNL A   1      29.092  28.157  23.320  1.00  0.00     0.072 A 
ATOM     11  C   UNL A   1      29.344  29.400  22.724  1.00  0.00     0.040 A 
ATOM     12  C   UNL A   1      31.589  28.635  22.192  1.00  0.00     0.016 A 
ATOM     13  C   UNL A   1      30.609  29.627  22.177  1.00  0.00     0.027 A 
BRANCH   9  14
ATOM     14  O   UNL A   1      29.763  25.886  23.754  1.00  0.00    -0.493 OA
BRANCH  14  15
ATOM     15  C   UNL A   1      29.265  25.829  25.095  1.00  0.00     0.226 C 
ATOM     16  C   UNL A   1      30.258  24.995  25.886  1.00  0.00     0.049 C 
ENDBRANCH  14  15
ENDBRANCH   9  14
BRANCH  11  17
ATOM     17  N   UNL A   1      28.332  30.336  22.642  1.00  0.00    -0.367 N 
ATOM     18  C   UNL A   1      27.789  30.699  21.329  1.00  0.00     0.145 C 
ATOM     19  C   UNL A   1      28.241  31.388  23.663  1.00  0.00     0.145 C 
ATOM     20  C   UNL A   1      28.328  32.062  20.869  1.00  0.00     0.181 C 
ATOM     21  C   UNL A   1      28.768  32.722  23.101  1.00  0.00     0.181 C 
ATOM     22  O   UNL A   1      28.127  33.082  21.861  1.00  0.00    -0.378 OA
ENDBRANCH  11  17
ENDBRANCH   7   8
BRANCH   7  23
ATOM     23  N   UNL A   1      32.008  24.988  22.306  1.00  0.00    -0.342 N 
ATOM     24  H   UNL A   1      32.785  24.336  22.406  1.00  0.00     0.345 HD
ATOM     25  H   UNL A   1      31.709  25.013  21.331  1.00  0.00     0.345 HD
ATOM     26  H   UNL A   1      31.231  24.685  22.892  1.00  0.00     0.345 HD
ENDBRANCH   7  23
ENDBRANCH   5   7
ENDBRANCH   4   5
ENDBRANCH   3   4
ENDBRANCH   2   3
ENDBRANCH   1   2
BRANCH   1  27
ATOM     27  C   UNL A   1      32.650  31.219  26.777  1.00  0.00     0.202 C 
BRANCH  27  28
ATOM     28  C   UNL A   1      32.962  32.141  27.958  1.00  0.00     0.261 C 
BRANCH  28  29
ATOM     29  O   UNL A   1      33.206  33.488  27.511  1.00  0.00    -0.460 OA
BRANCH  29  30
ATOM     30  C   UNL A   1      33.274  34.415  28.499  1.00  0.00     0.338 C 
ATOM     31  O   UNL A   1      32.508  35.338  28.691  1.00  0.00    -0.246 OA
BRANCH  30  32
ATOM     32  C   UNL A   1      34.361  34.066  29.442  1.00  0.00     0.060 A 
ATOM     33  C   UNL A   1      35.676  34.229  28.993  1.00  0.00     0.016 A 
ATOM     34  C   UNL A   1      34.113  33.547  30.716  1.00  0.00     0.016 A 
ATOM     35  C   UNL A   1      36.745  33.818  29.789  1.00  0.00     0.010 A 
ATOM     36  C   UNL A   1      35.187  33.146  31.519  1.00  0.00     0.010 A 
ATOM     37  C   UNL A   1      36.506  33.236  31.041  1.00  0.00    -0.014 A 
BRANCH  37  38
ATOM     38  C   UNL A   1      37.627  32.584  31.770  1.00  0.00     0.031 A 
ATOM     39  C   UNL A   1      38.349  31.433  31.119  1.00  0.00     0.074 A 
ATOM     40  C   UNL A   1      38.020  33.022  32.980  1.00  0.00     0.049 A 
ATOM     41  N   UNL A   1      39.366  30.739  31.562  1.00  0.00    -0.248 NA
ATOM     42  C   UNL A   1      37.861  31.007  29.798  1.00  0.00     0.031 C 
ATOM     43  C   UNL A   1      37.407  34.120  33.724  1.00  0.00     0.029 A 
ATOM     44  N   UNL A   1      39.026  32.577  33.804  1.00  0.00    -0.354 N 
ATOM     45  C   UNL A   1      39.622  29.780  30.589  1.00  0.00     0.074 A 
ATOM     46  C   UNL A   1      38.641  29.968  29.543  1.00  0.00     0.031 C 
ATOM     47  C   UNL A   1      38.038  34.254  34.903  1.00  0.00     0.029 A 
ATOM     48  C   UNL A   1      39.088  33.240  35.006  1.00  0.00     0.049 A 
ATOM     49  H   UNL A   1      39.644  31.852  33.556  1.00  0.00     0.167 HD
ATOM     50  C   UNL A   1      40.599  28.845  30.552  1.00  0.00     0.034 A 
ATOM     51  C   UNL A   1      39.891  33.046  36.072  1.00  0.00     0.034 A 
ATOM     52  C   UNL A   1      41.598  28.672  31.572  1.00  0.00     0.049 A 
ATOM     53  C   UNL A   1      40.961  31.984  36.014  1.00  0.00     0.074 A 
ATOM     54  C   UNL A   1      42.662  27.788  31.591  1.00  0.00     0.029 A 
ATOM     55  N   UNL A   1      41.651  29.387  32.757  1.00  0.00    -0.354 N 
ATOM     56  N   UNL A   1      41.275  31.179  35.028  1.00  0.00    -0.248 NA
ATOM     57  C   UNL A   1      41.811  31.829  37.205  1.00  0.00     0.031 C 
ATOM     58  C   UNL A   1      43.345  27.952  32.801  1.00  0.00     0.029 A 
ATOM     59  C   UNL A   1      42.720  28.956  33.522  1.00  0.00     0.049 A 
ATOM     60  H   UNL A   1      41.020  30.098  33.016  1.00  0.00     0.167 HD
ATOM     61  C   UNL A   1      42.378  30.452  35.464  1.00  0.00     0.074 A 
ATOM     62  C   UNL A   1      42.691  30.924  36.796  1.00  0.00     0.031 C 
ATOM     63  C   UNL A   1      43.062  29.471  34.823  1.00  0.00     0.034 A 
BRANCH  50  64
ATOM     64  C   UNL A   1      40.660  27.949  29.343  1.00  0.00     0.023 A 
ATOM     65  C   UNL A   1      39.800  26.835  29.258  1.00  0.00     0.012 A 
ATOM     66  C   UNL A   1      41.525  28.240  28.271  1.00  0.00     0.148 A 
ATOM     67  C   UNL A   1      39.821  26.008  28.137  1.00  0.00     0.002 A 
ATOM     68  C   UNL A   1      41.510  27.435  27.138  1.00  0.00     0.091 A 
ATOM     69  F   UNL A   1      42.353  29.289  28.382  1.00  0.00    -0.205 F 
ATOM     70  C   UNL A   1      40.667  26.313  27.074  1.00  0.00     0.022 A 
BRANCH  68  71
ATOM     71  S   UNL A   1      42.506  27.791  25.687  1.00  0.00     0.127 S 
ATOM     72  O   UNL A   1      43.843  27.903  26.268  1.00  0.00    -0.237 OA
ATOM     73  O   UNL A   1      42.297  26.596  24.868  1.00  0.00    -0.237 OA
ATOM     74  O   UNL A   1      41.964  29.017  25.120  1.00  0.00    -0.744 OA
ENDBRANCH  68  71
ENDBRANCH  50  64
BRANCH  51  75
ATOM     75  C   UNL A   1      39.745  33.906  37.281  1.00  0.00     0.023 A 
ATOM     76  C   UNL A   1      40.302  35.199  37.288  1.00  0.00     0.012 A 
ATOM     77  C   UNL A   1      39.050  33.452  38.419  1.00  0.00     0.148 A 
ATOM     78  C   UNL A   1      40.198  36.012  38.418  1.00  0.00     0.002 A 
ATOM     79  C   UNL A   1      38.900  34.288  39.519  1.00  0.00     0.091 A 
ATOM     80  F   UNL A   1      38.543  32.210  38.400  1.00  0.00    -0.205 F 
ATOM     81  C   UNL A   1      39.489  35.562  39.527  1.00  0.00     0.022 A 
BRANCH  79  82
ATOM     82  S   UNL A   1      37.892  33.841  40.936  1.00  0.00     0.127 S 
ATOM     83  O   UNL A   1      37.665  35.141  41.564  1.00  0.00    -0.237 OA
ATOM     84  O   UNL A   1      36.716  33.252  40.296  1.00  0.00    -0.237 OA
ATOM     85  O   UNL A   1      38.691  32.897  41.706  1.00  0.00    -0.744 OA
ENDBRANCH  79  82
ENDBRANCH  51  75
BRANCH  63  86
ATOM     86  C   UNL A   1      44.244  28.855  35.528  1.00  0.00     0.023 A 
ATOM     87  C   UNL A   1      45.532  29.393  35.338  1.00  0.00     0.012 A 
ATOM     88  C   UNL A   1      44.066  27.798  36.445  1.00  0.00     0.148 A 
ATOM     89  C   UNL A   1      46.628  28.870  36.025  1.00  0.00     0.002 A 
ATOM     90  C   UNL A   1      45.155  27.314  37.160  1.00  0.00     0.091 A 
ATOM     91  F   UNL A   1      42.835  27.288  36.601  1.00  0.00    -0.205 F 
ATOM     92  C   UNL A   1      46.438  27.840  36.943  1.00  0.00     0.022 A 
BRANCH  90  93
ATOM     93  S   UNL A   1      44.989  26.055  38.432  1.00  0.00     0.127 S 
ATOM     94  O   UNL A   1      44.037  26.681  39.349  1.00  0.00    -0.237 OA
ATOM     95  O   UNL A   1      44.455  24.920  37.680  1.00  0.00    -0.237 OA
ATOM     96  O   UNL A   1      46.328  25.848  38.967  1.00  0.00    -0.744 OA
ENDBRANCH  90  93
ENDBRANCH  63  86
ENDBRANCH  37  38
ENDBRANCH  30  32
ENDBRANCH  29  30
ENDBRANCH  28  29
ENDBRANCH  27  28
ENDBRANCH   1  27
TORSDOF 22
ENDMDL
MODEL 3
REMARK VINA RESULT:     -10.0      2.045      7.947
REMARK SMILES CCOc1cc(N2CCOCC2)ccc1[C@H]([NH3+])C(=O)OCCOCCOC(=O)c1ccc(-c2c3nc(c(-c4cccc(S(=O)(=O)[O-])c4F)c4ccc([nH]4)c(-c4cccc(S(=O)(=O)[O-])c4F)c4nc(c(-c5cccc(S(=O)(=O)[O-])c5F)c5ccc2[nH]5)C=C4)C=C3)cc1
REMARK SMILES IDX 23 1 22 2 21 3 20 4 18 5 19 6 16 7 15 8 4 9 5 10 6 11 14 12
REMARK SMILES IDX 13 13 3 14 2 15 1 16 7 17 8 18 12 19 9 20 11 21 10 22 17 23
REMARK SMILES IDX 24 27 25 28 26 29 27 30 28 31 29 32 30 33 91 34 31 35 90 36
REMARK SMILES IDX 32 37 33 38 34 39 84 40 35 41 89 42 83 43 85 44 36 45 88 46
REMARK SMILES IDX 82 47 81 48 37 50 69 51 49 52 68 53 50 54 53 55 67 56 86 57
REMARK SMILES IDX 51 58 52 59 66 61 87 62 54 63 38 64 39 65 47 66 40 67 42 68
REMARK SMILES IDX 48 69 41 70 43 71 44 72 45 73 46 74 70 75 71 76 79 77 72 78
REMARK SMILES IDX 74 79 80 80 73 81 75 82 76 83 77 84 78 85 55 86 56 87 64 88
REMARK SMILES IDX 57 89 59 90 65 91 58 92 60 93 61 94 62 95 63 96
REMARK H PARENT 17 24 17 25 17 26 85 49 53 60
REMARK Flexibility Score: inf
ROOT
ATOM      1  O   UNL A   1      32.543  27.909  24.936  1.00  0.00    -0.374 OA
ENDROOT
BRANCH   1   2
ATOM      2  C   UNL A   1      31.316  27.297  24.529  1.00  0.00     0.202 C 
BRANCH   2   3
ATOM      3  C   UNL A   1      31.510  25.965  23.800  1.00  0.00     0.261 C 
BRANCH   3   4
ATOM      4  O   UNL A   1      31.168  24.862  24.660  1.00  0.00    -0.459 OA
BRANCH   4   5
ATOM      5  C   UNL A   1      32.096  24.486  25.584  1.00  0.00     0.369 C 
ATOM      6  O   UNL A   1      31.981  24.644  26.796  1.00  0.00    -0.245 OA
BRANCH   5   7
ATOM      7  C   UNL A   1      33.330  23.825  24.936  1.00  0.00     0.326 C 
BRANCH   7   8
ATOM      8  C   UNL A   1      33.176  22.320  24.827  1.00  0.00     0.063 A 
ATOM      9  C   UNL A   1      34.086  21.396  25.369  1.00  0.00     0.131 A 
ATOM     10  C   UNL A   1      33.865  20.019  25.246  1.00  0.00     0.072 A 
ATOM     11  C   UNL A   1      32.740  19.529  24.569  1.00  0.00     0.040 A 
ATOM     12  C   UNL A   1      32.026  21.822  24.195  1.00  0.00     0.016 A 
ATOM     13  C   UNL A   1      31.819  20.449  24.062  1.00  0.00     0.027 A 
BRANCH   9  14
ATOM     14  O   UNL A   1      35.265  21.872  25.879  1.00  0.00    -0.493 OA
BRANCH  14  15
ATOM     15  C   UNL A   1      36.427  21.441  25.162  1.00  0.00     0.226 C 
ATOM     16  C   UNL A   1      37.596  22.232  25.723  1.00  0.00     0.049 C 
ENDBRANCH  14  15
ENDBRANCH   9  14
BRANCH  11  17
ATOM     17  N   UNL A   1      32.600  18.169  24.373  1.00  0.00    -0.367 N 
ATOM     18  C   UNL A   1      33.023  17.241  25.426  1.00  0.00     0.145 C 
ATOM     19  C   UNL A   1      32.661  17.629  23.009  1.00  0.00     0.145 C 
ATOM     20  C   UNL A   1      34.368  16.588  25.075  1.00  0.00     0.181 C 
ATOM     21  C   UNL A   1      34.028  16.963  22.761  1.00  0.00     0.181 C 
ATOM     22  O   UNL A   1      34.349  15.985  23.770  1.00  0.00    -0.378 OA
ENDBRANCH  11  17
ENDBRANCH   7   8
BRANCH   7  23
ATOM     23  N   UNL A   1      34.598  24.256  25.574  1.00  0.00    -0.342 N 
ATOM     24  H   UNL A   1      35.277  23.497  25.528  1.00  0.00     0.345 HD
ATOM     25  H   UNL A   1      34.423  24.498  26.550  1.00  0.00     0.345 HD
ATOM     26  H   UNL A   1      34.966  25.072  25.084  1.00  0.00     0.345 HD
ENDBRANCH   7  23
ENDBRANCH   5   7
ENDBRANCH   4   5
ENDBRANCH   3   4
ENDBRANCH   2   3
ENDBRANCH   1   2
BRANCH   1  27
ATOM     27  C   UNL A   1      32.650  29.303  24.639  1.00  0.00     0.202 C 
BRANCH  27  28
ATOM     28  C   UNL A   1      31.688  30.185  25.437  1.00  0.00     0.261 C 
BRANCH  28  29
ATOM     29  O   UNL A   1      32.124  30.320  26.802  1.00  0.00    -0.460 OA
BRANCH  29  30
ATOM     30  C   UNL A   1      32.748  31.491  27.089  1.00  0.00     0.338 C 
ATOM     31  O   UNL A   1      32.271  32.606  27.039  1.00  0.00    -0.246 OA
BRANCH  30  32
ATOM     32  C   UNL A   1      34.098  31.219  27.633  1.00  0.00     0.060 A 
ATOM     33  C   UNL A   1      34.452  29.880  27.830  1.00  0.00     0.016 A 
ATOM     34  C   UNL A   1      34.985  32.240  27.988  1.00  0.00     0.016 A 
ATOM     35  C   UNL A   1      35.665  29.557  28.439  1.00  0.00     0.010 A 
ATOM     36  C   UNL A   1      36.207  31.915  28.589  1.00  0.00     0.010 A 
ATOM     37  C   UNL A   1      36.533  30.574  28.860  1.00  0.00    -0.014 A 
BRANCH  37  38
ATOM     38  C   UNL A   1      37.698  30.232  29.719  1.00  0.00     0.031 A 
ATOM     39  C   UNL A   1      38.757  29.307  29.178  1.00  0.00     0.074 A 
ATOM     40  C   UNL A   1      37.833  30.755  30.951  1.00  0.00     0.049 A 
ATOM     41  N   UNL A   1      39.864  28.898  29.743  1.00  0.00    -0.248 NA
ATOM     42  C   UNL A   1      38.540  28.770  27.826  1.00  0.00     0.031 C 
ATOM     43  C   UNL A   1      36.883  31.658  31.597  1.00  0.00     0.029 A 
ATOM     44  N   UNL A   1      38.824  30.584  31.887  1.00  0.00    -0.354 N 
ATOM     45  C   UNL A   1      40.461  28.039  28.828  1.00  0.00     0.074 A 
ATOM     46  C   UNL A   1      39.583  27.968  27.681  1.00  0.00     0.031 C 
ATOM     47  C   UNL A   1      37.327  31.949  32.831  1.00  0.00     0.029 A 
ATOM     48  C   UNL A   1      38.585  31.240  33.071  1.00  0.00     0.049 A 
ATOM     49  H   UNL A   1      39.631  30.043  31.724  1.00  0.00     0.167 HD
ATOM     50  C   UNL A   1      41.644  27.387  28.919  1.00  0.00     0.034 A 
ATOM     51  C   UNL A   1      39.291  31.258  34.220  1.00  0.00     0.034 A 
ATOM     52  C   UNL A   1      42.537  27.477  30.042  1.00  0.00     0.049 A 
ATOM     53  C   UNL A   1      40.597  30.509  34.302  1.00  0.00     0.074 A 
ATOM     54  C   UNL A   1      43.783  26.897  30.195  1.00  0.00     0.029 A 
ATOM     55  N   UNL A   1      42.276  28.180  31.206  1.00  0.00    -0.354 N 
ATOM     56  N   UNL A   1      41.211  29.813  33.376  1.00  0.00    -0.248 NA
ATOM     57  C   UNL A   1      41.325  30.576  35.580  1.00  0.00     0.031 C 
ATOM     58  C   UNL A   1      44.267  27.230  31.465  1.00  0.00     0.029 A 
ATOM     59  C   UNL A   1      43.332  28.038  32.090  1.00  0.00     0.049 A 
ATOM     60  H   UNL A   1      41.461  28.704  31.379  1.00  0.00     0.167 HD
ATOM     61  C   UNL A   1      42.410  29.394  33.944  1.00  0.00     0.074 A 
ATOM     62  C   UNL A   1      42.446  29.929  35.288  1.00  0.00     0.031 C 
ATOM     63  C   UNL A   1      43.388  28.623  33.405  1.00  0.00     0.034 A 
BRANCH  50  64
ATOM     64  C   UNL A   1      42.062  26.538  27.748  1.00  0.00     0.023 A 
ATOM     65  C   UNL A   1      42.769  27.127  26.679  1.00  0.00     0.012 A 
ATOM     66  C   UNL A   1      41.806  25.154  27.730  1.00  0.00     0.148 A 
ATOM     67  C   UNL A   1      43.188  26.355  25.597  1.00  0.00     0.002 A 
ATOM     68  C   UNL A   1      42.265  24.384  26.668  1.00  0.00     0.091 A 
ATOM     69  F   UNL A   1      41.110  24.618  28.743  1.00  0.00    -0.205 F 
ATOM     70  C   UNL A   1      42.946  24.984  25.595  1.00  0.00     0.022 A 
BRANCH  68  71
ATOM     71  S   UNL A   1      42.069  22.600  26.613  1.00  0.00     0.127 S 
ATOM     72  O   UNL A   1      40.651  22.449  26.933  1.00  0.00    -0.237 OA
ATOM     73  O   UNL A   1      42.415  22.294  25.224  1.00  0.00    -0.237 OA
ATOM     74  O   UNL A   1      42.995  22.065  27.601  1.00  0.00    -0.744 OA
ENDBRANCH  68  71
ENDBRANCH  50  64
BRANCH  51  75
ATOM     75  C   UNL A   1      38.799  32.050  35.384  1.00  0.00     0.023 A 
ATOM     76  C   UNL A   1      38.891  33.455  35.359  1.00  0.00     0.012 A 
ATOM     77  C   UNL A   1      38.235  31.419  36.509  1.00  0.00     0.148 A 
ATOM     78  C   UNL A   1      38.458  34.215  36.446  1.00  0.00     0.002 A 
ATOM     79  C   UNL A   1      37.754  32.184  37.565  1.00  0.00     0.091 A 
ATOM     80  F   UNL A   1      38.175  30.079  36.522  1.00  0.00    -0.205 F 
ATOM     81  C   UNL A   1      37.881  33.582  37.543  1.00  0.00     0.022 A 
BRANCH  79  82
ATOM     82  S   UNL A   1      36.878  31.462  38.956  1.00  0.00     0.127 S 
ATOM     83  O   UNL A   1      36.701  30.081  38.513  1.00  0.00    -0.237 OA
ATOM     84  O   UNL A   1      37.839  31.643  40.044  1.00  0.00    -0.237 OA
ATOM     85  O   UNL A   1      35.657  32.242  39.099  1.00  0.00    -0.744 OA
ENDBRANCH  79  82
ENDBRANCH  51  75
BRANCH  63  86
ATOM     86  C   UNL A   1      44.605  28.333  34.246  1.00  0.00     0.023 A 
ATOM     87  C   UNL A   1      45.719  29.192  34.188  1.00  0.00     0.012 A 
ATOM     88  C   UNL A   1      44.611  27.255  35.157  1.00  0.00     0.148 A 
ATOM     89  C   UNL A   1      46.832  28.969  35.000  1.00  0.00     0.002 A 
ATOM     90  C   UNL A   1      45.704  27.067  35.996  1.00  0.00     0.091 A 
ATOM     91  F   UNL A   1      43.549  26.437  35.187  1.00  0.00    -0.205 F 
ATOM     92  C   UNL A   1      46.819  27.915  35.910  1.00  0.00     0.022 A 
BRANCH  90  93
ATOM     93  S   UNL A   1      45.735  25.795  37.265  1.00  0.00     0.127 S 
ATOM     94  O   UNL A   1      45.668  24.574  36.464  1.00  0.00    -0.237 OA
ATOM     95  O   UNL A   1      47.027  26.031  37.910  1.00  0.00    -0.237 OA
ATOM     96  O   UNL A   1      44.581  26.050  38.116  1.00  0.00    -0.744 OA
ENDBRANCH  90  93
ENDBRANCH  63  86
ENDBRANCH  37  38
ENDBRANCH  30  32
ENDBRANCH  29  30
ENDBRANCH  28  29
ENDBRANCH  27  28
ENDBRANCH   1  27
TORSDOF 22
ENDMDL
