MODEL 1
REMARK VINA RESULT:     -14.1      0.000      0.000
REMARK SMILES Cc1ccccc1[C@H]1[NH2+][C@@H](C(=O)OCCOCCOC(=O)c2ccc(-c3c4nc(c(-c5cccc(S(=O)(=O)[O-])c5F)c5ccc([nH]5)c(-c5cccc(S(=O)(=O)[O-])c5F)c5nc(c(-c6cccc(S(=O)(=O)[O-])c6F)c6ccc3[nH]6)C=C5)C=C4)cc2)CC2=c3ccccc3=N[C@@H]21
REMARK SMILES IDX 17 1 16 2 15 3 14 4 13 5 11 6 12 7 10 8 8 9 9 10 94 11 86 14
REMARK SMILES IDX 93 15 85 16 87 17 92 18 88 19 91 20 89 21 90 22 7 23 1 24
REMARK SMILES IDX 2 25 3 26 4 27 6 28 5 29 18 30 19 31 20 32 21 33 22 34 23 35
REMARK SMILES IDX 84 36 24 37 83 38 25 39 26 40 27 41 77 42 28 43 82 44 76 45
REMARK SMILES IDX 78 46 29 47 81 48 75 49 74 50 30 52 62 53 42 54 61 55 43 56
REMARK SMILES IDX 46 57 60 58 79 59 44 60 45 61 59 63 80 64 47 65 31 66 32 67
REMARK SMILES IDX 40 68 33 69 35 70 41 71 34 72 36 73 37 74 38 75 39 76 63 77
REMARK SMILES IDX 64 78 72 79 65 80 67 81 73 82 66 83 68 84 69 85 70 86 71 87
REMARK SMILES IDX 48 88 49 89 57 90 50 91 52 92 58 93 51 94 53 95 54 96 55 97
REMARK SMILES IDX 56 98
REMARK H PARENT 9 12 9 13 78 51 46 62
REMARK Flexibility Score: inf
ROOT
ATOM      1  C   UNL A   1      33.857  27.655  26.147  1.00  0.00     0.202 C 
ENDROOT
BRANCH   1   2
ATOM      2  O   UNL A   1      33.498  26.328  25.635  1.00  0.00    -0.374 OA
BRANCH   2   3
ATOM      3  C   UNL A   1      34.615  25.539  25.333  1.00  0.00     0.202 C 
BRANCH   3   4
ATOM      4  C   UNL A   1      35.148  24.353  26.119  1.00  0.00     0.261 C 
BRANCH   4   5
ATOM      5  O   UNL A   1      36.298  23.743  25.548  1.00  0.00    -0.459 OA
BRANCH   5   6
ATOM      6  C   UNL A   1      36.371  22.416  25.382  1.00  0.00     0.365 C 
ATOM      7  O   UNL A   1      37.426  21.853  25.697  1.00  0.00    -0.245 OA
BRANCH   6   8
ATOM      8  C   UNL A   1      35.228  21.575  24.767  1.00  0.00     0.298 C 
ATOM      9  C   UNL A   1      32.814  22.202  23.963  1.00  0.00     0.243 C 
ATOM     10  N   UNL A   1      34.314  22.176  23.713  1.00  0.00    -0.326 N 
ATOM     11  C   UNL A   1      32.237  20.850  24.735  1.00  0.00     0.196 C 
ATOM     12  H   UNL A   1      34.612  23.141  23.577  1.00  0.00     0.347 HD
ATOM     13  H   UNL A   1      34.418  21.548  22.916  1.00  0.00     0.347 HD
ATOM     14  C   UNL A   1      33.409  20.131  25.375  1.00  0.00    -0.024 C 
ATOM     15  N   UNL A   1      31.719  19.812  23.765  1.00  0.00    -0.270 NA
ATOM     16  C   UNL A   1      34.484  20.953  25.965  1.00  0.00     0.111 C 
ATOM     17  C   UNL A   1      33.645  18.936  24.836  1.00  0.00     0.002 A 
ATOM     18  C   UNL A   1      32.560  18.824  23.862  1.00  0.00     0.066 A 
ATOM     19  C   UNL A   1      34.852  18.168  24.724  1.00  0.00     0.010 A 
ATOM     20  C   UNL A   1      32.619  17.626  22.992  1.00  0.00     0.028 A 
ATOM     21  C   UNL A   1      34.934  17.257  23.740  1.00  0.00     0.001 A 
ATOM     22  C   UNL A   1      33.777  16.941  22.921  1.00  0.00     0.002 A 
BRANCH   9  23
ATOM     23  C   UNL A   1      31.974  23.679  23.678  1.00  0.00     0.015 A 
ATOM     24  C   UNL A   1      32.435  25.814  21.221  1.00  0.00     0.045 C 
ATOM     25  C   UNL A   1      31.783  25.141  22.455  1.00  0.00    -0.042 A 
ATOM     26  C   UNL A   1      30.707  26.565  22.953  1.00  0.00     0.004 A 
ATOM     27  C   UNL A   1      29.888  26.585  24.508  1.00  0.00     0.000 A 
ATOM     28  C   UNL A   1      31.171  23.887  25.310  1.00  0.00     0.010 A 
ATOM     29  C   UNL A   1      30.164  25.309  25.694  1.00  0.00     0.001 A 
ENDBRANCH   9  23
ENDBRANCH   6   8
ENDBRANCH   5   6
ENDBRANCH   4   5
ENDBRANCH   3   4
ENDBRANCH   2   3
ENDBRANCH   1   2
BRANCH   1  30
ATOM     30  C   UNL A   1      32.935  28.851  26.909  1.00  0.00     0.261 C 
BRANCH  30  31
ATOM     31  O   UNL A   1      32.703  30.484  26.810  1.00  0.00    -0.460 OA
BRANCH  31  32
ATOM     32  C   UNL A   1      33.150  31.969  27.488  1.00  0.00     0.338 C 
ATOM     33  O   UNL A   1      32.121  32.622  27.125  1.00  0.00    -0.246 OA
BRANCH  32  34
ATOM     34  C   UNL A   1      34.929  32.355  28.603  1.00  0.00     0.060 A 
ATOM     35  C   UNL A   1      36.256  32.966  28.277  1.00  0.00     0.016 A 
ATOM     36  C   UNL A   1      35.253  31.991  30.062  1.00  0.00     0.016 A 
ATOM     37  C   UNL A   1      37.526  32.681  28.874  1.00  0.00     0.010 A 
ATOM     38  C   UNL A   1      36.480  31.609  30.623  1.00  0.00     0.010 A 
ATOM     39  C   UNL A   1      37.631  31.803  29.917  1.00  0.00    -0.014 A 
BRANCH  39  40
ATOM     40  C   UNL A   1      38.805  31.012  30.280  1.00  0.00     0.031 A 
ATOM     41  C   UNL A   1      39.067  29.685  29.666  1.00  0.00     0.074 A 
ATOM     42  C   UNL A   1      39.842  31.654  30.884  1.00  0.00     0.049 A 
ATOM     43  N   UNL A   1      40.041  28.921  30.038  1.00  0.00    -0.248 NA
ATOM     44  C   UNL A   1      38.258  29.083  28.605  1.00  0.00     0.031 C 
ATOM     45  C   UNL A   1      41.262  31.327  30.715  1.00  0.00     0.029 A 
ATOM     46  N   UNL A   1      39.893  32.771  31.724  1.00  0.00    -0.354 N 
ATOM     47  C   UNL A   1      40.214  27.987  29.047  1.00  0.00     0.074 A 
ATOM     48  C   UNL A   1      38.976  27.991  28.312  1.00  0.00     0.031 C 
ATOM     49  C   UNL A   1      41.996  32.061  31.559  1.00  0.00     0.029 A 
ATOM     50  C   UNL A   1      41.074  32.690  32.476  1.00  0.00     0.049 A 
ATOM     51  H   UNL A   1      39.219  33.487  31.778  1.00  0.00     0.167 HD
ATOM     52  C   UNL A   1      41.449  27.448  28.846  1.00  0.00     0.034 A 
ATOM     53  C   UNL A   1      41.169  32.646  33.840  1.00  0.00     0.034 A 
ATOM     54  C   UNL A   1      42.411  27.864  29.885  1.00  0.00     0.049 A 
ATOM     55  C   UNL A   1      41.923  31.423  34.335  1.00  0.00     0.074 A 
ATOM     56  C   UNL A   1      43.568  28.624  29.875  1.00  0.00     0.029 A 
ATOM     57  N   UNL A   1      42.105  27.657  31.229  1.00  0.00    -0.354 N 
ATOM     58  N   UNL A   1      42.585  30.606  33.562  1.00  0.00    -0.248 NA
ATOM     59  C   UNL A   1      41.924  30.965  35.726  1.00  0.00     0.031 C 
ATOM     60  C   UNL A   1      43.906  28.934  31.228  1.00  0.00     0.029 A 
ATOM     61  C   UNL A   1      42.994  28.315  32.069  1.00  0.00     0.049 A 
ATOM     62  H   UNL A   1      41.348  27.111  31.545  1.00  0.00     0.167 HD
ATOM     63  C   UNL A   1      42.715  29.406  34.208  1.00  0.00     0.074 A 
ATOM     64  C   UNL A   1      42.488  29.751  35.600  1.00  0.00     0.031 C 
ATOM     65  C   UNL A   1      42.827  28.220  33.526  1.00  0.00     0.034 A 
BRANCH  52  66
ATOM     66  C   UNL A   1      41.857  26.635  27.627  1.00  0.00     0.023 A 
ATOM     67  C   UNL A   1      42.364  27.348  26.520  1.00  0.00     0.012 A 
ATOM     68  C   UNL A   1      41.739  25.230  27.460  1.00  0.00     0.148 A 
ATOM     69  C   UNL A   1      42.758  26.712  25.335  1.00  0.00     0.002 A 
ATOM     70  C   UNL A   1      42.223  24.586  26.316  1.00  0.00     0.091 A 
ATOM     71  F   UNL A   1      41.059  24.504  28.354  1.00  0.00    -0.205 F 
ATOM     72  C   UNL A   1      42.719  25.328  25.243  1.00  0.00     0.022 A 
BRANCH  70  73
ATOM     73  S   UNL A   1      42.293  22.789  26.168  1.00  0.00     0.127 S 
ATOM     74  O   UNL A   1      40.879  22.418  26.186  1.00  0.00    -0.237 OA
ATOM     75  O   UNL A   1      42.951  22.605  24.873  1.00  0.00    -0.237 OA
ATOM     76  O   UNL A   1      43.073  22.318  27.307  1.00  0.00    -0.744 OA
ENDBRANCH  70  73
ENDBRANCH  52  66
BRANCH  53  77
ATOM     77  C   UNL A   1      40.003  33.282  34.510  1.00  0.00     0.023 A 
ATOM     78  C   UNL A   1      38.853  32.471  34.626  1.00  0.00     0.012 A 
ATOM     79  C   UNL A   1      40.216  34.311  35.442  1.00  0.00     0.148 A 
ATOM     80  C   UNL A   1      38.074  32.528  35.779  1.00  0.00     0.002 A 
ATOM     81  C   UNL A   1      39.432  34.357  36.590  1.00  0.00     0.091 A 
ATOM     82  F   UNL A   1      41.247  35.145  35.256  1.00  0.00    -0.205 F 
ATOM     83  C   UNL A   1      38.401  33.428  36.787  1.00  0.00     0.022 A 
BRANCH  81  84
ATOM     84  S   UNL A   1      39.844  35.478  37.931  1.00  0.00     0.127 S 
ATOM     85  O   UNL A   1      39.747  36.776  37.276  1.00  0.00    -0.237 OA
ATOM     86  O   UNL A   1      38.792  35.203  38.911  1.00  0.00    -0.237 OA
ATOM     87  O   UNL A   1      41.172  35.057  38.352  1.00  0.00    -0.744 OA
ENDBRANCH  81  84
ENDBRANCH  53  77
BRANCH  65  88
ATOM     88  C   UNL A   1      42.720  26.845  34.175  1.00  0.00     0.023 A 
ATOM     89  C   UNL A   1      41.582  26.427  34.893  1.00  0.00     0.012 A 
ATOM     90  C   UNL A   1      43.738  25.873  33.994  1.00  0.00     0.148 A 
ATOM     91  C   UNL A   1      41.504  25.172  35.507  1.00  0.00     0.002 A 
ATOM     92  C   UNL A   1      43.596  24.580  34.491  1.00  0.00     0.091 A 
ATOM     93  F   UNL A   1      44.871  26.203  33.360  1.00  0.00    -0.205 F 
ATOM     94  C   UNL A   1      42.507  24.241  35.295  1.00  0.00     0.022 A 
BRANCH  92  95
ATOM     95  S   UNL A   1      44.717  23.261  34.007  1.00  0.00     0.127 S 
ATOM     96  O   UNL A   1      44.414  23.117  32.584  1.00  0.00    -0.237 OA
ATOM     97  O   UNL A   1      46.029  23.845  34.294  1.00  0.00    -0.237 OA
ATOM     98  O   UNL A   1      44.369  22.129  34.855  1.00  0.00    -0.744 OA
ENDBRANCH  92  95
ENDBRANCH  65  88
ENDBRANCH  39  40
ENDBRANCH  32  34
ENDBRANCH  31  32
ENDBRANCH  30  31
ENDBRANCH   1  30
TORSDOF 18
ENDMDL
MODEL 2
REMARK VINA RESULT:     -13.6      2.705      5.364
REMARK SMILES Cc1ccccc1[C@H]1[NH2+][C@@H](C(=O)OCCOCCOC(=O)c2ccc(-c3c4nc(c(-c5cccc(S(=O)(=O)[O-])c5F)c5ccc([nH]5)c(-c5cccc(S(=O)(=O)[O-])c5F)c5nc(c(-c6cccc(S(=O)(=O)[O-])c6F)c6ccc3[nH]6)C=C5)C=C4)cc2)CC2=c3ccccc3=N[C@@H]21
REMARK SMILES IDX 17 1 16 2 15 3 14 4 13 5 11 6 12 7 10 8 8 9 9 10 94 11 86 14
REMARK SMILES IDX 93 15 85 16 87 17 92 18 88 19 91 20 89 21 90 22 7 23 1 24
REMARK SMILES IDX 2 25 3 26 4 27 6 28 5 29 18 30 19 31 20 32 21 33 22 34 23 35
REMARK SMILES IDX 84 36 24 37 83 38 25 39 26 40 27 41 77 42 28 43 82 44 76 45
REMARK SMILES IDX 78 46 29 47 81 48 75 49 74 50 30 52 62 53 42 54 61 55 43 56
REMARK SMILES IDX 46 57 60 58 79 59 44 60 45 61 59 63 80 64 47 65 31 66 32 67
REMARK SMILES IDX 40 68 33 69 35 70 41 71 34 72 36 73 37 74 38 75 39 76 63 77
REMARK SMILES IDX 64 78 72 79 65 80 67 81 73 82 66 83 68 84 69 85 70 86 71 87
REMARK SMILES IDX 48 88 49 89 57 90 50 91 52 92 58 93 51 94 53 95 54 96 55 97
REMARK SMILES IDX 56 98
REMARK H PARENT 9 12 9 13 78 51 46 62
REMARK Flexibility Score: inf
ROOT
ATOM      1  C   UNL A   1      34.339  35.063  28.518  1.00  0.00     0.202 C 
ENDROOT
BRANCH   1   2
ATOM      2  O   UNL A   1      34.554  33.908  27.639  1.00  0.00    -0.374 OA
BRANCH   2   3
ATOM      3  C   UNL A   1      33.942  32.741  28.112  1.00  0.00     0.202 C 
BRANCH   3   4
ATOM      4  C   UNL A   1      33.006  31.816  27.353  1.00  0.00     0.261 C 
BRANCH   4   5
ATOM      5  O   UNL A   1      33.659  30.748  26.680  1.00  0.00    -0.459 OA
BRANCH   5   6
ATOM      6  C   UNL A   1      33.184  29.497  26.736  1.00  0.00     0.365 C 
ATOM      7  O   UNL A   1      33.683  28.728  27.567  1.00  0.00    -0.245 OA
BRANCH   6   8
ATOM      8  C   UNL A   1      32.092  28.961  25.780  1.00  0.00     0.298 C 
ATOM      9  C   UNL A   1      31.672  26.597  24.732  1.00  0.00     0.243 C 
ATOM     10  N   UNL A   1      31.578  27.540  25.922  1.00  0.00    -0.326 N 
ATOM     11  C   UNL A   1      31.383  27.329  23.270  1.00  0.00     0.196 C 
ATOM     12  H   UNL A   1      32.099  27.110  26.686  1.00  0.00     0.347 HD
ATOM     13  H   UNL A   1      30.574  27.657  26.062  1.00  0.00     0.347 HD
ATOM     14  C   UNL A   1      31.521  28.827  23.452  1.00  0.00    -0.024 C 
ATOM     15  N   UNL A   1      29.940  27.194  22.837  1.00  0.00    -0.270 NA
ATOM     16  C   UNL A   1      32.576  29.317  24.361  1.00  0.00     0.111 C 
ATOM     17  C   UNL A   1      30.374  29.482  23.280  1.00  0.00     0.002 A 
ATOM     18  C   UNL A   1      29.463  28.402  22.903  1.00  0.00     0.066 A 
ATOM     19  C   UNL A   1      29.900  30.725  23.821  1.00  0.00     0.010 A 
ATOM     20  C   UNL A   1      28.043  28.801  22.759  1.00  0.00     0.028 A 
ATOM     21  C   UNL A   1      28.574  30.920  23.892  1.00  0.00     0.001 A 
ATOM     22  C   UNL A   1      27.650  29.976  23.287  1.00  0.00     0.002 A 
BRANCH   9  23
ATOM     23  C   UNL A   1      32.309  25.019  25.000  1.00  0.00     0.015 A 
ATOM     24  C   UNL A   1      35.292  23.891  24.200  1.00  0.00     0.045 C 
ATOM     25  C   UNL A   1      33.881  23.935  24.837  1.00  0.00    -0.042 A 
ATOM     26  C   UNL A   1      33.739  22.126  25.209  1.00  0.00     0.004 A 
ATOM     27  C   UNL A   1      32.206  21.413  25.690  1.00  0.00     0.000 A 
ATOM     28  C   UNL A   1      30.756  24.129  25.383  1.00  0.00     0.010 A 
ATOM     29  C   UNL A   1      30.727  22.375  25.712  1.00  0.00     0.001 A 
ENDBRANCH   9  23
ENDBRANCH   6   8
ENDBRANCH   5   6
ENDBRANCH   4   5
ENDBRANCH   3   4
ENDBRANCH   2   3
ENDBRANCH   1   2
BRANCH   1  30
ATOM     30  C   UNL A   1      34.005  35.168  30.173  1.00  0.00     0.261 C 
BRANCH  30  31
ATOM     31  O   UNL A   1      34.287  34.299  31.548  1.00  0.00    -0.460 OA
BRANCH  31  32
ATOM     32  C   UNL A   1      35.024  32.900  32.153  1.00  0.00     0.338 C 
ATOM     33  O   UNL A   1      34.684  33.056  33.367  1.00  0.00    -0.246 OA
BRANCH  32  34
ATOM     34  C   UNL A   1      36.101  31.455  31.007  1.00  0.00     0.060 A 
ATOM     35  C   UNL A   1      36.228  29.965  31.056  1.00  0.00     0.016 A 
ATOM     36  C   UNL A   1      37.092  31.682  29.853  1.00  0.00     0.016 A 
ATOM     37  C   UNL A   1      37.347  29.165  30.660  1.00  0.00     0.010 A 
ATOM     38  C   UNL A   1      38.249  30.957  29.530  1.00  0.00     0.010 A 
ATOM     39  C   UNL A   1      38.456  29.735  30.100  1.00  0.00    -0.014 A 
BRANCH  39  40
ATOM     40  C   UNL A   1      39.820  29.211  30.131  1.00  0.00     0.031 A 
ATOM     41  C   UNL A   1      40.131  27.831  29.676  1.00  0.00     0.074 A 
ATOM     42  C   UNL A   1      40.844  30.104  30.213  1.00  0.00     0.049 A 
ATOM     43  N   UNL A   1      41.308  27.308  29.783  1.00  0.00    -0.248 NA
ATOM     44  C   UNL A   1      39.160  26.909  29.085  1.00  0.00     0.031 C 
ATOM     45  C   UNL A   1      42.164  29.948  29.595  1.00  0.00     0.029 A 
ATOM     46  N   UNL A   1      40.938  31.373  30.796  1.00  0.00    -0.354 N 
ATOM     47  C   UNL A   1      41.334  26.214  28.952  1.00  0.00     0.074 A 
ATOM     48  C   UNL A   1      39.950  25.889  28.724  1.00  0.00     0.031 C 
ATOM     49  C   UNL A   1      42.968  30.940  29.992  1.00  0.00     0.029 A 
ATOM     50  C   UNL A   1      42.291  31.619  31.073  1.00  0.00     0.049 A 
ATOM     51  H   UNL A   1      40.187  31.984  30.979  1.00  0.00     0.167 HD
ATOM     52  C   UNL A   1      42.516  25.821  28.404  1.00  0.00     0.034 A 
ATOM     53  C   UNL A   1      42.835  31.883  32.299  1.00  0.00     0.034 A 
ATOM     54  C   UNL A   1      43.660  26.579  28.947  1.00  0.00     0.049 A 
ATOM     55  C   UNL A   1      43.943  30.912  32.670  1.00  0.00     0.074 A 
ATOM     56  C   UNL A   1      44.568  27.471  28.403  1.00  0.00     0.029 A 
ATOM     57  N   UNL A   1      43.861  26.626  30.326  1.00  0.00    -0.354 N 
ATOM     58  N   UNL A   1      44.467  30.046  31.845  1.00  0.00    -0.248 NA
ATOM     59  C   UNL A   1      44.495  30.769  34.019  1.00  0.00     0.031 C 
ATOM     60  C   UNL A   1      45.260  28.109  29.478  1.00  0.00     0.029 A 
ATOM     61  C   UNL A   1      44.822  27.566  30.675  1.00  0.00     0.049 A 
ATOM     62  H   UNL A   1      43.379  26.062  30.974  1.00  0.00     0.167 HD
ATOM     63  C   UNL A   1      45.044  29.044  32.575  1.00  0.00     0.074 A 
ATOM     64  C   UNL A   1      45.221  29.646  33.885  1.00  0.00     0.031 C 
ATOM     65  C   UNL A   1      45.166  27.766  32.090  1.00  0.00     0.034 A 
BRANCH  52  66
ATOM     66  C   UNL A   1      42.658  24.828  27.260  1.00  0.00     0.023 A 
ATOM     67  C   UNL A   1      43.249  25.301  26.069  1.00  0.00     0.012 A 
ATOM     68  C   UNL A   1      42.215  23.479  27.241  1.00  0.00     0.148 A 
ATOM     69  C   UNL A   1      43.420  24.485  24.942  1.00  0.00     0.002 A 
ATOM     70  C   UNL A   1      42.474  22.639  26.152  1.00  0.00     0.091 A 
ATOM     71  F   UNL A   1      41.441  23.014  28.227  1.00  0.00    -0.205 F 
ATOM     72  C   UNL A   1      43.063  23.146  24.992  1.00  0.00     0.022 A 
BRANCH  70  73
ATOM     73  S   UNL A   1      42.125  20.869  26.185  1.00  0.00     0.127 S 
ATOM     74  O   UNL A   1      42.517  20.498  27.544  1.00  0.00    -0.237 OA
ATOM     75  O   UNL A   1      40.683  20.828  25.938  1.00  0.00    -0.237 OA
ATOM     76  O   UNL A   1      42.930  20.277  25.123  1.00  0.00    -0.744 OA
ENDBRANCH  70  73
ENDBRANCH  52  66
BRANCH  53  77
ATOM     77  C   UNL A   1      41.849  32.482  33.239  1.00  0.00     0.023 A 
ATOM     78  C   UNL A   1      41.410  33.782  32.911  1.00  0.00     0.012 A 
ATOM     79  C   UNL A   1      41.012  31.641  33.992  1.00  0.00     0.148 A 
ATOM     80  C   UNL A   1      40.079  34.139  33.115  1.00  0.00     0.002 A 
ATOM     81  C   UNL A   1      39.685  32.009  34.188  1.00  0.00     0.091 A 
ATOM     82  F   UNL A   1      41.484  30.454  34.394  1.00  0.00    -0.205 F 
ATOM     83  C   UNL A   1      39.204  33.230  33.698  1.00  0.00     0.022 A 
BRANCH  81  84
ATOM     84  S   UNL A   1      38.513  30.849  34.901  1.00  0.00     0.127 S 
ATOM     85  O   UNL A   1      37.352  31.700  35.129  1.00  0.00    -0.237 OA
ATOM     86  O   UNL A   1      38.353  29.862  33.832  1.00  0.00    -0.237 OA
ATOM     87  O   UNL A   1      39.192  30.340  36.084  1.00  0.00    -0.744 OA
ENDBRANCH  81  84
ENDBRANCH  53  77
BRANCH  65  88
ATOM     88  C   UNL A   1      45.562  26.561  32.937  1.00  0.00     0.023 A 
ATOM     89  C   UNL A   1      46.895  26.121  33.062  1.00  0.00     0.012 A 
ATOM     90  C   UNL A   1      44.601  25.880  33.730  1.00  0.00     0.148 A 
ATOM     91  C   UNL A   1      47.244  24.999  33.821  1.00  0.00     0.002 A 
ATOM     92  C   UNL A   1      44.974  24.850  34.589  1.00  0.00     0.091 A 
ATOM     93  F   UNL A   1      43.305  26.209  33.636  1.00  0.00    -0.205 F 
ATOM     94  C   UNL A   1      46.284  24.370  34.597  1.00  0.00     0.022 A 
BRANCH  92  95
ATOM     95  S   UNL A   1      43.839  24.197  35.819  1.00  0.00     0.127 S 
ATOM     96  O   UNL A   1      42.807  23.588  34.983  1.00  0.00    -0.237 OA
ATOM     97  O   UNL A   1      44.681  23.241  36.543  1.00  0.00    -0.237 OA
ATOM     98  O   UNL A   1      43.427  25.348  36.612  1.00  0.00    -0.744 OA
ENDBRANCH  92  95
ENDBRANCH  65  88
ENDBRANCH  39  40
ENDBRANCH  32  34
ENDBRANCH  31  32
ENDBRANCH  30  31
ENDBRANCH   1  30
TORSDOF 18
ENDMDL
MODEL 3
REMARK VINA RESULT:     -13.3      4.307      9.584
REMARK SMILES Cc1ccccc1[C@H]1[NH2+][C@@H](C(=O)OCCOCCOC(=O)c2ccc(-c3c4nc(c(-c5cccc(S(=O)(=O)[O-])c5F)c5ccc([nH]5)c(-c5cccc(S(=O)(=O)[O-])c5F)c5nc(c(-c6cccc(S(=O)(=O)[O-])c6F)c6ccc3[nH]6)C=C5)C=C4)cc2)CC2=c3ccccc3=N[C@@H]21
REMARK SMILES IDX 17 1 16 2 15 3 14 4 13 5 11 6 12 7 10 8 8 9 9 10 94 11 86 14
REMARK SMILES IDX 93 15 85 16 87 17 92 18 88 19 91 20 89 21 90 22 7 23 1 24
REMARK SMILES IDX 2 25 3 26 4 27 6 28 5 29 18 30 19 31 20 32 21 33 22 34 23 35
REMARK SMILES IDX 84 36 24 37 83 38 25 39 26 40 27 41 77 42 28 43 82 44 76 45
REMARK SMILES IDX 78 46 29 47 81 48 75 49 74 50 30 52 62 53 42 54 61 55 43 56
REMARK SMILES IDX 46 57 60 58 79 59 44 60 45 61 59 63 80 64 47 65 31 66 32 67
REMARK SMILES IDX 40 68 33 69 35 70 41 71 34 72 36 73 37 74 38 75 39 76 63 77
REMARK SMILES IDX 64 78 72 79 65 80 67 81 73 82 66 83 68 84 69 85 70 86 71 87
REMARK SMILES IDX 48 88 49 89 57 90 50 91 52 92 58 93 51 94 53 95 54 96 55 97
REMARK SMILES IDX 56 98
REMARK H PARENT 9 12 9 13 78 51 46 62
REMARK Flexibility Score: inf
ROOT
ATOM      1  C   UNL A   1      35.792  22.929  24.184  1.00  0.00     0.202 C 
ENDROOT
BRANCH   1   2
ATOM      2  O   UNL A   1      35.419  23.359  22.832  1.00  0.00    -0.374 OA
BRANCH   2   3
ATOM      3  C   UNL A   1      34.151  22.908  22.447  1.00  0.00     0.202 C 
BRANCH   3   4
ATOM      4  C   UNL A   1      33.237  23.508  21.393  1.00  0.00     0.261 C 
BRANCH   4   5
ATOM      5  O   UNL A   1      33.521  24.864  21.076  1.00  0.00    -0.459 OA
BRANCH   5   6
ATOM      6  C   UNL A   1      33.202  25.856  21.917  1.00  0.00     0.365 C 
ATOM      7  O   UNL A   1      33.722  26.962  21.727  1.00  0.00    -0.245 OA
BRANCH   6   8
ATOM      8  C   UNL A   1      32.265  25.668  23.134  1.00  0.00     0.298 C 
ATOM      9  C   UNL A   1      30.708  27.328  24.432  1.00  0.00     0.243 C 
ATOM     10  N   UNL A   1      30.960  26.439  23.224  1.00  0.00    -0.326 N 
ATOM     11  C   UNL A   1      31.278  26.700  25.860  1.00  0.00     0.196 C 
ATOM     12  H   UNL A   1      30.909  27.035  22.398  1.00  0.00     0.347 HD
ATOM     13  H   UNL A   1      30.252  25.709  23.306  1.00  0.00     0.347 HD
ATOM     14  C   UNL A   1      32.278  25.608  25.533  1.00  0.00    -0.024 C 
ATOM     15  N   UNL A   1      30.212  25.938  26.617  1.00  0.00    -0.270 NA
ATOM     16  C   UNL A   1      33.168  25.812  24.375  1.00  0.00     0.111 C 
ATOM     17  C   UNL A   1      31.869  24.397  25.908  1.00  0.00     0.002 A 
ATOM     18  C   UNL A   1      30.597  24.697  26.566  1.00  0.00     0.066 A 
ATOM     19  C   UNL A   1      32.170  23.091  25.393  1.00  0.00     0.010 A 
ATOM     20  C   UNL A   1      29.818  23.512  26.995  1.00  0.00     0.028 A 
ATOM     21  C   UNL A   1      31.285  22.105  25.608  1.00  0.00     0.001 A 
ATOM     22  C   UNL A   1      30.140  22.310  26.479  1.00  0.00     0.002 A 
BRANCH   9  23
ATOM     23  C   UNL A   1      30.137  28.929  24.152  1.00  0.00     0.015 A 
ATOM     24  C   UNL A   1      30.993  31.677  25.742  1.00  0.00     0.045 C 
ATOM     25  C   UNL A   1      30.347  30.761  24.672  1.00  0.00    -0.042 A 
ATOM     26  C   UNL A   1      29.157  32.006  23.990  1.00  0.00     0.004 A 
ATOM     27  C   UNL A   1      27.862  31.527  22.903  1.00  0.00     0.000 A 
ATOM     28  C   UNL A   1      28.673  28.549  23.120  1.00  0.00     0.010 A 
ATOM     29  C   UNL A   1      27.578  29.827  22.526  1.00  0.00     0.001 A 
ENDBRANCH   9  23
ENDBRANCH   6   8
ENDBRANCH   5   6
ENDBRANCH   4   5
ENDBRANCH   3   4
ENDBRANCH   2   3
ENDBRANCH   1   2
BRANCH   1  30
ATOM     30  C   UNL A   1      37.294  22.830  24.957  1.00  0.00     0.261 C 
BRANCH  30  31
ATOM     31  O   UNL A   1      38.187  21.715  25.785  1.00  0.00    -0.460 OA
BRANCH  31  32
ATOM     32  C   UNL A   1      39.767  21.254  26.184  1.00  0.00     0.338 C 
ATOM     33  O   UNL A   1      39.674  20.042  25.813  1.00  0.00    -0.246 OA
BRANCH  32  34
ATOM     34  C   UNL A   1      41.274  22.524  27.006  1.00  0.00     0.060 A 
ATOM     35  C   UNL A   1      41.777  22.788  28.390  1.00  0.00     0.016 A 
ATOM     36  C   UNL A   1      42.166  23.551  26.291  1.00  0.00     0.016 A 
ATOM     37  C   UNL A   1      42.347  23.997  28.902  1.00  0.00     0.010 A 
ATOM     38  C   UNL A   1      42.636  24.787  26.758  1.00  0.00     0.010 A 
ATOM     39  C   UNL A   1      42.552  25.077  28.089  1.00  0.00    -0.014 A 
BRANCH  39  40
ATOM     40  C   UNL A   1      42.602  26.480  28.494  1.00  0.00     0.031 A 
ATOM     41  C   UNL A   1      41.404  27.355  28.410  1.00  0.00     0.074 A 
ATOM     42  C   UNL A   1      43.628  26.876  29.296  1.00  0.00     0.049 A 
ATOM     43  N   UNL A   1      41.442  28.621  28.668  1.00  0.00    -0.248 NA
ATOM     44  C   UNL A   1      40.069  26.905  28.013  1.00  0.00     0.031 C 
ATOM     45  C   UNL A   1      43.550  27.906  30.336  1.00  0.00     0.029 A 
ATOM     46  N   UNL A   1      44.945  26.421  29.427  1.00  0.00    -0.354 N 
ATOM     47  C   UNL A   1      40.144  29.028  28.858  1.00  0.00     0.074 A 
ATOM     48  C   UNL A   1      39.341  28.007  28.238  1.00  0.00     0.031 C 
ATOM     49  C   UNL A   1      44.771  28.139  30.832  1.00  0.00     0.029 A 
ATOM     50  C   UNL A   1      45.710  27.468  29.963  1.00  0.00     0.049 A 
ATOM     51  H   UNL A   1      45.276  25.525  29.187  1.00  0.00     0.167 HD
ATOM     52  C   UNL A   1      39.890  30.084  29.678  1.00  0.00     0.034 A 
ATOM     53  C   UNL A   1      46.805  28.052  29.388  1.00  0.00     0.034 A 
ATOM     54  C   UNL A   1      41.128  30.751  30.125  1.00  0.00     0.049 A 
ATOM     55  C   UNL A   1      46.647  29.554  29.220  1.00  0.00     0.074 A 
ATOM     56  C   UNL A   1      41.744  30.912  31.354  1.00  0.00     0.029 A 
ATOM     57  N   UNL A   1      42.048  31.200  29.177  1.00  0.00    -0.354 N 
ATOM     58  N   UNL A   1      45.675  30.253  29.740  1.00  0.00    -0.248 NA
ATOM     59  C   UNL A   1      47.516  30.384  28.383  1.00  0.00     0.031 C 
ATOM     60  C   UNL A   1      43.071  31.389  31.125  1.00  0.00     0.029 A 
ATOM     61  C   UNL A   1      43.249  31.579  29.763  1.00  0.00     0.049 A 
ATOM     62  H   UNL A   1      41.867  31.242  28.210  1.00  0.00     0.167 HD
ATOM     63  C   UNL A   1      45.546  31.415  29.028  1.00  0.00     0.074 A 
ATOM     64  C   UNL A   1      46.828  31.538  28.357  1.00  0.00     0.031 C 
ATOM     65  C   UNL A   1      44.347  32.074  28.921  1.00  0.00     0.034 A 
BRANCH  52  66
ATOM     66  C   UNL A   1      38.516  30.464  30.208  1.00  0.00     0.023 A 
ATOM     67  C   UNL A   1      38.220  30.108  31.542  1.00  0.00     0.012 A 
ATOM     68  C   UNL A   1      37.470  31.101  29.489  1.00  0.00     0.148 A 
ATOM     69  C   UNL A   1      36.983  30.390  32.137  1.00  0.00     0.002 A 
ATOM     70  C   UNL A   1      36.272  31.469  30.113  1.00  0.00     0.091 A 
ATOM     71  F   UNL A   1      37.569  31.264  28.166  1.00  0.00    -0.205 F 
ATOM     72  C   UNL A   1      36.019  31.099  31.434  1.00  0.00     0.022 A 
BRANCH  70  73
ATOM     73  S   UNL A   1      35.018  32.474  29.292  1.00  0.00     0.127 S 
ATOM     74  O   UNL A   1      34.338  31.496  28.444  1.00  0.00    -0.237 OA
ATOM     75  O   UNL A   1      34.218  32.961  30.418  1.00  0.00    -0.237 OA
ATOM     76  O   UNL A   1      35.740  33.520  28.576  1.00  0.00    -0.744 OA
ENDBRANCH  70  73
ENDBRANCH  52  66
BRANCH  53  77
ATOM     77  C   UNL A   1      47.505  27.138  28.447  1.00  0.00     0.023 A 
ATOM     78  C   UNL A   1      48.202  26.067  29.046  1.00  0.00     0.012 A 
ATOM     79  C   UNL A   1      47.028  27.000  27.132  1.00  0.00     0.148 A 
ATOM     80  C   UNL A   1      48.204  24.812  28.441  1.00  0.00     0.002 A 
ATOM     81  C   UNL A   1      47.034  25.741  26.540  1.00  0.00     0.091 A 
ATOM     82  F   UNL A   1      46.470  28.060  26.534  1.00  0.00    -0.205 F 
ATOM     83  C   UNL A   1      47.567  24.637  27.218  1.00  0.00     0.022 A 
BRANCH  81  84
ATOM     84  S   UNL A   1      46.189  25.464  24.980  1.00  0.00     0.127 S 
ATOM     85  O   UNL A   1      46.006  24.018  24.991  1.00  0.00    -0.237 OA
ATOM     86  O   UNL A   1      44.960  26.241  25.141  1.00  0.00    -0.237 OA
ATOM     87  O   UNL A   1      47.103  25.998  23.980  1.00  0.00    -0.744 OA
ENDBRANCH  81  84
ENDBRANCH  53  77
BRANCH  65  88
ATOM     88  C   UNL A   1      44.081  33.217  27.947  1.00  0.00     0.023 A 
ATOM     89  C   UNL A   1      44.142  33.057  26.548  1.00  0.00     0.012 A 
ATOM     90  C   UNL A   1      43.655  34.487  28.415  1.00  0.00     0.148 A 
ATOM     91  C   UNL A   1      43.922  34.120  25.665  1.00  0.00     0.002 A 
ATOM     92  C   UNL A   1      43.305  35.502  27.528  1.00  0.00     0.091 A 
ATOM     93  F   UNL A   1      43.611  34.734  29.731  1.00  0.00    -0.205 F 
ATOM     94  C   UNL A   1      43.489  35.341  26.154  1.00  0.00     0.022 A 
BRANCH  92  95
ATOM     95  S   UNL A   1      42.470  36.991  28.088  1.00  0.00     0.127 S 
ATOM     96  O   UNL A   1      43.494  37.613  28.926  1.00  0.00    -0.237 OA
ATOM     97  O   UNL A   1      42.205  37.692  26.829  1.00  0.00    -0.237 OA
ATOM     98  O   UNL A   1      41.273  36.527  28.776  1.00  0.00    -0.744 OA
ENDBRANCH  92  95
ENDBRANCH  65  88
ENDBRANCH  39  40
ENDBRANCH  32  34
ENDBRANCH  31  32
ENDBRANCH  30  31
ENDBRANCH   1  30
TORSDOF 18
ENDMDL
