MODEL 1
REMARK VINA RESULT:     -10.8      0.000      0.000
REMARK SMILES Cc1cc(CNC(=O)C[C@H](C)CC(=O)OCCOCCOC(=O)c2ccc(-c3c4nc(c(-c5cccc(S(=O)(=O)[O-])c5F)c5ccc([nH]5)c(-c5cccc(S(=O)(=O)[O-])c5F)c5nc(c(-c6cccc(S(=O)(=O)[O-])c6F)c6ccc3[nH]6)C=C5)C=C4)cc2)cc(C)c1F
REMARK SMILES IDX 17 1 16 2 15 3 13 4 14 5 12 6 10 7 11 8 9 9 7 10 6 11 8 13
REMARK SMILES IDX 5 14 4 15 1 16 2 17 3 18 90 19 88 20 91 21 87 22 89 23 18 24
REMARK SMILES IDX 19 25 20 26 21 27 22 28 23 29 24 30 25 31 86 32 26 33 85 34
REMARK SMILES IDX 27 35 28 36 29 37 79 38 30 39 84 40 78 41 80 42 31 43 83 44
REMARK SMILES IDX 77 45 76 46 32 48 64 49 44 50 63 51 45 52 48 53 62 54 81 55
REMARK SMILES IDX 46 56 47 57 61 59 82 60 49 61 33 62 34 63 42 64 35 65 37 66
REMARK SMILES IDX 43 67 36 68 38 69 39 70 40 71 41 72 65 73 66 74 74 75 67 76
REMARK SMILES IDX 69 77 75 78 68 79 70 80 71 81 72 82 73 83 50 84 51 85 59 86
REMARK SMILES IDX 52 87 54 88 60 89 53 90 55 91 56 92 57 93 58 94
REMARK H PARENT 6 12 80 47 48 58
REMARK Flexibility Score: inf
ROOT
ATOM      1  C   UNL A   1      36.962  22.504  24.960  1.00  0.00     0.202 C 
ENDROOT
BRANCH   1   2
ATOM      2  C   UNL A   1      36.437  23.717  25.739  1.00  0.00     0.261 C 
BRANCH   2   3
ATOM      3  O   UNL A   1      34.999  23.815  25.684  1.00  0.00    -0.463 OA
BRANCH   3   4
ATOM      4  C   UNL A   1      34.306  22.914  26.425  1.00  0.00     0.306 C 
ATOM      5  O   UNL A   1      34.525  22.644  27.600  1.00  0.00    -0.252 OA
BRANCH   4   6
ATOM      6  C   UNL A   1      33.224  22.227  25.618  1.00  0.00     0.126 C 
BRANCH   6   7
ATOM      7  C   UNL A   1      32.262  23.157  24.849  1.00  0.00     0.006 C 
ATOM      8  C   UNL A   1      32.436  22.973  23.330  1.00  0.00     0.009 C 
BRANCH   7   9
ATOM      9  C   UNL A   1      30.793  22.886  25.239  1.00  0.00     0.104 C 
BRANCH   9  10
ATOM     10  C   UNL A   1      30.376  23.565  26.535  1.00  0.00     0.220 C 
ATOM     11  N   UNL A   1      30.000  24.871  26.551  1.00  0.00    -0.352 N 
ATOM     12  H   UNL A   1      29.817  25.234  27.448  1.00  0.00     0.163 HD
ATOM     13  O   UNL A   1      30.380  22.954  27.605  1.00  0.00    -0.275 OA
BRANCH  11  14
ATOM     14  C   UNL A   1      29.822  25.820  25.470  1.00  0.00     0.151 C 
BRANCH  14  15
ATOM     15  C   UNL A   1      31.089  26.562  25.098  1.00  0.00    -0.028 A 
ATOM     16  C   UNL A   1      33.383  27.238  22.114  1.00  0.00     0.047 C 
ATOM     17  C   UNL A   1      32.794  27.268  23.491  1.00  0.00    -0.015 A 
ATOM     18  C   UNL A   1      31.592  26.604  23.788  1.00  0.00     0.012 A 
ATOM     19  C   UNL A   1      33.490  27.899  24.522  1.00  0.00     0.129 A 
ATOM     20  C   UNL A   1      33.013  27.890  25.833  1.00  0.00    -0.015 A 
ATOM     21  F   UNL A   1      34.642  28.527  24.241  1.00  0.00    -0.206 F 
ATOM     22  C   UNL A   1      31.816  27.214  26.113  1.00  0.00     0.012 A 
ATOM     23  C   UNL A   1      33.761  28.597  26.921  1.00  0.00     0.047 C 
ENDBRANCH  14  15
ENDBRANCH  11  14
ENDBRANCH   9  10
ENDBRANCH   7   9
ENDBRANCH   6   7
ENDBRANCH   4   6
ENDBRANCH   3   4
ENDBRANCH   2   3
ENDBRANCH   1   2
BRANCH   1  24
ATOM     24  O   UNL A   1      37.488  21.437  25.750  1.00  0.00    -0.374 OA
BRANCH  24  25
ATOM     25  C   UNL A   1      37.706  20.230  25.023  1.00  0.00     0.202 C 
BRANCH  25  26
ATOM     26  C   UNL A   1      39.070  19.579  25.250  1.00  0.00     0.261 C 
BRANCH  26  27
ATOM     27  O   UNL A   1      39.579  20.035  26.511  1.00  0.00    -0.460 OA
BRANCH  27  28
ATOM     28  C   UNL A   1      40.886  20.376  26.489  1.00  0.00     0.338 C 
ATOM     29  O   UNL A   1      41.793  19.785  25.927  1.00  0.00    -0.246 OA
BRANCH  28  30
ATOM     30  C   UNL A   1      41.012  21.741  27.032  1.00  0.00     0.060 A 
ATOM     31  C   UNL A   1      40.330  22.756  26.348  1.00  0.00     0.016 A 
ATOM     32  C   UNL A   1      41.738  22.023  28.194  1.00  0.00     0.016 A 
ATOM     33  C   UNL A   1      40.406  24.067  26.793  1.00  0.00     0.010 A 
ATOM     34  C   UNL A   1      41.847  23.344  28.621  1.00  0.00     0.010 A 
ATOM     35  C   UNL A   1      41.219  24.367  27.891  1.00  0.00    -0.014 A 
BRANCH  35  36
ATOM     36  C   UNL A   1      41.640  25.766  28.080  1.00  0.00     0.031 A 
ATOM     37  C   UNL A   1      42.988  26.156  27.547  1.00  0.00     0.074 A 
ATOM     38  C   UNL A   1      40.843  26.661  28.681  1.00  0.00     0.049 A 
ATOM     39  N   UNL A   1      43.592  27.310  27.594  1.00  0.00    -0.248 NA
ATOM     40  C   UNL A   1      43.758  25.098  26.863  1.00  0.00     0.031 C 
ATOM     41  C   UNL A   1      39.506  26.388  29.203  1.00  0.00     0.029 A 
ATOM     42  N   UNL A   1      41.061  27.982  28.967  1.00  0.00    -0.354 N 
ATOM     43  C   UNL A   1      44.818  27.113  26.974  1.00  0.00     0.074 A 
ATOM     44  C   UNL A   1      44.876  25.733  26.552  1.00  0.00     0.031 C 
ATOM     45  C   UNL A   1      39.031  27.508  29.777  1.00  0.00     0.029 A 
ATOM     46  C   UNL A   1      40.039  28.562  29.677  1.00  0.00     0.049 A 
ATOM     47  H   UNL A   1      41.870  28.469  28.689  1.00  0.00     0.167 HD
ATOM     48  C   UNL A   1      45.809  28.008  26.770  1.00  0.00     0.034 A 
ATOM     49  C   UNL A   1      39.947  29.797  30.205  1.00  0.00     0.034 A 
ATOM     50  C   UNL A   1      45.740  29.379  27.184  1.00  0.00     0.049 A 
ATOM     51  C   UNL A   1      41.079  30.767  30.006  1.00  0.00     0.074 A 
ATOM     52  C   UNL A   1      46.668  30.382  26.983  1.00  0.00     0.029 A 
ATOM     53  N   UNL A   1      44.692  29.930  27.903  1.00  0.00    -0.354 N 
ATOM     54  N   UNL A   1      42.194  30.600  29.334  1.00  0.00    -0.248 NA
ATOM     55  C   UNL A   1      40.938  32.095  30.618  1.00  0.00     0.031 C 
ATOM     56  C   UNL A   1      46.191  31.539  27.607  1.00  0.00     0.029 A 
ATOM     57  C   UNL A   1      44.958  31.257  28.178  1.00  0.00     0.049 A 
ATOM     58  H   UNL A   1      43.879  29.447  28.177  1.00  0.00     0.167 HD
ATOM     59  C   UNL A   1      42.885  31.802  29.436  1.00  0.00     0.074 A 
ATOM     60  C   UNL A   1      42.053  32.694  30.218  1.00  0.00     0.031 C 
ATOM     61  C   UNL A   1      44.104  32.132  28.940  1.00  0.00     0.034 A 
BRANCH  48  62
ATOM     62  C   UNL A   1      47.042  27.526  26.066  1.00  0.00     0.023 A 
ATOM     63  C   UNL A   1      48.027  26.823  26.785  1.00  0.00     0.012 A 
ATOM     64  C   UNL A   1      47.206  27.739  24.684  1.00  0.00     0.148 A 
ATOM     65  C   UNL A   1      49.168  26.347  26.140  1.00  0.00     0.002 A 
ATOM     66  C   UNL A   1      48.329  27.235  24.042  1.00  0.00     0.091 A 
ATOM     67  F   UNL A   1      46.269  28.441  24.031  1.00  0.00    -0.205 F 
ATOM     68  C   UNL A   1      49.312  26.543  24.769  1.00  0.00     0.022 A 
BRANCH  66  69
ATOM     69  S   UNL A   1      48.589  27.395  22.273  1.00  0.00     0.127 S 
ATOM     70  O   UNL A   1      49.854  28.126  22.226  1.00  0.00    -0.237 OA
ATOM     71  O   UNL A   1      48.674  25.997  21.850  1.00  0.00    -0.237 OA
ATOM     72  O   UNL A   1      47.434  28.119  21.759  1.00  0.00    -0.744 OA
ENDBRANCH  66  69
ENDBRANCH  48  62
BRANCH  49  73
ATOM     73  C   UNL A   1      38.714  30.168  30.947  1.00  0.00     0.023 A 
ATOM     74  C   UNL A   1      38.605  29.842  32.311  1.00  0.00     0.012 A 
ATOM     75  C   UNL A   1      37.706  30.939  30.334  1.00  0.00     0.148 A 
ATOM     76  C   UNL A   1      37.511  30.282  33.057  1.00  0.00     0.002 A 
ATOM     77  C   UNL A   1      36.640  31.406  31.092  1.00  0.00     0.091 A 
ATOM     78  F   UNL A   1      37.840  31.236  29.034  1.00  0.00    -0.205 F 
ATOM     79  C   UNL A   1      36.535  31.073  32.452  1.00  0.00     0.022 A 
BRANCH  77  80
ATOM     80  S   UNL A   1      35.391  32.516  30.432  1.00  0.00     0.127 S 
ATOM     81  O   UNL A   1      36.138  33.764  30.296  1.00  0.00    -0.237 OA
ATOM     82  O   UNL A   1      35.053  31.858  29.168  1.00  0.00    -0.237 OA
ATOM     83  O   UNL A   1      34.318  32.541  31.415  1.00  0.00    -0.744 OA
ENDBRANCH  77  80
ENDBRANCH  49  73
BRANCH  61  84
ATOM     84  C   UNL A   1      44.634  33.508  29.233  1.00  0.00     0.023 A 
ATOM     85  C   UNL A   1      45.347  33.729  30.426  1.00  0.00     0.012 A 
ATOM     86  C   UNL A   1      44.539  34.537  28.276  1.00  0.00     0.148 A 
ATOM     87  C   UNL A   1      45.951  34.961  30.670  1.00  0.00     0.002 A 
ATOM     88  C   UNL A   1      45.173  35.751  28.510  1.00  0.00     0.091 A 
ATOM     89  F   UNL A   1      43.850  34.300  27.150  1.00  0.00    -0.205 F 
ATOM     90  C   UNL A   1      45.874  35.966  29.707  1.00  0.00     0.022 A 
BRANCH  88  91
ATOM     91  S   UNL A   1      45.195  37.079  27.301  1.00  0.00     0.127 S 
ATOM     92  O   UNL A   1      45.991  36.490  26.227  1.00  0.00    -0.237 OA
ATOM     93  O   UNL A   1      43.774  37.239  26.991  1.00  0.00    -0.237 OA
ATOM     94  O   UNL A   1      45.803  38.223  27.969  1.00  0.00    -0.744 OA
ENDBRANCH  88  91
ENDBRANCH  61  84
ENDBRANCH  35  36
ENDBRANCH  28  30
ENDBRANCH  27  28
ENDBRANCH  26  27
ENDBRANCH  25  26
ENDBRANCH  24  25
ENDBRANCH   1  24
TORSDOF 22
ENDMDL
MODEL 2
REMARK VINA RESULT:     -10.7      5.157     10.878
REMARK SMILES Cc1cc(CNC(=O)C[C@H](C)CC(=O)OCCOCCOC(=O)c2ccc(-c3c4nc(c(-c5cccc(S(=O)(=O)[O-])c5F)c5ccc([nH]5)c(-c5cccc(S(=O)(=O)[O-])c5F)c5nc(c(-c6cccc(S(=O)(=O)[O-])c6F)c6ccc3[nH]6)C=C5)C=C4)cc2)cc(C)c1F
REMARK SMILES IDX 17 1 16 2 15 3 13 4 14 5 12 6 10 7 11 8 9 9 7 10 6 11 8 13
REMARK SMILES IDX 5 14 4 15 1 16 2 17 3 18 90 19 88 20 91 21 87 22 89 23 18 24
REMARK SMILES IDX 19 25 20 26 21 27 22 28 23 29 24 30 25 31 86 32 26 33 85 34
REMARK SMILES IDX 27 35 28 36 29 37 79 38 30 39 84 40 78 41 80 42 31 43 83 44
REMARK SMILES IDX 77 45 76 46 32 48 64 49 44 50 63 51 45 52 48 53 62 54 81 55
REMARK SMILES IDX 46 56 47 57 61 59 82 60 49 61 33 62 34 63 42 64 35 65 37 66
REMARK SMILES IDX 43 67 36 68 38 69 39 70 40 71 41 72 65 73 66 74 74 75 67 76
REMARK SMILES IDX 69 77 75 78 68 79 70 80 71 81 72 82 73 83 50 84 51 85 59 86
REMARK SMILES IDX 52 87 54 88 60 89 53 90 55 91 56 92 57 93 58 94
REMARK H PARENT 6 12 80 47 48 58
REMARK Flexibility Score: inf
ROOT
ATOM      1  C   UNL A   1      32.645  30.724  26.861  1.00  0.00     0.202 C 
ENDROOT
BRANCH   1   2
ATOM      2  C   UNL A   1      33.045  29.524  25.994  1.00  0.00     0.261 C 
BRANCH   2   3
ATOM      3  O   UNL A   1      31.942  28.620  25.779  1.00  0.00    -0.463 OA
BRANCH   3   4
ATOM      4  C   UNL A   1      31.948  27.478  26.512  1.00  0.00     0.306 C 
ATOM      5  O   UNL A   1      31.054  27.115  27.267  1.00  0.00    -0.252 OA
BRANCH   4   6
ATOM      6  C   UNL A   1      33.227  26.689  26.324  1.00  0.00     0.126 C 
BRANCH   6   7
ATOM      7  C   UNL A   1      33.115  25.415  25.461  1.00  0.00     0.006 C 
ATOM      8  C   UNL A   1      32.573  24.243  26.298  1.00  0.00     0.009 C 
BRANCH   7   9
ATOM      9  C   UNL A   1      32.198  25.649  24.240  1.00  0.00     0.104 C 
BRANCH   9  10
ATOM     10  C   UNL A   1      32.951  26.075  22.990  1.00  0.00     0.220 C 
ATOM     11  N   UNL A   1      33.269  25.173  22.023  1.00  0.00    -0.352 N 
ATOM     12  H   UNL A   1      33.817  25.535  21.289  1.00  0.00     0.163 HD
ATOM     13  O   UNL A   1      33.305  27.243  22.825  1.00  0.00    -0.275 OA
BRANCH  11  14
ATOM     14  C   UNL A   1      32.936  23.769  21.889  1.00  0.00     0.151 C 
BRANCH  14  15
ATOM     15  C   UNL A   1      33.658  22.877  22.877  1.00  0.00    -0.028 A 
ATOM     16  C   UNL A   1      33.037  19.949  25.259  1.00  0.00     0.047 C 
ATOM     17  C   UNL A   1      33.724  21.030  24.481  1.00  0.00    -0.015 A 
ATOM     18  C   UNL A   1      33.031  21.808  23.540  1.00  0.00     0.012 A 
ATOM     19  C   UNL A   1      35.060  21.327  24.752  1.00  0.00     0.129 A 
ATOM     20  C   UNL A   1      35.718  22.371  24.103  1.00  0.00    -0.015 A 
ATOM     21  F   UNL A   1      35.721  20.589  25.658  1.00  0.00    -0.206 F 
ATOM     22  C   UNL A   1      35.008  23.145  23.172  1.00  0.00     0.012 A 
ATOM     23  C   UNL A   1      37.161  22.658  24.388  1.00  0.00     0.047 C 
ENDBRANCH  14  15
ENDBRANCH  11  14
ENDBRANCH   9  10
ENDBRANCH   7   9
ENDBRANCH   6   7
ENDBRANCH   4   6
ENDBRANCH   3   4
ENDBRANCH   2   3
ENDBRANCH   1   2
BRANCH   1  24
ATOM     24  O   UNL A   1      31.454  31.407  26.469  1.00  0.00    -0.374 OA
BRANCH  24  25
ATOM     25  C   UNL A   1      31.466  32.804  26.754  1.00  0.00     0.202 C 
BRANCH  25  26
ATOM     26  C   UNL A   1      32.810  33.353  27.230  1.00  0.00     0.261 C 
BRANCH  26  27
ATOM     27  O   UNL A   1      32.594  34.064  28.457  1.00  0.00    -0.460 OA
BRANCH  27  28
ATOM     28  C   UNL A   1      33.659  34.785  28.872  1.00  0.00     0.338 C 
ATOM     29  O   UNL A   1      33.664  35.949  29.236  1.00  0.00    -0.246 OA
BRANCH  28  30
ATOM     30  C   UNL A   1      34.788  33.859  29.078  1.00  0.00     0.060 A 
ATOM     31  C   UNL A   1      34.505  32.660  29.746  1.00  0.00     0.016 A 
ATOM     32  C   UNL A   1      36.075  34.127  28.600  1.00  0.00     0.016 A 
ATOM     33  C   UNL A   1      35.515  31.742  29.984  1.00  0.00     0.010 A 
ATOM     34  C   UNL A   1      37.099  33.223  28.871  1.00  0.00     0.010 A 
ATOM     35  C   UNL A   1      36.824  32.056  29.604  1.00  0.00    -0.014 A 
BRANCH  35  36
ATOM     36  C   UNL A   1      37.927  31.310  30.234  1.00  0.00     0.031 A 
ATOM     37  C   UNL A   1      38.250  31.638  31.663  1.00  0.00     0.074 A 
ATOM     38  C   UNL A   1      38.598  30.359  29.568  1.00  0.00     0.049 A 
ATOM     39  N   UNL A   1      39.173  31.138  32.435  1.00  0.00    -0.248 NA
ATOM     40  C   UNL A   1      37.415  32.669  32.308  1.00  0.00     0.031 C 
ATOM     41  C   UNL A   1      38.338  29.946  28.191  1.00  0.00     0.029 A 
ATOM     42  N   UNL A   1      39.653  29.583  29.967  1.00  0.00    -0.354 N 
ATOM     43  C   UNL A   1      39.049  31.810  33.644  1.00  0.00     0.074 A 
ATOM     44  C   UNL A   1      37.960  32.748  33.510  1.00  0.00     0.031 C 
ATOM     45  C   UNL A   1      39.236  29.006  27.847  1.00  0.00     0.029 A 
ATOM     46  C   UNL A   1      40.140  28.772  28.972  1.00  0.00     0.049 A 
ATOM     47  H   UNL A   1      40.026  29.603  30.878  1.00  0.00     0.167 HD
ATOM     48  C   UNL A   1      39.778  31.652  34.770  1.00  0.00     0.034 A 
ATOM     49  C   UNL A   1      41.210  27.955  28.971  1.00  0.00     0.034 A 
ATOM     50  C   UNL A   1      40.851  30.711  34.898  1.00  0.00     0.049 A 
ATOM     51  C   UNL A   1      42.036  27.825  30.220  1.00  0.00     0.074 A 
ATOM     52  C   UNL A   1      41.623  30.437  36.011  1.00  0.00     0.029 A 
ATOM     53  N   UNL A   1      41.318  29.909  33.870  1.00  0.00    -0.354 N 
ATOM     54  N   UNL A   1      41.852  28.392  31.389  1.00  0.00    -0.248 NA
ATOM     55  C   UNL A   1      43.204  26.935  30.161  1.00  0.00     0.031 C 
ATOM     56  C   UNL A   1      42.578  29.484  35.646  1.00  0.00     0.029 A 
ATOM     57  C   UNL A   1      42.387  29.153  34.312  1.00  0.00     0.049 A 
ATOM     58  H   UNL A   1      40.945  29.882  32.959  1.00  0.00     0.167 HD
ATOM     59  C   UNL A   1      42.873  27.925  32.207  1.00  0.00     0.074 A 
ATOM     60  C   UNL A   1      43.663  27.011  31.404  1.00  0.00     0.031 C 
ATOM     61  C   UNL A   1      43.143  28.234  33.500  1.00  0.00     0.034 A 
BRANCH  48  62
ATOM     62  C   UNL A   1      39.429  32.515  35.946  1.00  0.00     0.023 A 
ATOM     63  C   UNL A   1      39.971  33.811  36.047  1.00  0.00     0.012 A 
ATOM     64  C   UNL A   1      38.535  32.054  36.932  1.00  0.00     0.148 A 
ATOM     65  C   UNL A   1      39.637  34.635  37.121  1.00  0.00     0.002 A 
ATOM     66  C   UNL A   1      38.182  32.891  37.981  1.00  0.00     0.091 A 
ATOM     67  F   UNL A   1      38.061  30.804  36.828  1.00  0.00    -0.205 F 
ATOM     68  C   UNL A   1      38.736  34.179  38.080  1.00  0.00     0.022 A 
BRANCH  66  69
ATOM     69  S   UNL A   1      36.997  32.417  39.244  1.00  0.00     0.127 S 
ATOM     70  O   UNL A   1      37.381  31.030  39.503  1.00  0.00    -0.237 OA
ATOM     71  O   UNL A   1      37.313  33.351  40.324  1.00  0.00    -0.237 OA
ATOM     72  O   UNL A   1      35.680  32.595  38.647  1.00  0.00    -0.744 OA
ENDBRANCH  66  69
ENDBRANCH  48  62
BRANCH  49  73
ATOM     73  C   UNL A   1      41.522  27.187  27.737  1.00  0.00     0.023 A 
ATOM     74  C   UNL A   1      42.123  27.844  26.648  1.00  0.00     0.012 A 
ATOM     75  C   UNL A   1      41.329  25.792  27.686  1.00  0.00     0.148 A 
ATOM     76  C   UNL A   1      42.533  27.122  25.527  1.00  0.00     0.002 A 
ATOM     77  C   UNL A   1      41.775  25.074  26.583  1.00  0.00     0.091 A 
ATOM     78  F   UNL A   1      40.757  25.193  28.741  1.00  0.00    -0.205 F 
ATOM     79  C   UNL A   1      42.370  25.738  25.498  1.00  0.00     0.022 A 
BRANCH  77  80
ATOM     80  S   UNL A   1      41.706  23.281  26.497  1.00  0.00     0.127 S 
ATOM     81  O   UNL A   1      40.266  23.038  26.433  1.00  0.00    -0.237 OA
ATOM     82  O   UNL A   1      42.431  23.019  25.253  1.00  0.00    -0.237 OA
ATOM     83  O   UNL A   1      42.362  22.798  27.702  1.00  0.00    -0.744 OA
ENDBRANCH  77  80
ENDBRANCH  49  73
BRANCH  61  84
ATOM     84  C   UNL A   1      44.347  27.601  34.139  1.00  0.00     0.023 A 
ATOM     85  C   UNL A   1      45.579  28.282  34.107  1.00  0.00     0.012 A 
ATOM     86  C   UNL A   1      44.230  26.406  34.875  1.00  0.00     0.148 A 
ATOM     87  C   UNL A   1      46.683  27.777  34.791  1.00  0.00     0.002 A 
ATOM     88  C   UNL A   1      45.325  25.926  35.583  1.00  0.00     0.091 A 
ATOM     89  F   UNL A   1      43.046  25.776  34.884  1.00  0.00    -0.205 F 
ATOM     90  C   UNL A   1      46.552  26.608  35.538  1.00  0.00     0.022 A 
BRANCH  88  91
ATOM     91  S   UNL A   1      45.237  24.472  36.633  1.00  0.00     0.127 S 
ATOM     92  O   UNL A   1      46.377  24.679  37.524  1.00  0.00    -0.237 OA
ATOM     93  O   UNL A   1      43.928  24.628  37.268  1.00  0.00    -0.237 OA
ATOM     94  O   UNL A   1      45.346  23.324  35.742  1.00  0.00    -0.744 OA
ENDBRANCH  88  91
ENDBRANCH  61  84
ENDBRANCH  35  36
ENDBRANCH  28  30
ENDBRANCH  27  28
ENDBRANCH  26  27
ENDBRANCH  25  26
ENDBRANCH  24  25
ENDBRANCH   1  24
TORSDOF 22
ENDMDL
MODEL 3
REMARK VINA RESULT:     -10.6      5.236     10.662
REMARK SMILES Cc1cc(CNC(=O)C[C@H](C)CC(=O)OCCOCCOC(=O)c2ccc(-c3c4nc(c(-c5cccc(S(=O)(=O)[O-])c5F)c5ccc([nH]5)c(-c5cccc(S(=O)(=O)[O-])c5F)c5nc(c(-c6cccc(S(=O)(=O)[O-])c6F)c6ccc3[nH]6)C=C5)C=C4)cc2)cc(C)c1F
REMARK SMILES IDX 17 1 16 2 15 3 13 4 14 5 12 6 10 7 11 8 9 9 7 10 6 11 8 13
REMARK SMILES IDX 5 14 4 15 1 16 2 17 3 18 90 19 88 20 91 21 87 22 89 23 18 24
REMARK SMILES IDX 19 25 20 26 21 27 22 28 23 29 24 30 25 31 86 32 26 33 85 34
REMARK SMILES IDX 27 35 28 36 29 37 79 38 30 39 84 40 78 41 80 42 31 43 83 44
REMARK SMILES IDX 77 45 76 46 32 48 64 49 44 50 63 51 45 52 48 53 62 54 81 55
REMARK SMILES IDX 46 56 47 57 61 59 82 60 49 61 33 62 34 63 42 64 35 65 37 66
REMARK SMILES IDX 43 67 36 68 38 69 39 70 40 71 41 72 65 73 66 74 74 75 67 76
REMARK SMILES IDX 69 77 75 78 68 79 70 80 71 81 72 82 73 83 50 84 51 85 59 86
REMARK SMILES IDX 52 87 54 88 60 89 53 90 55 91 56 92 57 93 58 94
REMARK H PARENT 6 12 80 47 48 58
REMARK Flexibility Score: inf
ROOT
ATOM      1  C   UNL A   1      32.477  29.778  25.379  1.00  0.00     0.202 C 
ENDROOT
BRANCH   1   2
ATOM      2  C   UNL A   1      32.007  28.690  24.406  1.00  0.00     0.261 C 
BRANCH   2   3
ATOM      3  O   UNL A   1      30.623  28.339  24.613  1.00  0.00    -0.463 OA
BRANCH   3   4
ATOM      4  C   UNL A   1      30.149  27.300  23.879  1.00  0.00     0.306 C 
ATOM      5  O   UNL A   1      29.054  27.259  23.332  1.00  0.00    -0.252 OA
BRANCH   4   6
ATOM      6  C   UNL A   1      31.128  26.145  23.833  1.00  0.00     0.126 C 
BRANCH   6   7
ATOM      7  C   UNL A   1      30.665  24.840  24.513  1.00  0.00     0.006 C 
ATOM      8  C   UNL A   1      30.736  23.663  23.524  1.00  0.00     0.009 C 
BRANCH   7   9
ATOM      9  C   UNL A   1      31.524  24.525  25.758  1.00  0.00     0.104 C 
BRANCH   9  10
ATOM     10  C   UNL A   1      31.009  23.343  26.565  1.00  0.00     0.220 C 
ATOM     11  N   UNL A   1      31.660  22.150  26.551  1.00  0.00    -0.352 N 
ATOM     12  H   UNL A   1      31.208  21.430  27.049  1.00  0.00     0.163 HD
ATOM     13  O   UNL A   1      29.983  23.431  27.241  1.00  0.00    -0.275 OA
BRANCH  11  14
ATOM     14  C   UNL A   1      32.908  21.757  25.928  1.00  0.00     0.151 C 
BRANCH  14  15
ATOM     15  C   UNL A   1      32.807  20.482  25.116  1.00  0.00    -0.028 A 
ATOM     16  C   UNL A   1      32.100  19.256  21.563  1.00  0.00     0.047 C 
ATOM     17  C   UNL A   1      32.442  19.271  23.021  1.00  0.00    -0.015 A 
ATOM     18  C   UNL A   1      32.572  20.476  23.731  1.00  0.00     0.012 A 
ATOM     19  C   UNL A   1      32.556  18.064  23.711  1.00  0.00     0.129 A 
ATOM     20  C   UNL A   1      32.804  18.032  25.083  1.00  0.00    -0.015 A 
ATOM     21  F   UNL A   1      32.425  16.912  23.035  1.00  0.00    -0.206 F 
ATOM     22  C   UNL A   1      32.920  19.245  25.779  1.00  0.00     0.012 A 
ATOM     23  C   UNL A   1      32.950  16.726  25.802  1.00  0.00     0.047 C 
ENDBRANCH  14  15
ENDBRANCH  11  14
ENDBRANCH   9  10
ENDBRANCH   7   9
ENDBRANCH   6   7
ENDBRANCH   4   6
ENDBRANCH   3   4
ENDBRANCH   2   3
ENDBRANCH   1   2
BRANCH   1  24
ATOM     24  O   UNL A   1      31.543  30.827  25.637  1.00  0.00    -0.374 OA
BRANCH  24  25
ATOM     25  C   UNL A   1      31.688  31.430  26.922  1.00  0.00     0.202 C 
BRANCH  25  26
ATOM     26  C   UNL A   1      31.690  32.957  26.921  1.00  0.00     0.261 C 
BRANCH  26  27
ATOM     27  O   UNL A   1      33.053  33.403  26.955  1.00  0.00    -0.460 OA
BRANCH  27  28
ATOM     28  C   UNL A   1      33.492  33.747  28.185  1.00  0.00     0.338 C 
ATOM     29  O   UNL A   1      32.882  34.372  29.038  1.00  0.00    -0.246 OA
BRANCH  28  30
ATOM     30  C   UNL A   1      34.742  33.011  28.449  1.00  0.00     0.060 A 
ATOM     31  C   UNL A   1      34.617  31.652  28.767  1.00  0.00     0.016 A 
ATOM     32  C   UNL A   1      36.002  33.611  28.351  1.00  0.00     0.016 A 
ATOM     33  C   UNL A   1      35.746  30.894  29.035  1.00  0.00     0.010 A 
ATOM     34  C   UNL A   1      37.135  32.861  28.656  1.00  0.00     0.010 A 
ATOM     35  C   UNL A   1      36.998  31.517  29.044  1.00  0.00    -0.014 A 
BRANCH  35  36
ATOM     36  C   UNL A   1      38.105  30.841  29.742  1.00  0.00     0.031 A 
ATOM     37  C   UNL A   1      38.354  31.228  31.171  1.00  0.00     0.074 A 
ATOM     38  C   UNL A   1      38.843  29.900  29.135  1.00  0.00     0.049 A 
ATOM     39  N   UNL A   1      39.265  30.794  31.996  1.00  0.00    -0.248 NA
ATOM     40  C   UNL A   1      37.449  32.241  31.747  1.00  0.00     0.031 C 
ATOM     41  C   UNL A   1      38.658  29.432  27.764  1.00  0.00     0.029 A 
ATOM     42  N   UNL A   1      39.913  29.184  29.602  1.00  0.00    -0.354 N 
ATOM     43  C   UNL A   1      39.062  31.497  33.176  1.00  0.00     0.074 A 
ATOM     44  C   UNL A   1      37.941  32.382  32.967  1.00  0.00     0.031 C 
ATOM     45  C   UNL A   1      39.609  28.523  27.487  1.00  0.00     0.029 A 
ATOM     46  C   UNL A   1      40.474  28.364  28.655  1.00  0.00     0.049 A 
ATOM     47  H   UNL A   1      40.246  29.249  30.526  1.00  0.00     0.167 HD
ATOM     48  C   UNL A   1      39.749  31.407  34.335  1.00  0.00     0.034 A 
ATOM     49  C   UNL A   1      41.578  27.595  28.724  1.00  0.00     0.034 A 
ATOM     50  C   UNL A   1      40.856  30.519  34.537  1.00  0.00     0.049 A 
ATOM     51  C   UNL A   1      42.356  27.541  30.009  1.00  0.00     0.074 A 
ATOM     52  C   UNL A   1      41.591  30.314  35.689  1.00  0.00     0.029 A 
ATOM     53  N   UNL A   1      41.399  29.706  33.556  1.00  0.00    -0.354 N 
ATOM     54  N   UNL A   1      42.099  28.136  31.150  1.00  0.00    -0.248 NA
ATOM     55  C   UNL A   1      43.562  26.702  30.026  1.00  0.00     0.031 C 
ATOM     56  C   UNL A   1      42.601  29.393  35.394  1.00  0.00     0.029 A 
ATOM     57  C   UNL A   1      42.479  29.012  34.066  1.00  0.00     0.049 A 
ATOM     58  H   UNL A   1      41.065  29.633  32.632  1.00  0.00     0.167 HD
ATOM     59  C   UNL A   1      43.105  27.740  32.023  1.00  0.00     0.074 A 
ATOM     60  C   UNL A   1      43.965  26.838  31.284  1.00  0.00     0.031 C 
ATOM     61  C   UNL A   1      43.307  28.102  33.316  1.00  0.00     0.034 A 
BRANCH  48  62
ATOM     62  C   UNL A   1      39.315  32.290  35.467  1.00  0.00     0.023 A 
ATOM     63  C   UNL A   1      38.422  31.795  36.437  1.00  0.00     0.012 A 
ATOM     64  C   UNL A   1      39.820  33.599  35.587  1.00  0.00     0.148 A 
ATOM     65  C   UNL A   1      38.028  32.595  37.508  1.00  0.00     0.002 A 
ATOM     66  C   UNL A   1      39.448  34.379  36.673  1.00  0.00     0.091 A 
ATOM     67  F   UNL A   1      40.641  34.055  34.631  1.00  0.00    -0.205 F 
ATOM     68  C   UNL A   1      38.549  33.881  37.631  1.00  0.00     0.022 A 
BRANCH  66  69
ATOM     69  S   UNL A   1      40.096  36.030  36.948  1.00  0.00     0.127 S 
ATOM     70  O   UNL A   1      41.522  35.761  37.127  1.00  0.00    -0.237 OA
ATOM     71  O   UNL A   1      39.753  36.704  35.696  1.00  0.00    -0.237 OA
ATOM     72  O   UNL A   1      39.410  36.542  38.127  1.00  0.00    -0.744 OA
ENDBRANCH  66  69
ENDBRANCH  48  62
BRANCH  49  73
ATOM     73  C   UNL A   1      41.974  26.803  27.531  1.00  0.00     0.023 A 
ATOM     74  C   UNL A   1      42.722  27.418  26.511  1.00  0.00     0.012 A 
ATOM     75  C   UNL A   1      41.707  25.421  27.459  1.00  0.00     0.148 A 
ATOM     76  C   UNL A   1      43.206  26.667  25.439  1.00  0.00     0.002 A 
ATOM     77  C   UNL A   1      42.224  24.673  26.409  1.00  0.00     0.091 A 
ATOM     78  F   UNL A   1      40.993  24.863  28.447  1.00  0.00    -0.205 F 
ATOM     79  C   UNL A   1      42.967  25.295  25.393  1.00  0.00     0.022 A 
BRANCH  77  80
ATOM     80  S   UNL A   1      42.061  22.887  26.315  1.00  0.00     0.127 S 
ATOM     81  O   UNL A   1      42.788  22.455  27.507  1.00  0.00    -0.237 OA
ATOM     82  O   UNL A   1      40.608  22.721  26.385  1.00  0.00    -0.237 OA
ATOM     83  O   UNL A   1      42.661  22.496  25.049  1.00  0.00    -0.744 OA
ENDBRANCH  77  80
ENDBRANCH  49  73
BRANCH  61  84
ATOM     84  C   UNL A   1      44.510  27.543  34.023  1.00  0.00     0.023 A 
ATOM     85  C   UNL A   1      45.722  28.257  33.985  1.00  0.00     0.012 A 
ATOM     86  C   UNL A   1      44.405  26.389  34.824  1.00  0.00     0.148 A 
ATOM     87  C   UNL A   1      46.820  27.826  34.727  1.00  0.00     0.002 A 
ATOM     88  C   UNL A   1      45.492  25.984  35.589  1.00  0.00     0.091 A 
ATOM     89  F   UNL A   1      43.239  25.726  34.839  1.00  0.00    -0.205 F 
ATOM     90  C   UNL A   1      46.700  26.698  35.538  1.00  0.00     0.022 A 
BRANCH  88  91
ATOM     91  S   UNL A   1      45.414  24.591  36.720  1.00  0.00     0.127 S 
ATOM     92  O   UNL A   1      45.386  23.460  35.795  1.00  0.00    -0.237 OA
ATOM     93  O   UNL A   1      46.660  24.734  37.473  1.00  0.00    -0.237 OA
ATOM     94  O   UNL A   1      44.203  24.779  37.509  1.00  0.00    -0.744 OA
ENDBRANCH  88  91
ENDBRANCH  61  84
ENDBRANCH  35  36
ENDBRANCH  28  30
ENDBRANCH  27  28
ENDBRANCH  26  27
ENDBRANCH  25  26
ENDBRANCH  24  25
ENDBRANCH   1  24
TORSDOF 22
ENDMDL
