MODEL 1
REMARK VINA RESULT:     -12.5      0.000      0.000
REMARK SMILES Cc1ccccc1[C@@H]1[NH2+][C@@H](C(=O)OCCOCCOC(=O)c2ccc(-c3c4nc(c(-c5cccc(S(=O)(=O)[O-])c5F)c5ccc([nH]5)c(-c5cccc(S(=O)(=O)[O-])c5F)c5nc(c(-c6cccc(S(=O)(=O)[O-])c6F)c6ccc3[nH]6)C=C5)C=C4)cc2)CC2=c3ccccc3=N[C@H]21
REMARK SMILES IDX 17 1 16 2 15 3 14 4 13 5 11 6 12 7 10 8 8 9 9 10 94 11 86 14
REMARK SMILES IDX 93 15 85 16 87 17 92 18 88 19 91 20 89 21 90 22 7 23 1 24
REMARK SMILES IDX 2 25 3 26 4 27 6 28 5 29 18 30 19 31 20 32 21 33 22 34 23 35
REMARK SMILES IDX 84 36 24 37 83 38 25 39 26 40 27 41 77 42 28 43 82 44 76 45
REMARK SMILES IDX 78 46 29 47 81 48 75 49 74 50 30 52 62 53 42 54 61 55 43 56
REMARK SMILES IDX 46 57 60 58 79 59 44 60 45 61 59 63 80 64 47 65 31 66 32 67
REMARK SMILES IDX 40 68 33 69 35 70 41 71 34 72 36 73 37 74 38 75 39 76 63 77
REMARK SMILES IDX 64 78 72 79 65 80 67 81 73 82 66 83 68 84 69 85 70 86 71 87
REMARK SMILES IDX 48 88 49 89 57 90 50 91 52 92 58 93 51 94 53 95 54 96 55 97
REMARK SMILES IDX 56 98
REMARK H PARENT 9 12 9 13 78 51 46 62
REMARK Flexibility Score: inf
ROOT
ATOM      1  C   UNL A   1      37.124  22.014  24.507  1.00  0.00     0.202 C 
ENDROOT
BRANCH   1   2
ATOM      2  O   UNL A   1      35.793  22.383  24.820  1.00  0.00    -0.374 OA
BRANCH   2   3
ATOM      3  C   UNL A   1      35.003  22.789  23.724  1.00  0.00     0.202 C 
BRANCH   3   4
ATOM      4  C   UNL A   1      33.919  23.690  24.234  1.00  0.00     0.261 C 
BRANCH   4   5
ATOM      5  O   UNL A   1      34.051  25.129  24.019  1.00  0.00    -0.459 OA
BRANCH   5   6
ATOM      6  C   UNL A   1      33.477  25.941  23.102  1.00  0.00     0.365 C 
ATOM      7  O   UNL A   1      34.028  26.185  22.033  1.00  0.00    -0.245 OA
BRANCH   6   8
ATOM      8  C   UNL A   1      32.226  26.681  23.581  1.00  0.00     0.298 C 
ATOM      9  C   UNL A   1      31.271  29.018  23.614  1.00  0.00     0.243 C 
ATOM     10  N   UNL A   1      32.166  28.038  22.960  1.00  0.00    -0.326 N 
ATOM     11  C   UNL A   1      31.100  28.931  25.171  1.00  0.00     0.196 C 
ATOM     12  H   UNL A   1      33.109  28.425  22.967  1.00  0.00     0.347 HD
ATOM     13  H   UNL A   1      31.777  27.893  22.028  1.00  0.00     0.347 HD
ATOM     14  C   UNL A   1      32.154  28.008  25.682  1.00  0.00    -0.024 C 
ATOM     15  N   UNL A   1      31.403  30.240  25.827  1.00  0.00    -0.270 NA
ATOM     16  C   UNL A   1      32.141  26.643  25.123  1.00  0.00     0.111 C 
ATOM     17  C   UNL A   1      33.080  28.650  26.377  1.00  0.00     0.002 A 
ATOM     18  C   UNL A   1      32.527  30.009  26.436  1.00  0.00     0.066 A 
ATOM     19  C   UNL A   1      34.381  28.330  26.862  1.00  0.00     0.010 A 
ATOM     20  C   UNL A   1      33.327  31.001  27.177  1.00  0.00     0.028 A 
ATOM     21  C   UNL A   1      35.092  29.307  27.446  1.00  0.00     0.001 A 
ATOM     22  C   UNL A   1      34.539  30.641  27.633  1.00  0.00     0.002 A 
BRANCH   9  23
ATOM     23  C   UNL A   1      29.956  29.212  22.858  1.00  0.00     0.015 A 
ATOM     24  C   UNL A   1      28.679  27.154  23.769  1.00  0.00     0.045 C 
ATOM     25  C   UNL A   1      28.776  28.456  23.027  1.00  0.00    -0.042 A 
ATOM     26  C   UNL A   1      27.570  28.953  22.498  1.00  0.00     0.004 A 
ATOM     27  C   UNL A   1      27.537  30.112  21.729  1.00  0.00     0.000 A 
ATOM     28  C   UNL A   1      29.915  30.316  21.976  1.00  0.00     0.010 A 
ATOM     29  C   UNL A   1      28.719  30.767  21.424  1.00  0.00     0.001 A 
ENDBRANCH   9  23
ENDBRANCH   6   8
ENDBRANCH   5   6
ENDBRANCH   4   5
ENDBRANCH   3   4
ENDBRANCH   2   3
ENDBRANCH   1   2
BRANCH   1  30
ATOM     30  C   UNL A   1      38.003  21.851  25.746  1.00  0.00     0.261 C 
BRANCH  30  31
ATOM     31  O   UNL A   1      39.202  22.630  25.585  1.00  0.00    -0.460 OA
BRANCH  31  32
ATOM     32  C   UNL A   1      39.848  22.906  26.747  1.00  0.00     0.338 C 
ATOM     33  O   UNL A   1      40.255  22.039  27.524  1.00  0.00    -0.246 OA
BRANCH  32  34
ATOM     34  C   UNL A   1      39.756  24.356  27.057  1.00  0.00     0.060 A 
ATOM     35  C   UNL A   1      40.471  25.279  26.279  1.00  0.00     0.016 A 
ATOM     36  C   UNL A   1      39.210  24.752  28.280  1.00  0.00     0.016 A 
ATOM     37  C   UNL A   1      40.774  26.542  26.793  1.00  0.00     0.010 A 
ATOM     38  C   UNL A   1      39.605  25.956  28.829  1.00  0.00     0.010 A 
ATOM     39  C   UNL A   1      40.417  26.838  28.100  1.00  0.00    -0.014 A 
BRANCH  39  40
ATOM     40  C   UNL A   1      40.733  28.083  28.784  1.00  0.00     0.031 A 
ATOM     41  C   UNL A   1      39.762  29.175  28.650  1.00  0.00     0.074 A 
ATOM     42  C   UNL A   1      41.678  28.128  29.748  1.00  0.00     0.049 A 
ATOM     43  N   UNL A   1      39.938  30.339  29.164  1.00  0.00    -0.248 NA
ATOM     44  C   UNL A   1      38.532  29.074  27.860  1.00  0.00     0.031 C 
ATOM     45  C   UNL A   1      41.633  28.852  31.017  1.00  0.00     0.029 A 
ATOM     46  N   UNL A   1      42.876  27.426  29.828  1.00  0.00    -0.354 N 
ATOM     47  C   UNL A   1      38.710  30.946  29.141  1.00  0.00     0.074 A 
ATOM     48  C   UNL A   1      37.959  30.249  28.133  1.00  0.00     0.031 C 
ATOM     49  C   UNL A   1      42.814  28.725  31.648  1.00  0.00     0.029 A 
ATOM     50  C   UNL A   1      43.730  28.072  30.728  1.00  0.00     0.049 A 
ATOM     51  H   UNL A   1      43.090  26.604  29.330  1.00  0.00     0.167 HD
ATOM     52  C   UNL A   1      38.418  31.819  30.139  1.00  0.00     0.034 A 
ATOM     53  C   UNL A   1      44.961  28.490  30.325  1.00  0.00     0.034 A 
ATOM     54  C   UNL A   1      39.620  32.109  30.950  1.00  0.00     0.049 A 
ATOM     55  C   UNL A   1      44.997  29.993  30.360  1.00  0.00     0.074 A 
ATOM     56  C   UNL A   1      40.001  31.799  32.244  1.00  0.00     0.029 A 
ATOM     57  N   UNL A   1      40.778  32.567  30.312  1.00  0.00    -0.354 N 
ATOM     58  N   UNL A   1      43.926  30.705  30.570  1.00  0.00    -0.248 NA
ATOM     59  C   UNL A   1      46.185  30.824  30.238  1.00  0.00     0.031 C 
ATOM     60  C   UNL A   1      41.414  31.995  32.347  1.00  0.00     0.029 A 
ATOM     61  C   UNL A   1      41.891  32.474  31.135  1.00  0.00     0.049 A 
ATOM     62  H   UNL A   1      40.801  32.912  29.390  1.00  0.00     0.167 HD
ATOM     63  C   UNL A   1      44.206  32.026  30.569  1.00  0.00     0.074 A 
ATOM     64  C   UNL A   1      45.655  32.053  30.396  1.00  0.00     0.031 C 
ATOM     65  C   UNL A   1      43.203  32.949  30.669  1.00  0.00     0.034 A 
BRANCH  52  66
ATOM     66  C   UNL A   1      37.017  32.275  30.506  1.00  0.00     0.023 A 
ATOM     67  C   UNL A   1      36.467  31.732  31.686  1.00  0.00     0.012 A 
ATOM     68  C   UNL A   1      36.167  33.143  29.767  1.00  0.00     0.148 A 
ATOM     69  C   UNL A   1      35.171  32.039  32.118  1.00  0.00     0.002 A 
ATOM     70  C   UNL A   1      34.906  33.516  30.244  1.00  0.00     0.091 A 
ATOM     71  F   UNL A   1      36.510  33.546  28.541  1.00  0.00    -0.205 F 
ATOM     72  C   UNL A   1      34.400  32.951  31.414  1.00  0.00     0.022 A 
BRANCH  70  73
ATOM     73  S   UNL A   1      33.879  34.756  29.424  1.00  0.00     0.127 S 
ATOM     74  O   UNL A   1      33.599  35.696  30.510  1.00  0.00    -0.237 OA
ATOM     75  O   UNL A   1      34.779  35.274  28.392  1.00  0.00    -0.237 OA
ATOM     76  O   UNL A   1      32.716  34.049  28.902  1.00  0.00    -0.744 OA
ENDBRANCH  70  73
ENDBRANCH  52  66
BRANCH  53  77
ATOM     77  C   UNL A   1      45.577  27.548  29.332  1.00  0.00     0.023 A 
ATOM     78  C   UNL A   1      45.912  26.253  29.813  1.00  0.00     0.012 A 
ATOM     79  C   UNL A   1      45.367  27.713  27.950  1.00  0.00     0.148 A 
ATOM     80  C   UNL A   1      45.907  25.139  28.966  1.00  0.00     0.002 A 
ATOM     81  C   UNL A   1      45.318  26.589  27.121  1.00  0.00     0.091 A 
ATOM     82  F   UNL A   1      45.146  28.947  27.481  1.00  0.00    -0.205 F 
ATOM     83  C   UNL A   1      45.555  25.301  27.632  1.00  0.00     0.022 A 
BRANCH  81  84
ATOM     84  S   UNL A   1      44.777  26.690  25.408  1.00  0.00     0.127 S 
ATOM     85  O   UNL A   1      46.049  26.856  24.708  1.00  0.00    -0.237 OA
ATOM     86  O   UNL A   1      44.138  25.387  25.207  1.00  0.00    -0.237 OA
ATOM     87  O   UNL A   1      43.865  27.821  25.353  1.00  0.00    -0.744 OA
ENDBRANCH  81  84
ENDBRANCH  53  77
BRANCH  65  88
ATOM     88  C   UNL A   1      43.365  34.406  30.310  1.00  0.00     0.023 A 
ATOM     89  C   UNL A   1      43.749  35.373  31.259  1.00  0.00     0.012 A 
ATOM     90  C   UNL A   1      43.311  34.825  28.958  1.00  0.00     0.148 A 
ATOM     91  C   UNL A   1      44.001  36.699  30.905  1.00  0.00     0.002 A 
ATOM     92  C   UNL A   1      43.704  36.106  28.594  1.00  0.00     0.091 A 
ATOM     93  F   UNL A   1      42.862  33.993  28.009  1.00  0.00    -0.205 F 
ATOM     94  C   UNL A   1      44.011  37.058  29.567  1.00  0.00     0.022 A 
BRANCH  92  95
ATOM     95  S   UNL A   1      44.007  36.531  26.876  1.00  0.00     0.127 S 
ATOM     96  O   UNL A   1      42.649  36.597  26.342  1.00  0.00    -0.237 OA
ATOM     97  O   UNL A   1      44.680  37.826  26.997  1.00  0.00    -0.237 OA
ATOM     98  O   UNL A   1      44.851  35.466  26.351  1.00  0.00    -0.744 OA
ENDBRANCH  92  95
ENDBRANCH  65  88
ENDBRANCH  39  40
ENDBRANCH  32  34
ENDBRANCH  31  32
ENDBRANCH  30  31
ENDBRANCH   1  30
TORSDOF 18
ENDMDL
MODEL 2
REMARK VINA RESULT:     -12.0      4.215      9.460
REMARK SMILES Cc1ccccc1[C@@H]1[NH2+][C@@H](C(=O)OCCOCCOC(=O)c2ccc(-c3c4nc(c(-c5cccc(S(=O)(=O)[O-])c5F)c5ccc([nH]5)c(-c5cccc(S(=O)(=O)[O-])c5F)c5nc(c(-c6cccc(S(=O)(=O)[O-])c6F)c6ccc3[nH]6)C=C5)C=C4)cc2)CC2=c3ccccc3=N[C@H]21
REMARK SMILES IDX 17 1 16 2 15 3 14 4 13 5 11 6 12 7 10 8 8 9 9 10 94 11 86 14
REMARK SMILES IDX 93 15 85 16 87 17 92 18 88 19 91 20 89 21 90 22 7 23 1 24
REMARK SMILES IDX 2 25 3 26 4 27 6 28 5 29 18 30 19 31 20 32 21 33 22 34 23 35
REMARK SMILES IDX 84 36 24 37 83 38 25 39 26 40 27 41 77 42 28 43 82 44 76 45
REMARK SMILES IDX 78 46 29 47 81 48 75 49 74 50 30 52 62 53 42 54 61 55 43 56
REMARK SMILES IDX 46 57 60 58 79 59 44 60 45 61 59 63 80 64 47 65 31 66 32 67
REMARK SMILES IDX 40 68 33 69 35 70 41 71 34 72 36 73 37 74 38 75 39 76 63 77
REMARK SMILES IDX 64 78 72 79 65 80 67 81 73 82 66 83 68 84 69 85 70 86 71 87
REMARK SMILES IDX 48 88 49 89 57 90 50 91 52 92 58 93 51 94 53 95 54 96 55 97
REMARK SMILES IDX 56 98
REMARK H PARENT 9 12 9 13 78 51 46 62
REMARK Flexibility Score: inf
ROOT
ATOM      1  C   UNL A   1      33.053  33.531  28.013  1.00  0.00     0.202 C 
ENDROOT
BRANCH   1   2
ATOM      2  O   UNL A   1      33.965  32.457  28.158  1.00  0.00    -0.374 OA
BRANCH   2   3
ATOM      3  C   UNL A   1      33.784  31.383  27.261  1.00  0.00     0.202 C 
BRANCH   3   4
ATOM      4  C   UNL A   1      34.348  30.144  27.891  1.00  0.00     0.261 C 
BRANCH   4   5
ATOM      5  O   UNL A   1      33.828  28.847  27.463  1.00  0.00    -0.459 OA
BRANCH   5   6
ATOM      6  C   UNL A   1      32.580  28.472  27.103  1.00  0.00     0.365 C 
ATOM      7  O   UNL A   1      31.797  27.995  27.919  1.00  0.00    -0.245 OA
BRANCH   6   8
ATOM      8  C   UNL A   1      32.306  28.485  25.597  1.00  0.00     0.298 C 
ATOM      9  C   UNL A   1      30.950  27.226  23.879  1.00  0.00     0.243 C 
ATOM     10  N   UNL A   1      31.107  27.651  25.288  1.00  0.00    -0.326 N 
ATOM     11  C   UNL A   1      32.251  26.952  23.047  1.00  0.00     0.196 C 
ATOM     12  H   UNL A   1      31.157  26.810  25.863  1.00  0.00     0.347 HD
ATOM     13  H   UNL A   1      30.303  28.247  25.484  1.00  0.00     0.347 HD
ATOM     14  C   UNL A   1      33.392  26.913  24.006  1.00  0.00    -0.024 C 
ATOM     15  N   UNL A   1      32.232  25.586  22.438  1.00  0.00    -0.270 NA
ATOM     16  C   UNL A   1      33.592  28.128  24.818  1.00  0.00     0.111 C 
ATOM     17  C   UNL A   1      33.888  25.692  24.138  1.00  0.00     0.002 A 
ATOM     18  C   UNL A   1      33.132  24.947  23.122  1.00  0.00     0.066 A 
ATOM     19  C   UNL A   1      34.772  25.055  25.056  1.00  0.00     0.010 A 
ATOM     20  C   UNL A   1      33.462  23.516  22.991  1.00  0.00     0.028 A 
ATOM     21  C   UNL A   1      34.956  23.731  24.936  1.00  0.00     0.001 A 
ATOM     22  C   UNL A   1      34.320  22.970  23.870  1.00  0.00     0.002 A 
BRANCH   9  23
ATOM     23  C   UNL A   1      29.898  28.043  23.130  1.00  0.00     0.015 A 
ATOM     24  C   UNL A   1      27.788  26.770  23.917  1.00  0.00     0.045 C 
ATOM     25  C   UNL A   1      28.498  27.913  23.251  1.00  0.00    -0.042 A 
ATOM     26  C   UNL A   1      27.675  28.936  22.745  1.00  0.00     0.004 A 
ATOM     27  C   UNL A   1      28.204  30.015  22.043  1.00  0.00     0.000 A 
ATOM     28  C   UNL A   1      30.398  29.082  22.311  1.00  0.00     0.010 A 
ATOM     29  C   UNL A   1      29.564  30.061  21.781  1.00  0.00     0.001 A 
ENDBRANCH   9  23
ENDBRANCH   6   8
ENDBRANCH   5   6
ENDBRANCH   4   5
ENDBRANCH   3   4
ENDBRANCH   2   3
ENDBRANCH   1   2
BRANCH   1  30
ATOM     30  C   UNL A   1      33.480  34.781  28.780  1.00  0.00     0.261 C 
BRANCH  30  31
ATOM     31  O   UNL A   1      33.028  34.681  30.141  1.00  0.00    -0.460 OA
BRANCH  31  32
ATOM     32  C   UNL A   1      34.007  34.846  31.069  1.00  0.00     0.338 C 
ATOM     33  O   UNL A   1      34.196  35.900  31.681  1.00  0.00    -0.246 OA
BRANCH  32  34
ATOM     34  C   UNL A   1      34.946  33.696  31.039  1.00  0.00     0.060 A 
ATOM     35  C   UNL A   1      34.789  32.647  31.958  1.00  0.00     0.016 A 
ATOM     36  C   UNL A   1      36.132  33.810  30.309  1.00  0.00     0.016 A 
ATOM     37  C   UNL A   1      35.869  31.816  32.262  1.00  0.00     0.010 A 
ATOM     38  C   UNL A   1      37.225  33.060  30.691  1.00  0.00     0.010 A 
ATOM     39  C   UNL A   1      37.105  32.086  31.694  1.00  0.00    -0.014 A 
BRANCH  39  40
ATOM     40  C   UNL A   1      38.327  31.347  31.977  1.00  0.00     0.031 A 
ATOM     41  C   UNL A   1      38.457  30.022  31.360  1.00  0.00     0.074 A 
ATOM     42  C   UNL A   1      39.411  31.966  32.492  1.00  0.00     0.049 A 
ATOM     43  N   UNL A   1      39.461  29.248  31.562  1.00  0.00    -0.248 NA
ATOM     44  C   UNL A   1      37.425  29.419  30.512  1.00  0.00     0.031 C 
ATOM     45  C   UNL A   1      40.814  31.771  32.129  1.00  0.00     0.029 A 
ATOM     46  N   UNL A   1      39.466  33.008  33.412  1.00  0.00    -0.354 N 
ATOM     47  C   UNL A   1      39.406  28.300  30.574  1.00  0.00     0.074 A 
ATOM     48  C   UNL A   1      38.041  28.299  30.123  1.00  0.00     0.031 C 
ATOM     49  C   UNL A   1      41.595  32.501  32.947  1.00  0.00     0.029 A 
ATOM     50  C   UNL A   1      40.741  33.049  33.987  1.00  0.00     0.049 A 
ATOM     51  H   UNL A   1      38.725  33.619  33.626  1.00  0.00     0.167 HD
ATOM     52  C   UNL A   1      40.580  27.796  30.117  1.00  0.00     0.034 A 
ATOM     53  C   UNL A   1      40.887  32.952  35.337  1.00  0.00     0.034 A 
ATOM     54  C   UNL A   1      41.706  28.232  30.970  1.00  0.00     0.049 A 
ATOM     55  C   UNL A   1      41.596  31.664  35.654  1.00  0.00     0.074 A 
ATOM     56  C   UNL A   1      42.775  29.091  30.781  1.00  0.00     0.029 A 
ATOM     57  N   UNL A   1      41.651  27.992  32.347  1.00  0.00    -0.354 N 
ATOM     58  N   UNL A   1      41.827  30.760  34.745  1.00  0.00    -0.248 NA
ATOM     59  C   UNL A   1      42.158  31.293  36.944  1.00  0.00     0.031 C 
ATOM     60  C   UNL A   1      43.304  29.428  32.066  1.00  0.00     0.029 A 
ATOM     61  C   UNL A   1      42.595  28.738  33.039  1.00  0.00     0.049 A 
ATOM     62  H   UNL A   1      41.018  27.370  32.774  1.00  0.00     0.167 HD
ATOM     63  C   UNL A   1      42.485  29.700  35.262  1.00  0.00     0.074 A 
ATOM     64  C   UNL A   1      42.710  30.098  36.648  1.00  0.00     0.031 C 
ATOM     65  C   UNL A   1      42.732  28.595  34.496  1.00  0.00     0.034 A 
BRANCH  52  66
ATOM     66  C   UNL A   1      40.750  27.060  28.799  1.00  0.00     0.023 A 
ATOM     67  C   UNL A   1      39.818  26.038  28.525  1.00  0.00     0.012 A 
ATOM     68  C   UNL A   1      41.776  27.240  27.832  1.00  0.00     0.148 A 
ATOM     69  C   UNL A   1      39.882  25.257  27.364  1.00  0.00     0.002 A 
ATOM     70  C   UNL A   1      41.790  26.520  26.633  1.00  0.00     0.091 A 
ATOM     71  F   UNL A   1      42.818  28.035  28.089  1.00  0.00    -0.205 F 
ATOM     72  C   UNL A   1      40.850  25.514  26.405  1.00  0.00     0.022 A 
BRANCH  70  73
ATOM     73  S   UNL A   1      42.970  26.852  25.307  1.00  0.00     0.127 S 
ATOM     74  O   UNL A   1      42.902  25.624  24.514  1.00  0.00    -0.237 OA
ATOM     75  O   UNL A   1      42.386  28.026  24.656  1.00  0.00    -0.237 OA
ATOM     76  O   UNL A   1      44.254  27.103  25.950  1.00  0.00    -0.744 OA
ENDBRANCH  70  73
ENDBRANCH  52  66
BRANCH  53  77
ATOM     77  C   UNL A   1      39.767  33.626  36.073  1.00  0.00     0.023 A 
ATOM     78  C   UNL A   1      38.601  32.846  36.302  1.00  0.00     0.012 A 
ATOM     79  C   UNL A   1      40.013  34.723  36.921  1.00  0.00     0.148 A 
ATOM     80  C   UNL A   1      37.783  33.069  37.415  1.00  0.00     0.002 A 
ATOM     81  C   UNL A   1      39.218  34.908  38.055  1.00  0.00     0.091 A 
ATOM     82  F   UNL A   1      41.056  35.517  36.651  1.00  0.00    -0.205 F 
ATOM     83  C   UNL A   1      38.125  34.066  38.320  1.00  0.00     0.022 A 
BRANCH  81  84
ATOM     84  S   UNL A   1      39.640  36.107  39.329  1.00  0.00     0.127 S 
ATOM     85  O   UNL A   1      41.018  35.735  39.638  1.00  0.00    -0.237 OA
ATOM     86  O   UNL A   1      39.499  37.379  38.616  1.00  0.00    -0.237 OA
ATOM     87  O   UNL A   1      38.670  35.904  40.393  1.00  0.00    -0.744 OA
ENDBRANCH  81  84
ENDBRANCH  53  77
BRANCH  65  88
ATOM     88  C   UNL A   1      43.114  27.249  35.064  1.00  0.00     0.023 A 
ATOM     89  C   UNL A   1      42.151  26.322  35.506  1.00  0.00     0.012 A 
ATOM     90  C   UNL A   1      44.455  26.797  35.005  1.00  0.00     0.148 A 
ATOM     91  C   UNL A   1      42.499  25.040  35.932  1.00  0.00     0.002 A 
ATOM     92  C   UNL A   1      44.774  25.476  35.290  1.00  0.00     0.091 A 
ATOM     93  F   UNL A   1      45.442  27.646  34.687  1.00  0.00    -0.205 F 
ATOM     94  C   UNL A   1      43.806  24.606  35.793  1.00  0.00     0.022 A 
BRANCH  92  95
ATOM     95  S   UNL A   1      46.377  24.794  34.857  1.00  0.00     0.127 S 
ATOM     96  O   UNL A   1      47.143  25.038  36.077  1.00  0.00    -0.237 OA
ATOM     97  O   UNL A   1      46.052  23.387  34.609  1.00  0.00    -0.237 OA
ATOM     98  O   UNL A   1      46.808  25.524  33.673  1.00  0.00    -0.744 OA
ENDBRANCH  92  95
ENDBRANCH  65  88
ENDBRANCH  39  40
ENDBRANCH  32  34
ENDBRANCH  31  32
ENDBRANCH  30  31
ENDBRANCH   1  30
TORSDOF 18
ENDMDL
MODEL 3
REMARK VINA RESULT:     -12.0      3.877      9.160
REMARK SMILES Cc1ccccc1[C@@H]1[NH2+][C@@H](C(=O)OCCOCCOC(=O)c2ccc(-c3c4nc(c(-c5cccc(S(=O)(=O)[O-])c5F)c5ccc([nH]5)c(-c5cccc(S(=O)(=O)[O-])c5F)c5nc(c(-c6cccc(S(=O)(=O)[O-])c6F)c6ccc3[nH]6)C=C5)C=C4)cc2)CC2=c3ccccc3=N[C@H]21
REMARK SMILES IDX 17 1 16 2 15 3 14 4 13 5 11 6 12 7 10 8 8 9 9 10 94 11 86 14
REMARK SMILES IDX 93 15 85 16 87 17 92 18 88 19 91 20 89 21 90 22 7 23 1 24
REMARK SMILES IDX 2 25 3 26 4 27 6 28 5 29 18 30 19 31 20 32 21 33 22 34 23 35
REMARK SMILES IDX 84 36 24 37 83 38 25 39 26 40 27 41 77 42 28 43 82 44 76 45
REMARK SMILES IDX 78 46 29 47 81 48 75 49 74 50 30 52 62 53 42 54 61 55 43 56
REMARK SMILES IDX 46 57 60 58 79 59 44 60 45 61 59 63 80 64 47 65 31 66 32 67
REMARK SMILES IDX 40 68 33 69 35 70 41 71 34 72 36 73 37 74 38 75 39 76 63 77
REMARK SMILES IDX 64 78 72 79 65 80 67 81 73 82 66 83 68 84 69 85 70 86 71 87
REMARK SMILES IDX 48 88 49 89 57 90 50 91 52 92 58 93 51 94 53 95 54 96 55 97
REMARK SMILES IDX 56 98
REMARK H PARENT 9 12 9 13 78 51 46 62
REMARK Flexibility Score: inf
ROOT
ATOM      1  C   UNL A   1      33.698  33.149  28.368  1.00  0.00     0.202 C 
ENDROOT
BRANCH   1   2
ATOM      2  O   UNL A   1      34.655  32.143  28.093  1.00  0.00    -0.374 OA
BRANCH   2   3
ATOM      3  C   UNL A   1      34.206  31.088  27.270  1.00  0.00     0.202 C 
BRANCH   3   4
ATOM      4  C   UNL A   1      34.443  29.795  27.991  1.00  0.00     0.261 C 
BRANCH   4   5
ATOM      5  O   UNL A   1      33.837  28.578  27.456  1.00  0.00    -0.459 OA
BRANCH   5   6
ATOM      6  C   UNL A   1      32.560  28.312  27.097  1.00  0.00     0.365 C 
ATOM      7  O   UNL A   1      31.747  27.880  27.909  1.00  0.00    -0.245 OA
BRANCH   6   8
ATOM      8  C   UNL A   1      32.279  28.382  25.595  1.00  0.00     0.298 C 
ATOM      9  C   UNL A   1      30.905  27.197  23.840  1.00  0.00     0.243 C 
ATOM     10  N   UNL A   1      31.072  27.569  25.262  1.00  0.00    -0.326 N 
ATOM     11  C   UNL A   1      32.199  26.944  22.990  1.00  0.00     0.196 C 
ATOM     12  H   UNL A   1      31.118  26.707  25.805  1.00  0.00     0.347 HD
ATOM     13  H   UNL A   1      30.274  28.164  25.484  1.00  0.00     0.347 HD
ATOM     14  C   UNL A   1      33.344  26.862  23.941  1.00  0.00    -0.024 C 
ATOM     15  N   UNL A   1      32.166  25.602  22.331  1.00  0.00    -0.270 NA
ATOM     16  C   UNL A   1      33.558  28.044  24.796  1.00  0.00     0.111 C 
ATOM     17  C   UNL A   1      33.831  25.633  24.026  1.00  0.00     0.002 A 
ATOM     18  C   UNL A   1      33.064  24.932  22.987  1.00  0.00     0.066 A 
ATOM     19  C   UNL A   1      34.715  24.956  24.915  1.00  0.00     0.010 A 
ATOM     20  C   UNL A   1      33.382  23.504  22.802  1.00  0.00     0.028 A 
ATOM     21  C   UNL A   1      34.888  23.636  24.744  1.00  0.00     0.001 A 
ATOM     22  C   UNL A   1      34.240  22.919  23.655  1.00  0.00     0.002 A 
BRANCH   9  23
ATOM     23  C   UNL A   1      29.854  28.050  23.126  1.00  0.00     0.015 A 
ATOM     24  C   UNL A   1      27.738  26.773  23.889  1.00  0.00     0.045 C 
ATOM     25  C   UNL A   1      28.454  27.930  23.255  1.00  0.00    -0.042 A 
ATOM     26  C   UNL A   1      27.638  28.978  22.790  1.00  0.00     0.004 A 
ATOM     27  C   UNL A   1      28.173  30.074  22.119  1.00  0.00     0.000 A 
ATOM     28  C   UNL A   1      30.359  29.110  22.338  1.00  0.00     0.010 A 
ATOM     29  C   UNL A   1      29.531  30.115  21.847  1.00  0.00     0.001 A 
ENDBRANCH   9  23
ENDBRANCH   6   8
ENDBRANCH   5   6
ENDBRANCH   4   5
ENDBRANCH   3   4
ENDBRANCH   2   3
ENDBRANCH   1   2
BRANCH   1  30
ATOM     30  C   UNL A   1      34.132  34.092  29.490  1.00  0.00     0.261 C 
BRANCH  30  31
ATOM     31  O   UNL A   1      34.053  33.400  30.749  1.00  0.00    -0.460 OA
BRANCH  31  32
ATOM     32  C   UNL A   1      35.119  33.604  31.566  1.00  0.00     0.338 C 
ATOM     33  O   UNL A   1      35.307  34.649  32.193  1.00  0.00    -0.246 OA
BRANCH  32  34
ATOM     34  C   UNL A   1      36.122  32.524  31.386  1.00  0.00     0.060 A 
ATOM     35  C   UNL A   1      36.280  31.549  32.383  1.00  0.00     0.016 A 
ATOM     36  C   UNL A   1      37.088  32.658  30.384  1.00  0.00     0.016 A 
ATOM     37  C   UNL A   1      37.470  30.824  32.471  1.00  0.00     0.010 A 
ATOM     38  C   UNL A   1      38.303  32.021  30.539  1.00  0.00     0.010 A 
ATOM     39  C   UNL A   1      38.509  31.130  31.604  1.00  0.00    -0.014 A 
BRANCH  39  40
ATOM     40  C   UNL A   1      39.823  30.506  31.631  1.00  0.00     0.031 A 
ATOM     41  C   UNL A   1      39.947  29.198  30.978  1.00  0.00     0.074 A 
ATOM     42  C   UNL A   1      40.928  31.221  31.935  1.00  0.00     0.049 A 
ATOM     43  N   UNL A   1      41.036  28.518  30.967  1.00  0.00    -0.248 NA
ATOM     44  C   UNL A   1      38.828  28.503  30.336  1.00  0.00     0.031 C 
ATOM     45  C   UNL A   1      42.244  31.153  31.304  1.00  0.00     0.029 A 
ATOM     46  N   UNL A   1      41.068  32.263  32.845  1.00  0.00    -0.354 N 
ATOM     47  C   UNL A   1      40.874  27.568  29.993  1.00  0.00     0.074 A 
ATOM     48  C   UNL A   1      39.454  27.443  29.816  1.00  0.00     0.031 C 
ATOM     49  C   UNL A   1      43.102  31.952  31.966  1.00  0.00     0.029 A 
ATOM     50  C   UNL A   1      42.422  32.421  33.162  1.00  0.00     0.049 A 
ATOM     51  H   UNL A   1      40.332  32.805  33.210  1.00  0.00     0.167 HD
ATOM     52  C   UNL A   1      41.977  27.172  29.307  1.00  0.00     0.034 A 
ATOM     53  C   UNL A   1      42.837  32.338  34.456  1.00  0.00     0.034 A 
ATOM     54  C   UNL A   1      43.205  27.710  29.932  1.00  0.00     0.049 A 
ATOM     55  C   UNL A   1      43.706  31.120  34.607  1.00  0.00     0.074 A 
ATOM     56  C   UNL A   1      44.135  28.662  29.553  1.00  0.00     0.029 A 
ATOM     57  N   UNL A   1      43.440  27.466  31.290  1.00  0.00    -0.354 N 
ATOM     58  N   UNL A   1      43.835  30.240  33.655  1.00  0.00    -0.248 NA
ATOM     59  C   UNL A   1      44.540  30.801  35.756  1.00  0.00     0.031 C 
ATOM     60  C   UNL A   1      44.872  29.046  30.717  1.00  0.00     0.029 A 
ATOM     61  C   UNL A   1      44.431  28.295  31.797  1.00  0.00     0.049 A 
ATOM     62  H   UNL A   1      42.961  26.789  31.821  1.00  0.00     0.167 HD
ATOM     63  C   UNL A   1      44.673  29.244  34.015  1.00  0.00     0.074 A 
ATOM     64  C   UNL A   1      45.127  29.662  35.338  1.00  0.00     0.031 C 
ATOM     65  C   UNL A   1      44.863  28.165  33.197  1.00  0.00     0.034 A 
BRANCH  52  66
ATOM     66  C   UNL A   1      41.950  26.455  27.969  1.00  0.00     0.023 A 
ATOM     67  C   UNL A   1      41.556  27.220  26.852  1.00  0.00     0.012 A 
ATOM     68  C   UNL A   1      42.221  25.082  27.716  1.00  0.00     0.148 A 
ATOM     69  C   UNL A   1      41.451  26.672  25.568  1.00  0.00     0.002 A 
ATOM     70  C   UNL A   1      42.201  24.556  26.421  1.00  0.00     0.091 A 
ATOM     71  F   UNL A   1      42.402  24.229  28.728  1.00  0.00    -0.205 F 
ATOM     72  C   UNL A   1      41.800  25.348  25.345  1.00  0.00     0.022 A 
BRANCH  70  73
ATOM     73  S   UNL A   1      42.716  22.866  26.044  1.00  0.00     0.127 S 
ATOM     74  O   UNL A   1      43.080  22.960  24.629  1.00  0.00    -0.237 OA
ATOM     75  O   UNL A   1      43.851  22.676  26.949  1.00  0.00    -0.237 OA
ATOM     76  O   UNL A   1      41.571  22.011  26.333  1.00  0.00    -0.744 OA
ENDBRANCH  70  73
ENDBRANCH  52  66
BRANCH  53  77
ATOM     77  C   UNL A   1      41.827  32.908  35.407  1.00  0.00     0.023 A 
ATOM     78  C   UNL A   1      41.633  34.315  35.356  1.00  0.00     0.012 A 
ATOM     79  C   UNL A   1      40.791  32.111  35.928  1.00  0.00     0.148 A 
ATOM     80  C   UNL A   1      40.402  34.893  35.685  1.00  0.00     0.002 A 
ATOM     81  C   UNL A   1      39.550  32.690  36.210  1.00  0.00     0.091 A 
ATOM     82  F   UNL A   1      41.006  30.797  36.069  1.00  0.00    -0.205 F 
ATOM     83  C   UNL A   1      39.345  34.072  36.059  1.00  0.00     0.022 A 
BRANCH  81  84
ATOM     84  S   UNL A   1      38.103  31.698  36.605  1.00  0.00     0.127 S 
ATOM     85  O   UNL A   1      38.170  31.648  38.064  1.00  0.00    -0.237 OA
ATOM     86  O   UNL A   1      37.011  32.517  36.074  1.00  0.00    -0.237 OA
ATOM     87  O   UNL A   1      38.295  30.433  35.914  1.00  0.00    -0.744 OA
ENDBRANCH  81  84
ENDBRANCH  53  77
BRANCH  65  88
ATOM     88  C   UNL A   1      45.467  26.861  33.657  1.00  0.00     0.023 A 
ATOM     89  C   UNL A   1      46.854  26.625  33.626  1.00  0.00     0.012 A 
ATOM     90  C   UNL A   1      44.669  25.888  34.307  1.00  0.00     0.148 A 
ATOM     91  C   UNL A   1      47.419  25.462  34.148  1.00  0.00     0.002 A 
ATOM     92  C   UNL A   1      45.251  24.806  34.952  1.00  0.00     0.091 A 
ATOM     93  F   UNL A   1      43.333  25.990  34.295  1.00  0.00    -0.205 F 
ATOM     94  C   UNL A   1      46.622  24.566  34.841  1.00  0.00     0.022 A 
BRANCH  92  95
ATOM     95  S   UNL A   1      44.309  23.786  36.091  1.00  0.00     0.127 S 
ATOM     96  O   UNL A   1      43.652  24.794  36.919  1.00  0.00    -0.237 OA
ATOM     97  O   UNL A   1      43.416  23.062  35.183  1.00  0.00    -0.237 OA
ATOM     98  O   UNL A   1      45.287  22.942  36.764  1.00  0.00    -0.744 OA
ENDBRANCH  92  95
ENDBRANCH  65  88
ENDBRANCH  39  40
ENDBRANCH  32  34
ENDBRANCH  31  32
ENDBRANCH  30  31
ENDBRANCH   1  30
TORSDOF 18
ENDMDL
