MODEL 1
REMARK VINA RESULT:     -11.2      0.000      0.000
REMARK SMILES C[C@@H](C(=O)OCCOCCOC(=O)c1ccc(-c2c3nc(c(-c4cccc(S(=O)(=O)[O-])c4F)c4ccc([nH]4)c(-c4cccc(S(=O)(=O)[O-])c4F)c4nc(c(-c5cccc(S(=O)(=O)[O-])c5F)c5ccc2[nH]5)C=C4)C=C3)cc1)c1ccc(C[C@H]2CCC[C@H]2O)cc1
REMARK SMILES IDX 7 1 6 2 5 3 3 4 4 5 2 6 1 7 77 8 78 9 89 10 79 11 88 12
REMARK SMILES IDX 80 13 81 14 82 15 83 16 86 17 84 18 85 19 87 20 8 22 9 23
REMARK SMILES IDX 10 24 11 25 12 26 13 27 14 28 15 29 76 30 16 31 75 32 17 33
REMARK SMILES IDX 18 34 19 35 69 36 20 37 74 38 68 39 70 40 21 41 73 42 67 43
REMARK SMILES IDX 66 44 22 46 54 47 34 48 53 49 35 50 38 51 52 52 71 53 36 54
REMARK SMILES IDX 37 55 51 57 72 58 39 59 23 60 24 61 32 62 25 63 27 64 33 65
REMARK SMILES IDX 26 66 28 67 29 68 30 69 31 70 55 71 56 72 64 73 57 74 59 75
REMARK SMILES IDX 65 76 58 77 60 78 61 79 62 80 63 81 40 82 41 83 49 84 42 85
REMARK SMILES IDX 44 86 50 87 43 88 45 89 46 90 47 91 48 92
REMARK H PARENT 87 21 70 45 38 56
REMARK Flexibility Score: inf
ROOT
ATOM      1  C   UNL A   1      32.763  29.268  23.584  1.00  0.00     0.202 C 
ENDROOT
BRANCH   1   2
ATOM      2  C   UNL A   1      32.035  27.925  23.455  1.00  0.00     0.261 C 
BRANCH   2   3
ATOM      3  O   UNL A   1      32.774  26.893  24.123  1.00  0.00    -0.463 OA
BRANCH   3   4
ATOM      4  C   UNL A   1      32.232  26.437  25.284  1.00  0.00     0.313 C 
ATOM      5  O   UNL A   1      32.363  26.986  26.372  1.00  0.00    -0.252 OA
BRANCH   4   6
ATOM      6  C   UNL A   1      31.298  25.246  25.051  1.00  0.00     0.126 C 
ATOM      7  C   UNL A   1      29.996  25.352  25.854  1.00  0.00     0.025 C 
BRANCH   6   8
ATOM      8  C   UNL A   1      31.983  23.883  25.198  1.00  0.00    -0.034 A 
ATOM      9  C   UNL A   1      33.096  23.684  26.032  1.00  0.00     0.005 A 
ATOM     10  C   UNL A   1      31.561  22.798  24.413  1.00  0.00     0.005 A 
ATOM     11  C   UNL A   1      33.815  22.486  26.007  1.00  0.00     0.004 A 
ATOM     12  C   UNL A   1      32.290  21.604  24.379  1.00  0.00     0.004 A 
ATOM     13  C   UNL A   1      33.472  21.471  25.116  1.00  0.00    -0.048 A 
BRANCH  13  14
ATOM     14  C   UNL A   1      34.410  20.313  24.875  1.00  0.00     0.041 C 
BRANCH  14  15
ATOM     15  C   UNL A   1      33.755  18.956  24.535  1.00  0.00     0.022 C 
ATOM     16  C   UNL A   1      34.711  17.760  24.366  1.00  0.00     0.007 C 
ATOM     17  C   UNL A   1      32.634  18.435  25.451  1.00  0.00     0.117 C 
ATOM     18  C   UNL A   1      33.944  16.521  24.833  1.00  0.00     0.003 C 
ATOM     19  C   UNL A   1      32.504  16.973  25.038  1.00  0.00     0.032 C 
BRANCH  17  20
ATOM     20  O   UNL A   1      32.916  18.490  26.836  1.00  0.00    -0.393 OA
ATOM     21  H   UNL A   1      33.465  19.268  27.024  1.00  0.00     0.210 HD
ENDBRANCH  17  20
ENDBRANCH  14  15
ENDBRANCH  13  14
ENDBRANCH   6   8
ENDBRANCH   4   6
ENDBRANCH   3   4
ENDBRANCH   2   3
ENDBRANCH   1   2
BRANCH   1  22
ATOM     22  O   UNL A   1      32.750  29.874  24.879  1.00  0.00    -0.374 OA
BRANCH  22  23
ATOM     23  C   UNL A   1      31.495  30.330  25.386  1.00  0.00     0.202 C 
BRANCH  23  24
ATOM     24  C   UNL A   1      31.518  31.505  26.370  1.00  0.00     0.261 C 
BRANCH  24  25
ATOM     25  O   UNL A   1      32.481  31.329  27.424  1.00  0.00    -0.460 OA
BRANCH  25  26
ATOM     26  C   UNL A   1      33.367  32.344  27.557  1.00  0.00     0.338 C 
ATOM     27  O   UNL A   1      33.123  33.546  27.523  1.00  0.00    -0.246 OA
BRANCH  26  28
ATOM     28  C   UNL A   1      34.693  31.830  27.938  1.00  0.00     0.060 A 
ATOM     29  C   UNL A   1      34.821  30.446  28.114  1.00  0.00     0.016 A 
ATOM     30  C   UNL A   1      35.764  32.682  28.214  1.00  0.00     0.016 A 
ATOM     31  C   UNL A   1      36.004  29.912  28.618  1.00  0.00     0.010 A 
ATOM     32  C   UNL A   1      36.948  32.144  28.729  1.00  0.00     0.010 A 
ATOM     33  C   UNL A   1      37.059  30.762  28.970  1.00  0.00    -0.014 A 
BRANCH  33  34
ATOM     34  C   UNL A   1      38.217  30.213  29.718  1.00  0.00     0.031 A 
ATOM     35  C   UNL A   1      38.465  30.676  31.129  1.00  0.00     0.074 A 
ATOM     36  C   UNL A   1      39.028  29.301  29.155  1.00  0.00     0.049 A 
ATOM     37  N   UNL A   1      39.415  30.331  31.958  1.00  0.00    -0.248 NA
ATOM     38  C   UNL A   1      37.514  31.657  31.678  1.00  0.00     0.031 C 
ATOM     39  C   UNL A   1      38.891  28.772  27.800  1.00  0.00     0.029 A 
ATOM     40  N   UNL A   1      40.144  28.673  29.651  1.00  0.00    -0.354 N 
ATOM     41  C   UNL A   1      39.194  31.066  33.116  1.00  0.00     0.074 A 
ATOM     42  C   UNL A   1      38.027  31.889  32.878  1.00  0.00     0.031 C 
ATOM     43  C   UNL A   1      39.905  27.922  27.559  1.00  0.00     0.029 A 
ATOM     44  C   UNL A   1      40.771  27.861  28.736  1.00  0.00     0.049 A 
ATOM     45  H   UNL A   1      40.465  28.793  30.574  1.00  0.00     0.167 HD
ATOM     46  C   UNL A   1      39.885  31.046  34.280  1.00  0.00     0.034 A 
ATOM     47  C   UNL A   1      41.921  27.165  28.830  1.00  0.00     0.034 A 
ATOM     48  C   UNL A   1      41.033  30.216  34.524  1.00  0.00     0.049 A 
ATOM     49  C   UNL A   1      42.684  27.174  30.130  1.00  0.00     0.074 A 
ATOM     50  C   UNL A   1      41.776  30.094  35.685  1.00  0.00     0.029 A 
ATOM     51  N   UNL A   1      41.611  29.371  33.589  1.00  0.00    -0.354 N 
ATOM     52  N   UNL A   1      42.392  27.780  31.255  1.00  0.00    -0.248 NA
ATOM     53  C   UNL A   1      43.917  26.372  30.184  1.00  0.00     0.031 C 
ATOM     54  C   UNL A   1      42.817  29.191  35.444  1.00  0.00     0.029 A 
ATOM     55  C   UNL A   1      42.707  28.732  34.142  1.00  0.00     0.049 A 
ATOM     56  H   UNL A   1      41.289  29.243  32.667  1.00  0.00     0.167 HD
ATOM     57  C   UNL A   1      43.384  27.409  32.158  1.00  0.00     0.074 A 
ATOM     58  C   UNL A   1      44.272  26.508  31.455  1.00  0.00     0.031 C 
ATOM     59  C   UNL A   1      43.552  27.793  33.448  1.00  0.00     0.034 A 
BRANCH  46  60
ATOM     60  C   UNL A   1      39.396  31.930  35.397  1.00  0.00     0.023 A 
ATOM     61  C   UNL A   1      38.497  31.408  36.350  1.00  0.00     0.012 A 
ATOM     62  C   UNL A   1      39.865  33.250  35.539  1.00  0.00     0.148 A 
ATOM     63  C   UNL A   1      38.051  32.197  37.410  1.00  0.00     0.002 A 
ATOM     64  C   UNL A   1      39.448  34.016  36.620  1.00  0.00     0.091 A 
ATOM     65  F   UNL A   1      40.701  33.734  34.609  1.00  0.00    -0.205 F 
ATOM     66  C   UNL A   1      38.533  33.495  37.550  1.00  0.00     0.022 A 
BRANCH  64  67
ATOM     67  S   UNL A   1      40.067  35.674  36.928  1.00  0.00     0.127 S 
ATOM     68  O   UNL A   1      39.374  36.023  38.167  1.00  0.00    -0.237 OA
ATOM     69  O   UNL A   1      41.504  35.444  37.077  1.00  0.00    -0.237 OA
ATOM     70  O   UNL A   1      39.698  36.462  35.760  1.00  0.00    -0.744 OA
ENDBRANCH  64  67
ENDBRANCH  46  60
BRANCH  47  71
ATOM     71  C   UNL A   1      42.405  26.372  27.666  1.00  0.00     0.023 A 
ATOM     72  C   UNL A   1      43.259  26.969  26.720  1.00  0.00     0.012 A 
ATOM     73  C   UNL A   1      42.037  25.021  27.503  1.00  0.00     0.148 A 
ATOM     74  C   UNL A   1      43.717  26.245  25.618  1.00  0.00     0.002 A 
ATOM     75  C   UNL A   1      42.540  24.290  26.434  1.00  0.00     0.091 A 
ATOM     76  F   UNL A   1      41.205  24.476  28.402  1.00  0.00    -0.205 F 
ATOM     77  C   UNL A   1      43.368  24.904  25.481  1.00  0.00     0.022 A 
BRANCH  75  78
ATOM     78  S   UNL A   1      42.245  22.527  26.254  1.00  0.00     0.127 S 
ATOM     79  O   UNL A   1      40.793  22.481  26.107  1.00  0.00    -0.237 OA
ATOM     80  O   UNL A   1      42.998  22.216  25.039  1.00  0.00    -0.237 OA
ATOM     81  O   UNL A   1      42.781  21.916  27.462  1.00  0.00    -0.744 OA
ENDBRANCH  75  78
ENDBRANCH  47  71
BRANCH  59  82
ATOM     82  C   UNL A   1      44.722  27.219  34.204  1.00  0.00     0.023 A 
ATOM     83  C   UNL A   1      45.962  27.887  34.186  1.00  0.00     0.012 A 
ATOM     84  C   UNL A   1      44.571  26.063  34.996  1.00  0.00     0.148 A 
ATOM     85  C   UNL A   1      47.042  27.398  34.921  1.00  0.00     0.002 A 
ATOM     86  C   UNL A   1      45.638  25.608  35.762  1.00  0.00     0.091 A 
ATOM     87  F   UNL A   1      43.389  25.430  34.987  1.00  0.00    -0.205 F 
ATOM     88  C   UNL A   1      46.877  26.267  35.716  1.00  0.00     0.022 A 
BRANCH  86  89
ATOM     89  S   UNL A   1      45.490  24.215  36.887  1.00  0.00     0.127 S 
ATOM     90  O   UNL A   1      46.843  24.125  37.433  1.00  0.00    -0.237 OA
ATOM     91  O   UNL A   1      44.481  24.687  37.836  1.00  0.00    -0.237 OA
ATOM     92  O   UNL A   1      45.067  23.085  36.071  1.00  0.00    -0.744 OA
ENDBRANCH  86  89
ENDBRANCH  59  82
ENDBRANCH  33  34
ENDBRANCH  26  28
ENDBRANCH  25  26
ENDBRANCH  24  25
ENDBRANCH  23  24
ENDBRANCH  22  23
ENDBRANCH   1  22
TORSDOF 21
ENDMDL
MODEL 2
REMARK VINA RESULT:     -11.2      1.423      7.674
REMARK SMILES C[C@@H](C(=O)OCCOCCOC(=O)c1ccc(-c2c3nc(c(-c4cccc(S(=O)(=O)[O-])c4F)c4ccc([nH]4)c(-c4cccc(S(=O)(=O)[O-])c4F)c4nc(c(-c5cccc(S(=O)(=O)[O-])c5F)c5ccc2[nH]5)C=C4)C=C3)cc1)c1ccc(C[C@H]2CCC[C@H]2O)cc1
REMARK SMILES IDX 7 1 6 2 5 3 3 4 4 5 2 6 1 7 77 8 78 9 89 10 79 11 88 12
REMARK SMILES IDX 80 13 81 14 82 15 83 16 86 17 84 18 85 19 87 20 8 22 9 23
REMARK SMILES IDX 10 24 11 25 12 26 13 27 14 28 15 29 76 30 16 31 75 32 17 33
REMARK SMILES IDX 18 34 19 35 69 36 20 37 74 38 68 39 70 40 21 41 73 42 67 43
REMARK SMILES IDX 66 44 22 46 54 47 34 48 53 49 35 50 38 51 52 52 71 53 36 54
REMARK SMILES IDX 37 55 51 57 72 58 39 59 23 60 24 61 32 62 25 63 27 64 33 65
REMARK SMILES IDX 26 66 28 67 29 68 30 69 31 70 55 71 56 72 64 73 57 74 59 75
REMARK SMILES IDX 65 76 58 77 60 78 61 79 62 80 63 81 40 82 41 83 49 84 42 85
REMARK SMILES IDX 44 86 50 87 43 88 45 89 46 90 47 91 48 92
REMARK H PARENT 87 21 70 45 38 56
REMARK Flexibility Score: inf
ROOT
ATOM      1  C   UNL A   1      30.829  28.578  23.201  1.00  0.00     0.202 C 
ENDROOT
BRANCH   1   2
ATOM      2  C   UNL A   1      30.833  27.062  22.981  1.00  0.00     0.261 C 
BRANCH   2   3
ATOM      3  O   UNL A   1      32.175  26.586  22.812  1.00  0.00    -0.463 OA
BRANCH   3   4
ATOM      4  C   UNL A   1      32.863  26.342  23.959  1.00  0.00     0.313 C 
ATOM      5  O   UNL A   1      33.946  26.845  24.237  1.00  0.00    -0.252 OA
BRANCH   4   6
ATOM      6  C   UNL A   1      32.053  25.494  24.944  1.00  0.00     0.126 C 
ATOM      7  C   UNL A   1      31.895  26.169  26.312  1.00  0.00     0.025 C 
BRANCH   6   8
ATOM      8  C   UNL A   1      32.527  24.039  25.044  1.00  0.00    -0.034 A 
ATOM      9  C   UNL A   1      33.092  23.509  26.215  1.00  0.00     0.005 A 
ATOM     10  C   UNL A   1      32.489  23.210  23.911  1.00  0.00     0.005 A 
ATOM     11  C   UNL A   1      33.684  22.243  26.225  1.00  0.00     0.004 A 
ATOM     12  C   UNL A   1      33.094  21.949  23.919  1.00  0.00     0.004 A 
ATOM     13  C   UNL A   1      33.769  21.491  25.055  1.00  0.00    -0.048 A 
BRANCH  13  14
ATOM     14  C   UNL A   1      34.659  20.273  24.990  1.00  0.00     0.041 C 
BRANCH  14  15
ATOM     15  C   UNL A   1      34.004  18.968  24.483  1.00  0.00     0.022 C 
ATOM     16  C   UNL A   1      34.923  17.736  24.384  1.00  0.00     0.007 C 
ATOM     17  C   UNL A   1      32.741  18.459  25.198  1.00  0.00     0.117 C 
ATOM     18  C   UNL A   1      34.045  16.515  24.666  1.00  0.00     0.003 C 
ATOM     19  C   UNL A   1      32.611  17.027  24.687  1.00  0.00     0.032 C 
BRANCH  17  20
ATOM     20  O   UNL A   1      32.820  18.430  26.610  1.00  0.00    -0.393 OA
ATOM     21  H   UNL A   1      33.628  17.965  26.879  1.00  0.00     0.210 HD
ENDBRANCH  17  20
ENDBRANCH  14  15
ENDBRANCH  13  14
ENDBRANCH   6   8
ENDBRANCH   4   6
ENDBRANCH   3   4
ENDBRANCH   2   3
ENDBRANCH   1   2
BRANCH   1  22
ATOM     22  O   UNL A   1      30.802  29.022  24.559  1.00  0.00    -0.374 OA
BRANCH  22  23
ATOM     23  C   UNL A   1      31.936  29.744  25.044  1.00  0.00     0.202 C 
BRANCH  23  24
ATOM     24  C   UNL A   1      31.685  30.808  26.120  1.00  0.00     0.261 C 
BRANCH  24  25
ATOM     25  O   UNL A   1      32.604  30.712  27.222  1.00  0.00    -0.460 OA
BRANCH  25  26
ATOM     26  C   UNL A   1      33.365  31.814  27.424  1.00  0.00     0.338 C 
ATOM     27  O   UNL A   1      32.986  32.981  27.427  1.00  0.00    -0.246 OA
BRANCH  26  28
ATOM     28  C   UNL A   1      34.729  31.436  27.829  1.00  0.00     0.060 A 
ATOM     29  C   UNL A   1      34.960  30.090  28.138  1.00  0.00     0.016 A 
ATOM     30  C   UNL A   1      35.737  32.387  28.001  1.00  0.00     0.016 A 
ATOM     31  C   UNL A   1      36.184  29.695  28.670  1.00  0.00     0.010 A 
ATOM     32  C   UNL A   1      36.964  31.989  28.545  1.00  0.00     0.010 A 
ATOM     33  C   UNL A   1      37.179  30.650  28.918  1.00  0.00    -0.014 A 
BRANCH  33  34
ATOM     34  C   UNL A   1      38.382  30.263  29.696  1.00  0.00     0.031 A 
ATOM     35  C   UNL A   1      39.343  29.264  29.109  1.00  0.00     0.074 A 
ATOM     36  C   UNL A   1      38.625  30.807  30.901  1.00  0.00     0.049 A 
ATOM     37  N   UNL A   1      40.449  28.784  29.616  1.00  0.00    -0.248 NA
ATOM     38  C   UNL A   1      39.015  28.737  27.775  1.00  0.00     0.031 C 
ATOM     39  C   UNL A   1      37.773  31.786  31.573  1.00  0.00     0.029 A 
ATOM     40  N   UNL A   1      39.655  30.594  31.783  1.00  0.00    -0.354 N 
ATOM     41  C   UNL A   1      40.937  27.883  28.678  1.00  0.00     0.074 A 
ATOM     42  C   UNL A   1      39.999  27.872  27.575  1.00  0.00     0.031 C 
ATOM     43  C   UNL A   1      38.298  32.065  32.778  1.00  0.00     0.029 A 
ATOM     44  C   UNL A   1      39.512  31.274  32.970  1.00  0.00     0.049 A 
ATOM     45  H   UNL A   1      40.422  30.010  31.586  1.00  0.00     0.167 HD
ATOM     46  C   UNL A   1      42.072  27.147  28.718  1.00  0.00     0.034 A 
ATOM     47  C   UNL A   1      40.262  31.244  34.089  1.00  0.00     0.034 A 
ATOM     48  C   UNL A   1      43.014  27.172  29.803  1.00  0.00     0.049 A 
ATOM     49  C   UNL A   1      41.511  30.401  34.117  1.00  0.00     0.074 A 
ATOM     50  C   UNL A   1      44.214  26.492  29.918  1.00  0.00     0.029 A 
ATOM     51  N   UNL A   1      42.859  27.908  30.968  1.00  0.00    -0.354 N 
ATOM     52  N   UNL A   1      42.022  29.649  33.172  1.00  0.00    -0.248 NA
ATOM     53  C   UNL A   1      42.307  30.430  35.354  1.00  0.00     0.031 C 
ATOM     54  C   UNL A   1      44.774  26.802  31.162  1.00  0.00     0.029 A 
ATOM     55  C   UNL A   1      43.935  27.693  31.811  1.00  0.00     0.049 A 
ATOM     56  H   UNL A   1      42.096  28.498  31.166  1.00  0.00     0.167 HD
ATOM     57  C   UNL A   1      43.212  29.143  33.686  1.00  0.00     0.074 A 
ATOM     58  C   UNL A   1      43.357  29.692  35.018  1.00  0.00     0.031 C 
ATOM     59  C   UNL A   1      44.096  28.289  33.113  1.00  0.00     0.034 A 
BRANCH  46  60
ATOM     60  C   UNL A   1      42.377  26.271  27.532  1.00  0.00     0.023 A 
ATOM     61  C   UNL A   1      43.116  26.799  26.452  1.00  0.00     0.012 A 
ATOM     62  C   UNL A   1      41.987  24.919  27.506  1.00  0.00     0.148 A 
ATOM     63  C   UNL A   1      43.436  26.002  25.354  1.00  0.00     0.002 A 
ATOM     64  C   UNL A   1      42.345  24.119  26.428  1.00  0.00     0.091 A 
ATOM     65  F   UNL A   1      41.265  24.442  28.531  1.00  0.00    -0.205 F 
ATOM     66  C   UNL A   1      43.060  24.661  25.347  1.00  0.00     0.022 A 
BRANCH  64  67
ATOM     67  S   UNL A   1      41.970  22.364  26.357  1.00  0.00     0.127 S 
ATOM     68  O   UNL A   1      42.693  21.955  25.154  1.00  0.00    -0.237 OA
ATOM     69  O   UNL A   1      42.545  21.874  27.610  1.00  0.00    -0.237 OA
ATOM     70  O   UNL A   1      40.519  22.267  26.279  1.00  0.00    -0.744 OA
ENDBRANCH  64  67
ENDBRANCH  46  60
BRANCH  47  71
ATOM     71  C   UNL A   1      39.870  32.067  35.267  1.00  0.00     0.023 A 
ATOM     72  C   UNL A   1      40.348  33.385  35.389  1.00  0.00     0.012 A 
ATOM     73  C   UNL A   1      39.008  31.554  36.257  1.00  0.00     0.148 A 
ATOM     74  C   UNL A   1      39.997  34.169  36.489  1.00  0.00     0.002 A 
ATOM     75  C   UNL A   1      38.618  32.358  37.321  1.00  0.00     0.091 A 
ATOM     76  F   UNL A   1      38.580  30.289  36.135  1.00  0.00    -0.205 F 
ATOM     77  C   UNL A   1      39.125  33.661  37.448  1.00  0.00     0.022 A 
BRANCH  75  78
ATOM     78  S   UNL A   1      37.399  31.828  38.529  1.00  0.00     0.127 S 
ATOM     79  O   UNL A   1      37.130  30.458  38.100  1.00  0.00    -0.237 OA
ATOM     80  O   UNL A   1      38.143  31.947  39.783  1.00  0.00    -0.237 OA
ATOM     81  O   UNL A   1      36.289  32.763  38.401  1.00  0.00    -0.744 OA
ENDBRANCH  75  78
ENDBRANCH  47  71
BRANCH  59  82
ATOM     82  C   UNL A   1      45.322  27.913  33.905  1.00  0.00     0.023 A 
ATOM     83  C   UNL A   1      46.474  28.721  33.835  1.00  0.00     0.012 A 
ATOM     84  C   UNL A   1      45.304  26.807  34.779  1.00  0.00     0.148 A 
ATOM     85  C   UNL A   1      47.600  28.417  34.600  1.00  0.00     0.002 A 
ATOM     86  C   UNL A   1      46.413  26.539  35.572  1.00  0.00     0.091 A 
ATOM     87  F   UNL A   1      44.205  26.040  34.818  1.00  0.00    -0.205 F 
ATOM     88  C   UNL A   1      47.565  27.335  35.476  1.00  0.00     0.022 A 
BRANCH  86  89
ATOM     89  S   UNL A   1      46.424  25.223  36.795  1.00  0.00     0.127 S 
ATOM     90  O   UNL A   1      46.305  24.032  35.956  1.00  0.00    -0.237 OA
ATOM     91  O   UNL A   1      47.733  25.394  37.426  1.00  0.00    -0.237 OA
ATOM     92  O   UNL A   1      45.293  25.485  37.675  1.00  0.00    -0.744 OA
ENDBRANCH  86  89
ENDBRANCH  59  82
ENDBRANCH  33  34
ENDBRANCH  26  28
ENDBRANCH  25  26
ENDBRANCH  24  25
ENDBRANCH  23  24
ENDBRANCH  22  23
ENDBRANCH   1  22
TORSDOF 21
ENDMDL
MODEL 3
REMARK VINA RESULT:     -10.6      4.973      9.870
REMARK SMILES C[C@@H](C(=O)OCCOCCOC(=O)c1ccc(-c2c3nc(c(-c4cccc(S(=O)(=O)[O-])c4F)c4ccc([nH]4)c(-c4cccc(S(=O)(=O)[O-])c4F)c4nc(c(-c5cccc(S(=O)(=O)[O-])c5F)c5ccc2[nH]5)C=C4)C=C3)cc1)c1ccc(C[C@H]2CCC[C@H]2O)cc1
REMARK SMILES IDX 7 1 6 2 5 3 3 4 4 5 2 6 1 7 77 8 78 9 89 10 79 11 88 12
REMARK SMILES IDX 80 13 81 14 82 15 83 16 86 17 84 18 85 19 87 20 8 22 9 23
REMARK SMILES IDX 10 24 11 25 12 26 13 27 14 28 15 29 76 30 16 31 75 32 17 33
REMARK SMILES IDX 18 34 19 35 69 36 20 37 74 38 68 39 70 40 21 41 73 42 67 43
REMARK SMILES IDX 66 44 22 46 54 47 34 48 53 49 35 50 38 51 52 52 71 53 36 54
REMARK SMILES IDX 37 55 51 57 72 58 39 59 23 60 24 61 32 62 25 63 27 64 33 65
REMARK SMILES IDX 26 66 28 67 29 68 30 69 31 70 55 71 56 72 64 73 57 74 59 75
REMARK SMILES IDX 65 76 58 77 60 78 61 79 62 80 63 81 40 82 41 83 49 84 42 85
REMARK SMILES IDX 44 86 50 87 43 88 45 89 46 90 47 91 48 92
REMARK H PARENT 87 21 70 45 38 56
REMARK Flexibility Score: inf
ROOT
ATOM      1  C   UNL A   1      36.038  23.328  23.362  1.00  0.00     0.202 C 
ENDROOT
BRANCH   1   2
ATOM      2  C   UNL A   1      34.709  24.054  23.127  1.00  0.00     0.261 C 
BRANCH   2   3
ATOM      3  O   UNL A   1      34.523  25.083  24.108  1.00  0.00    -0.463 OA
BRANCH   3   4
ATOM      4  C   UNL A   1      33.341  25.752  24.045  1.00  0.00     0.313 C 
ATOM      5  O   UNL A   1      33.009  26.485  23.120  1.00  0.00    -0.252 OA
BRANCH   4   6
ATOM      6  C   UNL A   1      32.397  25.356  25.183  1.00  0.00     0.126 C 
ATOM      7  C   UNL A   1      32.532  26.271  26.406  1.00  0.00     0.025 C 
BRANCH   6   8
ATOM      8  C   UNL A   1      32.449  23.866  25.541  1.00  0.00    -0.034 A 
ATOM      9  C   UNL A   1      33.243  23.369  26.587  1.00  0.00     0.005 A 
ATOM     10  C   UNL A   1      31.757  22.932  24.754  1.00  0.00     0.005 A 
ATOM     11  C   UNL A   1      33.418  21.995  26.774  1.00  0.00     0.004 A 
ATOM     12  C   UNL A   1      31.944  21.557  24.933  1.00  0.00     0.004 A 
ATOM     13  C   UNL A   1      32.842  21.080  25.893  1.00  0.00    -0.048 A 
BRANCH  13  14
ATOM     14  C   UNL A   1      33.265  19.631  25.909  1.00  0.00     0.041 C 
BRANCH  14  15
ATOM     15  C   UNL A   1      33.501  18.968  24.534  1.00  0.00     0.022 C 
ATOM     16  C   UNL A   1      34.722  18.035  24.425  1.00  0.00     0.007 C 
ATOM     17  C   UNL A   1      32.345  18.177  23.897  1.00  0.00     0.117 C 
ATOM     18  C   UNL A   1      34.350  16.948  23.413  1.00  0.00     0.003 C 
ATOM     19  C   UNL A   1      33.036  17.394  22.784  1.00  0.00     0.032 C 
BRANCH  17  20
ATOM     20  O   UNL A   1      31.697  17.261  24.758  1.00  0.00    -0.393 OA
ATOM     21  H   UNL A   1      31.594  17.661  25.636  1.00  0.00     0.210 HD
ENDBRANCH  17  20
ENDBRANCH  14  15
ENDBRANCH  13  14
ENDBRANCH   6   8
ENDBRANCH   4   6
ENDBRANCH   3   4
ENDBRANCH   2   3
ENDBRANCH   1   2
BRANCH   1  22
ATOM     22  O   UNL A   1      36.220  22.740  24.651  1.00  0.00    -0.374 OA
BRANCH  22  23
ATOM     23  C   UNL A   1      36.512  21.342  24.708  1.00  0.00     0.202 C 
BRANCH  23  24
ATOM     24  C   UNL A   1      37.587  20.887  25.702  1.00  0.00     0.261 C 
BRANCH  24  25
ATOM     25  O   UNL A   1      38.899  21.369  25.362  1.00  0.00    -0.460 OA
BRANCH  25  26
ATOM     26  C   UNL A   1      39.829  21.214  26.334  1.00  0.00     0.338 C 
ATOM     27  O   UNL A   1      40.470  20.198  26.586  1.00  0.00    -0.246 OA
BRANCH  26  28
ATOM     28  C   UNL A   1      40.130  22.504  26.975  1.00  0.00     0.060 A 
ATOM     29  C   UNL A   1      39.435  23.630  26.515  1.00  0.00     0.016 A 
ATOM     30  C   UNL A   1      41.137  22.634  27.934  1.00  0.00     0.016 A 
ATOM     31  C   UNL A   1      39.779  24.899  26.973  1.00  0.00     0.010 A 
ATOM     32  C   UNL A   1      41.487  23.912  28.386  1.00  0.00     0.010 A 
ATOM     33  C   UNL A   1      40.837  25.052  27.879  1.00  0.00    -0.014 A 
BRANCH  33  34
ATOM     34  C   UNL A   1      41.346  26.413  28.180  1.00  0.00     0.031 A 
ATOM     35  C   UNL A   1      42.773  26.753  27.841  1.00  0.00     0.074 A 
ATOM     36  C   UNL A   1      40.544  27.340  28.731  1.00  0.00     0.049 A 
ATOM     37  N   UNL A   1      43.422  27.874  28.021  1.00  0.00    -0.248 NA
ATOM     38  C   UNL A   1      43.575  25.688  27.216  1.00  0.00     0.031 C 
ATOM     39  C   UNL A   1      39.146  27.133  29.102  1.00  0.00     0.029 A 
ATOM     40  N   UNL A   1      40.802  28.638  29.096  1.00  0.00    -0.354 N 
ATOM     41  C   UNL A   1      44.710  27.646  27.555  1.00  0.00     0.074 A 
ATOM     42  C   UNL A   1      44.758  26.273  27.097  1.00  0.00     0.031 C 
ATOM     43  C   UNL A   1      38.676  28.256  29.672  1.00  0.00     0.029 A 
ATOM     44  C   UNL A   1      39.744  29.253  29.722  1.00  0.00     0.049 A 
ATOM     45  H   UNL A   1      41.662  29.086  28.926  1.00  0.00     0.167 HD
ATOM     46  C   UNL A   1      45.755  28.504  27.493  1.00  0.00     0.034 A 
ATOM     47  C   UNL A   1      39.655  30.473  30.290  1.00  0.00     0.034 A 
ATOM     48  C   UNL A   1      45.704  29.873  27.930  1.00  0.00     0.049 A 
ATOM     49  C   UNL A   1      40.838  31.404  30.226  1.00  0.00     0.074 A 
ATOM     50  C   UNL A   1      46.698  30.834  27.871  1.00  0.00     0.029 A 
ATOM     51  N   UNL A   1      44.601  30.475  28.516  1.00  0.00    -0.354 N 
ATOM     52  N   UNL A   1      42.011  31.213  29.672  1.00  0.00    -0.248 NA
ATOM     53  C   UNL A   1      40.673  32.733  30.836  1.00  0.00     0.031 C 
ATOM     54  C   UNL A   1      46.202  32.011  28.442  1.00  0.00     0.029 A 
ATOM     55  C   UNL A   1      44.891  31.791  28.833  1.00  0.00     0.049 A 
ATOM     56  H   UNL A   1      43.737  30.032  28.682  1.00  0.00     0.167 HD
ATOM     57  C   UNL A   1      42.710  32.404  29.836  1.00  0.00     0.074 A 
ATOM     58  C   UNL A   1      41.821  33.319  30.523  1.00  0.00     0.031 C 
ATOM     59  C   UNL A   1      43.979  32.708  29.466  1.00  0.00     0.034 A 
BRANCH  46  60
ATOM     60  C   UNL A   1      47.042  27.996  26.900  1.00  0.00     0.023 A 
ATOM     61  C   UNL A   1      48.060  27.522  27.753  1.00  0.00     0.012 A 
ATOM     62  C   UNL A   1      47.225  27.933  25.505  1.00  0.00     0.148 A 
ATOM     63  C   UNL A   1      49.250  27.021  27.228  1.00  0.00     0.002 A 
ATOM     64  C   UNL A   1      48.396  27.394  24.987  1.00  0.00     0.091 A 
ATOM     65  F   UNL A   1      46.254  28.410  24.711  1.00  0.00    -0.205 F 
ATOM     66  C   UNL A   1      49.414  26.948  25.847  1.00  0.00     0.022 A 
BRANCH  64  67
ATOM     67  S   UNL A   1      48.672  27.191  23.224  1.00  0.00     0.127 S 
ATOM     68  O   UNL A   1      47.899  28.303  22.674  1.00  0.00    -0.237 OA
ATOM     69  O   UNL A   1      50.124  27.346  23.118  1.00  0.00    -0.237 OA
ATOM     70  O   UNL A   1      48.180  25.861  22.893  1.00  0.00    -0.744 OA
ENDBRANCH  64  67
ENDBRANCH  46  60
BRANCH  47  71
ATOM     71  C   UNL A   1      38.383  30.897  30.939  1.00  0.00     0.023 A 
ATOM     72  C   UNL A   1      38.180  30.644  32.308  1.00  0.00     0.012 A 
ATOM     73  C   UNL A   1      37.382  31.567  30.208  1.00  0.00     0.148 A 
ATOM     74  C   UNL A   1      36.991  31.027  32.933  1.00  0.00     0.002 A 
ATOM     75  C   UNL A   1      36.225  31.995  30.848  1.00  0.00     0.091 A 
ATOM     76  F   UNL A   1      37.584  31.779  28.899  1.00  0.00    -0.205 F 
ATOM     77  C   UNL A   1      36.020  31.711  32.207  1.00  0.00     0.022 A 
BRANCH  75  78
ATOM     78  S   UNL A   1      34.984  32.994  30.018  1.00  0.00     0.127 S 
ATOM     79  O   UNL A   1      34.085  33.329  31.119  1.00  0.00    -0.237 OA
ATOM     80  O   UNL A   1      35.782  34.110  29.512  1.00  0.00    -0.237 OA
ATOM     81  O   UNL A   1      34.425  32.140  28.979  1.00  0.00    -0.744 OA
ENDBRANCH  75  78
ENDBRANCH  47  71
BRANCH  59  82
ATOM     82  C   UNL A   1      44.483  34.098  29.763  1.00  0.00     0.023 A 
ATOM     83  C   UNL A   1      45.157  34.353  30.973  1.00  0.00     0.012 A 
ATOM     84  C   UNL A   1      44.359  35.128  28.809  1.00  0.00     0.148 A 
ATOM     85  C   UNL A   1      45.675  35.620  31.243  1.00  0.00     0.002 A 
ATOM     86  C   UNL A   1      44.918  36.375  29.066  1.00  0.00     0.091 A 
ATOM     87  F   UNL A   1      43.698  34.871  27.671  1.00  0.00    -0.205 F 
ATOM     88  C   UNL A   1      45.566  36.626  30.286  1.00  0.00     0.022 A 
BRANCH  86  89
ATOM     89  S   UNL A   1      44.907  37.701  27.853  1.00  0.00     0.127 S 
ATOM     90  O   UNL A   1      44.721  38.878  28.699  1.00  0.00    -0.237 OA
ATOM     91  O   UNL A   1      46.237  37.586  27.254  1.00  0.00    -0.237 OA
ATOM     92  O   UNL A   1      43.809  37.402  26.944  1.00  0.00    -0.744 OA
ENDBRANCH  86  89
ENDBRANCH  59  82
ENDBRANCH  33  34
ENDBRANCH  26  28
ENDBRANCH  25  26
ENDBRANCH  24  25
ENDBRANCH  23  24
ENDBRANCH  22  23
ENDBRANCH   1  22
TORSDOF 21
ENDMDL
