MODEL 1
REMARK VINA RESULT:     -11.1      0.000      0.000
REMARK SMILES C[C@@H]1OCC[C@@H]1C(=O)Nc1ccc(C(=O)OCCOCCOC(=O)c2ccc(-c3c4nc(c(-c5cccc(S(=O)(=O)[O-])c5F)c5ccc([nH]5)c(-c5cccc(S(=O)(=O)[O-])c5F)c5nc(c(-c6cccc(S(=O)(=O)[O-])c6F)c6ccc3[nH]6)C=C5)C=C4)cc2)cc1F
REMARK SMILES IDX 20 1 19 2 18 3 17 4 16 5 14 6 15 7 13 8 10 9 11 10 89 11
REMARK SMILES IDX 12 12 88 13 90 14 9 15 7 16 8 17 6 19 1 20 2 21 3 22 4 23
REMARK SMILES IDX 5 24 21 25 22 26 23 27 24 28 25 29 26 30 87 31 27 32 86 33
REMARK SMILES IDX 28 34 29 35 30 36 80 37 31 38 85 39 79 40 81 41 32 42 84 43
REMARK SMILES IDX 78 44 77 45 33 47 65 48 45 49 64 50 46 51 49 52 63 53 82 54
REMARK SMILES IDX 47 55 48 56 62 58 83 59 50 60 34 61 35 62 43 63 36 64 38 65
REMARK SMILES IDX 44 66 37 67 39 68 40 69 41 70 42 71 66 72 67 73 75 74 68 75
REMARK SMILES IDX 70 76 76 77 69 78 71 79 72 80 73 81 74 82 51 83 52 84 60 85
REMARK SMILES IDX 53 86 55 87 61 88 54 89 56 90 57 91 58 92 59 93
REMARK H PARENT 9 18 81 46 49 57
REMARK Flexibility Score: inf
ROOT
ATOM      1  C   UNL A   1      30.618  31.360  25.185  1.00  0.00     0.202 C 
ENDROOT
BRANCH   1   2
ATOM      2  O   UNL A   1      31.085  30.084  24.744  1.00  0.00    -0.374 OA
BRANCH   2   3
ATOM      3  C   UNL A   1      30.281  29.403  23.780  1.00  0.00     0.202 C 
BRANCH   3   4
ATOM      4  C   UNL A   1      30.507  27.895  23.641  1.00  0.00     0.261 C 
BRANCH   4   5
ATOM      5  O   UNL A   1      31.772  27.506  24.181  1.00  0.00    -0.460 OA
BRANCH   5   6
ATOM      6  C   UNL A   1      32.769  27.303  23.285  1.00  0.00     0.338 C 
ATOM      7  O   UNL A   1      33.124  28.031  22.382  1.00  0.00    -0.246 OA
BRANCH   6   8
ATOM      8  C   UNL A   1      33.484  26.071  23.682  1.00  0.00     0.063 A 
ATOM      9  C   UNL A   1      34.879  23.713  24.414  1.00  0.00     0.077 A 
ATOM     10  C   UNL A   1      34.706  24.772  25.325  1.00  0.00     0.030 A 
ATOM     11  C   UNL A   1      34.284  23.873  23.153  1.00  0.00     0.147 A 
ATOM     12  C   UNL A   1      34.028  25.947  24.961  1.00  0.00     0.018 A 
ATOM     13  C   UNL A   1      33.590  25.018  22.792  1.00  0.00     0.057 A 
ATOM     14  F   UNL A   1      34.320  22.971  22.178  1.00  0.00    -0.205 F 
BRANCH   9  15
ATOM     15  N   UNL A   1      35.676  22.635  24.890  1.00  0.00    -0.323 N 
ATOM     16  C   UNL A   1      35.527  21.274  24.965  1.00  0.00     0.230 C 
ATOM     17  O   UNL A   1      36.496  20.609  25.341  1.00  0.00    -0.274 OA
ATOM     18  H   UNL A   1      36.540  22.938  25.251  1.00  0.00     0.170 HD
BRANCH  16  19
ATOM     19  C   UNL A   1      34.223  20.627  24.611  1.00  0.00     0.110 C 
ATOM     20  C   UNL A   1      33.416  21.146  27.017  1.00  0.00     0.039 C 
ATOM     21  C   UNL A   1      33.072  21.051  25.532  1.00  0.00     0.127 C 
ATOM     22  O   UNL A   1      32.061  20.030  25.390  1.00  0.00    -0.378 OA
ATOM     23  C   UNL A   1      32.572  19.036  24.489  1.00  0.00     0.161 C 
ATOM     24  C   UNL A   1      34.083  19.121  24.627  1.00  0.00     0.044 C 
ENDBRANCH  16  19
ENDBRANCH   9  15
ENDBRANCH   6   8
ENDBRANCH   5   6
ENDBRANCH   4   5
ENDBRANCH   3   4
ENDBRANCH   2   3
ENDBRANCH   1   2
BRANCH   1  25
ATOM     25  C   UNL A   1      31.124  31.860  26.543  1.00  0.00     0.261 C 
BRANCH  25  26
ATOM     26  O   UNL A   1      32.490  31.486  26.784  1.00  0.00    -0.460 OA
BRANCH  26  27
ATOM     27  C   UNL A   1      33.241  32.452  27.368  1.00  0.00     0.338 C 
ATOM     28  O   UNL A   1      32.899  33.594  27.625  1.00  0.00    -0.246 OA
BRANCH  27  29
ATOM     29  C   UNL A   1      34.515  31.878  27.836  1.00  0.00     0.060 A 
ATOM     30  C   UNL A   1      34.534  30.512  28.141  1.00  0.00     0.016 A 
ATOM     31  C   UNL A   1      35.642  32.672  28.047  1.00  0.00     0.016 A 
ATOM     32  C   UNL A   1      35.671  29.941  28.707  1.00  0.00     0.010 A 
ATOM     33  C   UNL A   1      36.780  32.099  28.623  1.00  0.00     0.010 A 
ATOM     34  C   UNL A   1      36.787  30.740  28.987  1.00  0.00    -0.014 A 
BRANCH  34  35
ATOM     35  C   UNL A   1      37.922  30.175  29.757  1.00  0.00     0.031 A 
ATOM     36  C   UNL A   1      38.163  30.644  31.166  1.00  0.00     0.074 A 
ATOM     37  C   UNL A   1      38.730  29.254  29.199  1.00  0.00     0.049 A 
ATOM     38  N   UNL A   1      39.130  30.327  31.983  1.00  0.00    -0.248 NA
ATOM     39  C   UNL A   1      37.187  31.594  31.730  1.00  0.00     0.031 C 
ATOM     40  C   UNL A   1      38.586  28.719  27.846  1.00  0.00     0.029 A 
ATOM     41  N   UNL A   1      39.848  28.630  29.692  1.00  0.00    -0.354 N 
ATOM     42  C   UNL A   1      38.905  31.061  33.141  1.00  0.00     0.074 A 
ATOM     43  C   UNL A   1      37.706  31.840  32.925  1.00  0.00     0.031 C 
ATOM     44  C   UNL A   1      39.601  27.871  27.604  1.00  0.00     0.029 A 
ATOM     45  C   UNL A   1      40.483  27.833  28.769  1.00  0.00     0.049 A 
ATOM     46  H   UNL A   1      40.166  28.743  30.618  1.00  0.00     0.167 HD
ATOM     47  C   UNL A   1      39.630  31.074  34.284  1.00  0.00     0.034 A 
ATOM     48  C   UNL A   1      41.659  27.177  28.840  1.00  0.00     0.034 A 
ATOM     49  C   UNL A   1      40.802  30.272  34.504  1.00  0.00     0.049 A 
ATOM     50  C   UNL A   1      42.451  27.224  30.120  1.00  0.00     0.074 A 
ATOM     51  C   UNL A   1      41.568  30.178  35.653  1.00  0.00     0.029 A 
ATOM     52  N   UNL A   1      41.386  29.439  33.564  1.00  0.00    -0.354 N 
ATOM     53  N   UNL A   1      42.168  27.840  31.242  1.00  0.00    -0.248 NA
ATOM     54  C   UNL A   1      43.709  26.463  30.160  1.00  0.00     0.031 C 
ATOM     55  C   UNL A   1      42.639  29.322  35.395  1.00  0.00     0.029 A 
ATOM     56  C   UNL A   1      42.511  28.840  34.103  1.00  0.00     0.049 A 
ATOM     57  H   UNL A   1      41.051  29.295  32.650  1.00  0.00     0.167 HD
ATOM     58  C   UNL A   1      43.186  27.508  32.129  1.00  0.00     0.074 A 
ATOM     59  C   UNL A   1      44.085  26.622  31.421  1.00  0.00     0.031 C 
ATOM     60  C   UNL A   1      43.364  27.911  33.411  1.00  0.00     0.034 A 
BRANCH  47  61
ATOM     61  C   UNL A   1      39.182  31.956  35.417  1.00  0.00     0.023 A 
ATOM     62  C   UNL A   1      38.422  31.409  36.468  1.00  0.00     0.012 A 
ATOM     63  C   UNL A   1      39.662  33.278  35.519  1.00  0.00     0.148 A 
ATOM     64  C   UNL A   1      38.148  32.164  37.609  1.00  0.00     0.002 A 
ATOM     65  C   UNL A   1      39.425  34.007  36.678  1.00  0.00     0.091 A 
ATOM     66  F   UNL A   1      40.368  33.779  34.497  1.00  0.00    -0.205 F 
ATOM     67  C   UNL A   1      38.664  33.454  37.721  1.00  0.00     0.022 A 
BRANCH  65  68
ATOM     68  S   UNL A   1      40.127  35.635  36.962  1.00  0.00     0.127 S 
ATOM     69  O   UNL A   1      39.585  35.965  38.280  1.00  0.00    -0.237 OA
ATOM     70  O   UNL A   1      41.562  35.356  36.945  1.00  0.00    -0.237 OA
ATOM     71  O   UNL A   1      39.652  36.478  35.873  1.00  0.00    -0.744 OA
ENDBRANCH  65  68
ENDBRANCH  47  61
BRANCH  48  72
ATOM     72  C   UNL A   1      42.154  26.407  27.662  1.00  0.00     0.023 A 
ATOM     73  C   UNL A   1      42.954  27.043  26.694  1.00  0.00     0.012 A 
ATOM     74  C   UNL A   1      41.848  25.040  27.508  1.00  0.00     0.148 A 
ATOM     75  C   UNL A   1      43.411  26.342  25.577  1.00  0.00     0.002 A 
ATOM     76  C   UNL A   1      42.360  24.332  26.429  1.00  0.00     0.091 A 
ATOM     77  F   UNL A   1      41.069  24.456  28.430  1.00  0.00    -0.205 F 
ATOM     78  C   UNL A   1      43.125  24.985  25.451  1.00  0.00     0.022 A 
BRANCH  76  79
ATOM     79  S   UNL A   1      42.167  22.554  26.267  1.00  0.00     0.127 S 
ATOM     80  O   UNL A   1      42.841  22.067  27.467  1.00  0.00    -0.237 OA
ATOM     81  O   UNL A   1      40.710  22.409  26.275  1.00  0.00    -0.237 OA
ATOM     82  O   UNL A   1      42.795  22.205  25.000  1.00  0.00    -0.744 OA
ENDBRANCH  76  79
ENDBRANCH  48  72
BRANCH  60  83
ATOM     83  C   UNL A   1      44.544  27.367  34.174  1.00  0.00     0.023 A 
ATOM     84  C   UNL A   1      45.766  28.067  34.179  1.00  0.00     0.012 A 
ATOM     85  C   UNL A   1      44.399  26.222  34.985  1.00  0.00     0.148 A 
ATOM     86  C   UNL A   1      46.832  27.624  34.962  1.00  0.00     0.002 A 
ATOM     87  C   UNL A   1      45.446  25.820  35.804  1.00  0.00     0.091 A 
ATOM     88  F   UNL A   1      43.232  25.562  34.956  1.00  0.00    -0.205 F 
ATOM     89  C   UNL A   1      46.667  26.512  35.785  1.00  0.00     0.022 A 
BRANCH  87  90
ATOM     90  S   UNL A   1      45.289  24.469  36.978  1.00  0.00     0.127 S 
ATOM     91  O   UNL A   1      45.033  23.334  36.093  1.00  0.00    -0.237 OA
ATOM     92  O   UNL A   1      46.606  24.460  37.617  1.00  0.00    -0.237 OA
ATOM     93  O   UNL A   1      44.188  24.827  37.863  1.00  0.00    -0.744 OA
ENDBRANCH  87  90
ENDBRANCH  60  83
ENDBRANCH  34  35
ENDBRANCH  27  29
ENDBRANCH  26  27
ENDBRANCH  25  26
ENDBRANCH   1  25
TORSDOF 19
ENDMDL
MODEL 2
REMARK VINA RESULT:     -11.0      1.739      7.735
REMARK SMILES C[C@@H]1OCC[C@@H]1C(=O)Nc1ccc(C(=O)OCCOCCOC(=O)c2ccc(-c3c4nc(c(-c5cccc(S(=O)(=O)[O-])c5F)c5ccc([nH]5)c(-c5cccc(S(=O)(=O)[O-])c5F)c5nc(c(-c6cccc(S(=O)(=O)[O-])c6F)c6ccc3[nH]6)C=C5)C=C4)cc2)cc1F
REMARK SMILES IDX 20 1 19 2 18 3 17 4 16 5 14 6 15 7 13 8 10 9 11 10 89 11
REMARK SMILES IDX 12 12 88 13 90 14 9 15 7 16 8 17 6 19 1 20 2 21 3 22 4 23
REMARK SMILES IDX 5 24 21 25 22 26 23 27 24 28 25 29 26 30 87 31 27 32 86 33
REMARK SMILES IDX 28 34 29 35 30 36 80 37 31 38 85 39 79 40 81 41 32 42 84 43
REMARK SMILES IDX 78 44 77 45 33 47 65 48 45 49 64 50 46 51 49 52 63 53 82 54
REMARK SMILES IDX 47 55 48 56 62 58 83 59 50 60 34 61 35 62 43 63 36 64 38 65
REMARK SMILES IDX 44 66 37 67 39 68 40 69 41 70 42 71 66 72 67 73 75 74 68 75
REMARK SMILES IDX 70 76 76 77 69 78 71 79 72 80 73 81 74 82 51 83 52 84 60 85
REMARK SMILES IDX 53 86 55 87 61 88 54 89 56 90 57 91 58 92 59 93
REMARK H PARENT 9 18 81 46 49 57
REMARK Flexibility Score: inf
ROOT
ATOM      1  C   UNL A   1      31.282  31.502  26.441  1.00  0.00     0.202 C 
ENDROOT
BRANCH   1   2
ATOM      2  O   UNL A   1      32.416  30.680  26.161  1.00  0.00    -0.374 OA
BRANCH   2   3
ATOM      3  C   UNL A   1      32.159  29.409  25.562  1.00  0.00     0.202 C 
BRANCH   3   4
ATOM      4  C   UNL A   1      31.030  29.354  24.530  1.00  0.00     0.261 C 
BRANCH   4   5
ATOM      5  O   UNL A   1      30.596  28.011  24.304  1.00  0.00    -0.460 OA
BRANCH   5   6
ATOM      6  C   UNL A   1      30.614  27.583  23.018  1.00  0.00     0.338 C 
ATOM      7  O   UNL A   1      30.441  28.234  22.009  1.00  0.00    -0.246 OA
BRANCH   6   8
ATOM      8  C   UNL A   1      31.038  26.166  23.023  1.00  0.00     0.063 A 
ATOM      9  C   UNL A   1      31.882  23.458  23.055  1.00  0.00     0.077 A 
ATOM     10  C   UNL A   1      30.597  23.829  23.497  1.00  0.00     0.030 A 
ATOM     11  C   UNL A   1      32.691  24.492  22.558  1.00  0.00     0.147 A 
ATOM     12  C   UNL A   1      30.181  25.171  23.496  1.00  0.00     0.018 A 
ATOM     13  C   UNL A   1      32.281  25.816  22.528  1.00  0.00     0.057 A 
ATOM     14  F   UNL A   1      33.918  24.327  22.076  1.00  0.00    -0.205 F 
BRANCH   9  15
ATOM     15  N   UNL A   1      32.197  22.081  23.214  1.00  0.00    -0.323 N 
ATOM     16  C   UNL A   1      32.686  21.306  24.234  1.00  0.00     0.230 C 
ATOM     17  O   UNL A   1      32.730  20.085  24.058  1.00  0.00    -0.274 OA
ATOM     18  H   UNL A   1      32.023  21.560  22.397  1.00  0.00     0.170 HD
BRANCH  16  19
ATOM     19  C   UNL A   1      33.160  21.932  25.509  1.00  0.00     0.110 C 
ATOM     20  C   UNL A   1      35.503  22.151  24.426  1.00  0.00     0.039 C 
ATOM     21  C   UNL A   1      34.438  22.762  25.334  1.00  0.00     0.127 C 
ATOM     22  O   UNL A   1      35.013  22.880  26.652  1.00  0.00    -0.378 OA
ATOM     23  C   UNL A   1      34.179  22.140  27.557  1.00  0.00     0.161 C 
ATOM     24  C   UNL A   1      33.522  21.072  26.700  1.00  0.00     0.044 C 
ENDBRANCH  16  19
ENDBRANCH   9  15
ENDBRANCH   6   8
ENDBRANCH   5   6
ENDBRANCH   4   5
ENDBRANCH   3   4
ENDBRANCH   2   3
ENDBRANCH   1   2
BRANCH   1  25
ATOM     25  C   UNL A   1      31.537  32.996  26.665  1.00  0.00     0.261 C 
BRANCH  25  26
ATOM     26  O   UNL A   1      32.939  33.305  26.717  1.00  0.00    -0.460 OA
BRANCH  26  27
ATOM     27  C   UNL A   1      33.362  33.787  27.911  1.00  0.00     0.338 C 
ATOM     28  O   UNL A   1      32.767  34.558  28.646  1.00  0.00    -0.246 OA
BRANCH  27  29
ATOM     29  C   UNL A   1      34.602  33.101  28.315  1.00  0.00     0.060 A 
ATOM     30  C   UNL A   1      34.478  31.833  28.896  1.00  0.00     0.016 A 
ATOM     31  C   UNL A   1      35.850  33.715  28.202  1.00  0.00     0.016 A 
ATOM     32  C   UNL A   1      35.600  31.192  29.413  1.00  0.00     0.010 A 
ATOM     33  C   UNL A   1      36.974  33.072  28.728  1.00  0.00     0.010 A 
ATOM     34  C   UNL A   1      36.849  31.824  29.367  1.00  0.00    -0.014 A 
BRANCH  34  35
ATOM     35  C   UNL A   1      38.004  31.227  30.079  1.00  0.00     0.031 A 
ATOM     36  C   UNL A   1      38.836  30.182  29.389  1.00  0.00     0.074 A 
ATOM     37  C   UNL A   1      38.301  31.614  31.334  1.00  0.00     0.049 A 
ATOM     38  N   UNL A   1      39.843  29.493  29.855  1.00  0.00    -0.248 NA
ATOM     39  C   UNL A   1      38.493  29.872  27.989  1.00  0.00     0.031 C 
ATOM     40  C   UNL A   1      37.571  32.624  32.099  1.00  0.00     0.029 A 
ATOM     41  N   UNL A   1      39.278  31.180  32.195  1.00  0.00    -0.354 N 
ATOM     42  C   UNL A   1      40.230  28.643  28.826  1.00  0.00     0.074 A 
ATOM     43  C   UNL A   1      39.354  28.903  27.706  1.00  0.00     0.031 C 
ATOM     44  C   UNL A   1      38.104  32.708  33.329  1.00  0.00     0.029 A 
ATOM     45  C   UNL A   1      39.187  31.734  33.451  1.00  0.00     0.049 A 
ATOM     46  H   UNL A   1      39.976  30.535  31.939  1.00  0.00     0.167 HD
ATOM     47  C   UNL A   1      41.234  27.736  28.817  1.00  0.00     0.034 A 
ATOM     48  C   UNL A   1      39.873  31.462  34.580  1.00  0.00     0.034 A 
ATOM     49  C   UNL A   1      42.123  27.506  29.923  1.00  0.00     0.049 A 
ATOM     50  C   UNL A   1      40.974  30.434  34.541  1.00  0.00     0.074 A 
ATOM     51  C   UNL A   1      43.206  26.645  29.983  1.00  0.00     0.029 A 
ATOM     52  N   UNL A   1      42.031  28.122  31.160  1.00  0.00    -0.354 N 
ATOM     53  N   UNL A   1      41.396  29.716  33.529  1.00  0.00    -0.248 NA
ATOM     54  C   UNL A   1      41.716  30.199  35.789  1.00  0.00     0.031 C 
ATOM     55  C   UNL A   1      43.743  26.709  31.269  1.00  0.00     0.029 A 
ATOM     56  C   UNL A   1      43.029  27.649  31.994  1.00  0.00     0.049 A 
ATOM     57  H   UNL A   1      41.358  28.794  31.409  1.00  0.00     0.167 HD
ATOM     58  C   UNL A   1      42.474  28.978  34.005  1.00  0.00     0.074 A 
ATOM     59  C   UNL A   1      42.653  29.348  35.393  1.00  0.00     0.031 C 
ATOM     60  C   UNL A   1      43.238  28.069  33.355  1.00  0.00     0.034 A 
BRANCH  47  61
ATOM     61  C   UNL A   1      41.469  26.927  27.571  1.00  0.00     0.023 A 
ATOM     62  C   UNL A   1      42.121  27.514  26.470  1.00  0.00     0.012 A 
ATOM     63  C   UNL A   1      41.198  25.543  27.563  1.00  0.00     0.148 A 
ATOM     64  C   UNL A   1      42.504  26.736  25.377  1.00  0.00     0.002 A 
ATOM     65  C   UNL A   1      41.624  24.766  26.492  1.00  0.00     0.091 A 
ATOM     66  F   UNL A   1      40.562  25.013  28.616  1.00  0.00    -0.205 F 
ATOM     67  C   UNL A   1      42.272  25.361  25.397  1.00  0.00     0.022 A 
BRANCH  65  68
ATOM     68  S   UNL A   1      41.464  22.978  26.465  1.00  0.00     0.127 S 
ATOM     69  O   UNL A   1      42.102  22.605  27.728  1.00  0.00    -0.237 OA
ATOM     70  O   UNL A   1      40.013  22.802  26.440  1.00  0.00    -0.237 OA
ATOM     71  O   UNL A   1      42.159  22.525  25.268  1.00  0.00    -0.744 OA
ENDBRANCH  65  68
ENDBRANCH  47  61
BRANCH  48  72
ATOM     72  C   UNL A   1      39.544  32.183  35.842  1.00  0.00     0.023 A 
ATOM     73  C   UNL A   1      40.138  33.430  36.113  1.00  0.00     0.012 A 
ATOM     74  C   UNL A   1      38.628  31.645  36.769  1.00  0.00     0.148 A 
ATOM     75  C   UNL A   1      39.855  34.111  37.298  1.00  0.00     0.002 A 
ATOM     76  C   UNL A   1      38.300  32.358  37.914  1.00  0.00     0.091 A 
ATOM     77  F   UNL A   1      38.086  30.448  36.503  1.00  0.00    -0.205 F 
ATOM     78  C   UNL A   1      38.928  33.582  38.192  1.00  0.00     0.022 A 
BRANCH  76  79
ATOM     79  S   UNL A   1      37.010  31.824  39.043  1.00  0.00     0.127 S 
ATOM     80  O   UNL A   1      35.901  32.695  38.666  1.00  0.00    -0.237 OA
ATOM     81  O   UNL A   1      36.846  30.418  38.667  1.00  0.00    -0.237 OA
ATOM     82  O   UNL A   1      37.550  32.025  40.380  1.00  0.00    -0.744 OA
ENDBRANCH  76  79
ENDBRANCH  48  72
BRANCH  60  83
ATOM     83  C   UNL A   1      44.384  27.433  34.099  1.00  0.00     0.023 A 
ATOM     84  C   UNL A   1      45.651  28.046  34.102  1.00  0.00     0.012 A 
ATOM     85  C   UNL A   1      44.166  26.290  34.896  1.00  0.00     0.148 A 
ATOM     86  C   UNL A   1      46.690  27.519  34.868  1.00  0.00     0.002 A 
ATOM     87  C   UNL A   1      45.189  25.804  35.699  1.00  0.00     0.091 A 
ATOM     88  F   UNL A   1      42.956  25.713  34.869  1.00  0.00    -0.205 F 
ATOM     89  C   UNL A   1      46.455  26.409  35.678  1.00  0.00     0.022 A 
BRANCH  87  90
ATOM     90  S   UNL A   1      44.949  24.451  36.856  1.00  0.00     0.127 S 
ATOM     91  O   UNL A   1      46.271  24.347  37.472  1.00  0.00    -0.237 OA
ATOM     92  O   UNL A   1      43.906  24.978  37.736  1.00  0.00    -0.237 OA
ATOM     93  O   UNL A   1      44.544  23.301  36.057  1.00  0.00    -0.744 OA
ENDBRANCH  87  90
ENDBRANCH  60  83
ENDBRANCH  34  35
ENDBRANCH  27  29
ENDBRANCH  26  27
ENDBRANCH  25  26
ENDBRANCH   1  25
TORSDOF 19
ENDMDL
MODEL 3
REMARK VINA RESULT:     -10.9      4.466      7.900
REMARK SMILES C[C@@H]1OCC[C@@H]1C(=O)Nc1ccc(C(=O)OCCOCCOC(=O)c2ccc(-c3c4nc(c(-c5cccc(S(=O)(=O)[O-])c5F)c5ccc([nH]5)c(-c5cccc(S(=O)(=O)[O-])c5F)c5nc(c(-c6cccc(S(=O)(=O)[O-])c6F)c6ccc3[nH]6)C=C5)C=C4)cc2)cc1F
REMARK SMILES IDX 20 1 19 2 18 3 17 4 16 5 14 6 15 7 13 8 10 9 11 10 89 11
REMARK SMILES IDX 12 12 88 13 90 14 9 15 7 16 8 17 6 19 1 20 2 21 3 22 4 23
REMARK SMILES IDX 5 24 21 25 22 26 23 27 24 28 25 29 26 30 87 31 27 32 86 33
REMARK SMILES IDX 28 34 29 35 30 36 80 37 31 38 85 39 79 40 81 41 32 42 84 43
REMARK SMILES IDX 78 44 77 45 33 47 65 48 45 49 64 50 46 51 49 52 63 53 82 54
REMARK SMILES IDX 47 55 48 56 62 58 83 59 50 60 34 61 35 62 43 63 36 64 38 65
REMARK SMILES IDX 44 66 37 67 39 68 40 69 41 70 42 71 66 72 67 73 75 74 68 75
REMARK SMILES IDX 70 76 76 77 69 78 71 79 72 80 73 81 74 82 51 83 52 84 60 85
REMARK SMILES IDX 53 86 55 87 61 88 54 89 56 90 57 91 58 92 59 93
REMARK H PARENT 9 18 81 46 49 57
REMARK Flexibility Score: inf
ROOT
ATOM      1  C   UNL A   1      35.381  34.502  28.752  1.00  0.00     0.202 C 
ENDROOT
BRANCH   1   2
ATOM      2  O   UNL A   1      34.669  35.509  28.032  1.00  0.00    -0.374 OA
BRANCH   2   3
ATOM      3  C   UNL A   1      33.349  35.813  28.486  1.00  0.00     0.202 C 
BRANCH   3   4
ATOM      4  C   UNL A   1      33.207  37.014  29.425  1.00  0.00     0.261 C 
BRANCH   4   5
ATOM      5  O   UNL A   1      32.524  36.657  30.628  1.00  0.00    -0.460 OA
BRANCH   5   6
ATOM      6  C   UNL A   1      33.059  37.125  31.783  1.00  0.00     0.338 C 
ATOM      7  O   UNL A   1      32.929  38.225  32.276  1.00  0.00    -0.246 OA
BRANCH   6   8
ATOM      8  C   UNL A   1      33.738  35.995  32.453  1.00  0.00     0.063 A 
ATOM      9  C   UNL A   1      35.059  33.820  33.705  1.00  0.00     0.077 A 
ATOM     10  C   UNL A   1      35.087  35.112  34.264  1.00  0.00     0.030 A 
ATOM     11  C   UNL A   1      34.305  33.666  32.531  1.00  0.00     0.147 A 
ATOM     12  C   UNL A   1      34.445  36.194  33.639  1.00  0.00     0.018 A 
ATOM     13  C   UNL A   1      33.647  34.722  31.919  1.00  0.00     0.057 A 
ATOM     14  F   UNL A   1      34.145  32.519  31.879  1.00  0.00    -0.205 F 
BRANCH   9  15
ATOM     15  N   UNL A   1      35.840  32.851  34.393  1.00  0.00    -0.323 N 
ATOM     16  C   UNL A   1      37.148  32.441  34.344  1.00  0.00     0.230 C 
ATOM     17  O   UNL A   1      37.528  31.629  35.191  1.00  0.00    -0.274 OA
ATOM     18  H   UNL A   1      35.317  32.356  35.065  1.00  0.00     0.170 HD
BRANCH  16  19
ATOM     19  C   UNL A   1      38.070  32.958  33.284  1.00  0.00     0.110 C 
ATOM     20  C   UNL A   1      38.862  34.755  34.973  1.00  0.00     0.039 C 
ATOM     21  C   UNL A   1      39.229  33.791  33.847  1.00  0.00     0.127 C 
ATOM     22  O   UNL A   1      39.714  34.585  32.743  1.00  0.00    -0.378 OA
ATOM     23  C   UNL A   1      38.887  34.297  31.605  1.00  0.00     0.161 C 
ATOM     24  C   UNL A   1      37.553  33.865  32.189  1.00  0.00     0.044 C 
ENDBRANCH  16  19
ENDBRANCH   9  15
ENDBRANCH   6   8
ENDBRANCH   5   6
ENDBRANCH   4   5
ENDBRANCH   3   4
ENDBRANCH   2   3
ENDBRANCH   1   2
BRANCH   1  25
ATOM     25  C   UNL A   1      34.742  33.111  28.829  1.00  0.00     0.261 C 
BRANCH  25  26
ATOM     26  O   UNL A   1      35.057  32.304  27.683  1.00  0.00    -0.460 OA
BRANCH  26  27
ATOM     27  C   UNL A   1      34.786  30.985  27.834  1.00  0.00     0.338 C 
ATOM     28  O   UNL A   1      33.721  30.425  27.629  1.00  0.00    -0.246 OA
BRANCH  27  29
ATOM     29  C   UNL A   1      36.030  30.248  28.115  1.00  0.00     0.060 A 
ATOM     30  C   UNL A   1      36.131  29.598  29.350  1.00  0.00     0.016 A 
ATOM     31  C   UNL A   1      37.104  30.259  27.225  1.00  0.00     0.016 A 
ATOM     32  C   UNL A   1      37.328  28.994  29.724  1.00  0.00     0.010 A 
ATOM     33  C   UNL A   1      38.309  29.658  27.605  1.00  0.00     0.010 A 
ATOM     34  C   UNL A   1      38.437  29.054  28.870  1.00  0.00    -0.014 A 
BRANCH  34  35
ATOM     35  C   UNL A   1      39.758  28.577  29.343  1.00  0.00     0.031 A 
ATOM     36  C   UNL A   1      40.470  29.336  30.429  1.00  0.00     0.074 A 
ATOM     37  C   UNL A   1      40.316  27.478  28.804  1.00  0.00     0.049 A 
ATOM     38  N   UNL A   1      41.654  29.126  30.938  1.00  0.00    -0.248 NA
ATOM     39  C   UNL A   1      39.756  30.482  31.021  1.00  0.00     0.031 C 
ATOM     40  C   UNL A   1      39.714  26.657  27.753  1.00  0.00     0.029 A 
ATOM     41  N   UNL A   1      41.528  26.880  29.046  1.00  0.00    -0.354 N 
ATOM     42  C   UNL A   1      41.845  30.129  31.881  1.00  0.00     0.074 A 
ATOM     43  C   UNL A   1      40.654  30.949  31.878  1.00  0.00     0.031 C 
ATOM     44  C   UNL A   1      40.575  25.682  27.416  1.00  0.00     0.029 A 
ATOM     45  C   UNL A   1      41.800  25.831  28.199  1.00  0.00     0.049 A 
ATOM     46  H   UNL A   1      42.143  27.174  29.757  1.00  0.00     0.167 HD
ATOM     47  C   UNL A   1      42.916  30.338  32.682  1.00  0.00     0.034 A 
ATOM     48  C   UNL A   1      42.922  25.098  28.046  1.00  0.00     0.034 A 
ATOM     49  C   UNL A   1      44.083  29.499  32.702  1.00  0.00     0.049 A 
ATOM     50  C   UNL A   1      44.104  25.366  28.942  1.00  0.00     0.074 A 
ATOM     51  C   UNL A   1      45.193  29.602  33.523  1.00  0.00     0.029 A 
ATOM     52  N   UNL A   1      44.301  28.417  31.866  1.00  0.00    -0.354 N 
ATOM     53  N   UNL A   1      44.226  26.252  29.900  1.00  0.00    -0.248 NA
ATOM     54  C   UNL A   1      45.290  24.516  28.760  1.00  0.00     0.031 C 
ATOM     55  C   UNL A   1      46.102  28.609  33.154  1.00  0.00     0.029 A 
ATOM     56  C   UNL A   1      45.535  27.853  32.141  1.00  0.00     0.049 A 
ATOM     57  H   UNL A   1      43.673  28.097  31.179  1.00  0.00     0.167 HD
ATOM     58  C   UNL A   1      45.481  26.039  30.460  1.00  0.00     0.074 A 
ATOM     59  C   UNL A   1      46.075  24.929  29.745  1.00  0.00     0.031 C 
ATOM     60  C   UNL A   1      46.091  26.710  31.467  1.00  0.00     0.034 A 
BRANCH  47  61
ATOM     61  C   UNL A   1      42.891  31.500  33.637  1.00  0.00     0.023 A 
ATOM     62  C   UNL A   1      43.204  32.792  33.172  1.00  0.00     0.012 A 
ATOM     63  C   UNL A   1      42.393  31.332  34.945  1.00  0.00     0.148 A 
ATOM     64  C   UNL A   1      43.017  33.903  33.994  1.00  0.00     0.002 A 
ATOM     65  C   UNL A   1      42.165  32.448  35.741  1.00  0.00     0.091 A 
ATOM     66  F   UNL A   1      42.119  30.090  35.367  1.00  0.00    -0.205 F 
ATOM     67  C   UNL A   1      42.482  33.732  35.270  1.00  0.00     0.022 A 
BRANCH  65  68
ATOM     68  S   UNL A   1      41.388  32.346  37.357  1.00  0.00     0.127 S 
ATOM     69  O   UNL A   1      41.398  33.747  37.778  1.00  0.00    -0.237 OA
ATOM     70  O   UNL A   1      40.066  31.817  37.027  1.00  0.00    -0.237 OA
ATOM     71  O   UNL A   1      42.224  31.458  38.154  1.00  0.00    -0.744 OA
ENDBRANCH  65  68
ENDBRANCH  47  61
BRANCH  48  72
ATOM     72  C   UNL A   1      42.977  24.031  27.006  1.00  0.00     0.023 A 
ATOM     73  C   UNL A   1      43.729  24.231  25.833  1.00  0.00     0.012 A 
ATOM     74  C   UNL A   1      42.300  22.808  27.186  1.00  0.00     0.148 A 
ATOM     75  C   UNL A   1      43.776  23.250  24.842  1.00  0.00     0.002 A 
ATOM     76  C   UNL A   1      42.405  21.809  26.227  1.00  0.00     0.091 A 
ATOM     77  F   UNL A   1      41.574  22.642  28.300  1.00  0.00    -0.205 F 
ATOM     78  C   UNL A   1      43.126  22.035  25.044  1.00  0.00     0.022 A 
BRANCH  76  79
ATOM     79  S   UNL A   1      41.725  20.166  26.471  1.00  0.00     0.127 S 
ATOM     80  O   UNL A   1      40.290  20.420  26.393  1.00  0.00    -0.237 OA
ATOM     81  O   UNL A   1      42.286  19.436  25.332  1.00  0.00    -0.237 OA
ATOM     82  O   UNL A   1      42.222  19.724  27.766  1.00  0.00    -0.744 OA
ENDBRANCH  76  79
ENDBRANCH  48  72
BRANCH  60  83
ATOM     83  C   UNL A   1      47.453  26.247  31.915  1.00  0.00     0.023 A 
ATOM     84  C   UNL A   1      47.575  25.355  32.997  1.00  0.00     0.012 A 
ATOM     85  C   UNL A   1      48.602  26.604  31.179  1.00  0.00     0.148 A 
ATOM     86  C   UNL A   1      48.822  24.844  33.355  1.00  0.00     0.002 A 
ATOM     87  C   UNL A   1      49.831  26.047  31.507  1.00  0.00     0.091 A 
ATOM     88  F   UNL A   1      48.466  27.465  30.160  1.00  0.00    -0.205 F 
ATOM     89  C   UNL A   1      49.946  25.176  32.601  1.00  0.00     0.022 A 
BRANCH  87  90
ATOM     90  S   UNL A   1      51.311  26.329  30.527  1.00  0.00     0.127 S 
ATOM     91  O   UNL A   1      52.315  25.584  31.284  1.00  0.00    -0.237 OA
ATOM     92  O   UNL A   1      50.949  25.732  29.241  1.00  0.00    -0.237 OA
ATOM     93  O   UNL A   1      51.504  27.773  30.492  1.00  0.00    -0.744 OA
ENDBRANCH  87  90
ENDBRANCH  60  83
ENDBRANCH  34  35
ENDBRANCH  27  29
ENDBRANCH  26  27
ENDBRANCH  25  26
ENDBRANCH   1  25
TORSDOF 19
ENDMDL
