MODEL 1
REMARK VINA RESULT:     -12.1      0.000      0.000
REMARK SMILES Cc1cc(Cl)c2c(c1)C=C(C(=O)OCCOCCOC(=O)c1ccc(-c3c4nc(c(-c5cccc(S(=O)(=O)[O-])c5F)c5ccc([nH]5)c(-c5cccc(S(=O)(=O)[O-])c5F)c5nc(c(-c6cccc(S(=O)(=O)[O-])c6F)c6ccc3[nH]6)C=C5)C=C4)cc1)[C@@H](C(F)(F)F)O2
REMARK SMILES IDX 17 1 16 2 15 3 14 4 13 5 11 6 12 7 10 8 1 9 2 10 3 11 8 12
REMARK SMILES IDX 4 13 7 14 5 15 6 16 9 17 90 18 85 19 86 20 87 21 88 22 89 23
REMARK SMILES IDX 18 24 19 25 20 26 21 27 22 28 23 29 84 30 24 31 83 32 25 33
REMARK SMILES IDX 26 34 27 35 77 36 28 37 82 38 76 39 78 40 29 41 81 42 75 43
REMARK SMILES IDX 74 44 30 46 62 47 42 48 61 49 43 50 46 51 60 52 79 53 44 54
REMARK SMILES IDX 45 55 59 57 80 58 47 59 31 60 32 61 40 62 33 63 35 64 41 65
REMARK SMILES IDX 34 66 36 67 37 68 38 69 39 70 63 71 64 72 72 73 65 74 67 75
REMARK SMILES IDX 73 76 66 77 68 78 69 79 70 80 71 81 48 82 49 83 57 84 50 85
REMARK SMILES IDX 52 86 58 87 51 88 53 89 54 90 55 91 56 92
REMARK H PARENT 78 45 46 56
REMARK Flexibility Score: inf
ROOT
ATOM      1  C   UNL A   1      35.309  21.365  24.719  1.00  0.00     0.202 C 
ENDROOT
BRANCH   1   2
ATOM      2  O   UNL A   1      34.078  20.641  24.746  1.00  0.00    -0.374 OA
BRANCH   2   3
ATOM      3  C   UNL A   1      32.892  21.331  24.355  1.00  0.00     0.202 C 
BRANCH   3   4
ATOM      4  C   UNL A   1      31.804  21.496  25.419  1.00  0.00     0.261 C 
BRANCH   4   5
ATOM      5  O   UNL A   1      31.036  22.692  25.211  1.00  0.00    -0.460 OA
BRANCH   5   6
ATOM      6  C   UNL A   1      30.890  23.466  26.310  1.00  0.00     0.338 C 
ATOM      7  O   UNL A   1      30.746  23.084  27.463  1.00  0.00    -0.246 OA
BRANCH   6   8
ATOM      8  C   UNL A   1      31.072  24.885  25.955  1.00  0.00     0.087 C 
ATOM      9  C   UNL A   1      28.542  29.138  22.294  1.00  0.00     0.044 C 
ATOM     10  C   UNL A   1      29.532  28.573  23.270  1.00  0.00    -0.049 A 
ATOM     11  C   UNL A   1      30.668  29.306  23.632  1.00  0.00     0.028 A 
ATOM     12  C   UNL A   1      29.335  27.310  23.835  1.00  0.00     0.015 A 
ATOM     13  C   UNL A   1      31.589  28.781  24.546  1.00  0.00     0.084 A 
ATOM     14  C   UNL A   1      30.272  26.771  24.726  1.00  0.00     0.019 A 
ATOM     15  Cl  UNL A   1      32.973  29.735  24.943  1.00  0.00    -0.080 Cl
ATOM     16  C   UNL A   1      31.399  27.508  25.099  1.00  0.00     0.146 A 
ATOM     17  C   UNL A   1      30.092  25.419  25.216  1.00  0.00     0.027 C 
ATOM     18  O   UNL A   1      32.317  27.043  26.002  1.00  0.00    -0.474 OA
ATOM     19  C   UNL A   1      32.302  25.638  26.382  1.00  0.00     0.316 C 
BRANCH  19  20
ATOM     20  C   UNL A   1      33.593  24.974  25.880  1.00  0.00     0.430 C 
ATOM     21  F   UNL A   1      33.460  24.539  24.606  1.00  0.00    -0.167 F 
ATOM     22  F   UNL A   1      34.636  25.835  25.900  1.00  0.00    -0.167 F 
ATOM     23  F   UNL A   1      33.933  23.908  26.642  1.00  0.00    -0.167 F 
ENDBRANCH  19  20
ENDBRANCH   6   8
ENDBRANCH   5   6
ENDBRANCH   4   5
ENDBRANCH   3   4
ENDBRANCH   2   3
ENDBRANCH   1   2
BRANCH   1  24
ATOM     24  C   UNL A   1      36.591  20.604  25.076  1.00  0.00     0.261 C 
BRANCH  24  25
ATOM     25  O   UNL A   1      37.770  21.415  24.925  1.00  0.00    -0.460 OA
BRANCH  25  26
ATOM     26  C   UNL A   1      38.797  21.076  25.741  1.00  0.00     0.338 C 
ATOM     27  O   UNL A   1      39.356  19.988  25.809  1.00  0.00    -0.246 OA
BRANCH  26  28
ATOM     28  C   UNL A   1      39.311  22.268  26.434  1.00  0.00     0.060 A 
ATOM     29  C   UNL A   1      38.725  23.502  26.122  1.00  0.00     0.016 A 
ATOM     30  C   UNL A   1      40.409  22.197  27.293  1.00  0.00     0.016 A 
ATOM     31  C   UNL A   1      39.274  24.680  26.621  1.00  0.00     0.010 A 
ATOM     32  C   UNL A   1      40.968  23.382  27.781  1.00  0.00     0.010 A 
ATOM     33  C   UNL A   1      40.428  24.628  27.410  1.00  0.00    -0.014 A 
BRANCH  33  34
ATOM     34  C   UNL A   1      41.174  25.877  27.691  1.00  0.00     0.031 A 
ATOM     35  C   UNL A   1      40.484  26.971  28.459  1.00  0.00     0.074 A 
ATOM     36  C   UNL A   1      42.450  26.025  27.293  1.00  0.00     0.049 A 
ATOM     37  N   UNL A   1      40.928  28.154  28.792  1.00  0.00    -0.248 NA
ATOM     38  C   UNL A   1      39.111  26.692  28.914  1.00  0.00     0.031 C 
ATOM     39  C   UNL A   1      43.230  25.022  26.573  1.00  0.00     0.029 A 
ATOM     40  N   UNL A   1      43.305  27.089  27.429  1.00  0.00    -0.354 N 
ATOM     41  C   UNL A   1      39.887  28.767  29.479  1.00  0.00     0.074 A 
ATOM     42  C   UNL A   1      38.782  27.834  29.502  1.00  0.00     0.031 C 
ATOM     43  C   UNL A   1      44.449  25.527  26.312  1.00  0.00     0.029 A 
ATOM     44  C   UNL A   1      44.524  26.895  26.822  1.00  0.00     0.049 A 
ATOM     45  H   UNL A   1      43.070  27.913  27.915  1.00  0.00     0.167 HD
ATOM     46  C   UNL A   1      39.861  29.990  30.060  1.00  0.00     0.034 A 
ATOM     47  C   UNL A   1      45.570  27.734  26.680  1.00  0.00     0.034 A 
ATOM     48  C   UNL A   1      40.966  30.909  30.051  1.00  0.00     0.049 A 
ATOM     49  C   UNL A   1      45.492  29.114  27.282  1.00  0.00     0.074 A 
ATOM     50  C   UNL A   1      41.043  32.163  30.629  1.00  0.00     0.029 A 
ATOM     51  N   UNL A   1      42.182  30.678  29.428  1.00  0.00    -0.354 N 
ATOM     52  N   UNL A   1      44.537  29.647  28.007  1.00  0.00    -0.248 NA
ATOM     53  C   UNL A   1      46.646  30.000  27.068  1.00  0.00     0.031 C 
ATOM     54  C   UNL A   1      42.301  32.700  30.336  1.00  0.00     0.029 A 
ATOM     55  C   UNL A   1      43.014  31.772  29.596  1.00  0.00     0.049 A 
ATOM     56  H   UNL A   1      42.419  29.858  28.939  1.00  0.00     0.167 HD
ATOM     57  C   UNL A   1      44.983  30.919  28.353  1.00  0.00     0.074 A 
ATOM     58  C   UNL A   1      46.307  31.065  27.783  1.00  0.00     0.031 C 
ATOM     59  C   UNL A   1      44.347  31.887  29.059  1.00  0.00     0.034 A 
BRANCH  46  60
ATOM     60  C   UNL A   1      38.607  30.393  30.790  1.00  0.00     0.023 A 
ATOM     61  C   UNL A   1      38.483  30.102  32.163  1.00  0.00     0.012 A 
ATOM     62  C   UNL A   1      37.589  31.120  30.141  1.00  0.00     0.148 A 
ATOM     63  C   UNL A   1      37.356  30.508  32.876  1.00  0.00     0.002 A 
ATOM     64  C   UNL A   1      36.488  31.558  30.868  1.00  0.00     0.091 A 
ATOM     65  F   UNL A   1      37.715  31.364  28.829  1.00  0.00    -0.205 F 
ATOM     66  C   UNL A   1      36.366  31.245  32.231  1.00  0.00     0.022 A 
BRANCH  64  67
ATOM     67  S   UNL A   1      35.195  32.578  30.151  1.00  0.00     0.127 S 
ATOM     68  O   UNL A   1      34.292  32.751  31.289  1.00  0.00    -0.237 OA
ATOM     69  O   UNL A   1      35.931  33.782  29.768  1.00  0.00    -0.237 OA
ATOM     70  O   UNL A   1      34.651  31.815  29.036  1.00  0.00    -0.744 OA
ENDBRANCH  64  67
ENDBRANCH  46  60
BRANCH  47  71
ATOM     71  C   UNL A   1      46.797  27.274  25.970  1.00  0.00     0.023 A 
ATOM     72  C   UNL A   1      46.923  27.510  24.587  1.00  0.00     0.012 A 
ATOM     73  C   UNL A   1      47.851  26.642  26.657  1.00  0.00     0.148 A 
ATOM     74  C   UNL A   1      48.069  27.109  23.899  1.00  0.00     0.002 A 
ATOM     75  C   UNL A   1      49.013  26.296  25.978  1.00  0.00     0.091 A 
ATOM     76  F   UNL A   1      47.703  26.407  27.969  1.00  0.00    -0.205 F 
ATOM     77  C   UNL A   1      49.117  26.514  24.595  1.00  0.00     0.022 A 
BRANCH  75  78
ATOM     78  S   UNL A   1      50.466  25.648  26.812  1.00  0.00     0.127 S 
ATOM     79  O   UNL A   1      49.928  24.459  27.469  1.00  0.00    -0.237 OA
ATOM     80  O   UNL A   1      51.363  25.380  25.686  1.00  0.00    -0.237 OA
ATOM     81  O   UNL A   1      50.916  26.711  27.700  1.00  0.00    -0.744 OA
ENDBRANCH  75  78
ENDBRANCH  47  71
BRANCH  59  82
ATOM     82  C   UNL A   1      45.063  33.198  29.265  1.00  0.00     0.023 A 
ATOM     83  C   UNL A   1      45.991  33.322  30.318  1.00  0.00     0.012 A 
ATOM     84  C   UNL A   1      44.899  34.266  28.360  1.00  0.00     0.148 A 
ATOM     85  C   UNL A   1      46.726  34.495  30.483  1.00  0.00     0.002 A 
ATOM     86  C   UNL A   1      45.671  35.413  28.501  1.00  0.00     0.091 A 
ATOM     87  F   UNL A   1      44.000  34.137  27.374  1.00  0.00    -0.205 F 
ATOM     88  C   UNL A   1      46.576  35.534  29.567  1.00  0.00     0.022 A 
BRANCH  86  89
ATOM     89  S   UNL A   1      45.623  36.760  27.312  1.00  0.00     0.127 S 
ATOM     90  O   UNL A   1      44.185  36.914  27.094  1.00  0.00    -0.237 OA
ATOM     91  O   UNL A   1      46.247  37.855  28.055  1.00  0.00    -0.237 OA
ATOM     92  O   UNL A   1      46.385  36.303  26.158  1.00  0.00    -0.744 OA
ENDBRANCH  86  89
ENDBRANCH  59  82
ENDBRANCH  33  34
ENDBRANCH  26  28
ENDBRANCH  25  26
ENDBRANCH  24  25
ENDBRANCH   1  24
TORSDOF 18
ENDMDL
MODEL 2
REMARK VINA RESULT:     -11.8      5.109      8.303
REMARK SMILES Cc1cc(Cl)c2c(c1)C=C(C(=O)OCCOCCOC(=O)c1ccc(-c3c4nc(c(-c5cccc(S(=O)(=O)[O-])c5F)c5ccc([nH]5)c(-c5cccc(S(=O)(=O)[O-])c5F)c5nc(c(-c6cccc(S(=O)(=O)[O-])c6F)c6ccc3[nH]6)C=C5)C=C4)cc1)[C@@H](C(F)(F)F)O2
REMARK SMILES IDX 17 1 16 2 15 3 14 4 13 5 11 6 12 7 10 8 1 9 2 10 3 11 8 12
REMARK SMILES IDX 4 13 7 14 5 15 6 16 9 17 90 18 85 19 86 20 87 21 88 22 89 23
REMARK SMILES IDX 18 24 19 25 20 26 21 27 22 28 23 29 84 30 24 31 83 32 25 33
REMARK SMILES IDX 26 34 27 35 77 36 28 37 82 38 76 39 78 40 29 41 81 42 75 43
REMARK SMILES IDX 74 44 30 46 62 47 42 48 61 49 43 50 46 51 60 52 79 53 44 54
REMARK SMILES IDX 45 55 59 57 80 58 47 59 31 60 32 61 40 62 33 63 35 64 41 65
REMARK SMILES IDX 34 66 36 67 37 68 38 69 39 70 63 71 64 72 72 73 65 74 67 75
REMARK SMILES IDX 73 76 66 77 68 78 69 79 70 80 71 81 48 82 49 83 57 84 50 85
REMARK SMILES IDX 52 86 58 87 51 88 53 89 54 90 55 91 56 92
REMARK H PARENT 78 45 46 56
REMARK Flexibility Score: inf
ROOT
ATOM      1  C   UNL A   1      31.141  31.520  26.502  1.00  0.00     0.202 C 
ENDROOT
BRANCH   1   2
ATOM      2  O   UNL A   1      31.605  30.665  25.455  1.00  0.00    -0.374 OA
BRANCH   2   3
ATOM      3  C   UNL A   1      32.539  29.643  25.797  1.00  0.00     0.202 C 
BRANCH   3   4
ATOM      4  C   UNL A   1      32.463  28.339  24.997  1.00  0.00     0.261 C 
BRANCH   4   5
ATOM      5  O   UNL A   1      33.011  27.233  25.731  1.00  0.00    -0.460 OA
BRANCH   5   6
ATOM      6  C   UNL A   1      32.091  26.403  26.269  1.00  0.00     0.338 C 
ATOM      7  O   UNL A   1      31.076  26.724  26.872  1.00  0.00    -0.246 OA
BRANCH   6   8
ATOM      8  C   UNL A   1      32.398  25.006  25.908  1.00  0.00     0.087 C 
ATOM      9  C   UNL A   1      37.286  21.320  25.274  1.00  0.00     0.044 C 
ATOM     10  C   UNL A   1      35.838  21.709  25.220  1.00  0.00    -0.049 A 
ATOM     11  C   UNL A   1      34.893  20.848  24.651  1.00  0.00     0.028 A 
ATOM     12  C   UNL A   1      35.409  22.934  25.738  1.00  0.00     0.015 A 
ATOM     13  C   UNL A   1      33.541  21.209  24.605  1.00  0.00     0.084 A 
ATOM     14  C   UNL A   1      34.061  23.309  25.664  1.00  0.00     0.019 A 
ATOM     15  Cl  UNL A   1      32.430  20.102  23.882  1.00  0.00    -0.080 Cl
ATOM     16  C   UNL A   1      33.116  22.444  25.109  1.00  0.00     0.146 A 
ATOM     17  C   UNL A   1      33.664  24.628  26.118  1.00  0.00     0.027 C 
ATOM     18  O   UNL A   1      31.781  22.747  25.058  1.00  0.00    -0.474 OA
ATOM     19  C   UNL A   1      31.344  24.112  25.315  1.00  0.00     0.316 C 
BRANCH  19  20
ATOM     20  C   UNL A   1      30.746  24.693  24.026  1.00  0.00     0.430 C 
ATOM     21  F   UNL A   1      30.275  23.718  23.217  1.00  0.00    -0.167 F 
ATOM     22  F   UNL A   1      29.713  25.527  24.287  1.00  0.00    -0.167 F 
ATOM     23  F   UNL A   1      31.666  25.397  23.325  1.00  0.00    -0.167 F 
ENDBRANCH  19  20
ENDBRANCH   6   8
ENDBRANCH   5   6
ENDBRANCH   4   5
ENDBRANCH   3   4
ENDBRANCH   2   3
ENDBRANCH   1   2
BRANCH   1  24
ATOM     24  C   UNL A   1      31.817  32.887  26.656  1.00  0.00     0.261 C 
BRANCH  24  25
ATOM     25  O   UNL A   1      32.375  33.076  27.969  1.00  0.00    -0.460 OA
BRANCH  25  26
ATOM     26  C   UNL A   1      33.471  33.872  28.006  1.00  0.00     0.338 C 
ATOM     27  O   UNL A   1      33.493  35.097  27.998  1.00  0.00    -0.246 OA
BRANCH  26  28
ATOM     28  C   UNL A   1      34.677  33.066  28.257  1.00  0.00     0.060 A 
ATOM     29  C   UNL A   1      34.496  31.744  28.683  1.00  0.00     0.016 A 
ATOM     30  C   UNL A   1      35.956  33.621  28.177  1.00  0.00     0.016 A 
ATOM     31  C   UNL A   1      35.590  30.987  29.091  1.00  0.00     0.010 A 
ATOM     32  C   UNL A   1      37.052  32.863  28.600  1.00  0.00     0.010 A 
ATOM     33  C   UNL A   1      36.866  31.561  29.099  1.00  0.00    -0.014 A 
BRANCH  33  34
ATOM     34  C   UNL A   1      37.971  30.867  29.803  1.00  0.00     0.031 A 
ATOM     35  C   UNL A   1      38.231  31.205  31.245  1.00  0.00     0.074 A 
ATOM     36  C   UNL A   1      38.711  29.935  29.178  1.00  0.00     0.049 A 
ATOM     37  N   UNL A   1      39.156  30.749  32.048  1.00  0.00    -0.248 NA
ATOM     38  C   UNL A   1      37.325  32.187  31.867  1.00  0.00     0.031 C 
ATOM     39  C   UNL A   1      38.529  29.501  27.795  1.00  0.00     0.029 A 
ATOM     40  N   UNL A   1      39.776  29.196  29.629  1.00  0.00    -0.354 N 
ATOM     41  C   UNL A   1      38.957  31.398  33.260  1.00  0.00     0.074 A 
ATOM     42  C   UNL A   1      37.835  32.293  33.086  1.00  0.00     0.031 C 
ATOM     43  C   UNL A   1      39.466  28.583  27.502  1.00  0.00     0.029 A 
ATOM     44  C   UNL A   1      40.328  28.385  28.666  1.00  0.00     0.049 A 
ATOM     45  H   UNL A   1      40.112  29.242  30.553  1.00  0.00     0.167 HD
ATOM     46  C   UNL A   1      39.634  31.246  34.423  1.00  0.00     0.034 A 
ATOM     47  C   UNL A   1      41.416  27.590  28.716  1.00  0.00     0.034 A 
ATOM     48  C   UNL A   1      40.739  30.343  34.599  1.00  0.00     0.049 A 
ATOM     49  C   UNL A   1      42.191  27.485  30.005  1.00  0.00     0.074 A 
ATOM     50  C   UNL A   1      41.476  30.103  35.743  1.00  0.00     0.029 A 
ATOM     51  N   UNL A   1      41.269  29.538  33.603  1.00  0.00    -0.354 N 
ATOM     52  N   UNL A   1      41.937  28.035  31.169  1.00  0.00    -0.248 NA
ATOM     53  C   UNL A   1      43.388  26.631  29.995  1.00  0.00     0.031 C 
ATOM     54  C   UNL A   1      42.468  29.168  35.434  1.00  0.00     0.029 A 
ATOM     55  C   UNL A   1      42.334  28.808  34.102  1.00  0.00     0.049 A 
ATOM     56  H   UNL A   1      40.938  29.492  32.678  1.00  0.00     0.167 HD
ATOM     57  C   UNL A   1      42.928  27.578  32.033  1.00  0.00     0.074 A 
ATOM     58  C   UNL A   1      43.768  26.682  31.266  1.00  0.00     0.031 C 
ATOM     59  C   UNL A   1      43.136  27.887  33.338  1.00  0.00     0.034 A 
BRANCH  46  60
ATOM     60  C   UNL A   1      39.175  32.047  35.612  1.00  0.00     0.023 A 
ATOM     61  C   UNL A   1      39.463  33.426  35.668  1.00  0.00     0.012 A 
ATOM     62  C   UNL A   1      38.403  31.458  36.632  1.00  0.00     0.148 A 
ATOM     63  C   UNL A   1      39.007  34.203  36.732  1.00  0.00     0.002 A 
ATOM     64  C   UNL A   1      37.916  32.248  37.668  1.00  0.00     0.091 A 
ATOM     65  F   UNL A   1      38.163  30.141  36.572  1.00  0.00    -0.205 F 
ATOM     66  C   UNL A   1      38.225  33.616  37.725  1.00  0.00     0.022 A 
BRANCH  64  67
ATOM     67  S   UNL A   1      36.838  31.606  38.953  1.00  0.00     0.127 S 
ATOM     68  O   UNL A   1      37.684  31.737  40.140  1.00  0.00    -0.237 OA
ATOM     69  O   UNL A   1      35.712  32.538  38.902  1.00  0.00    -0.237 OA
ATOM     70  O   UNL A   1      36.517  30.240  38.566  1.00  0.00    -0.744 OA
ENDBRANCH  64  67
ENDBRANCH  46  60
BRANCH  47  71
ATOM     71  C   UNL A   1      41.811  26.798  27.517  1.00  0.00     0.023 A 
ATOM     72  C   UNL A   1      42.436  27.449  26.436  1.00  0.00     0.012 A 
ATOM     73  C   UNL A   1      41.609  25.406  27.455  1.00  0.00     0.148 A 
ATOM     74  C   UNL A   1      42.835  26.731  25.307  1.00  0.00     0.002 A 
ATOM     75  C   UNL A   1      42.059  24.688  26.354  1.00  0.00     0.091 A 
ATOM     76  F   UNL A   1      40.993  24.807  28.485  1.00  0.00    -0.205 F 
ATOM     77  C   UNL A   1      42.658  25.351  25.271  1.00  0.00     0.022 A 
BRANCH  75  78
ATOM     78  S   UNL A   1      41.996  22.895  26.276  1.00  0.00     0.127 S 
ATOM     79  O   UNL A   1      40.557  22.645  26.283  1.00  0.00    -0.237 OA
ATOM     80  O   UNL A   1      42.663  22.626  25.000  1.00  0.00    -0.237 OA
ATOM     81  O   UNL A   1      42.724  22.424  27.446  1.00  0.00    -0.744 OA
ENDBRANCH  75  78
ENDBRANCH  47  71
BRANCH  59  82
ATOM     82  C   UNL A   1      44.318  27.259  34.033  1.00  0.00     0.023 A 
ATOM     83  C   UNL A   1      45.566  27.911  34.002  1.00  0.00     0.012 A 
ATOM     84  C   UNL A   1      44.171  26.086  34.799  1.00  0.00     0.148 A 
ATOM     85  C   UNL A   1      46.655  27.395  34.702  1.00  0.00     0.002 A 
ATOM     86  C   UNL A   1      45.248  25.603  35.535  1.00  0.00     0.091 A 
ATOM     87  F   UNL A   1      42.980  25.469  34.805  1.00  0.00    -0.205 F 
ATOM     88  C   UNL A   1      46.493  26.250  35.478  1.00  0.00     0.022 A 
BRANCH  86  89
ATOM     89  S   UNL A   1      45.106  24.197  36.645  1.00  0.00     0.127 S 
ATOM     90  O   UNL A   1      44.353  24.772  37.759  1.00  0.00    -0.237 OA
ATOM     91  O   UNL A   1      44.356  23.235  35.836  1.00  0.00    -0.237 OA
ATOM     92  O   UNL A   1      46.469  23.791  36.954  1.00  0.00    -0.744 OA
ENDBRANCH  86  89
ENDBRANCH  59  82
ENDBRANCH  33  34
ENDBRANCH  26  28
ENDBRANCH  25  26
ENDBRANCH  24  25
ENDBRANCH   1  24
TORSDOF 18
ENDMDL
MODEL 3
REMARK VINA RESULT:     -11.6      0.614      7.768
REMARK SMILES Cc1cc(Cl)c2c(c1)C=C(C(=O)OCCOCCOC(=O)c1ccc(-c3c4nc(c(-c5cccc(S(=O)(=O)[O-])c5F)c5ccc([nH]5)c(-c5cccc(S(=O)(=O)[O-])c5F)c5nc(c(-c6cccc(S(=O)(=O)[O-])c6F)c6ccc3[nH]6)C=C5)C=C4)cc1)[C@@H](C(F)(F)F)O2
REMARK SMILES IDX 17 1 16 2 15 3 14 4 13 5 11 6 12 7 10 8 1 9 2 10 3 11 8 12
REMARK SMILES IDX 4 13 7 14 5 15 6 16 9 17 90 18 85 19 86 20 87 21 88 22 89 23
REMARK SMILES IDX 18 24 19 25 20 26 21 27 22 28 23 29 84 30 24 31 83 32 25 33
REMARK SMILES IDX 26 34 27 35 77 36 28 37 82 38 76 39 78 40 29 41 81 42 75 43
REMARK SMILES IDX 74 44 30 46 62 47 42 48 61 49 43 50 46 51 60 52 79 53 44 54
REMARK SMILES IDX 45 55 59 57 80 58 47 59 31 60 32 61 40 62 33 63 35 64 41 65
REMARK SMILES IDX 34 66 36 67 37 68 38 69 39 70 63 71 64 72 72 73 65 74 67 75
REMARK SMILES IDX 73 76 66 77 68 78 69 79 70 80 71 81 48 82 49 83 57 84 50 85
REMARK SMILES IDX 52 86 58 87 51 88 53 89 54 90 55 91 56 92
REMARK H PARENT 78 45 46 56
REMARK Flexibility Score: inf
ROOT
ATOM      1  C   UNL A   1      35.846  21.008  25.473  1.00  0.00     0.202 C 
ENDROOT
BRANCH   1   2
ATOM      2  O   UNL A   1      34.849  21.315  24.498  1.00  0.00    -0.374 OA
BRANCH   2   3
ATOM      3  C   UNL A   1      33.598  21.820  24.962  1.00  0.00     0.202 C 
BRANCH   3   4
ATOM      4  C   UNL A   1      32.449  21.859  23.950  1.00  0.00     0.261 C 
BRANCH   4   5
ATOM      5  O   UNL A   1      31.850  23.163  23.877  1.00  0.00    -0.460 OA
BRANCH   5   6
ATOM      6  C   UNL A   1      31.194  23.544  24.995  1.00  0.00     0.338 C 
ATOM      7  O   UNL A   1      30.806  22.821  25.902  1.00  0.00    -0.246 OA
BRANCH   6   8
ATOM      8  C   UNL A   1      31.121  25.016  25.060  1.00  0.00     0.087 C 
ATOM      9  C   UNL A   1      28.648  29.703  21.930  1.00  0.00     0.044 C 
ATOM     10  C   UNL A   1      29.470  29.039  22.995  1.00  0.00    -0.049 A 
ATOM     11  C   UNL A   1      30.279  29.802  23.845  1.00  0.00     0.028 A 
ATOM     12  C   UNL A   1      29.441  27.652  23.157  1.00  0.00     0.015 A 
ATOM     13  C   UNL A   1      31.043  29.184  24.841  1.00  0.00     0.084 A 
ATOM     14  C   UNL A   1      30.230  27.029  24.133  1.00  0.00     0.019 A 
ATOM     15  Cl  UNL A   1      32.025  30.184  25.850  1.00  0.00    -0.080 Cl
ATOM     16  C   UNL A   1      31.026  27.792  24.991  1.00  0.00     0.146 A 
ATOM     17  C   UNL A   1      30.256  25.582  24.210  1.00  0.00     0.027 C 
ATOM     18  O   UNL A   1      31.776  27.232  25.991  1.00  0.00    -0.474 OA
ATOM     19  C   UNL A   1      31.997  25.792  26.003  1.00  0.00     0.316 C 
BRANCH  19  20
ATOM     20  C   UNL A   1      33.489  25.517  25.769  1.00  0.00     0.430 C 
ATOM     21  F   UNL A   1      34.249  26.578  26.126  1.00  0.00    -0.167 F 
ATOM     22  F   UNL A   1      33.920  24.458  26.492  1.00  0.00    -0.167 F 
ATOM     23  F   UNL A   1      33.748  25.250  24.467  1.00  0.00    -0.167 F 
ENDBRANCH  19  20
ENDBRANCH   6   8
ENDBRANCH   5   6
ENDBRANCH   4   5
ENDBRANCH   3   4
ENDBRANCH   2   3
ENDBRANCH   1   2
BRANCH   1  24
ATOM     24  C   UNL A   1      37.169  20.414  24.976  1.00  0.00     0.261 C 
BRANCH  24  25
ATOM     25  O   UNL A   1      38.241  21.374  24.995  1.00  0.00    -0.460 OA
BRANCH  25  26
ATOM     26  C   UNL A   1      39.187  21.145  25.937  1.00  0.00     0.338 C 
ATOM     27  O   UNL A   1      39.803  20.103  26.125  1.00  0.00    -0.246 OA
BRANCH  26  28
ATOM     28  C   UNL A   1      39.541  22.401  26.619  1.00  0.00     0.060 A 
ATOM     29  C   UNL A   1      38.857  23.562  26.234  1.00  0.00     0.016 A 
ATOM     30  C   UNL A   1      40.589  22.462  27.539  1.00  0.00     0.016 A 
ATOM     31  C   UNL A   1      39.258  24.801  26.723  1.00  0.00     0.010 A 
ATOM     32  C   UNL A   1      40.999  23.710  28.018  1.00  0.00     0.010 A 
ATOM     33  C   UNL A   1      40.364  24.885  27.577  1.00  0.00    -0.014 A 
BRANCH  33  34
ATOM     34  C   UNL A   1      40.967  26.210  27.858  1.00  0.00     0.031 A 
ATOM     35  C   UNL A   1      42.369  26.477  27.384  1.00  0.00     0.074 A 
ATOM     36  C   UNL A   1      40.271  27.165  28.498  1.00  0.00     0.049 A 
ATOM     37  N   UNL A   1      43.106  27.546  27.541  1.00  0.00    -0.248 NA
ATOM     38  C   UNL A   1      43.029  25.397  26.630  1.00  0.00     0.031 C 
ATOM     39  C   UNL A   1      38.896  27.032  28.973  1.00  0.00     0.029 A 
ATOM     40  N   UNL A   1      40.638  28.434  28.870  1.00  0.00    -0.354 N 
ATOM     41  C   UNL A   1      44.317  27.262  26.923  1.00  0.00     0.074 A 
ATOM     42  C   UNL A   1      44.227  25.916  26.403  1.00  0.00     0.031 C 
ATOM     43  C   UNL A   1      38.539  28.170  29.594  1.00  0.00     0.029 A 
ATOM     44  C   UNL A   1      39.668  29.099  29.583  1.00  0.00     0.049 A 
ATOM     45  H   UNL A   1      41.512  28.830  28.649  1.00  0.00     0.167 HD
ATOM     46  C   UNL A   1      45.402  28.060  26.782  1.00  0.00     0.034 A 
ATOM     47  C   UNL A   1      39.698  30.311  30.173  1.00  0.00     0.034 A 
ATOM     48  C   UNL A   1      45.484  29.404  27.285  1.00  0.00     0.049 A 
ATOM     49  C   UNL A   1      40.941  31.156  30.054  1.00  0.00     0.074 A 
ATOM     50  C   UNL A   1      46.532  30.299  27.174  1.00  0.00     0.029 A 
ATOM     51  N   UNL A   1      44.483  30.044  27.999  1.00  0.00    -0.354 N 
ATOM     52  N   UNL A   1      42.046  30.912  29.390  1.00  0.00    -0.248 NA
ATOM     53  C   UNL A   1      40.933  32.454  30.745  1.00  0.00     0.031 C 
ATOM     54  C   UNL A   1      46.173  31.474  27.841  1.00  0.00     0.029 A 
ATOM     55  C   UNL A   1      44.893  31.319  28.348  1.00  0.00     0.049 A 
ATOM     56  H   UNL A   1      43.611  29.650  28.225  1.00  0.00     0.167 HD
ATOM     57  C   UNL A   1      42.853  32.031  29.564  1.00  0.00     0.074 A 
ATOM     58  C   UNL A   1      42.098  32.967  30.372  1.00  0.00     0.031 C 
ATOM     59  C   UNL A   1      44.114  32.257  29.116  1.00  0.00     0.034 A 
BRANCH  46  60
ATOM     60  C   UNL A   1      46.580  27.514  26.018  1.00  0.00     0.023 A 
ATOM     61  C   UNL A   1      46.657  27.722  24.626  1.00  0.00     0.012 A 
ATOM     62  C   UNL A   1      47.639  26.864  26.681  1.00  0.00     0.148 A 
ATOM     63  C   UNL A   1      47.760  27.273  23.902  1.00  0.00     0.002 A 
ATOM     64  C   UNL A   1      48.754  26.456  25.959  1.00  0.00     0.091 A 
ATOM     65  F   UNL A   1      47.534  26.654  28.001  1.00  0.00    -0.205 F 
ATOM     66  C   UNL A   1      48.812  26.651  24.569  1.00  0.00     0.022 A 
BRANCH  64  67
ATOM     67  S   UNL A   1      50.195  25.715  26.733  1.00  0.00     0.127 S 
ATOM     68  O   UNL A   1      51.104  25.579  25.595  1.00  0.00    -0.237 OA
ATOM     69  O   UNL A   1      50.583  26.739  27.703  1.00  0.00    -0.237 OA
ATOM     70  O   UNL A   1      49.739  24.462  27.319  1.00  0.00    -0.744 OA
ENDBRANCH  64  67
ENDBRANCH  46  60
BRANCH  47  71
ATOM     71  C   UNL A   1      38.495  30.814  30.895  1.00  0.00     0.023 A 
ATOM     72  C   UNL A   1      38.438  30.708  32.298  1.00  0.00     0.012 A 
ATOM     73  C   UNL A   1      37.428  31.426  30.209  1.00  0.00     0.148 A 
ATOM     74  C   UNL A   1      37.334  31.188  33.003  1.00  0.00     0.002 A 
ATOM     75  C   UNL A   1      36.357  31.952  30.922  1.00  0.00     0.091 A 
ATOM     76  F   UNL A   1      37.491  31.498  28.872  1.00  0.00    -0.205 F 
ATOM     77  C   UNL A   1      36.300  31.819  32.318  1.00  0.00     0.022 A 
BRANCH  75  78
ATOM     78  S   UNL A   1      35.046  32.899  30.140  1.00  0.00     0.127 S 
ATOM     79  O   UNL A   1      34.177  33.202  31.274  1.00  0.00    -0.237 OA
ATOM     80  O   UNL A   1      35.783  34.045  29.604  1.00  0.00    -0.237 OA
ATOM     81  O   UNL A   1      34.478  32.022  29.126  1.00  0.00    -0.744 OA
ENDBRANCH  75  78
ENDBRANCH  47  71
BRANCH  59  82
ATOM     82  C   UNL A   1      44.771  33.564  29.481  1.00  0.00     0.023 A 
ATOM     83  C   UNL A   1      45.548  33.645  30.653  1.00  0.00     0.012 A 
ATOM     84  C   UNL A   1      44.706  34.677  28.618  1.00  0.00     0.148 A 
ATOM     85  C   UNL A   1      46.231  34.817  30.974  1.00  0.00     0.002 A 
ATOM     86  C   UNL A   1      45.429  35.825  28.918  1.00  0.00     0.091 A 
ATOM     87  F   UNL A   1      43.948  34.588  27.515  1.00  0.00    -0.205 F 
ATOM     88  C   UNL A   1      46.183  35.901  30.101  1.00  0.00     0.022 A 
BRANCH  86  89
ATOM     89  S   UNL A   1      45.512  37.232  27.803  1.00  0.00     0.127 S 
ATOM     90  O   UNL A   1      45.828  36.586  26.531  1.00  0.00    -0.237 OA
ATOM     91  O   UNL A   1      44.158  37.779  27.889  1.00  0.00    -0.237 OA
ATOM     92  O   UNL A   1      46.549  38.105  28.336  1.00  0.00    -0.744 OA
ENDBRANCH  86  89
ENDBRANCH  59  82
ENDBRANCH  33  34
ENDBRANCH  26  28
ENDBRANCH  25  26
ENDBRANCH  24  25
ENDBRANCH   1  24
TORSDOF 18
ENDMDL
