MODEL 1
REMARK VINA RESULT:     -10.1      0.000      0.000
REMARK SMILES Cc1cc2[nH]ccc2nc1C(=O)OCCOCCOC(=O)c1ccc(-c2c3nc(c(-c4cccc(S(=O)(=O)[O-])c4F)c4ccc([nH]4)c(-c4cccc(S(=O)(=O)[O-])c4F)c4nc(c(-c5cccc(S(=O)(=O)[O-])c5F)c5ccc2[nH]5)C=C4)C=C3)cc1
REMARK SMILES IDX 17 1 16 2 15 3 14 4 13 5 11 6 12 7 10 8 1 9 2 10 3 11 4 12
REMARK SMILES IDX 9 13 5 14 8 15 6 16 7 18 18 19 19 20 20 21 21 22 22 23 23 24
REMARK SMILES IDX 84 25 24 26 83 27 25 28 26 29 27 30 77 31 28 32 82 33 76 34
REMARK SMILES IDX 78 35 29 36 81 37 75 38 74 39 30 41 62 42 42 43 61 44 43 45
REMARK SMILES IDX 46 46 60 47 79 48 44 49 45 50 59 52 80 53 47 54 31 55 32 56
REMARK SMILES IDX 40 57 33 58 35 59 41 60 34 61 36 62 37 63 38 64 39 65 63 66
REMARK SMILES IDX 64 67 72 68 65 69 67 70 73 71 66 72 68 73 69 74 70 75 71 76
REMARK SMILES IDX 48 77 49 78 57 79 50 80 52 81 58 82 51 83 53 84 54 85 55 86
REMARK SMILES IDX 56 87
REMARK H PARENT 5 17 78 40 46 51
REMARK Flexibility Score: inf
ROOT
ATOM      1  C   UNL A   1      44.752  19.187  24.608  1.00  0.00     0.202 C 
ENDROOT
BRANCH   1   2
ATOM      2  O   UNL A   1      44.813  20.461  23.973  1.00  0.00    -0.374 OA
BRANCH   2   3
ATOM      3  C   UNL A   1      45.671  21.469  24.506  1.00  0.00     0.202 C 
BRANCH   3   4
ATOM      4  C   UNL A   1      45.517  22.885  23.955  1.00  0.00     0.261 C 
BRANCH   4   5
ATOM      5  O   UNL A   1      46.742  23.629  24.068  1.00  0.00    -0.459 OA
BRANCH   5   6
ATOM      6  C   UNL A   1      46.636  24.835  24.684  1.00  0.00     0.357 C 
ATOM      7  O   UNL A   1      45.594  25.452  24.861  1.00  0.00    -0.244 OA
BRANCH   6   8
ATOM      8  C   UNL A   1      47.953  25.267  25.260  1.00  0.00     0.152 A 
ATOM      9  C   UNL A   1      48.691  26.502  23.141  1.00  0.00     0.047 C 
ATOM     10  C   UNL A   1      48.857  26.099  24.577  1.00  0.00    -0.016 A 
ATOM     11  C   UNL A   1      49.993  26.548  25.268  1.00  0.00     0.034 A 
ATOM     12  C   UNL A   1      50.155  26.092  26.576  1.00  0.00     0.064 A 
ATOM     13  N   UNL A   1      48.127  24.799  26.527  1.00  0.00    -0.239 NA
ATOM     14  N   UNL A   1      51.127  26.337  27.517  1.00  0.00    -0.360 N 
ATOM     15  C   UNL A   1      49.246  25.216  27.152  1.00  0.00     0.089 A 
ATOM     16  C   UNL A   1      50.884  25.595  28.647  1.00  0.00     0.085 A 
ATOM     17  H   UNL A   1      51.885  26.955  27.400  1.00  0.00     0.166 HD
ATOM     18  C   UNL A   1      49.724  24.879  28.439  1.00  0.00     0.048 A 
ENDBRANCH   6   8
ENDBRANCH   5   6
ENDBRANCH   4   5
ENDBRANCH   3   4
ENDBRANCH   2   3
ENDBRANCH   1   2
BRANCH   1  19
ATOM     19  C   UNL A   1      43.522  18.868  25.446  1.00  0.00     0.261 C 
BRANCH  19  20
ATOM     20  O   UNL A   1      42.346  19.495  24.954  1.00  0.00    -0.460 OA
BRANCH  20  21
ATOM     21  C   UNL A   1      41.573  20.033  25.915  1.00  0.00     0.338 C 
ATOM     22  O   UNL A   1      40.412  19.719  26.195  1.00  0.00    -0.246 OA
BRANCH  21  23
ATOM     23  C   UNL A   1      42.258  21.179  26.502  1.00  0.00     0.060 A 
ATOM     24  C   UNL A   1      42.548  21.100  27.865  1.00  0.00     0.016 A 
ATOM     25  C   UNL A   1      42.309  22.392  25.796  1.00  0.00     0.016 A 
ATOM     26  C   UNL A   1      42.657  22.273  28.569  1.00  0.00     0.010 A 
ATOM     27  C   UNL A   1      42.410  23.565  26.502  1.00  0.00     0.010 A 
ATOM     28  C   UNL A   1      42.487  23.486  27.887  1.00  0.00    -0.014 A 
BRANCH  28  29
ATOM     29  C   UNL A   1      42.468  24.693  28.676  1.00  0.00     0.031 A 
ATOM     30  C   UNL A   1      41.287  25.527  28.396  1.00  0.00     0.074 A 
ATOM     31  C   UNL A   1      43.416  24.998  29.578  1.00  0.00     0.049 A 
ATOM     32  N   UNL A   1      41.251  26.591  27.667  1.00  0.00    -0.248 NA
ATOM     33  C   UNL A   1      39.971  25.003  28.779  1.00  0.00     0.031 C 
ATOM     34  C   UNL A   1      44.472  24.146  30.130  1.00  0.00     0.029 A 
ATOM     35  N   UNL A   1      43.553  26.152  30.278  1.00  0.00    -0.354 N 
ATOM     36  C   UNL A   1      39.929  27.010  27.707  1.00  0.00     0.074 A 
ATOM     37  C   UNL A   1      39.167  25.893  28.198  1.00  0.00     0.031 C 
ATOM     38  C   UNL A   1      44.976  24.734  31.241  1.00  0.00     0.029 A 
ATOM     39  C   UNL A   1      44.390  26.057  31.380  1.00  0.00     0.049 A 
ATOM     40  H   UNL A   1      43.098  26.988  30.025  1.00  0.00     0.167 HD
ATOM     41  C   UNL A   1      39.615  28.328  27.593  1.00  0.00     0.034 A 
ATOM     42  C   UNL A   1      44.516  26.989  32.357  1.00  0.00     0.034 A 
ATOM     43  C   UNL A   1      40.727  29.087  27.072  1.00  0.00     0.049 A 
ATOM     44  C   UNL A   1      44.059  28.279  31.784  1.00  0.00     0.074 A 
ATOM     45  C   UNL A   1      41.461  29.068  25.903  1.00  0.00     0.029 A 
ATOM     46  N   UNL A   1      41.482  29.781  27.986  1.00  0.00    -0.354 N 
ATOM     47  N   UNL A   1      44.688  28.903  30.827  1.00  0.00    -0.248 NA
ATOM     48  C   UNL A   1      42.668  28.660  31.972  1.00  0.00     0.031 C 
ATOM     49  C   UNL A   1      42.800  29.354  26.303  1.00  0.00     0.029 A 
ATOM     50  C   UNL A   1      42.802  29.585  27.681  1.00  0.00     0.049 A 
ATOM     51  H   UNL A   1      41.134  30.324  28.731  1.00  0.00     0.167 HD
ATOM     52  C   UNL A   1      43.675  29.394  30.012  1.00  0.00     0.074 A 
ATOM     53  C   UNL A   1      42.463  29.314  30.825  1.00  0.00     0.031 C 
ATOM     54  C   UNL A   1      43.863  29.544  28.667  1.00  0.00     0.034 A 
BRANCH  41  55
ATOM     55  C   UNL A   1      38.462  28.995  28.301  1.00  0.00     0.023 A 
ATOM     56  C   UNL A   1      37.510  29.654  27.492  1.00  0.00     0.012 A 
ATOM     57  C   UNL A   1      38.398  29.239  29.692  1.00  0.00     0.148 A 
ATOM     58  C   UNL A   1      36.584  30.551  28.033  1.00  0.00     0.002 A 
ATOM     59  C   UNL A   1      37.420  30.064  30.235  1.00  0.00     0.091 A 
ATOM     60  F   UNL A   1      39.360  28.792  30.502  1.00  0.00    -0.205 F 
ATOM     61  C   UNL A   1      36.532  30.750  29.406  1.00  0.00     0.022 A 
BRANCH  59  62
ATOM     62  S   UNL A   1      37.276  30.308  32.010  1.00  0.00     0.127 S 
ATOM     63  O   UNL A   1      38.636  30.700  32.363  1.00  0.00    -0.237 OA
ATOM     64  O   UNL A   1      36.281  31.379  32.081  1.00  0.00    -0.237 OA
ATOM     65  O   UNL A   1      36.816  29.033  32.547  1.00  0.00    -0.744 OA
ENDBRANCH  59  62
ENDBRANCH  41  55
BRANCH  42  66
ATOM     66  C   UNL A   1      44.688  26.811  33.817  1.00  0.00     0.023 A 
ATOM     67  C   UNL A   1      45.834  27.336  34.447  1.00  0.00     0.012 A 
ATOM     68  C   UNL A   1      43.598  26.423  34.630  1.00  0.00     0.148 A 
ATOM     69  C   UNL A   1      45.878  27.515  35.834  1.00  0.00     0.002 A 
ATOM     70  C   UNL A   1      43.646  26.607  36.008  1.00  0.00     0.091 A 
ATOM     71  F   UNL A   1      42.485  25.965  34.041  1.00  0.00    -0.205 F 
ATOM     72  C   UNL A   1      44.779  27.166  36.613  1.00  0.00     0.022 A 
BRANCH  70  73
ATOM     73  S   UNL A   1      42.248  26.233  37.077  1.00  0.00     0.127 S 
ATOM     74  O   UNL A   1      42.822  26.439  38.406  1.00  0.00    -0.237 OA
ATOM     75  O   UNL A   1      41.277  27.244  36.667  1.00  0.00    -0.237 OA
ATOM     76  O   UNL A   1      41.880  24.853  36.788  1.00  0.00    -0.744 OA
ENDBRANCH  70  73
ENDBRANCH  42  66
BRANCH  54  77
ATOM     77  C   UNL A   1      45.267  29.398  28.124  1.00  0.00     0.023 A 
ATOM     78  C   UNL A   1      45.726  28.202  27.531  1.00  0.00     0.012 A 
ATOM     79  C   UNL A   1      46.069  30.549  28.035  1.00  0.00     0.148 A 
ATOM     80  C   UNL A   1      46.962  28.154  26.877  1.00  0.00     0.002 A 
ATOM     81  C   UNL A   1      47.271  30.511  27.340  1.00  0.00     0.091 A 
ATOM     82  F   UNL A   1      45.618  31.678  28.603  1.00  0.00    -0.205 F 
ATOM     83  C   UNL A   1      47.726  29.312  26.767  1.00  0.00     0.022 A 
BRANCH  81  84
ATOM     84  S   UNL A   1      48.231  31.996  27.038  1.00  0.00     0.127 S 
ATOM     85  O   UNL A   1      49.451  31.457  26.443  1.00  0.00    -0.237 OA
ATOM     86  O   UNL A   1      47.374  32.739  26.112  1.00  0.00    -0.237 OA
ATOM     87  O   UNL A   1      48.398  32.638  28.337  1.00  0.00    -0.744 OA
ENDBRANCH  81  84
ENDBRANCH  54  77
ENDBRANCH  28  29
ENDBRANCH  21  23
ENDBRANCH  20  21
ENDBRANCH  19  20
ENDBRANCH   1  19
TORSDOF 17
ENDMDL
MODEL 2
REMARK VINA RESULT:     -10.0      4.120      7.405
REMARK SMILES Cc1cc2[nH]ccc2nc1C(=O)OCCOCCOC(=O)c1ccc(-c2c3nc(c(-c4cccc(S(=O)(=O)[O-])c4F)c4ccc([nH]4)c(-c4cccc(S(=O)(=O)[O-])c4F)c4nc(c(-c5cccc(S(=O)(=O)[O-])c5F)c5ccc2[nH]5)C=C4)C=C3)cc1
REMARK SMILES IDX 17 1 16 2 15 3 14 4 13 5 11 6 12 7 10 8 1 9 2 10 3 11 4 12
REMARK SMILES IDX 9 13 5 14 8 15 6 16 7 18 18 19 19 20 20 21 21 22 22 23 23 24
REMARK SMILES IDX 84 25 24 26 83 27 25 28 26 29 27 30 77 31 28 32 82 33 76 34
REMARK SMILES IDX 78 35 29 36 81 37 75 38 74 39 30 41 62 42 42 43 61 44 43 45
REMARK SMILES IDX 46 46 60 47 79 48 44 49 45 50 59 52 80 53 47 54 31 55 32 56
REMARK SMILES IDX 40 57 33 58 35 59 41 60 34 61 36 62 37 63 38 64 39 65 63 66
REMARK SMILES IDX 64 67 72 68 65 69 67 70 73 71 66 72 68 73 69 74 70 75 71 76
REMARK SMILES IDX 48 77 49 78 57 79 50 80 52 81 58 82 51 83 53 84 54 85 55 86
REMARK SMILES IDX 56 87
REMARK H PARENT 5 17 78 40 46 51
REMARK Flexibility Score: inf
ROOT
ATOM      1  C   UNL A   1      38.148  20.455  25.023  1.00  0.00     0.202 C 
ENDROOT
BRANCH   1   2
ATOM      2  O   UNL A   1      37.055  21.339  24.786  1.00  0.00    -0.374 OA
BRANCH   2   3
ATOM      3  C   UNL A   1      36.087  21.547  25.815  1.00  0.00     0.202 C 
BRANCH   3   4
ATOM      4  C   UNL A   1      35.023  22.616  25.569  1.00  0.00     0.261 C 
BRANCH   4   5
ATOM      5  O   UNL A   1      34.124  22.228  24.516  1.00  0.00    -0.459 OA
BRANCH   5   6
ATOM      6  C   UNL A   1      32.927  21.735  24.924  1.00  0.00     0.357 C 
ATOM      7  O   UNL A   1      32.057  22.374  25.504  1.00  0.00    -0.244 OA
BRANCH   6   8
ATOM      8  C   UNL A   1      32.728  20.325  24.449  1.00  0.00     0.152 A 
ATOM      9  C   UNL A   1      31.929  21.022  22.117  1.00  0.00     0.047 C 
ATOM     10  C   UNL A   1      32.348  20.002  23.136  1.00  0.00    -0.016 A 
ATOM     11  C   UNL A   1      32.326  18.647  22.769  1.00  0.00     0.034 A 
ATOM     12  C   UNL A   1      32.647  17.721  23.762  1.00  0.00     0.064 A 
ATOM     13  N   UNL A   1      33.013  19.419  25.425  1.00  0.00    -0.239 NA
ATOM     14  N   UNL A   1      32.730  16.348  23.741  1.00  0.00    -0.360 N 
ATOM     15  C   UNL A   1      32.947  18.125  25.055  1.00  0.00     0.089 A 
ATOM     16  C   UNL A   1      33.016  15.877  24.999  1.00  0.00     0.085 A 
ATOM     17  H   UNL A   1      32.603  15.786  22.943  1.00  0.00     0.166 HD
ATOM     18  C   UNL A   1      33.145  16.964  25.837  1.00  0.00     0.048 A 
ENDBRANCH   6   8
ENDBRANCH   5   6
ENDBRANCH   4   5
ENDBRANCH   3   4
ENDBRANCH   2   3
ENDBRANCH   1   2
BRANCH   1  19
ATOM     19  C   UNL A   1      39.354  21.000  25.774  1.00  0.00     0.261 C 
BRANCH  19  20
ATOM     20  O   UNL A   1      40.172  19.973  26.315  1.00  0.00    -0.460 OA
BRANCH  20  21
ATOM     21  C   UNL A   1      41.441  19.991  25.863  1.00  0.00     0.338 C 
ATOM     22  O   UNL A   1      41.985  19.143  25.151  1.00  0.00    -0.246 OA
BRANCH  21  23
ATOM     23  C   UNL A   1      42.155  21.108  26.472  1.00  0.00     0.060 A 
ATOM     24  C   UNL A   1      42.379  21.027  27.847  1.00  0.00     0.016 A 
ATOM     25  C   UNL A   1      42.298  22.310  25.759  1.00  0.00     0.016 A 
ATOM     26  C   UNL A   1      42.515  22.200  28.546  1.00  0.00     0.010 A 
ATOM     27  C   UNL A   1      42.426  23.483  26.461  1.00  0.00     0.010 A 
ATOM     28  C   UNL A   1      42.437  23.413  27.849  1.00  0.00    -0.014 A 
BRANCH  28  29
ATOM     29  C   UNL A   1      42.442  24.627  28.627  1.00  0.00     0.031 A 
ATOM     30  C   UNL A   1      41.262  25.467  28.365  1.00  0.00     0.074 A 
ATOM     31  C   UNL A   1      43.412  24.934  29.505  1.00  0.00     0.049 A 
ATOM     32  N   UNL A   1      41.216  26.524  27.629  1.00  0.00    -0.248 NA
ATOM     33  C   UNL A   1      39.950  24.955  28.782  1.00  0.00     0.031 C 
ATOM     34  C   UNL A   1      44.474  24.080  30.041  1.00  0.00     0.029 A 
ATOM     35  N   UNL A   1      43.572  26.094  30.192  1.00  0.00    -0.354 N 
ATOM     36  C   UNL A   1      39.898  26.952  27.693  1.00  0.00     0.074 A 
ATOM     37  C   UNL A   1      39.139  25.844  28.211  1.00  0.00     0.031 C 
ATOM     38  C   UNL A   1      45.007  24.674  31.136  1.00  0.00     0.029 A 
ATOM     39  C   UNL A   1      44.432  26.003  31.276  1.00  0.00     0.049 A 
ATOM     40  H   UNL A   1      43.117  26.930  29.941  1.00  0.00     0.167 HD
ATOM     41  C   UNL A   1      39.590  28.271  27.574  1.00  0.00     0.034 A 
ATOM     42  C   UNL A   1      44.585  26.942  32.242  1.00  0.00     0.034 A 
ATOM     43  C   UNL A   1      40.695  29.018  27.022  1.00  0.00     0.049 A 
ATOM     44  C   UNL A   1      44.124  28.230  31.668  1.00  0.00     0.074 A 
ATOM     45  C   UNL A   1      41.403  28.985  25.838  1.00  0.00     0.029 A 
ATOM     46  N   UNL A   1      41.474  29.715  27.914  1.00  0.00    -0.354 N 
ATOM     47  N   UNL A   1      44.736  28.841  30.691  1.00  0.00    -0.248 NA
ATOM     48  C   UNL A   1      42.740  28.621  31.882  1.00  0.00     0.031 C 
ATOM     49  C   UNL A   1      42.752  29.265  26.207  1.00  0.00     0.029 A 
ATOM     50  C   UNL A   1      42.786  29.509  27.582  1.00  0.00     0.049 A 
ATOM     51  H   UNL A   1      41.146  30.267  28.661  1.00  0.00     0.167 HD
ATOM     52  C   UNL A   1      43.709  29.332  29.895  1.00  0.00     0.074 A 
ATOM     53  C   UNL A   1      42.514  29.267  30.734  1.00  0.00     0.031 C 
ATOM     54  C   UNL A   1      43.868  29.469  28.545  1.00  0.00     0.034 A 
BRANCH  41  55
ATOM     55  C   UNL A   1      38.457  28.952  28.301  1.00  0.00     0.023 A 
ATOM     56  C   UNL A   1      37.543  29.687  27.515  1.00  0.00     0.012 A 
ATOM     57  C   UNL A   1      38.386  29.133  29.702  1.00  0.00     0.148 A 
ATOM     58  C   UNL A   1      36.648  30.596  28.088  1.00  0.00     0.002 A 
ATOM     59  C   UNL A   1      37.437  29.972  30.273  1.00  0.00     0.091 A 
ATOM     60  F   UNL A   1      39.319  28.609  30.499  1.00  0.00    -0.205 F 
ATOM     61  C   UNL A   1      36.588  30.733  29.469  1.00  0.00     0.022 A 
BRANCH  59  62
ATOM     62  S   UNL A   1      37.281  30.138  32.056  1.00  0.00     0.127 S 
ATOM     63  O   UNL A   1      36.088  30.969  32.170  1.00  0.00    -0.237 OA
ATOM     64  O   UNL A   1      37.112  28.745  32.470  1.00  0.00    -0.237 OA
ATOM     65  O   UNL A   1      38.529  30.744  32.505  1.00  0.00    -0.744 OA
ENDBRANCH  59  62
ENDBRANCH  41  55
BRANCH  42  66
ATOM     66  C   UNL A   1      44.788  26.776  33.700  1.00  0.00     0.023 A 
ATOM     67  C   UNL A   1      45.960  27.282  34.296  1.00  0.00     0.012 A 
ATOM     68  C   UNL A   1      43.710  26.420  34.542  1.00  0.00     0.148 A 
ATOM     69  C   UNL A   1      46.041  27.475  35.680  1.00  0.00     0.002 A 
ATOM     70  C   UNL A   1      43.794  26.617  35.917  1.00  0.00     0.091 A 
ATOM     71  F   UNL A   1      42.574  25.981  33.984  1.00  0.00    -0.205 F 
ATOM     72  C   UNL A   1      44.953  27.157  36.488  1.00  0.00     0.022 A 
BRANCH  70  73
ATOM     73  S   UNL A   1      42.414  26.285  37.022  1.00  0.00     0.127 S 
ATOM     74  O   UNL A   1      41.442  27.294  36.601  1.00  0.00    -0.237 OA
ATOM     75  O   UNL A   1      42.065  24.913  36.663  1.00  0.00    -0.237 OA
ATOM     76  O   UNL A   1      42.928  26.471  38.373  1.00  0.00    -0.744 OA
ENDBRANCH  70  73
ENDBRANCH  42  66
BRANCH  54  77
ATOM     77  C   UNL A   1      45.259  29.309  27.973  1.00  0.00     0.023 A 
ATOM     78  C   UNL A   1      46.202  30.359  27.980  1.00  0.00     0.012 A 
ATOM     79  C   UNL A   1      45.682  28.021  27.602  1.00  0.00     0.148 A 
ATOM     80  C   UNL A   1      47.533  30.130  27.613  1.00  0.00     0.002 A 
ATOM     81  C   UNL A   1      47.015  27.787  27.289  1.00  0.00     0.091 A 
ATOM     82  F   UNL A   1      44.774  27.034  27.601  1.00  0.00    -0.205 F 
ATOM     83  C   UNL A   1      47.943  28.842  27.283  1.00  0.00     0.022 A 
BRANCH  81  84
ATOM     84  S   UNL A   1      47.636  26.129  26.997  1.00  0.00     0.127 S 
ATOM     85  O   UNL A   1      46.796  25.679  25.889  1.00  0.00    -0.237 OA
ATOM     86  O   UNL A   1      49.035  26.376  26.644  1.00  0.00    -0.237 OA
ATOM     87  O   UNL A   1      47.459  25.407  28.252  1.00  0.00    -0.744 OA
ENDBRANCH  81  84
ENDBRANCH  54  77
ENDBRANCH  28  29
ENDBRANCH  21  23
ENDBRANCH  20  21
ENDBRANCH  19  20
ENDBRANCH   1  19
TORSDOF 17
ENDMDL
MODEL 3
REMARK VINA RESULT:      -9.9      2.937      7.071
REMARK SMILES Cc1cc2[nH]ccc2nc1C(=O)OCCOCCOC(=O)c1ccc(-c2c3nc(c(-c4cccc(S(=O)(=O)[O-])c4F)c4ccc([nH]4)c(-c4cccc(S(=O)(=O)[O-])c4F)c4nc(c(-c5cccc(S(=O)(=O)[O-])c5F)c5ccc2[nH]5)C=C4)C=C3)cc1
REMARK SMILES IDX 17 1 16 2 15 3 14 4 13 5 11 6 12 7 10 8 1 9 2 10 3 11 4 12
REMARK SMILES IDX 9 13 5 14 8 15 6 16 7 18 18 19 19 20 20 21 21 22 22 23 23 24
REMARK SMILES IDX 84 25 24 26 83 27 25 28 26 29 27 30 77 31 28 32 82 33 76 34
REMARK SMILES IDX 78 35 29 36 81 37 75 38 74 39 30 41 62 42 42 43 61 44 43 45
REMARK SMILES IDX 46 46 60 47 79 48 44 49 45 50 59 52 80 53 47 54 31 55 32 56
REMARK SMILES IDX 40 57 33 58 35 59 41 60 34 61 36 62 37 63 38 64 39 65 63 66
REMARK SMILES IDX 64 67 72 68 65 69 67 70 73 71 66 72 68 73 69 74 70 75 71 76
REMARK SMILES IDX 48 77 49 78 57 79 50 80 52 81 58 82 51 83 53 84 54 85 55 86
REMARK SMILES IDX 56 87
REMARK H PARENT 5 17 78 40 46 51
REMARK Flexibility Score: inf
ROOT
ATOM      1  C   UNL A   1      41.868  20.088  26.123  1.00  0.00     0.202 C 
ENDROOT
BRANCH   1   2
ATOM      2  O   UNL A   1      42.578  21.173  25.532  1.00  0.00    -0.374 OA
BRANCH   2   3
ATOM      3  C   UNL A   1      43.878  21.508  26.017  1.00  0.00     0.202 C 
BRANCH   3   4
ATOM      4  C   UNL A   1      45.070  21.144  25.133  1.00  0.00     0.261 C 
BRANCH   4   5
ATOM      5  O   UNL A   1      46.216  21.958  25.437  1.00  0.00    -0.459 OA
BRANCH   5   6
ATOM      6  C   UNL A   1      46.190  23.215  24.923  1.00  0.00     0.357 C 
ATOM      7  O   UNL A   1      46.025  23.496  23.743  1.00  0.00    -0.244 OA
BRANCH   6   8
ATOM      8  C   UNL A   1      46.247  24.248  26.011  1.00  0.00     0.152 A 
ATOM      9  C   UNL A   1      43.943  25.225  25.467  1.00  0.00     0.047 C 
ATOM     10  C   UNL A   1      45.182  25.114  26.307  1.00  0.00    -0.016 A 
ATOM     11  C   UNL A   1      45.299  25.944  27.434  1.00  0.00     0.034 A 
ATOM     12  C   UNL A   1      46.495  25.871  28.148  1.00  0.00     0.064 A 
ATOM     13  N   UNL A   1      47.426  24.198  26.692  1.00  0.00    -0.239 NA
ATOM     14  N   UNL A   1      46.927  26.523  29.279  1.00  0.00    -0.360 N 
ATOM     15  C   UNL A   1      47.525  25.033  27.744  1.00  0.00     0.089 A 
ATOM     16  C   UNL A   1      48.221  26.161  29.563  1.00  0.00     0.085 A 
ATOM     17  H   UNL A   1      46.389  27.155  29.807  1.00  0.00     0.166 HD
ATOM     18  C   UNL A   1      48.620  25.243  28.615  1.00  0.00     0.048 A 
ENDBRANCH   6   8
ENDBRANCH   5   6
ENDBRANCH   4   5
ENDBRANCH   3   4
ENDBRANCH   2   3
ENDBRANCH   1   2
BRANCH   1  19
ATOM     19  C   UNL A   1      41.196  20.326  27.468  1.00  0.00     0.261 C 
BRANCH  19  20
ATOM     20  O   UNL A   1      41.220  21.692  27.857  1.00  0.00    -0.460 OA
BRANCH  20  21
ATOM     21  C   UNL A   1      40.274  22.445  27.264  1.00  0.00     0.338 C 
ATOM     22  O   UNL A   1      39.270  22.040  26.670  1.00  0.00    -0.246 OA
BRANCH  21  23
ATOM     23  C   UNL A   1      40.686  23.843  27.283  1.00  0.00     0.060 A 
ATOM     24  C   UNL A   1      41.708  24.178  28.174  1.00  0.00     0.016 A 
ATOM     25  C   UNL A   1      39.869  24.815  26.682  1.00  0.00     0.016 A 
ATOM     26  C   UNL A   1      41.755  25.468  28.642  1.00  0.00     0.010 A 
ATOM     27  C   UNL A   1      39.913  26.102  27.158  1.00  0.00     0.010 A 
ATOM     28  C   UNL A   1      40.791  26.382  28.197  1.00  0.00    -0.014 A 
BRANCH  28  29
ATOM     29  C   UNL A   1      40.781  27.686  28.811  1.00  0.00     0.031 A 
ATOM     30  C   UNL A   1      41.782  28.592  28.223  1.00  0.00     0.074 A 
ATOM     31  C   UNL A   1      39.933  28.030  29.795  1.00  0.00     0.049 A 
ATOM     32  N   UNL A   1      42.926  28.908  28.726  1.00  0.00    -0.248 NA
ATOM     33  C   UNL A   1      41.589  29.013  26.829  1.00  0.00     0.031 C 
ATOM     34  C   UNL A   1      38.740  27.326  30.272  1.00  0.00     0.029 A 
ATOM     35  N   UNL A   1      39.921  29.180  30.516  1.00  0.00    -0.354 N 
ATOM     36  C   UNL A   1      43.497  29.777  27.807  1.00  0.00     0.074 A 
ATOM     37  C   UNL A   1      42.751  29.620  26.587  1.00  0.00     0.031 C 
ATOM     38  C   UNL A   1      37.998  28.175  31.023  1.00  0.00     0.029 A 
ATOM     39  C   UNL A   1      38.738  29.414  31.202  1.00  0.00     0.049 A 
ATOM     40  H   UNL A   1      40.688  29.797  30.550  1.00  0.00     0.167 HD
ATOM     41  C   UNL A   1      44.358  30.747  28.213  1.00  0.00     0.034 A 
ATOM     42  C   UNL A   1      38.392  30.580  31.802  1.00  0.00     0.034 A 
ATOM     43  C   UNL A   1      44.842  30.493  29.548  1.00  0.00     0.049 A 
ATOM     44  C   UNL A   1      39.651  31.321  32.063  1.00  0.00     0.074 A 
ATOM     45  C   UNL A   1      45.559  29.480  30.152  1.00  0.00     0.029 A 
ATOM     46  N   UNL A   1      44.240  31.193  30.566  1.00  0.00    -0.354 N 
ATOM     47  N   UNL A   1      40.559  30.918  32.908  1.00  0.00    -0.248 NA
ATOM     48  C   UNL A   1      40.103  32.279  31.067  1.00  0.00     0.031 C 
ATOM     49  C   UNL A   1      44.991  29.349  31.453  1.00  0.00     0.029 A 
ATOM     50  C   UNL A   1      43.998  30.322  31.594  1.00  0.00     0.049 A 
ATOM     51  H   UNL A   1      44.020  32.153  30.557  1.00  0.00     0.167 HD
ATOM     52  C   UNL A   1      41.765  31.201  32.280  1.00  0.00     0.074 A 
ATOM     53  C   UNL A   1      41.424  32.137  31.210  1.00  0.00     0.031 C 
ATOM     54  C   UNL A   1      42.871  30.430  32.498  1.00  0.00     0.034 A 
BRANCH  41  55
ATOM     55  C   UNL A   1      44.468  32.111  27.576  1.00  0.00     0.023 A 
ATOM     56  C   UNL A   1      45.564  32.326  26.712  1.00  0.00     0.012 A 
ATOM     57  C   UNL A   1      43.731  33.251  27.970  1.00  0.00     0.148 A 
ATOM     58  C   UNL A   1      45.940  33.612  26.311  1.00  0.00     0.002 A 
ATOM     59  C   UNL A   1      44.056  34.517  27.500  1.00  0.00     0.091 A 
ATOM     60  F   UNL A   1      42.791  33.155  28.914  1.00  0.00    -0.205 F 
ATOM     61  C   UNL A   1      45.181  34.708  26.698  1.00  0.00     0.022 A 
BRANCH  59  62
ATOM     62  S   UNL A   1      43.070  35.959  27.925  1.00  0.00     0.127 S 
ATOM     63  O   UNL A   1      43.395  36.130  29.337  1.00  0.00    -0.237 OA
ATOM     64  O   UNL A   1      43.628  36.974  27.031  1.00  0.00    -0.237 OA
ATOM     65  O   UNL A   1      41.690  35.596  27.624  1.00  0.00    -0.744 OA
ENDBRANCH  59  62
ENDBRANCH  41  55
BRANCH  42  66
ATOM     66  C   UNL A   1      37.073  31.249  31.880  1.00  0.00     0.023 A 
ATOM     67  C   UNL A   1      36.610  31.720  33.124  1.00  0.00     0.012 A 
ATOM     68  C   UNL A   1      36.427  31.707  30.709  1.00  0.00     0.148 A 
ATOM     69  C   UNL A   1      35.571  32.654  33.202  1.00  0.00     0.002 A 
ATOM     70  C   UNL A   1      35.396  32.639  30.791  1.00  0.00     0.091 A 
ATOM     71  F   UNL A   1      36.886  31.302  29.518  1.00  0.00    -0.205 F 
ATOM     72  C   UNL A   1      34.975  33.126  32.035  1.00  0.00     0.022 A 
BRANCH  70  73
ATOM     73  S   UNL A   1      34.613  33.338  29.330  1.00  0.00     0.127 S 
ATOM     74  O   UNL A   1      35.724  34.060  28.710  1.00  0.00    -0.237 OA
ATOM     75  O   UNL A   1      34.188  32.138  28.614  1.00  0.00    -0.237 OA
ATOM     76  O   UNL A   1      33.539  34.192  29.820  1.00  0.00    -0.744 OA
ENDBRANCH  70  73
ENDBRANCH  42  66
BRANCH  54  77
ATOM     77  C   UNL A   1      42.822  29.417  33.620  1.00  0.00     0.023 A 
ATOM     78  C   UNL A   1      42.336  28.105  33.431  1.00  0.00     0.012 A 
ATOM     79  C   UNL A   1      43.459  29.735  34.831  1.00  0.00     0.148 A 
ATOM     80  C   UNL A   1      42.470  27.139  34.434  1.00  0.00     0.002 A 
ATOM     81  C   UNL A   1      43.638  28.759  35.804  1.00  0.00     0.091 A 
ATOM     82  F   UNL A   1      43.917  30.985  34.995  1.00  0.00    -0.205 F 
ATOM     83  C   UNL A   1      43.136  27.461  35.613  1.00  0.00     0.022 A 
BRANCH  81  84
ATOM     84  S   UNL A   1      44.611  29.068  37.279  1.00  0.00     0.127 S 
ATOM     85  O   UNL A   1      44.484  27.803  38.000  1.00  0.00    -0.237 OA
ATOM     86  O   UNL A   1      45.942  29.328  36.728  1.00  0.00    -0.237 OA
ATOM     87  O   UNL A   1      44.001  30.223  37.928  1.00  0.00    -0.744 OA
ENDBRANCH  81  84
ENDBRANCH  54  77
ENDBRANCH  28  29
ENDBRANCH  21  23
ENDBRANCH  20  21
ENDBRANCH  19  20
ENDBRANCH   1  19
TORSDOF 17
ENDMDL
