MODEL 1
REMARK VINA RESULT:     -11.8      0.000      0.000
REMARK SMILES Cc1c(C(=O)OCCOCCOC(=O)c2ccc(-c3c4nc(c(-c5cccc(S(=O)(=O)[O-])c5F)c5ccc([nH]5)c(-c5cccc(S(=O)(=O)[O-])c5F)c5nc(c(-c6cccc(S(=O)(=O)[O-])c6F)c6ccc3[nH]6)C=C5)C=C4)cc2)sc2nc3n(c(=O)c12)CC/C3=C\c1ccc(OC(F)F)cc1
REMARK SMILES IDX 9 1 8 2 7 3 6 4 4 5 5 6 3 7 1 8 2 9 85 10 78 11 79 12 83 13
REMARK SMILES IDX 80 14 82 15 84 16 81 17 86 18 88 19 87 20 89 21 90 22 91 23
REMARK SMILES IDX 99 24 92 25 98 26 93 27 94 28 95 29 96 30 97 31 10 32 11 33
REMARK SMILES IDX 12 34 13 35 14 36 15 37 16 38 77 39 17 40 76 41 18 42 19 43
REMARK SMILES IDX 20 44 70 45 21 46 75 47 69 48 71 49 22 50 74 51 68 52 67 53
REMARK SMILES IDX 23 55 55 56 35 57 54 58 36 59 39 60 53 61 72 62 37 63 38 64
REMARK SMILES IDX 52 66 73 67 40 68 24 69 25 70 33 71 26 72 28 73 34 74 27 75
REMARK SMILES IDX 29 76 30 77 31 78 32 79 56 80 57 81 65 82 58 83 60 84 66 85
REMARK SMILES IDX 59 86 61 87 62 88 63 89 64 90 41 91 42 92 50 93 43 94 45 95
REMARK SMILES IDX 51 96 44 97 46 98 47 99 48 100 49 101
REMARK H PARENT 71 54 39 65
REMARK Flexibility Score: inf
ROOT
ATOM      1  O   UNL A   1      32.604  29.282  24.582  1.00  0.00    -0.374 OA
ENDROOT
BRANCH   1   2
ATOM      2  C   UNL A   1      31.598  28.804  23.687  1.00  0.00     0.202 C 
BRANCH   2   3
ATOM      3  C   UNL A   1      31.759  27.376  23.166  1.00  0.00     0.261 C 
BRANCH   3   4
ATOM      4  O   UNL A   1      32.719  26.633  23.935  1.00  0.00    -0.459 OA
BRANCH   4   5
ATOM      5  C   UNL A   1      32.219  25.749  24.848  1.00  0.00     0.348 C 
ATOM      6  O   UNL A   1      31.103  25.837  25.339  1.00  0.00    -0.245 OA
BRANCH   5   7
ATOM      7  C   UNL A   1      33.175  24.673  25.088  1.00  0.00     0.118 A 
ATOM      8  C   UNL A   1      31.797  22.556  24.596  1.00  0.00     0.047 C 
ATOM      9  C   UNL A   1      33.055  23.293  24.954  1.00  0.00    -0.011 A 
ATOM     10  C   UNL A   1      34.348  22.666  25.105  1.00  0.00     0.081 A 
ATOM     11  S   UNL A   1      34.742  25.119  25.651  1.00  0.00    -0.108 S 
ATOM     12  C   UNL A   1      35.334  23.527  25.549  1.00  0.00     0.132 A 
ATOM     13  C   UNL A   1      34.737  21.298  24.811  1.00  0.00     0.262 A 
ATOM     14  N   UNL A   1      36.643  23.228  25.818  1.00  0.00    -0.219 NA
ATOM     15  N   UNL A   1      36.066  21.049  25.079  1.00  0.00    -0.292 N 
ATOM     16  O   UNL A   1      33.991  20.472  24.294  1.00  0.00    -0.269 OA
ATOM     17  C   UNL A   1      36.955  22.000  25.565  1.00  0.00     0.140 A 
ATOM     18  C   UNL A   1      36.666  19.781  24.784  1.00  0.00     0.132 C 
ATOM     19  C   UNL A   1      38.278  21.318  25.660  1.00  0.00    -0.002 C 
ATOM     20  C   UNL A   1      38.130  19.914  25.134  1.00  0.00     0.061 C 
ATOM     21  C   UNL A   1      39.407  21.872  26.133  1.00  0.00     0.015 C 
BRANCH  21  22
ATOM     22  C   UNL A   1      40.679  21.130  26.119  1.00  0.00    -0.025 A 
ATOM     23  C   UNL A   1      40.703  19.737  26.207  1.00  0.00     0.012 A 
ATOM     24  C   UNL A   1      41.890  21.812  25.934  1.00  0.00     0.012 A 
ATOM     25  C   UNL A   1      41.915  19.045  26.065  1.00  0.00     0.047 A 
ATOM     26  C   UNL A   1      43.095  21.119  25.773  1.00  0.00     0.047 A 
ATOM     27  C   UNL A   1      43.114  19.727  25.829  1.00  0.00     0.126 A 
BRANCH  27  28
ATOM     28  O   UNL A   1      44.211  18.929  25.668  1.00  0.00    -0.435 OA
BRANCH  28  29
ATOM     29  C   UNL A   1      45.002  19.091  24.498  1.00  0.00     0.542 C 
ATOM     30  F   UNL A   1      44.212  19.171  23.401  1.00  0.00    -0.167 F 
ATOM     31  F   UNL A   1      45.730  20.230  24.583  1.00  0.00    -0.167 F 
ENDBRANCH  28  29
ENDBRANCH  27  28
ENDBRANCH  21  22
ENDBRANCH   5   7
ENDBRANCH   4   5
ENDBRANCH   3   4
ENDBRANCH   2   3
ENDBRANCH   1   2
BRANCH   1  32
ATOM     32  C   UNL A   1      32.230  29.722  25.884  1.00  0.00     0.202 C 
BRANCH  32  33
ATOM     33  C   UNL A   1      33.173  30.663  26.618  1.00  0.00     0.261 C 
BRANCH  33  34
ATOM     34  O   UNL A   1      32.521  31.338  27.678  1.00  0.00    -0.460 OA
BRANCH  34  35
ATOM     35  C   UNL A   1      32.666  32.682  27.647  1.00  0.00     0.338 C 
ATOM     36  O   UNL A   1      31.977  33.486  27.047  1.00  0.00    -0.246 OA
BRANCH  35  37
ATOM     37  C   UNL A   1      33.902  33.024  28.357  1.00  0.00     0.060 A 
ATOM     38  C   UNL A   1      34.882  33.671  27.602  1.00  0.00     0.016 A 
ATOM     39  C   UNL A   1      34.180  32.415  29.591  1.00  0.00     0.016 A 
ATOM     40  C   UNL A   1      36.194  33.472  27.954  1.00  0.00     0.010 A 
ATOM     41  C   UNL A   1      35.489  32.204  29.931  1.00  0.00     0.010 A 
ATOM     42  C   UNL A   1      36.467  32.646  29.048  1.00  0.00    -0.014 A 
BRANCH  42  43
ATOM     43  C   UNL A   1      37.838  32.267  29.277  1.00  0.00     0.031 A 
ATOM     44  C   UNL A   1      38.095  30.855  28.937  1.00  0.00     0.074 A 
ATOM     45  C   UNL A   1      38.758  33.162  29.681  1.00  0.00     0.049 A 
ATOM     46  N   UNL A   1      38.328  29.884  29.754  1.00  0.00    -0.248 NA
ATOM     47  C   UNL A   1      37.855  30.439  27.547  1.00  0.00     0.031 C 
ATOM     48  C   UNL A   1      38.640  34.622  29.757  1.00  0.00     0.029 A 
ATOM     49  N   UNL A   1      40.062  32.946  29.981  1.00  0.00    -0.354 N 
ATOM     50  C   UNL A   1      38.499  28.768  28.942  1.00  0.00     0.074 A 
ATOM     51  C   UNL A   1      37.969  29.115  27.652  1.00  0.00     0.031 C 
ATOM     52  C   UNL A   1      39.881  35.160  29.816  1.00  0.00     0.029 A 
ATOM     53  C   UNL A   1      40.854  34.087  29.920  1.00  0.00     0.049 A 
ATOM     54  H   UNL A   1      40.418  32.059  30.219  1.00  0.00     0.167 HD
ATOM     55  C   UNL A   1      39.316  27.749  29.315  1.00  0.00     0.034 A 
ATOM     56  C   UNL A   1      42.209  34.102  29.849  1.00  0.00     0.034 A 
ATOM     57  C   UNL A   1      39.624  27.806  30.720  1.00  0.00     0.049 A 
ATOM     58  C   UNL A   1      42.682  32.780  30.334  1.00  0.00     0.074 A 
ATOM     59  C   UNL A   1      38.882  27.743  31.882  1.00  0.00     0.029 A 
ATOM     60  N   UNL A   1      40.833  28.362  31.066  1.00  0.00    -0.354 N 
ATOM     61  N   UNL A   1      42.534  32.369  31.562  1.00  0.00    -0.248 NA
ATOM     62  C   UNL A   1      42.905  31.736  29.345  1.00  0.00     0.031 C 
ATOM     63  C   UNL A   1      39.501  28.674  32.766  1.00  0.00     0.029 A 
ATOM     64  C   UNL A   1      40.618  29.211  32.120  1.00  0.00     0.049 A 
ATOM     65  H   UNL A   1      41.698  28.182  30.633  1.00  0.00     0.167 HD
ATOM     66  C   UNL A   1      42.189  31.027  31.439  1.00  0.00     0.074 A 
ATOM     67  C   UNL A   1      42.535  30.672  30.063  1.00  0.00     0.031 C 
ATOM     68  C   UNL A   1      41.383  30.418  32.358  1.00  0.00     0.034 A 
BRANCH  55  69
ATOM     69  C   UNL A   1      40.122  26.916  28.352  1.00  0.00     0.023 A 
ATOM     70  C   UNL A   1      40.034  25.514  28.482  1.00  0.00     0.012 A 
ATOM     71  C   UNL A   1      41.140  27.419  27.507  1.00  0.00     0.148 A 
ATOM     72  C   UNL A   1      40.933  24.662  27.832  1.00  0.00     0.002 A 
ATOM     73  C   UNL A   1      41.971  26.567  26.793  1.00  0.00     0.091 A 
ATOM     74  F   UNL A   1      41.412  28.727  27.486  1.00  0.00    -0.205 F 
ATOM     75  C   UNL A   1      41.894  25.186  26.977  1.00  0.00     0.022 A 
BRANCH  73  76
ATOM     76  S   UNL A   1      43.187  27.196  25.628  1.00  0.00     0.127 S 
ATOM     77  O   UNL A   1      44.049  27.988  26.502  1.00  0.00    -0.237 OA
ATOM     78  O   UNL A   1      43.783  25.959  25.124  1.00  0.00    -0.237 OA
ATOM     79  O   UNL A   1      42.426  27.939  24.631  1.00  0.00    -0.744 OA
ENDBRANCH  73  76
ENDBRANCH  55  69
BRANCH  56  80
ATOM     80  C   UNL A   1      43.093  34.994  29.058  1.00  0.00     0.023 A 
ATOM     81  C   UNL A   1      43.143  34.848  27.656  1.00  0.00     0.012 A 
ATOM     82  C   UNL A   1      43.630  36.174  29.622  1.00  0.00     0.148 A 
ATOM     83  C   UNL A   1      43.667  35.859  26.841  1.00  0.00     0.002 A 
ATOM     84  C   UNL A   1      44.147  37.178  28.808  1.00  0.00     0.091 A 
ATOM     85  F   UNL A   1      43.546  36.354  30.946  1.00  0.00    -0.205 F 
ATOM     86  C   UNL A   1      44.156  37.029  27.415  1.00  0.00     0.022 A 
BRANCH  84  87
ATOM     87  S   UNL A   1      44.744  38.739  29.472  1.00  0.00     0.127 S 
ATOM     88  O   UNL A   1      43.494  39.440  29.768  1.00  0.00    -0.237 OA
ATOM     89  O   UNL A   1      45.493  38.300  30.646  1.00  0.00    -0.237 OA
ATOM     90  O   UNL A   1      45.536  39.349  28.411  1.00  0.00    -0.744 OA
ENDBRANCH  84  87
ENDBRANCH  56  80
BRANCH  68  91
ATOM     91  C   UNL A   1      41.052  31.172  33.626  1.00  0.00     0.023 A 
ATOM     92  C   UNL A   1      41.932  31.221  34.728  1.00  0.00     0.012 A 
ATOM     93  C   UNL A   1      39.926  32.013  33.622  1.00  0.00     0.148 A 
ATOM     94  C   UNL A   1      41.689  32.080  35.805  1.00  0.00     0.002 A 
ATOM     95  C   UNL A   1      39.716  32.902  34.669  1.00  0.00     0.091 A 
ATOM     96  F   UNL A   1      39.099  31.956  32.567  1.00  0.00    -0.205 F 
ATOM     97  C   UNL A   1      40.590  32.932  35.768  1.00  0.00     0.022 A 
BRANCH  95  98
ATOM     98  S   UNL A   1      38.405  34.125  34.611  1.00  0.00     0.127 S 
ATOM     99  O   UNL A   1      38.667  34.795  33.339  1.00  0.00    -0.237 OA
ATOM    100  O   UNL A   1      37.200  33.294  34.630  1.00  0.00    -0.237 OA
ATOM    101  O   UNL A   1      38.574  34.952  35.801  1.00  0.00    -0.744 OA
ENDBRANCH  95  98
ENDBRANCH  68  91
ENDBRANCH  42  43
ENDBRANCH  35  37
ENDBRANCH  34  35
ENDBRANCH  33  34
ENDBRANCH  32  33
ENDBRANCH   1  32
TORSDOF 20
ENDMDL
MODEL 2
REMARK VINA RESULT:     -11.4      4.377      8.606
REMARK SMILES Cc1c(C(=O)OCCOCCOC(=O)c2ccc(-c3c4nc(c(-c5cccc(S(=O)(=O)[O-])c5F)c5ccc([nH]5)c(-c5cccc(S(=O)(=O)[O-])c5F)c5nc(c(-c6cccc(S(=O)(=O)[O-])c6F)c6ccc3[nH]6)C=C5)C=C4)cc2)sc2nc3n(c(=O)c12)CC/C3=C\c1ccc(OC(F)F)cc1
REMARK SMILES IDX 9 1 8 2 7 3 6 4 4 5 5 6 3 7 1 8 2 9 85 10 78 11 79 12 83 13
REMARK SMILES IDX 80 14 82 15 84 16 81 17 86 18 88 19 87 20 89 21 90 22 91 23
REMARK SMILES IDX 99 24 92 25 98 26 93 27 94 28 95 29 96 30 97 31 10 32 11 33
REMARK SMILES IDX 12 34 13 35 14 36 15 37 16 38 77 39 17 40 76 41 18 42 19 43
REMARK SMILES IDX 20 44 70 45 21 46 75 47 69 48 71 49 22 50 74 51 68 52 67 53
REMARK SMILES IDX 23 55 55 56 35 57 54 58 36 59 39 60 53 61 72 62 37 63 38 64
REMARK SMILES IDX 52 66 73 67 40 68 24 69 25 70 33 71 26 72 28 73 34 74 27 75
REMARK SMILES IDX 29 76 30 77 31 78 32 79 56 80 57 81 65 82 58 83 60 84 66 85
REMARK SMILES IDX 59 86 61 87 62 88 63 89 64 90 41 91 42 92 50 93 43 94 45 95
REMARK SMILES IDX 51 96 44 97 46 98 47 99 48 100 49 101
REMARK H PARENT 71 54 39 65
REMARK Flexibility Score: inf
ROOT
ATOM      1  O   UNL A   1      32.497  30.343  25.804  1.00  0.00    -0.374 OA
ENDROOT
BRANCH   1   2
ATOM      2  C   UNL A   1      31.081  30.367  25.621  1.00  0.00     0.202 C 
BRANCH   2   3
ATOM      3  C   UNL A   1      30.563  30.145  24.200  1.00  0.00     0.261 C 
BRANCH   3   4
ATOM      4  O   UNL A   1      30.354  28.751  23.921  1.00  0.00    -0.459 OA
BRANCH   4   5
ATOM      5  C   UNL A   1      30.866  28.278  22.747  1.00  0.00     0.348 C 
ATOM      6  O   UNL A   1      30.760  28.859  21.676  1.00  0.00    -0.245 OA
BRANCH   5   7
ATOM      7  C   UNL A   1      31.599  27.037  22.976  1.00  0.00     0.118 A 
ATOM      8  C   UNL A   1      33.851  27.862  23.909  1.00  0.00     0.047 C 
ATOM      9  C   UNL A   1      32.863  26.804  23.510  1.00  0.00    -0.011 A 
ATOM     10  C   UNL A   1      33.056  25.390  23.731  1.00  0.00     0.081 A 
ATOM     11  S   UNL A   1      30.827  25.566  22.515  1.00  0.00    -0.108 S 
ATOM     12  C   UNL A   1      32.063  24.601  23.177  1.00  0.00     0.132 A 
ATOM     13  C   UNL A   1      34.104  24.718  24.478  1.00  0.00     0.262 A 
ATOM     14  N   UNL A   1      31.981  23.234  23.188  1.00  0.00    -0.219 NA
ATOM     15  N   UNL A   1      33.968  23.346  24.477  1.00  0.00    -0.292 N 
ATOM     16  O   UNL A   1      34.967  25.306  25.121  1.00  0.00    -0.269 OA
ATOM     17  C   UNL A   1      32.937  22.665  23.844  1.00  0.00     0.140 A 
ATOM     18  C   UNL A   1      34.857  22.504  25.222  1.00  0.00     0.132 C 
ATOM     19  C   UNL A   1      33.155  21.218  24.137  1.00  0.00    -0.002 C 
ATOM     20  C   UNL A   1      34.350  21.091  25.044  1.00  0.00     0.061 C 
ATOM     21  C   UNL A   1      32.404  20.207  23.670  1.00  0.00     0.015 C 
BRANCH  21  22
ATOM     22  C   UNL A   1      32.666  18.817  24.078  1.00  0.00    -0.025 A 
ATOM     23  C   UNL A   1      33.146  17.875  23.167  1.00  0.00     0.012 A 
ATOM     24  C   UNL A   1      32.515  18.437  25.419  1.00  0.00     0.012 A 
ATOM     25  C   UNL A   1      33.508  16.593  23.606  1.00  0.00     0.047 A 
ATOM     26  C   UNL A   1      32.895  17.163  25.859  1.00  0.00     0.047 A 
ATOM     27  C   UNL A   1      33.403  16.234  24.954  1.00  0.00     0.126 A 
BRANCH  27  28
ATOM     28  O   UNL A   1      33.829  14.971  25.250  1.00  0.00    -0.435 OA
BRANCH  28  29
ATOM     29  C   UNL A   1      32.868  14.015  25.681  1.00  0.00     0.542 C 
ATOM     30  F   UNL A   1      32.661  14.121  27.016  1.00  0.00    -0.167 F 
ATOM     31  F   UNL A   1      31.688  14.224  25.049  1.00  0.00    -0.167 F 
ENDBRANCH  28  29
ENDBRANCH  27  28
ENDBRANCH  21  22
ENDBRANCH   5   7
ENDBRANCH   4   5
ENDBRANCH   3   4
ENDBRANCH   2   3
ENDBRANCH   1   2
BRANCH   1  32
ATOM     32  C   UNL A   1      33.030  30.235  27.121  1.00  0.00     0.202 C 
BRANCH  32  33
ATOM     33  C   UNL A   1      33.884  31.381  27.642  1.00  0.00     0.261 C 
BRANCH  33  34
ATOM     34  O   UNL A   1      35.267  31.104  27.518  1.00  0.00    -0.460 OA
BRANCH  34  35
ATOM     35  C   UNL A   1      36.065  31.988  28.158  1.00  0.00     0.338 C 
ATOM     36  O   UNL A   1      36.096  33.196  28.012  1.00  0.00    -0.246 OA
BRANCH  35  37
ATOM     37  C   UNL A   1      37.014  31.233  28.981  1.00  0.00     0.060 A 
ATOM     38  C   UNL A   1      38.151  31.927  29.395  1.00  0.00     0.016 A 
ATOM     39  C   UNL A   1      36.926  29.832  29.026  1.00  0.00     0.016 A 
ATOM     40  C   UNL A   1      39.301  31.205  29.598  1.00  0.00     0.010 A 
ATOM     41  C   UNL A   1      38.077  29.116  29.214  1.00  0.00     0.010 A 
ATOM     42  C   UNL A   1      39.260  29.824  29.390  1.00  0.00    -0.014 A 
BRANCH  42  43
ATOM     43  C   UNL A   1      40.510  29.107  29.390  1.00  0.00     0.031 A 
ATOM     44  C   UNL A   1      41.033  28.890  30.752  1.00  0.00     0.074 A 
ATOM     45  C   UNL A   1      41.054  28.639  28.252  1.00  0.00     0.049 A 
ATOM     46  N   UNL A   1      42.058  29.456  31.295  1.00  0.00    -0.248 NA
ATOM     47  C   UNL A   1      40.197  28.119  31.684  1.00  0.00     0.031 C 
ATOM     48  C   UNL A   1      40.453  28.564  26.916  1.00  0.00     0.029 A 
ATOM     49  N   UNL A   1      42.235  27.994  28.091  1.00  0.00    -0.354 N 
ATOM     50  C   UNL A   1      42.125  28.918  32.575  1.00  0.00     0.074 A 
ATOM     51  C   UNL A   1      40.850  28.306  32.830  1.00  0.00     0.031 C 
ATOM     52  C   UNL A   1      41.156  27.682  26.168  1.00  0.00     0.029 A 
ATOM     53  C   UNL A   1      42.317  27.246  26.922  1.00  0.00     0.049 A 
ATOM     54  H   UNL A   1      42.970  28.049  28.745  1.00  0.00     0.167 HD
ATOM     55  C   UNL A   1      43.316  28.773  33.213  1.00  0.00     0.034 A 
ATOM     56  C   UNL A   1      43.224  26.267  26.676  1.00  0.00     0.034 A 
ATOM     57  C   UNL A   1      44.347  29.560  32.590  1.00  0.00     0.049 A 
ATOM     58  C   UNL A   1      44.357  26.482  27.614  1.00  0.00     0.074 A 
ATOM     59  C   UNL A   1      44.541  30.909  32.365  1.00  0.00     0.029 A 
ATOM     60  N   UNL A   1      45.192  28.904  31.727  1.00  0.00    -0.354 N 
ATOM     61  N   UNL A   1      45.142  27.522  27.569  1.00  0.00    -0.248 NA
ATOM     62  C   UNL A   1      44.328  25.771  28.883  1.00  0.00     0.031 C 
ATOM     63  C   UNL A   1      45.144  30.985  31.077  1.00  0.00     0.029 A 
ATOM     64  C   UNL A   1      45.340  29.683  30.609  1.00  0.00     0.049 A 
ATOM     65  H   UNL A   1      45.614  28.028  31.883  1.00  0.00     0.167 HD
ATOM     66  C   UNL A   1      45.342  27.861  28.903  1.00  0.00     0.074 A 
ATOM     67  C   UNL A   1      44.904  26.691  29.662  1.00  0.00     0.031 C 
ATOM     68  C   UNL A   1      45.556  29.157  29.277  1.00  0.00     0.034 A 
BRANCH  55  69
ATOM     69  C   UNL A   1      43.632  27.652  34.169  1.00  0.00     0.023 A 
ATOM     70  C   UNL A   1      43.928  28.007  35.502  1.00  0.00     0.012 A 
ATOM     71  C   UNL A   1      43.901  26.317  33.786  1.00  0.00     0.148 A 
ATOM     72  C   UNL A   1      44.493  27.089  36.394  1.00  0.00     0.002 A 
ATOM     73  C   UNL A   1      44.376  25.386  34.700  1.00  0.00     0.091 A 
ATOM     74  F   UNL A   1      43.833  25.959  32.501  1.00  0.00    -0.205 F 
ATOM     75  C   UNL A   1      44.705  25.775  35.999  1.00  0.00     0.022 A 
BRANCH  73  76
ATOM     76  S   UNL A   1      44.606  23.660  34.252  1.00  0.00     0.127 S 
ATOM     77  O   UNL A   1      46.062  23.558  34.215  1.00  0.00    -0.237 OA
ATOM     78  O   UNL A   1      43.964  22.974  35.373  1.00  0.00    -0.237 OA
ATOM     79  O   UNL A   1      43.917  23.491  32.978  1.00  0.00    -0.744 OA
ENDBRANCH  73  76
ENDBRANCH  55  69
BRANCH  56  80
ATOM     80  C   UNL A   1      43.033  24.969  25.983  1.00  0.00     0.023 A 
ATOM     81  C   UNL A   1      44.005  24.531  25.059  1.00  0.00     0.012 A 
ATOM     82  C   UNL A   1      42.090  24.026  26.451  1.00  0.00     0.148 A 
ATOM     83  C   UNL A   1      44.064  23.193  24.649  1.00  0.00     0.002 A 
ATOM     84  C   UNL A   1      42.154  22.696  26.044  1.00  0.00     0.091 A 
ATOM     85  F   UNL A   1      41.193  24.409  27.368  1.00  0.00    -0.205 F 
ATOM     86  C   UNL A   1      43.148  22.273  25.153  1.00  0.00     0.022 A 
BRANCH  84  87
ATOM     87  S   UNL A   1      41.042  21.439  26.693  1.00  0.00     0.127 S 
ATOM     88  O   UNL A   1      39.730  22.012  26.391  1.00  0.00    -0.237 OA
ATOM     89  O   UNL A   1      41.402  20.275  25.889  1.00  0.00    -0.237 OA
ATOM     90  O   UNL A   1      41.340  21.339  28.116  1.00  0.00    -0.744 OA
ENDBRANCH  84  87
ENDBRANCH  56  80
BRANCH  68  91
ATOM     91  C   UNL A   1      45.786  30.183  28.191  1.00  0.00     0.023 A 
ATOM     92  C   UNL A   1      44.722  30.815  27.511  1.00  0.00     0.012 A 
ATOM     93  C   UNL A   1      47.091  30.665  27.999  1.00  0.00     0.148 A 
ATOM     94  C   UNL A   1      44.957  31.895  26.653  1.00  0.00     0.002 A 
ATOM     95  C   UNL A   1      47.315  31.771  27.187  1.00  0.00     0.091 A 
ATOM     96  F   UNL A   1      48.092  30.056  28.653  1.00  0.00    -0.205 F 
ATOM     97  C   UNL A   1      46.252  32.383  26.504  1.00  0.00     0.022 A 
BRANCH  95  98
ATOM     98  S   UNL A   1      48.933  32.536  27.070  1.00  0.00     0.127 S 
ATOM     99  O   UNL A   1      49.244  32.808  28.471  1.00  0.00    -0.237 OA
ATOM    100  O   UNL A   1      49.737  31.476  26.459  1.00  0.00    -0.237 OA
ATOM    101  O   UNL A   1      48.762  33.713  26.226  1.00  0.00    -0.744 OA
ENDBRANCH  95  98
ENDBRANCH  68  91
ENDBRANCH  42  43
ENDBRANCH  35  37
ENDBRANCH  34  35
ENDBRANCH  33  34
ENDBRANCH  32  33
ENDBRANCH   1  32
TORSDOF 20
ENDMDL
MODEL 3
REMARK VINA RESULT:     -11.2      3.106      5.947
REMARK SMILES Cc1c(C(=O)OCCOCCOC(=O)c2ccc(-c3c4nc(c(-c5cccc(S(=O)(=O)[O-])c5F)c5ccc([nH]5)c(-c5cccc(S(=O)(=O)[O-])c5F)c5nc(c(-c6cccc(S(=O)(=O)[O-])c6F)c6ccc3[nH]6)C=C5)C=C4)cc2)sc2nc3n(c(=O)c12)CC/C3=C\c1ccc(OC(F)F)cc1
REMARK SMILES IDX 9 1 8 2 7 3 6 4 4 5 5 6 3 7 1 8 2 9 85 10 78 11 79 12 83 13
REMARK SMILES IDX 80 14 82 15 84 16 81 17 86 18 88 19 87 20 89 21 90 22 91 23
REMARK SMILES IDX 99 24 92 25 98 26 93 27 94 28 95 29 96 30 97 31 10 32 11 33
REMARK SMILES IDX 12 34 13 35 14 36 15 37 16 38 77 39 17 40 76 41 18 42 19 43
REMARK SMILES IDX 20 44 70 45 21 46 75 47 69 48 71 49 22 50 74 51 68 52 67 53
REMARK SMILES IDX 23 55 55 56 35 57 54 58 36 59 39 60 53 61 72 62 37 63 38 64
REMARK SMILES IDX 52 66 73 67 40 68 24 69 25 70 33 71 26 72 28 73 34 74 27 75
REMARK SMILES IDX 29 76 30 77 31 78 32 79 56 80 57 81 65 82 58 83 60 84 66 85
REMARK SMILES IDX 59 86 61 87 62 88 63 89 64 90 41 91 42 92 50 93 43 94 45 95
REMARK SMILES IDX 51 96 44 97 46 98 47 99 48 100 49 101
REMARK H PARENT 71 54 39 65
REMARK Flexibility Score: inf
ROOT
ATOM      1  O   UNL A   1      33.090  36.146  30.988  1.00  0.00    -0.374 OA
ENDROOT
BRANCH   1   2
ATOM      2  C   UNL A   1      33.019  35.609  29.667  1.00  0.00     0.202 C 
BRANCH   2   3
ATOM      3  C   UNL A   1      34.232  34.820  29.174  1.00  0.00     0.261 C 
BRANCH   3   4
ATOM      4  O   UNL A   1      33.913  33.437  28.952  1.00  0.00    -0.459 OA
BRANCH   4   5
ATOM      5  C   UNL A   1      34.623  32.793  27.979  1.00  0.00     0.348 C 
ATOM      6  O   UNL A   1      35.719  33.161  27.582  1.00  0.00    -0.245 OA
BRANCH   5   7
ATOM      7  C   UNL A   1      33.917  31.591  27.547  1.00  0.00     0.118 A 
ATOM      8  C   UNL A   1      31.703  32.521  26.623  1.00  0.00     0.047 C 
ATOM      9  C   UNL A   1      32.684  31.425  26.924  1.00  0.00    -0.011 A 
ATOM     10  C   UNL A   1      32.521  30.053  26.504  1.00  0.00     0.081 A 
ATOM     11  S   UNL A   1      34.685  30.075  27.842  1.00  0.00    -0.108 S 
ATOM     12  C   UNL A   1      33.495  29.203  26.994  1.00  0.00     0.132 A 
ATOM     13  C   UNL A   1      31.519  29.483  25.621  1.00  0.00     0.262 A 
ATOM     14  N   UNL A   1      33.595  27.850  26.802  1.00  0.00    -0.219 NA
ATOM     15  N   UNL A   1      31.671  28.125  25.443  1.00  0.00    -0.292 N 
ATOM     16  O   UNL A   1      30.680  30.148  25.021  1.00  0.00    -0.269 OA
ATOM     17  C   UNL A   1      32.679  27.370  26.028  1.00  0.00     0.140 A 
ATOM     18  C   UNL A   1      30.830  27.387  24.547  1.00  0.00     0.132 C 
ATOM     19  C   UNL A   1      32.494  25.975  25.531  1.00  0.00    -0.002 C 
ATOM     20  C   UNL A   1      31.346  25.966  24.556  1.00  0.00     0.061 C 
ATOM     21  C   UNL A   1      33.235  24.915  25.894  1.00  0.00     0.015 C 
BRANCH  21  22
ATOM     22  C   UNL A   1      33.010  23.591  25.288  1.00  0.00    -0.025 A 
ATOM     23  C   UNL A   1      33.800  23.136  24.232  1.00  0.00     0.012 A 
ATOM     24  C   UNL A   1      32.042  22.728  25.823  1.00  0.00     0.012 A 
ATOM     25  C   UNL A   1      33.651  21.826  23.755  1.00  0.00     0.047 A 
ATOM     26  C   UNL A   1      31.908  21.414  25.359  1.00  0.00     0.047 A 
ATOM     27  C   UNL A   1      32.719  20.951  24.326  1.00  0.00     0.126 A 
BRANCH  27  28
ATOM     28  O   UNL A   1      32.707  19.693  23.794  1.00  0.00    -0.435 OA
BRANCH  28  29
ATOM     29  C   UNL A   1      33.508  18.690  24.407  1.00  0.00     0.542 C 
ATOM     30  F   UNL A   1      34.704  19.203  24.781  1.00  0.00    -0.167 F 
ATOM     31  F   UNL A   1      32.886  18.209  25.511  1.00  0.00    -0.167 F 
ENDBRANCH  28  29
ENDBRANCH  27  28
ENDBRANCH  21  22
ENDBRANCH   5   7
ENDBRANCH   4   5
ENDBRANCH   3   4
ENDBRANCH   2   3
ENDBRANCH   1   2
BRANCH   1  32
ATOM     32  C   UNL A   1      34.020  35.597  31.917  1.00  0.00     0.202 C 
BRANCH  32  33
ATOM     33  C   UNL A   1      33.553  34.451  32.802  1.00  0.00     0.261 C 
BRANCH  33  34
ATOM     34  O   UNL A   1      34.164  33.226  32.440  1.00  0.00    -0.460 OA
BRANCH  34  35
ATOM     35  C   UNL A   1      35.124  32.815  33.299  1.00  0.00     0.338 C 
ATOM     36  O   UNL A   1      35.268  33.148  34.460  1.00  0.00    -0.246 OA
BRANCH  35  37
ATOM     37  C   UNL A   1      36.076  31.985  32.555  1.00  0.00     0.060 A 
ATOM     38  C   UNL A   1      37.089  31.392  33.311  1.00  0.00     0.016 A 
ATOM     39  C   UNL A   1      36.142  32.093  31.157  1.00  0.00     0.016 A 
ATOM     40  C   UNL A   1      38.291  31.153  32.690  1.00  0.00     0.010 A 
ATOM     41  C   UNL A   1      37.344  31.869  30.545  1.00  0.00     0.010 A 
ATOM     42  C   UNL A   1      38.422  31.506  31.345  1.00  0.00    -0.014 A 
BRANCH  42  43
ATOM     43  C   UNL A   1      39.739  31.457  30.762  1.00  0.00     0.031 A 
ATOM     44  C   UNL A   1      40.041  30.143  30.164  1.00  0.00     0.074 A 
ATOM     45  C   UNL A   1      40.533  32.543  30.724  1.00  0.00     0.049 A 
ATOM     46  N   UNL A   1      40.867  29.255  30.605  1.00  0.00    -0.248 NA
ATOM     47  C   UNL A   1      39.169  29.678  29.075  1.00  0.00     0.031 C 
ATOM     48  C   UNL A   1      40.190  33.936  31.032  1.00  0.00     0.029 A 
ATOM     49  N   UNL A   1      41.801  32.638  30.256  1.00  0.00    -0.354 N 
ATOM     50  C   UNL A   1      40.783  28.208  29.695  1.00  0.00     0.074 A 
ATOM     51  C   UNL A   1      39.579  28.418  28.937  1.00  0.00     0.031 C 
ATOM     52  C   UNL A   1      41.128  34.748  30.491  1.00  0.00     0.029 A 
ATOM     53  C   UNL A   1      42.188  33.932  29.927  1.00  0.00     0.049 A 
ATOM     54  H   UNL A   1      42.396  31.859  30.156  1.00  0.00     0.167 HD
ATOM     55  C   UNL A   1      41.853  27.408  29.446  1.00  0.00     0.034 A 
ATOM     56  C   UNL A   1      43.251  34.262  29.150  1.00  0.00     0.034 A 
ATOM     57  C   UNL A   1      42.859  27.539  30.467  1.00  0.00     0.049 A 
ATOM     58  C   UNL A   1      44.161  33.088  29.141  1.00  0.00     0.074 A 
ATOM     59  C   UNL A   1      42.900  27.308  31.828  1.00  0.00     0.029 A 
ATOM     60  N   UNL A   1      43.923  28.362  30.186  1.00  0.00    -0.354 N 
ATOM     61  N   UNL A   1      44.791  32.657  30.198  1.00  0.00    -0.248 NA
ATOM     62  C   UNL A   1      44.009  32.122  28.064  1.00  0.00     0.031 C 
ATOM     63  C   UNL A   1      43.703  28.360  32.356  1.00  0.00     0.029 A 
ATOM     64  C   UNL A   1      44.156  29.141  31.289  1.00  0.00     0.049 A 
ATOM     65  H   UNL A   1      44.428  28.388  29.341  1.00  0.00     0.167 HD
ATOM     66  C   UNL A   1      44.706  31.271  30.111  1.00  0.00     0.074 A 
ATOM     67  C   UNL A   1      44.308  31.003  28.729  1.00  0.00     0.031 C 
ATOM     68  C   UNL A   1      44.671  30.494  31.233  1.00  0.00     0.034 A 
BRANCH  55  69
ATOM     69  C   UNL A   1      42.148  26.783  28.107  1.00  0.00     0.023 A 
ATOM     70  C   UNL A   1      42.070  27.621  26.975  1.00  0.00     0.012 A 
ATOM     71  C   UNL A   1      42.247  25.392  27.870  1.00  0.00     0.148 A 
ATOM     72  C   UNL A   1      42.057  27.097  25.678  1.00  0.00     0.002 A 
ATOM     73  C   UNL A   1      42.325  24.883  26.581  1.00  0.00     0.091 A 
ATOM     74  F   UNL A   1      42.127  24.526  28.881  1.00  0.00    -0.205 F 
ATOM     75  C   UNL A   1      42.198  25.729  25.478  1.00  0.00     0.022 A 
BRANCH  73  76
ATOM     76  S   UNL A   1      42.570  23.129  26.274  1.00  0.00     0.127 S 
ATOM     77  O   UNL A   1      41.316  22.567  26.768  1.00  0.00    -0.237 OA
ATOM     78  O   UNL A   1      42.733  23.102  24.820  1.00  0.00    -0.237 OA
ATOM     79  O   UNL A   1      43.772  22.766  27.014  1.00  0.00    -0.744 OA
ENDBRANCH  73  76
ENDBRANCH  55  69
BRANCH  56  80
ATOM     80  C   UNL A   1      43.365  35.333  28.129  1.00  0.00     0.023 A 
ATOM     81  C   UNL A   1      42.209  35.751  27.437  1.00  0.00     0.012 A 
ATOM     82  C   UNL A   1      44.514  36.154  28.060  1.00  0.00     0.148 A 
ATOM     83  C   UNL A   1      42.183  36.966  26.739  1.00  0.00     0.002 A 
ATOM     84  C   UNL A   1      44.482  37.361  27.367  1.00  0.00     0.091 A 
ATOM     85  F   UNL A   1      45.604  35.800  28.751  1.00  0.00    -0.205 F 
ATOM     86  C   UNL A   1      43.314  37.776  26.716  1.00  0.00     0.022 A 
BRANCH  84  87
ATOM     87  S   UNL A   1      45.885  38.488  27.339  1.00  0.00     0.127 S 
ATOM     88  O   UNL A   1      45.387  39.568  26.485  1.00  0.00    -0.237 OA
ATOM     89  O   UNL A   1      46.020  38.835  28.750  1.00  0.00    -0.237 OA
ATOM     90  O   UNL A   1      46.992  37.733  26.766  1.00  0.00    -0.744 OA
ENDBRANCH  84  87
ENDBRANCH  56  80
BRANCH  68  91
ATOM     91  C   UNL A   1      44.944  31.154  32.565  1.00  0.00     0.023 A 
ATOM     92  C   UNL A   1      46.248  31.486  32.991  1.00  0.00     0.012 A 
ATOM     93  C   UNL A   1      43.849  31.631  33.305  1.00  0.00     0.148 A 
ATOM     94  C   UNL A   1      46.455  32.267  34.133  1.00  0.00     0.002 A 
ATOM     95  C   UNL A   1      44.057  32.450  34.409  1.00  0.00     0.091 A 
ATOM     96  F   UNL A   1      42.616  31.308  32.888  1.00  0.00    -0.205 F 
ATOM     97  C   UNL A   1      45.359  32.762  34.833  1.00  0.00     0.022 A 
BRANCH  95  98
ATOM     98  S   UNL A   1      42.689  33.237  35.262  1.00  0.00     0.127 S 
ATOM     99  O   UNL A   1      41.948  33.843  34.158  1.00  0.00    -0.237 OA
ATOM    100  O   UNL A   1      42.021  32.101  35.898  1.00  0.00    -0.237 OA
ATOM    101  O   UNL A   1      43.289  34.176  36.203  1.00  0.00    -0.744 OA
ENDBRANCH  95  98
ENDBRANCH  68  91
ENDBRANCH  42  43
ENDBRANCH  35  37
ENDBRANCH  34  35
ENDBRANCH  33  34
ENDBRANCH  32  33
ENDBRANCH   1  32
TORSDOF 20
ENDMDL
