MODEL 1
REMARK VINA RESULT:     -11.7      0.000      0.000
REMARK SMILES Cc1cccc(-c2cccc(O)c2)c1C(=O)OCCOCCOC(=O)c1ccc(-c2c3nc(c(-c4cccc(S(=O)(=O)[O-])c4F)c4ccc([nH]4)c(-c4cccc(S(=O)(=O)[O-])c4F)c4nc(c(-c5cccc(S(=O)(=O)[O-])c5F)c5ccc2[nH]5)C=C4)C=C3)cc1
REMARK SMILES IDX 21 1 20 2 19 3 18 4 17 5 15 6 16 7 14 8 1 9 2 10 3 11 4 12
REMARK SMILES IDX 6 13 5 14 7 15 8 16 13 17 9 18 11 19 10 20 12 21 22 23 23 24
REMARK SMILES IDX 24 25 25 26 26 27 27 28 88 29 28 30 87 31 29 32 30 33 31 34
REMARK SMILES IDX 81 35 32 36 86 37 80 38 82 39 33 40 85 41 79 42 78 43 34 45
REMARK SMILES IDX 66 46 46 47 65 48 47 49 50 50 64 51 83 52 48 53 49 54 63 56
REMARK SMILES IDX 84 57 51 58 35 59 36 60 44 61 37 62 39 63 45 64 38 65 40 66
REMARK SMILES IDX 41 67 42 68 43 69 67 70 68 71 76 72 69 73 71 74 77 75 70 76
REMARK SMILES IDX 72 77 73 78 74 79 75 80 52 81 53 82 61 83 54 84 56 85 62 86
REMARK SMILES IDX 55 87 57 88 58 89 59 90 60 91
REMARK H PARENT 12 22 82 44 50 55
REMARK Flexibility Score: inf
ROOT
ATOM      1  C   UNL A   1      32.870  31.123  27.079  1.00  0.00     0.202 C 
ENDROOT
BRANCH   1   2
ATOM      2  O   UNL A   1      33.742  30.089  26.666  1.00  0.00    -0.374 OA
BRANCH   2   3
ATOM      3  C   UNL A   1      33.504  28.847  27.297  1.00  0.00     0.202 C 
BRANCH   3   4
ATOM      4  C   UNL A   1      32.072  28.317  27.241  1.00  0.00     0.261 C 
BRANCH   4   5
ATOM      5  O   UNL A   1      31.729  27.990  25.909  1.00  0.00    -0.460 OA
BRANCH   5   6
ATOM      6  C   UNL A   1      31.238  26.744  25.799  1.00  0.00     0.339 C 
ATOM      7  O   UNL A   1      30.287  26.273  26.422  1.00  0.00    -0.246 OA
BRANCH   6   8
ATOM      8  C   UNL A   1      31.847  26.169  24.596  1.00  0.00     0.070 A 
ATOM      9  C   UNL A   1      33.500  24.740  25.986  1.00  0.00     0.045 C 
ATOM     10  C   UNL A   1      32.933  25.262  24.689  1.00  0.00    -0.036 A 
ATOM     11  C   UNL A   1      33.569  24.881  23.502  1.00  0.00     0.004 A 
ATOM     12  C   UNL A   1      33.126  25.366  22.271  1.00  0.00     0.001 A 
ATOM     13  C   UNL A   1      31.384  26.674  23.352  1.00  0.00    -0.003 A 
ATOM     14  C   UNL A   1      32.041  26.245  22.195  1.00  0.00     0.009 A 
BRANCH  13  15
ATOM     15  C   UNL A   1      30.304  27.682  23.268  1.00  0.00    -0.014 A 
ATOM     16  C   UNL A   1      28.965  27.309  23.492  1.00  0.00     0.009 A 
ATOM     17  C   UNL A   1      30.556  28.981  22.797  1.00  0.00     0.055 A 
ATOM     18  C   UNL A   1      27.911  28.180  23.189  1.00  0.00     0.004 A 
ATOM     19  C   UNL A   1      29.499  29.846  22.510  1.00  0.00     0.116 A 
ATOM     20  C   UNL A   1      28.178  29.451  22.686  1.00  0.00     0.046 A 
BRANCH  19  21
ATOM     21  O   UNL A   1      29.803  31.084  22.023  1.00  0.00    -0.508 OA
ATOM     22  H   UNL A   1      30.628  31.478  22.226  1.00  0.00     0.293 HD
ENDBRANCH  19  21
ENDBRANCH  13  15
ENDBRANCH   6   8
ENDBRANCH   5   6
ENDBRANCH   4   5
ENDBRANCH   3   4
ENDBRANCH   2   3
ENDBRANCH   1   2
BRANCH   1  23
ATOM     23  C   UNL A   1      33.401  32.408  27.832  1.00  0.00     0.261 C 
BRANCH  23  24
ATOM     24  O   UNL A   1      34.832  32.434  28.295  1.00  0.00    -0.460 OA
BRANCH  24  25
ATOM     25  C   UNL A   1      35.566  31.940  29.367  1.00  0.00     0.338 C 
ATOM     26  O   UNL A   1      35.298  32.247  30.528  1.00  0.00    -0.246 OA
BRANCH  25  27
ATOM     27  C   UNL A   1      36.343  30.665  29.190  1.00  0.00     0.060 A 
ATOM     28  C   UNL A   1      36.539  29.774  30.244  1.00  0.00     0.016 A 
ATOM     29  C   UNL A   1      36.825  30.257  27.953  1.00  0.00     0.016 A 
ATOM     30  C   UNL A   1      37.580  28.831  30.205  1.00  0.00     0.010 A 
ATOM     31  C   UNL A   1      37.923  29.392  27.913  1.00  0.00     0.010 A 
ATOM     32  C   UNL A   1      38.396  28.783  29.086  1.00  0.00    -0.014 A 
BRANCH  32  33
ATOM     33  C   UNL A   1      39.813  28.365  29.117  1.00  0.00     0.031 A 
ATOM     34  C   UNL A   1      40.212  26.963  28.812  1.00  0.00     0.074 A 
ATOM     35  C   UNL A   1      40.801  29.304  29.127  1.00  0.00     0.049 A 
ATOM     36  N   UNL A   1      41.411  26.510  28.979  1.00  0.00    -0.248 NA
ATOM     37  C   UNL A   1      39.287  25.930  28.350  1.00  0.00     0.031 C 
ATOM     38  C   UNL A   1      42.138  29.133  28.549  1.00  0.00     0.029 A 
ATOM     39  N   UNL A   1      40.841  30.613  29.634  1.00  0.00    -0.354 N 
ATOM     40  C   UNL A   1      41.491  25.306  28.321  1.00  0.00     0.074 A 
ATOM     41  C   UNL A   1      40.123  24.916  28.098  1.00  0.00     0.031 C 
ATOM     42  C   UNL A   1      42.909  30.177  28.866  1.00  0.00     0.029 A 
ATOM     43  C   UNL A   1      42.185  30.978  29.823  1.00  0.00     0.049 A 
ATOM     44  H   UNL A   1      40.060  31.181  29.823  1.00  0.00     0.167 HD
ATOM     45  C   UNL A   1      42.705  24.836  27.924  1.00  0.00     0.034 A 
ATOM     46  C   UNL A   1      42.740  31.480  30.960  1.00  0.00     0.034 A 
ATOM     47  C   UNL A   1      43.809  25.649  28.462  1.00  0.00     0.049 A 
ATOM     48  C   UNL A   1      43.733  30.500  31.566  1.00  0.00     0.074 A 
ATOM     49  C   UNL A   1      44.724  26.519  27.899  1.00  0.00     0.029 A 
ATOM     50  N   UNL A   1      43.925  25.806  29.842  1.00  0.00    -0.354 N 
ATOM     51  N   UNL A   1      44.219  29.460  30.940  1.00  0.00    -0.248 NA
ATOM     52  C   UNL A   1      44.218  30.566  32.943  1.00  0.00     0.031 C 
ATOM     53  C   UNL A   1      45.297  27.290  28.955  1.00  0.00     0.029 A 
ATOM     54  C   UNL A   1      44.778  26.855  30.166  1.00  0.00     0.049 A 
ATOM     55  H   UNL A   1      43.463  25.245  30.505  1.00  0.00     0.167 HD
ATOM     56  C   UNL A   1      44.768  28.592  31.846  1.00  0.00     0.074 A 
ATOM     57  C   UNL A   1      44.882  29.401  33.049  1.00  0.00     0.031 C 
ATOM     58  C   UNL A   1      44.963  27.261  31.566  1.00  0.00     0.034 A 
BRANCH  45  59
ATOM     59  C   UNL A   1      42.920  23.688  26.949  1.00  0.00     0.023 A 
ATOM     60  C   UNL A   1      43.737  23.932  25.823  1.00  0.00     0.012 A 
ATOM     61  C   UNL A   1      42.325  22.402  27.017  1.00  0.00     0.148 A 
ATOM     62  C   UNL A   1      43.977  22.955  24.846  1.00  0.00     0.002 A 
ATOM     63  C   UNL A   1      42.633  21.402  26.089  1.00  0.00     0.091 A 
ATOM     64  F   UNL A   1      41.363  22.156  27.913  1.00  0.00    -0.205 F 
ATOM     65  C   UNL A   1      43.451  21.680  24.992  1.00  0.00     0.022 A 
BRANCH  63  66
ATOM     66  S   UNL A   1      42.033  19.709  26.259  1.00  0.00     0.127 S 
ATOM     67  O   UNL A   1      42.747  19.020  25.186  1.00  0.00    -0.237 OA
ATOM     68  O   UNL A   1      42.467  19.350  27.610  1.00  0.00    -0.237 OA
ATOM     69  O   UNL A   1      40.585  19.780  26.095  1.00  0.00    -0.744 OA
ENDBRANCH  63  66
ENDBRANCH  45  59
BRANCH  46  70
ATOM     70  C   UNL A   1      41.885  32.478  31.650  1.00  0.00     0.023 A 
ATOM     71  C   UNL A   1      41.642  33.675  30.931  1.00  0.00     0.012 A 
ATOM     72  C   UNL A   1      40.981  32.086  32.647  1.00  0.00     0.148 A 
ATOM     73  C   UNL A   1      40.458  34.391  31.102  1.00  0.00     0.002 A 
ATOM     74  C   UNL A   1      39.771  32.766  32.761  1.00  0.00     0.091 A 
ATOM     75  F   UNL A   1      41.239  30.965  33.332  1.00  0.00    -0.205 F 
ATOM     76  C   UNL A   1      39.504  33.909  31.987  1.00  0.00     0.022 A 
BRANCH  74  77
ATOM     77  S   UNL A   1      38.350  32.050  33.592  1.00  0.00     0.127 S 
ATOM     78  O   UNL A   1      37.249  32.862  33.090  1.00  0.00    -0.237 OA
ATOM     79  O   UNL A   1      38.393  30.686  33.066  1.00  0.00    -0.237 OA
ATOM     80  O   UNL A   1      38.635  32.166  35.013  1.00  0.00    -0.744 OA
ENDBRANCH  74  77
ENDBRANCH  46  70
BRANCH  58  81
ATOM     81  C   UNL A   1      45.295  26.211  32.623  1.00  0.00     0.023 A 
ATOM     82  C   UNL A   1      46.588  25.669  32.767  1.00  0.00     0.012 A 
ATOM     83  C   UNL A   1      44.343  25.826  33.603  1.00  0.00     0.148 A 
ATOM     84  C   UNL A   1      46.902  24.729  33.756  1.00  0.00     0.002 A 
ATOM     85  C   UNL A   1      44.695  24.988  34.662  1.00  0.00     0.091 A 
ATOM     86  F   UNL A   1      43.076  26.256  33.508  1.00  0.00    -0.205 F 
ATOM     87  C   UNL A   1      45.960  24.402  34.718  1.00  0.00     0.022 A 
BRANCH  85  88
ATOM     88  S   UNL A   1      43.603  24.772  36.076  1.00  0.00     0.127 S 
ATOM     89  O   UNL A   1      43.123  26.132  36.304  1.00  0.00    -0.237 OA
ATOM     90  O   UNL A   1      42.592  23.847  35.558  1.00  0.00    -0.237 OA
ATOM     91  O   UNL A   1      44.450  24.201  37.116  1.00  0.00    -0.744 OA
ENDBRANCH  85  88
ENDBRANCH  58  81
ENDBRANCH  32  33
ENDBRANCH  25  27
ENDBRANCH  24  25
ENDBRANCH  23  24
ENDBRANCH   1  23
TORSDOF 19
ENDMDL
MODEL 2
REMARK VINA RESULT:     -11.5      1.600      2.026
REMARK SMILES Cc1cccc(-c2cccc(O)c2)c1C(=O)OCCOCCOC(=O)c1ccc(-c2c3nc(c(-c4cccc(S(=O)(=O)[O-])c4F)c4ccc([nH]4)c(-c4cccc(S(=O)(=O)[O-])c4F)c4nc(c(-c5cccc(S(=O)(=O)[O-])c5F)c5ccc2[nH]5)C=C4)C=C3)cc1
REMARK SMILES IDX 21 1 20 2 19 3 18 4 17 5 15 6 16 7 14 8 1 9 2 10 3 11 4 12
REMARK SMILES IDX 6 13 5 14 7 15 8 16 13 17 9 18 11 19 10 20 12 21 22 23 23 24
REMARK SMILES IDX 24 25 25 26 26 27 27 28 88 29 28 30 87 31 29 32 30 33 31 34
REMARK SMILES IDX 81 35 32 36 86 37 80 38 82 39 33 40 85 41 79 42 78 43 34 45
REMARK SMILES IDX 66 46 46 47 65 48 47 49 50 50 64 51 83 52 48 53 49 54 63 56
REMARK SMILES IDX 84 57 51 58 35 59 36 60 44 61 37 62 39 63 45 64 38 65 40 66
REMARK SMILES IDX 41 67 42 68 43 69 67 70 68 71 76 72 69 73 71 74 77 75 70 76
REMARK SMILES IDX 72 77 73 78 74 79 75 80 52 81 53 82 61 83 54 84 56 85 62 86
REMARK SMILES IDX 55 87 57 88 58 89 59 90 60 91
REMARK H PARENT 12 22 82 44 50 55
REMARK Flexibility Score: inf
ROOT
ATOM      1  C   UNL A   1      33.907  30.044  26.676  1.00  0.00     0.202 C 
ENDROOT
BRANCH   1   2
ATOM      2  O   UNL A   1      33.778  28.713  27.136  1.00  0.00    -0.374 OA
BRANCH   2   3
ATOM      3  C   UNL A   1      32.477  28.379  27.575  1.00  0.00     0.202 C 
BRANCH   3   4
ATOM      4  C   UNL A   1      31.676  27.434  26.680  1.00  0.00     0.261 C 
BRANCH   4   5
ATOM      5  O   UNL A   1      32.542  26.498  26.069  1.00  0.00    -0.460 OA
BRANCH   5   6
ATOM      6  C   UNL A   1      32.043  25.249  26.094  1.00  0.00     0.339 C 
ATOM      7  O   UNL A   1      31.051  24.869  26.715  1.00  0.00    -0.246 OA
BRANCH   6   8
ATOM      8  C   UNL A   1      32.717  24.518  25.017  1.00  0.00     0.070 A 
ATOM      9  C   UNL A   1      34.331  23.352  26.672  1.00  0.00     0.045 C 
ATOM     10  C   UNL A   1      33.814  23.662  25.289  1.00  0.00    -0.036 A 
ATOM     11  C   UNL A   1      34.509  23.126  24.200  1.00  0.00     0.004 A 
ATOM     12  C   UNL A   1      34.113  23.411  22.894  1.00  0.00     0.001 A 
ATOM     13  C   UNL A   1      32.301  24.821  23.693  1.00  0.00    -0.003 A 
ATOM     14  C   UNL A   1      33.017  24.242  22.641  1.00  0.00     0.009 A 
BRANCH  13  15
ATOM     15  C   UNL A   1      31.207  25.779  23.415  1.00  0.00    -0.014 A 
ATOM     16  C   UNL A   1      31.499  27.075  22.947  1.00  0.00     0.009 A 
ATOM     17  C   UNL A   1      29.880  25.490  23.771  1.00  0.00     0.055 A 
ATOM     18  C   UNL A   1      30.512  28.068  22.903  1.00  0.00     0.004 A 
ATOM     19  C   UNL A   1      28.901  26.484  23.712  1.00  0.00     0.116 A 
ATOM     20  C   UNL A   1      29.209  27.774  23.297  1.00  0.00     0.046 A 
BRANCH  19  21
ATOM     21  O   UNL A   1      27.635  26.155  24.103  1.00  0.00    -0.508 OA
ATOM     22  H   UNL A   1      26.921  26.245  23.502  1.00  0.00     0.293 HD
ENDBRANCH  19  21
ENDBRANCH  13  15
ENDBRANCH   6   8
ENDBRANCH   5   6
ENDBRANCH   4   5
ENDBRANCH   3   4
ENDBRANCH   2   3
ENDBRANCH   1   2
BRANCH   1  23
ATOM     23  C   UNL A   1      33.840  31.277  27.664  1.00  0.00     0.261 C 
BRANCH  23  24
ATOM     24  O   UNL A   1      35.112  32.009  27.992  1.00  0.00    -0.460 OA
BRANCH  24  25
ATOM     25  C   UNL A   1      36.254  31.781  28.749  1.00  0.00     0.338 C 
ATOM     26  O   UNL A   1      36.508  32.451  29.751  1.00  0.00    -0.246 OA
BRANCH  25  27
ATOM     27  C   UNL A   1      36.917  30.433  28.678  1.00  0.00     0.060 A 
ATOM     28  C   UNL A   1      36.853  29.529  29.737  1.00  0.00     0.016 A 
ATOM     29  C   UNL A   1      37.546  29.978  27.527  1.00  0.00     0.016 A 
ATOM     30  C   UNL A   1      37.787  28.485  29.848  1.00  0.00     0.010 A 
ATOM     31  C   UNL A   1      38.543  29.005  27.647  1.00  0.00     0.010 A 
ATOM     32  C   UNL A   1      38.762  28.352  28.871  1.00  0.00    -0.014 A 
BRANCH  32  33
ATOM     33  C   UNL A   1      40.106  27.792  29.119  1.00  0.00     0.031 A 
ATOM     34  C   UNL A   1      40.434  26.384  28.767  1.00  0.00     0.074 A 
ATOM     35  C   UNL A   1      41.152  28.625  29.390  1.00  0.00     0.049 A 
ATOM     36  N   UNL A   1      41.537  25.801  29.105  1.00  0.00    -0.248 NA
ATOM     37  C   UNL A   1      39.526  25.485  28.056  1.00  0.00     0.031 C 
ATOM     38  C   UNL A   1      42.554  28.362  29.049  1.00  0.00     0.029 A 
ATOM     39  N   UNL A   1      41.208  29.883  30.011  1.00  0.00    -0.354 N 
ATOM     40  C   UNL A   1      41.635  24.646  28.368  1.00  0.00     0.074 A 
ATOM     41  C   UNL A   1      40.305  24.412  27.869  1.00  0.00     0.031 C 
ATOM     42  C   UNL A   1      43.338  29.297  29.592  1.00  0.00     0.029 A 
ATOM     43  C   UNL A   1      42.519  30.096  30.470  1.00  0.00     0.049 A 
ATOM     44  H   UNL A   1      40.457  30.511  30.107  1.00  0.00     0.167 HD
ATOM     45  C   UNL A   1      42.857  24.086  28.155  1.00  0.00     0.034 A 
ATOM     46  C   UNL A   1      42.892  30.456  31.729  1.00  0.00     0.034 A 
ATOM     47  C   UNL A   1      43.906  24.743  28.953  1.00  0.00     0.049 A 
ATOM     48  C   UNL A   1      43.666  29.340  32.414  1.00  0.00     0.074 A 
ATOM     49  C   UNL A   1      44.982  25.554  28.644  1.00  0.00     0.029 A 
ATOM     50  N   UNL A   1      43.775  24.787  30.341  1.00  0.00    -0.354 N 
ATOM     51  N   UNL A   1      44.170  28.305  31.795  1.00  0.00    -0.248 NA
ATOM     52  C   UNL A   1      43.888  29.259  33.856  1.00  0.00     0.031 C 
ATOM     53  C   UNL A   1      45.411  26.186  29.851  1.00  0.00     0.029 A 
ATOM     54  C   UNL A   1      44.638  25.719  30.905  1.00  0.00     0.049 A 
ATOM     55  H   UNL A   1      43.150  24.229  30.857  1.00  0.00     0.167 HD
ATOM     56  C   UNL A   1      44.463  27.323  32.704  1.00  0.00     0.074 A 
ATOM     57  C   UNL A   1      44.418  28.028  33.976  1.00  0.00     0.031 C 
ATOM     58  C   UNL A   1      44.591  26.002  32.346  1.00  0.00     0.034 A 
BRANCH  45  59
ATOM     59  C   UNL A   1      43.152  22.995  27.137  1.00  0.00     0.023 A 
ATOM     60  C   UNL A   1      44.040  23.308  26.084  1.00  0.00     0.012 A 
ATOM     61  C   UNL A   1      42.570  21.702  27.095  1.00  0.00     0.148 A 
ATOM     62  C   UNL A   1      44.357  22.388  25.073  1.00  0.00     0.002 A 
ATOM     63  C   UNL A   1      42.953  20.757  26.136  1.00  0.00     0.091 A 
ATOM     64  F   UNL A   1      41.553  21.398  27.909  1.00  0.00    -0.205 F 
ATOM     65  C   UNL A   1      43.839  21.102  25.114  1.00  0.00     0.022 A 
BRANCH  63  66
ATOM     66  S   UNL A   1      42.364  19.052  26.173  1.00  0.00     0.127 S 
ATOM     67  O   UNL A   1      43.244  18.401  25.205  1.00  0.00    -0.237 OA
ATOM     68  O   UNL A   1      42.594  18.664  27.566  1.00  0.00    -0.237 OA
ATOM     69  O   UNL A   1      40.956  19.106  25.793  1.00  0.00    -0.744 OA
ENDBRANCH  63  66
ENDBRANCH  45  59
BRANCH  46  70
ATOM     70  C   UNL A   1      42.012  31.483  32.341  1.00  0.00     0.023 A 
ATOM     71  C   UNL A   1      42.000  32.743  31.691  1.00  0.00     0.012 A 
ATOM     72  C   UNL A   1      40.914  31.114  33.130  1.00  0.00     0.148 A 
ATOM     73  C   UNL A   1      40.867  33.555  31.713  1.00  0.00     0.002 A 
ATOM     74  C   UNL A   1      39.763  31.896  33.089  1.00  0.00     0.091 A 
ATOM     75  F   UNL A   1      40.952  29.930  33.756  1.00  0.00    -0.205 F 
ATOM     76  C   UNL A   1      39.734  33.109  32.376  1.00  0.00     0.022 A 
BRANCH  74  77
ATOM     77  S   UNL A   1      38.162  31.265  33.600  1.00  0.00     0.127 S 
ATOM     78  O   UNL A   1      38.280  31.243  35.052  1.00  0.00    -0.237 OA
ATOM     79  O   UNL A   1      37.284  32.308  33.074  1.00  0.00    -0.237 OA
ATOM     80  O   UNL A   1      38.032  29.971  32.949  1.00  0.00    -0.744 OA
ENDBRANCH  74  77
ENDBRANCH  46  70
BRANCH  58  81
ATOM     81  C   UNL A   1      44.628  24.851  33.347  1.00  0.00     0.023 A 
ATOM     82  C   UNL A   1      43.543  23.968  33.521  1.00  0.00     0.012 A 
ATOM     83  C   UNL A   1      45.814  24.532  34.059  1.00  0.00     0.148 A 
ATOM     84  C   UNL A   1      43.588  22.892  34.416  1.00  0.00     0.002 A 
ATOM     85  C   UNL A   1      45.895  23.386  34.851  1.00  0.00     0.091 A 
ATOM     86  F   UNL A   1      46.875  25.350  33.990  1.00  0.00    -0.205 F 
ATOM     87  C   UNL A   1      44.771  22.588  35.068  1.00  0.00     0.022 A 
BRANCH  85  88
ATOM     88  S   UNL A   1      47.477  22.800  35.477  1.00  0.00     0.127 S 
ATOM     89  O   UNL A   1      47.783  23.787  36.510  1.00  0.00    -0.237 OA
ATOM     90  O   UNL A   1      47.143  21.469  35.988  1.00  0.00    -0.237 OA
ATOM     91  O   UNL A   1      48.355  22.785  34.315  1.00  0.00    -0.744 OA
ENDBRANCH  85  88
ENDBRANCH  58  81
ENDBRANCH  32  33
ENDBRANCH  25  27
ENDBRANCH  24  25
ENDBRANCH  23  24
ENDBRANCH   1  23
TORSDOF 19
ENDMDL
MODEL 3
REMARK VINA RESULT:     -11.4      4.882     10.478
REMARK SMILES Cc1cccc(-c2cccc(O)c2)c1C(=O)OCCOCCOC(=O)c1ccc(-c2c3nc(c(-c4cccc(S(=O)(=O)[O-])c4F)c4ccc([nH]4)c(-c4cccc(S(=O)(=O)[O-])c4F)c4nc(c(-c5cccc(S(=O)(=O)[O-])c5F)c5ccc2[nH]5)C=C4)C=C3)cc1
REMARK SMILES IDX 21 1 20 2 19 3 18 4 17 5 15 6 16 7 14 8 1 9 2 10 3 11 4 12
REMARK SMILES IDX 6 13 5 14 7 15 8 16 13 17 9 18 11 19 10 20 12 21 22 23 23 24
REMARK SMILES IDX 24 25 25 26 26 27 27 28 88 29 28 30 87 31 29 32 30 33 31 34
REMARK SMILES IDX 81 35 32 36 86 37 80 38 82 39 33 40 85 41 79 42 78 43 34 45
REMARK SMILES IDX 66 46 46 47 65 48 47 49 50 50 64 51 83 52 48 53 49 54 63 56
REMARK SMILES IDX 84 57 51 58 35 59 36 60 44 61 37 62 39 63 45 64 38 65 40 66
REMARK SMILES IDX 41 67 42 68 43 69 67 70 68 71 76 72 69 73 71 74 77 75 70 76
REMARK SMILES IDX 72 77 73 78 74 79 75 80 52 81 53 82 61 83 54 84 56 85 62 86
REMARK SMILES IDX 55 87 57 88 58 89 59 90 60 91
REMARK H PARENT 12 22 82 44 50 55
REMARK Flexibility Score: inf
ROOT
ATOM      1  C   UNL A   1      37.995  23.321  25.829  1.00  0.00     0.202 C 
ENDROOT
BRANCH   1   2
ATOM      2  O   UNL A   1      37.086  22.967  24.805  1.00  0.00    -0.374 OA
BRANCH   2   3
ATOM      3  C   UNL A   1      37.073  21.588  24.498  1.00  0.00     0.202 C 
BRANCH   3   4
ATOM      4  C   UNL A   1      36.067  20.727  25.261  1.00  0.00     0.261 C 
BRANCH   4   5
ATOM      5  O   UNL A   1      35.054  21.544  25.814  1.00  0.00    -0.460 OA
BRANCH   5   6
ATOM      6  C   UNL A   1      33.878  20.900  25.916  1.00  0.00     0.339 C 
ATOM      7  O   UNL A   1      33.322  20.551  26.957  1.00  0.00    -0.246 OA
BRANCH   6   8
ATOM      8  C   UNL A   1      33.257  20.972  24.591  1.00  0.00     0.070 A 
ATOM      9  C   UNL A   1      32.975  23.542  24.744  1.00  0.00     0.045 C 
ATOM     10  C   UNL A   1      32.799  22.207  24.063  1.00  0.00    -0.036 A 
ATOM     11  C   UNL A   1      32.073  22.177  22.868  1.00  0.00     0.004 A 
ATOM     12  C   UNL A   1      31.832  20.969  22.213  1.00  0.00     0.001 A 
ATOM     13  C   UNL A   1      33.020  19.733  23.937  1.00  0.00    -0.003 A 
ATOM     14  C   UNL A   1      32.308  19.762  22.735  1.00  0.00     0.009 A 
BRANCH  13  15
ATOM     15  C   UNL A   1      33.429  18.442  24.534  1.00  0.00    -0.014 A 
ATOM     16  C   UNL A   1      34.588  17.784  24.077  1.00  0.00     0.009 A 
ATOM     17  C   UNL A   1      32.595  17.759  25.433  1.00  0.00     0.055 A 
ATOM     18  C   UNL A   1      34.865  16.463  24.452  1.00  0.00     0.004 A 
ATOM     19  C   UNL A   1      32.886  16.446  25.809  1.00  0.00     0.116 A 
ATOM     20  C   UNL A   1      34.005  15.787  25.314  1.00  0.00     0.046 A 
BRANCH  19  21
ATOM     21  O   UNL A   1      32.021  15.820  26.659  1.00  0.00    -0.508 OA
ATOM     22  H   UNL A   1      31.114  15.747  26.435  1.00  0.00     0.293 HD
ENDBRANCH  19  21
ENDBRANCH  13  15
ENDBRANCH   6   8
ENDBRANCH   5   6
ENDBRANCH   4   5
ENDBRANCH   3   4
ENDBRANCH   2   3
ENDBRANCH   1   2
BRANCH   1  23
ATOM     23  C   UNL A   1      39.214  22.392  26.218  1.00  0.00     0.261 C 
BRANCH  23  24
ATOM     24  O   UNL A   1      40.558  23.024  26.452  1.00  0.00    -0.460 OA
BRANCH  24  25
ATOM     25  C   UNL A   1      41.099  23.989  27.293  1.00  0.00     0.338 C 
ATOM     26  O   UNL A   1      42.284  23.962  27.627  1.00  0.00    -0.246 OA
BRANCH  25  27
ATOM     27  C   UNL A   1      40.421  25.327  27.396  1.00  0.00     0.060 A 
ATOM     28  C   UNL A   1      40.666  26.346  26.477  1.00  0.00     0.016 A 
ATOM     29  C   UNL A   1      39.447  25.591  28.350  1.00  0.00     0.016 A 
ATOM     30  C   UNL A   1      40.380  27.684  26.793  1.00  0.00     0.010 A 
ATOM     31  C   UNL A   1      39.227  26.917  28.734  1.00  0.00     0.010 A 
ATOM     32  C   UNL A   1      39.823  27.975  28.029  1.00  0.00    -0.014 A 
BRANCH  32  33
ATOM     33  C   UNL A   1      40.039  29.245  28.751  1.00  0.00     0.031 A 
ATOM     34  C   UNL A   1      38.988  30.299  28.792  1.00  0.00     0.074 A 
ATOM     35  C   UNL A   1      41.067  29.359  29.639  1.00  0.00     0.049 A 
ATOM     36  N   UNL A   1      39.183  31.484  29.272  1.00  0.00    -0.248 NA
ATOM     37  C   UNL A   1      37.642  30.136  28.243  1.00  0.00     0.031 C 
ATOM     38  C   UNL A   1      41.067  30.214  30.831  1.00  0.00     0.029 A 
ATOM     39  N   UNL A   1      42.327  28.740  29.694  1.00  0.00    -0.354 N 
ATOM     40  C   UNL A   1      37.951  32.070  29.432  1.00  0.00     0.074 A 
ATOM     41  C   UNL A   1      37.056  31.275  28.632  1.00  0.00     0.031 C 
ATOM     42  C   UNL A   1      42.279  30.213  31.393  1.00  0.00     0.029 A 
ATOM     43  C   UNL A   1      43.174  29.523  30.496  1.00  0.00     0.049 A 
ATOM     44  H   UNL A   1      42.574  27.899  29.248  1.00  0.00     0.167 HD
ATOM     45  C   UNL A   1      37.801  33.087  30.325  1.00  0.00     0.034 A 
ATOM     46  C   UNL A   1      44.412  29.984  30.164  1.00  0.00     0.034 A 
ATOM     47  C   UNL A   1      39.096  33.538  30.862  1.00  0.00     0.049 A 
ATOM     48  C   UNL A   1      44.419  31.499  30.037  1.00  0.00     0.074 A 
ATOM     49  C   UNL A   1      39.706  33.451  32.099  1.00  0.00     0.029 A 
ATOM     50  N   UNL A   1      40.078  33.986  29.978  1.00  0.00    -0.354 N 
ATOM     51  N   UNL A   1      43.467  32.280  30.475  1.00  0.00    -0.248 NA
ATOM     52  C   UNL A   1      45.463  32.262  29.356  1.00  0.00     0.031 C 
ATOM     53  C   UNL A   1      41.095  33.728  31.920  1.00  0.00     0.029 A 
ATOM     54  C   UNL A   1      41.325  34.041  30.588  1.00  0.00     0.049 A 
ATOM     55  H   UNL A   1      39.909  34.233  29.041  1.00  0.00     0.167 HD
ATOM     56  C   UNL A   1      43.578  33.514  29.891  1.00  0.00     0.074 A 
ATOM     57  C   UNL A   1      44.922  33.494  29.333  1.00  0.00     0.031 C 
ATOM     58  C   UNL A   1      42.521  34.389  29.808  1.00  0.00     0.034 A 
BRANCH  45  59
ATOM     59  C   UNL A   1      36.467  33.627  30.816  1.00  0.00     0.023 A 
ATOM     60  C   UNL A   1      36.134  33.413  32.172  1.00  0.00     0.012 A 
ATOM     61  C   UNL A   1      35.479  34.274  30.029  1.00  0.00     0.148 A 
ATOM     62  C   UNL A   1      34.917  33.841  32.722  1.00  0.00     0.002 A 
ATOM     63  C   UNL A   1      34.303  34.777  30.598  1.00  0.00     0.091 A 
ATOM     64  F   UNL A   1      35.604  34.315  28.699  1.00  0.00    -0.205 F 
ATOM     65  C   UNL A   1      34.013  34.550  31.945  1.00  0.00     0.022 A 
BRANCH  63  66
ATOM     66  S   UNL A   1      33.120  35.761  29.656  1.00  0.00     0.127 S 
ATOM     67  O   UNL A   1      32.417  34.738  28.883  1.00  0.00    -0.237 OA
ATOM     68  O   UNL A   1      32.319  36.391  30.707  1.00  0.00    -0.237 OA
ATOM     69  O   UNL A   1      33.915  36.696  28.868  1.00  0.00    -0.744 OA
ENDBRANCH  63  66
ENDBRANCH  45  59
BRANCH  46  70
ATOM     70  C   UNL A   1      45.244  28.990  29.440  1.00  0.00     0.023 A 
ATOM     71  C   UNL A   1      45.522  27.794  30.149  1.00  0.00     0.012 A 
ATOM     72  C   UNL A   1      45.298  28.979  28.039  1.00  0.00     0.148 A 
ATOM     73  C   UNL A   1      45.714  26.586  29.480  1.00  0.00     0.002 A 
ATOM     74  C   UNL A   1      45.420  27.759  27.381  1.00  0.00     0.091 A 
ATOM     75  F   UNL A   1      45.055  30.123  27.387  1.00  0.00    -0.205 F 
ATOM     76  C   UNL A   1      45.618  26.564  28.096  1.00  0.00     0.022 A 
BRANCH  74  77
ATOM     77  S   UNL A   1      44.967  27.557  25.655  1.00  0.00     0.127 S 
ATOM     78  O   UNL A   1      45.910  28.437  24.977  1.00  0.00    -0.237 OA
ATOM     79  O   UNL A   1      45.227  26.130  25.477  1.00  0.00    -0.237 OA
ATOM     80  O   UNL A   1      43.566  27.937  25.577  1.00  0.00    -0.744 OA
ENDBRANCH  74  77
ENDBRANCH  46  70
BRANCH  58  81
ATOM     81  C   UNL A   1      42.516  35.634  28.925  1.00  0.00     0.023 A 
ATOM     82  C   UNL A   1      41.720  35.732  27.766  1.00  0.00     0.012 A 
ATOM     83  C   UNL A   1      43.215  36.808  29.305  1.00  0.00     0.148 A 
ATOM     84  C   UNL A   1      41.690  36.886  26.972  1.00  0.00     0.002 A 
ATOM     85  C   UNL A   1      43.081  37.995  28.582  1.00  0.00     0.091 A 
ATOM     86  F   UNL A   1      44.035  36.784  30.366  1.00  0.00    -0.205 F 
ATOM     87  C   UNL A   1      42.356  38.026  27.391  1.00  0.00     0.022 A 
BRANCH  85  88
ATOM     88  S   UNL A   1      43.686  39.557  29.241  1.00  0.00     0.127 S 
ATOM     89  O   UNL A   1      43.119  39.562  30.587  1.00  0.00    -0.237 OA
ATOM     90  O   UNL A   1      45.139  39.380  29.193  1.00  0.00    -0.237 OA
ATOM     91  O   UNL A   1      43.182  40.568  28.322  1.00  0.00    -0.744 OA
ENDBRANCH  85  88
ENDBRANCH  58  81
ENDBRANCH  32  33
ENDBRANCH  25  27
ENDBRANCH  24  25
ENDBRANCH  23  24
ENDBRANCH   1  23
TORSDOF 19
ENDMDL
