MODEL 1
REMARK VINA RESULT:     -11.8      0.000      0.000
REMARK SMILES COc1ccc([C@H]2[C@@H](C(=O)OCCOCCOC(=O)c3ccc(-c4c5nc(c(-c6cccc(S(=O)(=O)[O-])c6F)c6ccc([nH]6)c(-c6cccc(S(=O)(=O)[O-])c6F)c6nc(c(-c7cccc(S(=O)(=O)[O-])c7F)c7ccc4[nH]7)C=C6)C=C5)cc3)CC(=O)N2Cc2ccccc2)cc1
REMARK SMILES IDX 15 1 14 2 13 3 12 4 11 5 9 6 10 7 8 8 7 9 86 10 83 11 84 12
REMARK SMILES IDX 85 13 6 14 3 15 4 16 95 17 5 18 94 19 2 20 1 21 87 22 88 23
REMARK SMILES IDX 89 24 93 25 90 26 92 27 91 28 16 29 17 30 18 31 19 32 20 33
REMARK SMILES IDX 21 34 82 35 22 36 81 37 23 38 24 39 25 40 75 41 26 42 80 43
REMARK SMILES IDX 74 44 76 45 27 46 79 47 73 48 72 49 28 51 60 52 40 53 59 54
REMARK SMILES IDX 41 55 44 56 58 57 77 58 42 59 43 60 57 62 78 63 45 64 29 65
REMARK SMILES IDX 30 66 38 67 31 68 33 69 39 70 32 71 34 72 35 73 36 74 37 75
REMARK SMILES IDX 61 76 62 77 70 78 63 79 65 80 71 81 64 82 66 83 67 84 68 85
REMARK SMILES IDX 69 86 46 87 47 88 55 89 48 90 50 91 56 92 49 93 51 94 52 95
REMARK SMILES IDX 53 96 54 97
REMARK H PARENT 76 50 44 61
REMARK Flexibility Score: inf
ROOT
ATOM      1  C   UNL A   1      31.390  31.545  26.686  1.00  0.00     0.202 C 
ENDROOT
BRANCH   1   2
ATOM      2  O   UNL A   1      31.682  30.696  25.577  1.00  0.00    -0.374 OA
BRANCH   2   3
ATOM      3  C   UNL A   1      32.873  29.916  25.618  1.00  0.00     0.202 C 
BRANCH   3   4
ATOM      4  C   UNL A   1      33.158  29.124  26.895  1.00  0.00     0.261 C 
BRANCH   4   5
ATOM      5  O   UNL A   1      33.232  27.709  26.675  1.00  0.00    -0.463 OA
BRANCH   5   6
ATOM      6  C   UNL A   1      32.055  27.047  26.785  1.00  0.00     0.312 C 
ATOM      7  O   UNL A   1      31.048  27.470  27.346  1.00  0.00    -0.252 OA
BRANCH   6   8
ATOM      8  C   UNL A   1      32.090  25.670  26.195  1.00  0.00     0.135 C 
ATOM      9  C   UNL A   1      32.373  25.707  24.695  1.00  0.00     0.130 C 
ATOM     10  N   UNL A   1      32.084  24.328  24.332  1.00  0.00    -0.330 N 
ATOM     11  C   UNL A   1      30.877  24.754  26.303  1.00  0.00     0.118 C 
ATOM     12  C   UNL A   1      31.206  23.735  25.230  1.00  0.00     0.224 C 
ATOM     13  O   UNL A   1      30.781  22.590  25.193  1.00  0.00    -0.275 OA
BRANCH   9  14
ATOM     14  C   UNL A   1      31.544  26.738  23.936  1.00  0.00    -0.024 A 
ATOM     15  C   UNL A   1      30.081  28.684  22.502  1.00  0.00     0.118 A 
ATOM     16  C   UNL A   1      31.471  28.632  22.406  1.00  0.00     0.047 A 
ATOM     17  C   UNL A   1      29.421  27.782  23.331  1.00  0.00     0.047 A 
ATOM     18  C   UNL A   1      32.195  27.658  23.098  1.00  0.00     0.010 A 
ATOM     19  C   UNL A   1      30.147  26.827  24.050  1.00  0.00     0.010 A 
BRANCH  15  20
ATOM     20  O   UNL A   1      29.481  29.665  21.764  1.00  0.00    -0.497 OA
ATOM     21  C   UNL A   1      28.072  29.809  21.962  1.00  0.00     0.278 C 
ENDBRANCH  15  20
ENDBRANCH   9  14
BRANCH  10  22
ATOM     22  C   UNL A   1      32.741  23.636  23.229  1.00  0.00     0.155 C 
BRANCH  22  23
ATOM     23  C   UNL A   1      34.040  22.982  23.628  1.00  0.00    -0.029 A 
ATOM     24  C   UNL A   1      35.252  23.671  23.478  1.00  0.00     0.005 A 
ATOM     25  C   UNL A   1      34.047  21.727  24.259  1.00  0.00     0.005 A 
ATOM     26  C   UNL A   1      36.435  23.137  23.989  1.00  0.00     0.000 A 
ATOM     27  C   UNL A   1      35.227  21.210  24.793  1.00  0.00     0.000 A 
ATOM     28  C   UNL A   1      36.418  21.917  24.663  1.00  0.00     0.000 A 
ENDBRANCH  22  23
ENDBRANCH  10  22
ENDBRANCH   6   8
ENDBRANCH   5   6
ENDBRANCH   4   5
ENDBRANCH   3   4
ENDBRANCH   2   3
ENDBRANCH   1   2
BRANCH   1  29
ATOM     29  C   UNL A   1      32.095  32.904  26.772  1.00  0.00     0.261 C 
BRANCH  29  30
ATOM     30  O   UNL A   1      32.631  33.201  28.074  1.00  0.00    -0.460 OA
BRANCH  30  31
ATOM     31  C   UNL A   1      33.786  33.911  28.058  1.00  0.00     0.338 C 
ATOM     32  O   UNL A   1      33.899  35.128  27.962  1.00  0.00    -0.246 OA
BRANCH  31  33
ATOM     33  C   UNL A   1      34.948  33.048  28.325  1.00  0.00     0.060 A 
ATOM     34  C   UNL A   1      34.710  31.781  28.876  1.00  0.00     0.016 A 
ATOM     35  C   UNL A   1      36.252  33.529  28.189  1.00  0.00     0.016 A 
ATOM     36  C   UNL A   1      35.773  31.011  29.344  1.00  0.00     0.010 A 
ATOM     37  C   UNL A   1      37.316  32.755  28.665  1.00  0.00     0.010 A 
ATOM     38  C   UNL A   1      37.079  31.512  29.282  1.00  0.00    -0.014 A 
BRANCH  38  39
ATOM     39  C   UNL A   1      38.180  30.804  29.982  1.00  0.00     0.031 A 
ATOM     40  C   UNL A   1      38.513  31.180  31.401  1.00  0.00     0.074 A 
ATOM     41  C   UNL A   1      38.871  29.828  29.366  1.00  0.00     0.049 A 
ATOM     42  N   UNL A   1      39.467  30.728  32.173  1.00  0.00    -0.248 NA
ATOM     43  C   UNL A   1      37.652  32.191  32.036  1.00  0.00     0.031 C 
ATOM     44  C   UNL A   1      38.617  29.336  28.013  1.00  0.00     0.029 A 
ATOM     45  N   UNL A   1      39.947  29.091  29.798  1.00  0.00    -0.354 N 
ATOM     46  C   UNL A   1      39.332  31.404  33.379  1.00  0.00     0.074 A 
ATOM     47  C   UNL A   1      38.216  32.314  33.230  1.00  0.00     0.031 C 
ATOM     48  C   UNL A   1      39.537  28.403  27.714  1.00  0.00     0.029 A 
ATOM     49  C   UNL A   1      40.466  28.265  28.831  1.00  0.00     0.049 A 
ATOM     50  H   UNL A   1      40.311  29.150  30.711  1.00  0.00     0.167 HD
ATOM     51  C   UNL A   1      40.053  31.264  34.518  1.00  0.00     0.034 A 
ATOM     52  C   UNL A   1      41.581  27.506  28.831  1.00  0.00     0.034 A 
ATOM     53  C   UNL A   1      41.150  30.348  34.673  1.00  0.00     0.049 A 
ATOM     54  C   UNL A   1      42.418  27.431  30.078  1.00  0.00     0.074 A 
ATOM     55  C   UNL A   1      41.922  30.112  35.797  1.00  0.00     0.029 A 
ATOM     56  N   UNL A   1      41.638  29.520  33.674  1.00  0.00    -0.354 N 
ATOM     57  N   UNL A   1      42.218  28.001  31.242  1.00  0.00    -0.248 NA
ATOM     58  C   UNL A   1      43.614  26.577  30.029  1.00  0.00     0.031 C 
ATOM     59  C   UNL A   1      42.890  29.155  35.472  1.00  0.00     0.029 A 
ATOM     60  C   UNL A   1      42.706  28.781  34.151  1.00  0.00     0.049 A 
ATOM     61  H   UNL A   1      41.278  29.467  32.759  1.00  0.00     0.167 HD
ATOM     62  C   UNL A   1      43.227  27.535  32.075  1.00  0.00     0.074 A 
ATOM     63  C   UNL A   1      44.038  26.632  31.285  1.00  0.00     0.031 C 
ATOM     64  C   UNL A   1      43.466  27.835  33.376  1.00  0.00     0.034 A 
BRANCH  51  65
ATOM     65  C   UNL A   1      39.649  32.094  35.707  1.00  0.00     0.023 A 
ATOM     66  C   UNL A   1      40.168  33.396  35.848  1.00  0.00     0.012 A 
ATOM     67  C   UNL A   1      38.714  31.616  36.645  1.00  0.00     0.148 A 
ATOM     68  C   UNL A   1      39.784  34.202  36.918  1.00  0.00     0.002 A 
ATOM     69  C   UNL A   1      38.307  32.438  37.689  1.00  0.00     0.091 A 
ATOM     70  F   UNL A   1      38.250  30.366  36.506  1.00  0.00    -0.205 F 
ATOM     71  C   UNL A   1      38.846  33.727  37.833  1.00  0.00     0.022 A 
BRANCH  69  72
ATOM     72  S   UNL A   1      37.052  31.945  38.876  1.00  0.00     0.127 S 
ATOM     73  O   UNL A   1      37.683  32.315  40.142  1.00  0.00    -0.237 OA
ATOM     74  O   UNL A   1      35.916  32.784  38.494  1.00  0.00    -0.237 OA
ATOM     75  O   UNL A   1      36.848  30.517  38.673  1.00  0.00    -0.744 OA
ENDBRANCH  69  72
ENDBRANCH  51  65
BRANCH  52  76
ATOM     76  C   UNL A   1      41.959  26.740  27.611  1.00  0.00     0.023 A 
ATOM     77  C   UNL A   1      42.566  27.404  26.529  1.00  0.00     0.012 A 
ATOM     78  C   UNL A   1      41.726  25.353  27.523  1.00  0.00     0.148 A 
ATOM     79  C   UNL A   1      42.908  26.707  25.369  1.00  0.00     0.002 A 
ATOM     80  C   UNL A   1      42.115  24.655  26.385  1.00  0.00     0.091 A 
ATOM     81  F   UNL A   1      41.131  24.740  28.555  1.00  0.00    -0.205 F 
ATOM     82  C   UNL A   1      42.692  25.332  25.301  1.00  0.00     0.022 A 
BRANCH  80  83
ATOM     83  S   UNL A   1      41.992  22.867  26.281  1.00  0.00     0.127 S 
ATOM     84  O   UNL A   1      40.548  22.660  26.340  1.00  0.00    -0.237 OA
ATOM     85  O   UNL A   1      42.605  22.591  24.982  1.00  0.00    -0.237 OA
ATOM     86  O   UNL A   1      42.757  22.363  27.415  1.00  0.00    -0.744 OA
ENDBRANCH  80  83
ENDBRANCH  52  76
BRANCH  64  87
ATOM     87  C   UNL A   1      44.619  27.143  34.054  1.00  0.00     0.023 A 
ATOM     88  C   UNL A   1      45.913  27.693  33.971  1.00  0.00     0.012 A 
ATOM     89  C   UNL A   1      44.403  25.993  34.839  1.00  0.00     0.148 A 
ATOM     90  C   UNL A   1      46.981  27.092  34.639  1.00  0.00     0.002 A 
ATOM     91  C   UNL A   1      45.463  25.428  35.538  1.00  0.00     0.091 A 
ATOM     92  F   UNL A   1      43.168  25.474  34.889  1.00  0.00    -0.205 F 
ATOM     93  C   UNL A   1      46.754  25.969  35.430  1.00  0.00     0.022 A 
BRANCH  91  94
ATOM     94  S   UNL A   1      45.247  24.035  36.653  1.00  0.00     0.127 S 
ATOM     95  O   UNL A   1      44.382  24.609  37.683  1.00  0.00    -0.237 OA
ATOM     96  O   UNL A   1      44.599  23.045  35.793  1.00  0.00    -0.237 OA
ATOM     97  O   UNL A   1      46.586  23.666  37.095  1.00  0.00    -0.744 OA
ENDBRANCH  91  94
ENDBRANCH  64  87
ENDBRANCH  38  39
ENDBRANCH  31  33
ENDBRANCH  30  31
ENDBRANCH  29  30
ENDBRANCH   1  29
TORSDOF 21
ENDMDL
MODEL 2
REMARK VINA RESULT:     -11.4      2.085      7.898
REMARK SMILES COc1ccc([C@H]2[C@@H](C(=O)OCCOCCOC(=O)c3ccc(-c4c5nc(c(-c6cccc(S(=O)(=O)[O-])c6F)c6ccc([nH]6)c(-c6cccc(S(=O)(=O)[O-])c6F)c6nc(c(-c7cccc(S(=O)(=O)[O-])c7F)c7ccc4[nH]7)C=C6)C=C5)cc3)CC(=O)N2Cc2ccccc2)cc1
REMARK SMILES IDX 15 1 14 2 13 3 12 4 11 5 9 6 10 7 8 8 7 9 86 10 83 11 84 12
REMARK SMILES IDX 85 13 6 14 3 15 4 16 95 17 5 18 94 19 2 20 1 21 87 22 88 23
REMARK SMILES IDX 89 24 93 25 90 26 92 27 91 28 16 29 17 30 18 31 19 32 20 33
REMARK SMILES IDX 21 34 82 35 22 36 81 37 23 38 24 39 25 40 75 41 26 42 80 43
REMARK SMILES IDX 74 44 76 45 27 46 79 47 73 48 72 49 28 51 60 52 40 53 59 54
REMARK SMILES IDX 41 55 44 56 58 57 77 58 42 59 43 60 57 62 78 63 45 64 29 65
REMARK SMILES IDX 30 66 38 67 31 68 33 69 39 70 32 71 34 72 35 73 36 74 37 75
REMARK SMILES IDX 61 76 62 77 70 78 63 79 65 80 71 81 64 82 66 83 67 84 68 85
REMARK SMILES IDX 69 86 46 87 47 88 55 89 48 90 50 91 56 92 49 93 51 94 52 95
REMARK SMILES IDX 53 96 54 97
REMARK H PARENT 76 50 44 61
REMARK Flexibility Score: inf
ROOT
ATOM      1  C   UNL A   1      31.728  31.404  26.498  1.00  0.00     0.202 C 
ENDROOT
BRANCH   1   2
ATOM      2  O   UNL A   1      30.825  31.136  25.425  1.00  0.00    -0.374 OA
BRANCH   2   3
ATOM      3  C   UNL A   1      31.001  29.938  24.677  1.00  0.00     0.202 C 
BRANCH   3   4
ATOM      4  C   UNL A   1      30.055  29.691  23.501  1.00  0.00     0.261 C 
BRANCH   4   5
ATOM      5  O   UNL A   1      30.453  28.582  22.683  1.00  0.00    -0.463 OA
BRANCH   5   6
ATOM      6  C   UNL A   1      29.890  27.394  23.012  1.00  0.00     0.312 C 
ATOM      7  O   UNL A   1      28.867  27.248  23.676  1.00  0.00    -0.252 OA
BRANCH   6   8
ATOM      8  C   UNL A   1      30.675  26.211  22.532  1.00  0.00     0.135 C 
ATOM      9  C   UNL A   1      31.247  25.405  23.695  1.00  0.00     0.130 C 
ATOM     10  N   UNL A   1      32.160  24.521  22.987  1.00  0.00    -0.330 N 
ATOM     11  C   UNL A   1      31.875  26.405  21.613  1.00  0.00     0.118 C 
ATOM     12  C   UNL A   1      32.565  25.065  21.775  1.00  0.00     0.224 C 
ATOM     13  O   UNL A   1      33.322  24.560  20.961  1.00  0.00    -0.275 OA
BRANCH   9  14
ATOM     14  C   UNL A   1      31.914  26.259  24.768  1.00  0.00    -0.024 A 
ATOM     15  C   UNL A   1      33.222  27.843  26.709  1.00  0.00     0.118 A 
ATOM     16  C   UNL A   1      33.851  27.541  25.502  1.00  0.00     0.047 A 
ATOM     17  C   UNL A   1      31.950  27.336  26.959  1.00  0.00     0.047 A 
ATOM     18  C   UNL A   1      33.199  26.775  24.533  1.00  0.00     0.010 A 
ATOM     19  C   UNL A   1      31.309  26.542  26.003  1.00  0.00     0.010 A 
BRANCH  15  20
ATOM     20  O   UNL A   1      33.948  28.617  27.569  1.00  0.00    -0.497 OA
ATOM     21  C   UNL A   1      34.929  29.461  26.960  1.00  0.00     0.278 C 
ENDBRANCH  15  20
ENDBRANCH   9  14
BRANCH  10  22
ATOM     22  C   UNL A   1      32.496  23.180  23.451  1.00  0.00     0.155 C 
BRANCH  22  23
ATOM     23  C   UNL A   1      33.719  23.145  24.332  1.00  0.00    -0.029 A 
ATOM     24  C   UNL A   1      34.999  23.220  23.766  1.00  0.00     0.005 A 
ATOM     25  C   UNL A   1      33.595  23.155  25.732  1.00  0.00     0.005 A 
ATOM     26  C   UNL A   1      36.125  23.348  24.581  1.00  0.00     0.000 A 
ATOM     27  C   UNL A   1      34.720  23.312  26.541  1.00  0.00     0.000 A 
ATOM     28  C   UNL A   1      35.983  23.414  25.966  1.00  0.00     0.000 A 
ENDBRANCH  22  23
ENDBRANCH  10  22
ENDBRANCH   6   8
ENDBRANCH   5   6
ENDBRANCH   4   5
ENDBRANCH   3   4
ENDBRANCH   2   3
ENDBRANCH   1   2
BRANCH   1  29
ATOM     29  C   UNL A   1      31.899  32.856  26.963  1.00  0.00     0.261 C 
BRANCH  29  30
ATOM     30  O   UNL A   1      33.223  33.164  27.436  1.00  0.00    -0.460 OA
BRANCH  30  31
ATOM     31  C   UNL A   1      33.272  34.144  28.371  1.00  0.00     0.338 C 
ATOM     32  O   UNL A   1      32.464  35.054  28.524  1.00  0.00    -0.246 OA
BRANCH  31  33
ATOM     33  C   UNL A   1      34.366  33.916  29.328  1.00  0.00     0.060 A 
ATOM     34  C   UNL A   1      35.654  34.330  28.961  1.00  0.00     0.016 A 
ATOM     35  C   UNL A   1      34.165  33.170  30.491  1.00  0.00     0.016 A 
ATOM     36  C   UNL A   1      36.755  33.952  29.728  1.00  0.00     0.010 A 
ATOM     37  C   UNL A   1      35.273  32.789  31.256  1.00  0.00     0.010 A 
ATOM     38  C   UNL A   1      36.576  33.142  30.856  1.00  0.00    -0.014 A 
BRANCH  38  39
ATOM     39  C   UNL A   1      37.753  32.549  31.538  1.00  0.00     0.031 A 
ATOM     40  C   UNL A   1      38.455  31.376  30.911  1.00  0.00     0.074 A 
ATOM     41  C   UNL A   1      38.200  33.056  32.701  1.00  0.00     0.049 A 
ATOM     42  N   UNL A   1      39.463  30.676  31.365  1.00  0.00    -0.248 NA
ATOM     43  C   UNL A   1      37.963  30.938  29.594  1.00  0.00     0.031 C 
ATOM     44  C   UNL A   1      37.641  34.218  33.389  1.00  0.00     0.029 A 
ATOM     45  N   UNL A   1      39.221  32.636  33.520  1.00  0.00    -0.354 N 
ATOM     46  C   UNL A   1      39.721  29.711  30.400  1.00  0.00     0.074 A 
ATOM     47  C   UNL A   1      38.749  29.899  29.344  1.00  0.00     0.031 C 
ATOM     48  C   UNL A   1      38.303  34.397  34.544  1.00  0.00     0.029 A 
ATOM     49  C   UNL A   1      39.299  33.340  34.698  1.00  0.00     0.049 A 
ATOM     50  H   UNL A   1      39.835  31.904  33.286  1.00  0.00     0.167 HD
ATOM     51  C   UNL A   1      40.694  28.768  30.380  1.00  0.00     0.034 A 
ATOM     52  C   UNL A   1      40.062  33.139  35.791  1.00  0.00     0.034 A 
ATOM     53  C   UNL A   1      41.670  28.590  31.419  1.00  0.00     0.049 A 
ATOM     54  C   UNL A   1      41.078  32.029  35.784  1.00  0.00     0.074 A 
ATOM     55  C   UNL A   1      42.714  27.683  31.474  1.00  0.00     0.029 A 
ATOM     56  N   UNL A   1      41.723  29.329  32.591  1.00  0.00    -0.354 N 
ATOM     57  N   UNL A   1      41.375  31.189  34.822  1.00  0.00    -0.248 NA
ATOM     58  C   UNL A   1      41.894  31.864  36.995  1.00  0.00     0.031 C 
ATOM     59  C   UNL A   1      43.385  27.860  32.689  1.00  0.00     0.029 A 
ATOM     60  C   UNL A   1      42.773  28.893  33.380  1.00  0.00     0.049 A 
ATOM     61  H   UNL A   1      41.104  30.058  32.827  1.00  0.00     0.167 HD
ATOM     62  C   UNL A   1      42.442  30.433  35.290  1.00  0.00     0.074 A 
ATOM     63  C   UNL A   1      42.745  30.917  36.622  1.00  0.00     0.031 C 
ATOM     64  C   UNL A   1      43.108  29.425  34.675  1.00  0.00     0.034 A 
BRANCH  51  65
ATOM     65  C   UNL A   1      40.777  27.877  29.169  1.00  0.00     0.023 A 
ATOM     66  C   UNL A   1      39.946  26.742  29.088  1.00  0.00     0.012 A 
ATOM     67  C   UNL A   1      41.626  28.192  28.090  1.00  0.00     0.148 A 
ATOM     68  C   UNL A   1      39.975  25.919  27.964  1.00  0.00     0.002 A 
ATOM     69  C   UNL A   1      41.622  27.389  26.956  1.00  0.00     0.091 A 
ATOM     70  F   UNL A   1      42.425  29.263  28.196  1.00  0.00    -0.205 F 
ATOM     71  C   UNL A   1      40.804  26.248  26.894  1.00  0.00     0.022 A 
BRANCH  69  72
ATOM     72  S   UNL A   1      42.601  27.767  25.498  1.00  0.00     0.127 S 
ATOM     73  O   UNL A   1      42.354  26.593  24.664  1.00  0.00    -0.237 OA
ATOM     74  O   UNL A   1      41.976  29.000  25.017  1.00  0.00    -0.237 OA
ATOM     75  O   UNL A   1      43.971  27.925  25.967  1.00  0.00    -0.744 OA
ENDBRANCH  69  72
ENDBRANCH  51  65
BRANCH  52  76
ATOM     76  C   UNL A   1      39.906  34.022  36.980  1.00  0.00     0.023 A 
ATOM     77  C   UNL A   1      40.414  35.334  36.946  1.00  0.00     0.012 A 
ATOM     78  C   UNL A   1      39.250  33.570  38.142  1.00  0.00     0.148 A 
ATOM     79  C   UNL A   1      40.297  36.171  38.058  1.00  0.00     0.002 A 
ATOM     80  C   UNL A   1      39.092  34.425  39.227  1.00  0.00     0.091 A 
ATOM     81  F   UNL A   1      38.788  32.312  38.163  1.00  0.00    -0.205 F 
ATOM     82  C   UNL A   1      39.627  35.720  39.193  1.00  0.00     0.022 A 
BRANCH  80  83
ATOM     83  S   UNL A   1      38.126  33.959  40.667  1.00  0.00     0.127 S 
ATOM     84  O   UNL A   1      37.891  35.250  41.305  1.00  0.00    -0.237 OA
ATOM     85  O   UNL A   1      36.946  33.343  40.061  1.00  0.00    -0.237 OA
ATOM     86  O   UNL A   1      38.966  33.023  41.406  1.00  0.00    -0.744 OA
ENDBRANCH  80  83
ENDBRANCH  52  76
BRANCH  64  87
ATOM     87  C   UNL A   1      44.268  28.802  35.406  1.00  0.00     0.023 A 
ATOM     88  C   UNL A   1      45.559  29.347  35.265  1.00  0.00     0.012 A 
ATOM     89  C   UNL A   1      44.062  27.728  36.295  1.00  0.00     0.148 A 
ATOM     90  C   UNL A   1      46.634  28.814  35.977  1.00  0.00     0.002 A 
ATOM     91  C   UNL A   1      45.128  27.232  37.034  1.00  0.00     0.091 A 
ATOM     92  F   UNL A   1      42.829  27.211  36.399  1.00  0.00    -0.205 F 
ATOM     93  C   UNL A   1      46.417  27.766  36.869  1.00  0.00     0.022 A 
BRANCH  91  94
ATOM     94  S   UNL A   1      44.926  25.947  38.274  1.00  0.00     0.127 S 
ATOM     95  O   UNL A   1      46.200  26.016  38.987  1.00  0.00    -0.237 OA
ATOM     96  O   UNL A   1      43.773  26.429  39.036  1.00  0.00    -0.237 OA
ATOM     97  O   UNL A   1      44.687  24.713  37.536  1.00  0.00    -0.744 OA
ENDBRANCH  91  94
ENDBRANCH  64  87
ENDBRANCH  38  39
ENDBRANCH  31  33
ENDBRANCH  30  31
ENDBRANCH  29  30
ENDBRANCH   1  29
TORSDOF 21
ENDMDL
MODEL 3
REMARK VINA RESULT:     -11.2      4.981     10.651
REMARK SMILES COc1ccc([C@H]2[C@@H](C(=O)OCCOCCOC(=O)c3ccc(-c4c5nc(c(-c6cccc(S(=O)(=O)[O-])c6F)c6ccc([nH]6)c(-c6cccc(S(=O)(=O)[O-])c6F)c6nc(c(-c7cccc(S(=O)(=O)[O-])c7F)c7ccc4[nH]7)C=C6)C=C5)cc3)CC(=O)N2Cc2ccccc2)cc1
REMARK SMILES IDX 15 1 14 2 13 3 12 4 11 5 9 6 10 7 8 8 7 9 86 10 83 11 84 12
REMARK SMILES IDX 85 13 6 14 3 15 4 16 95 17 5 18 94 19 2 20 1 21 87 22 88 23
REMARK SMILES IDX 89 24 93 25 90 26 92 27 91 28 16 29 17 30 18 31 19 32 20 33
REMARK SMILES IDX 21 34 82 35 22 36 81 37 23 38 24 39 25 40 75 41 26 42 80 43
REMARK SMILES IDX 74 44 76 45 27 46 79 47 73 48 72 49 28 51 60 52 40 53 59 54
REMARK SMILES IDX 41 55 44 56 58 57 77 58 42 59 43 60 57 62 78 63 45 64 29 65
REMARK SMILES IDX 30 66 38 67 31 68 33 69 39 70 32 71 34 72 35 73 36 74 37 75
REMARK SMILES IDX 61 76 62 77 70 78 63 79 65 80 71 81 64 82 66 83 67 84 68 85
REMARK SMILES IDX 69 86 46 87 47 88 55 89 48 90 50 91 56 92 49 93 51 94 52 95
REMARK SMILES IDX 53 96 54 97
REMARK H PARENT 76 50 44 61
REMARK Flexibility Score: inf
ROOT
ATOM      1  C   UNL A   1      37.811  20.074  24.624  1.00  0.00     0.202 C 
ENDROOT
BRANCH   1   2
ATOM      2  O   UNL A   1      36.748  20.709  25.334  1.00  0.00    -0.374 OA
BRANCH   2   3
ATOM      3  C   UNL A   1      35.408  20.366  24.994  1.00  0.00     0.202 C 
BRANCH   3   4
ATOM      4  C   UNL A   1      34.375  21.493  24.962  1.00  0.00     0.261 C 
BRANCH   4   5
ATOM      5  O   UNL A   1      34.418  22.261  23.752  1.00  0.00    -0.463 OA
BRANCH   5   6
ATOM      6  C   UNL A   1      34.978  23.490  23.870  1.00  0.00     0.312 C 
ATOM      7  O   UNL A   1      35.881  23.791  24.646  1.00  0.00    -0.252 OA
BRANCH   6   8
ATOM      8  C   UNL A   1      34.346  24.519  22.983  1.00  0.00     0.135 C 
ATOM      9  C   UNL A   1      33.471  25.486  23.775  1.00  0.00     0.130 C 
ATOM     10  N   UNL A   1      32.782  26.173  22.694  1.00  0.00    -0.330 N 
ATOM     11  C   UNL A   1      33.448  24.093  21.828  1.00  0.00     0.118 C 
ATOM     12  C   UNL A   1      32.729  25.398  21.544  1.00  0.00     0.224 C 
ATOM     13  O   UNL A   1      32.222  25.703  20.475  1.00  0.00    -0.275 OA
BRANCH   9  14
ATOM     14  C   UNL A   1      32.540  24.801  24.771  1.00  0.00    -0.024 A 
ATOM     15  C   UNL A   1      30.862  23.565  26.679  1.00  0.00     0.118 A 
ATOM     16  C   UNL A   1      31.876  24.432  27.085  1.00  0.00     0.047 A 
ATOM     17  C   UNL A   1      30.699  23.295  25.324  1.00  0.00     0.047 A 
ATOM     18  C   UNL A   1      32.694  25.060  26.143  1.00  0.00     0.010 A 
ATOM     19  C   UNL A   1      31.538  23.898  24.381  1.00  0.00     0.010 A 
BRANCH  15  20
ATOM     20  O   UNL A   1      30.114  23.028  27.689  1.00  0.00    -0.497 OA
ATOM     21  C   UNL A   1      28.924  22.349  27.278  1.00  0.00     0.278 C 
ENDBRANCH  15  20
ENDBRANCH   9  14
BRANCH  10  22
ATOM     22  C   UNL A   1      32.320  27.554  22.789  1.00  0.00     0.155 C 
BRANCH  22  23
ATOM     23  C   UNL A   1      30.819  27.676  22.854  1.00  0.00    -0.029 A 
ATOM     24  C   UNL A   1      30.057  26.683  23.485  1.00  0.00     0.005 A 
ATOM     25  C   UNL A   1      30.173  28.834  22.389  1.00  0.00     0.005 A 
ATOM     26  C   UNL A   1      28.688  26.867  23.687  1.00  0.00     0.000 A 
ATOM     27  C   UNL A   1      28.811  29.025  22.618  1.00  0.00     0.000 A 
ATOM     28  C   UNL A   1      28.071  28.045  23.272  1.00  0.00     0.000 A 
ENDBRANCH  22  23
ENDBRANCH  10  22
ENDBRANCH   6   8
ENDBRANCH   5   6
ENDBRANCH   4   5
ENDBRANCH   3   4
ENDBRANCH   2   3
ENDBRANCH   1   2
BRANCH   1  29
ATOM     29  C   UNL A   1      38.842  19.267  25.422  1.00  0.00     0.261 C 
BRANCH  29  30
ATOM     30  O   UNL A   1      39.300  19.925  26.617  1.00  0.00    -0.460 OA
BRANCH  30  31
ATOM     31  C   UNL A   1      40.590  20.338  26.572  1.00  0.00     0.338 C 
ATOM     32  O   UNL A   1      41.530  19.753  26.046  1.00  0.00    -0.246 OA
BRANCH  31  33
ATOM     33  C   UNL A   1      40.735  21.698  27.117  1.00  0.00     0.060 A 
ATOM     34  C   UNL A   1      40.033  22.734  26.487  1.00  0.00     0.016 A 
ATOM     35  C   UNL A   1      41.662  21.977  28.123  1.00  0.00     0.016 A 
ATOM     36  C   UNL A   1      40.295  24.061  26.823  1.00  0.00     0.010 A 
ATOM     37  C   UNL A   1      41.927  23.311  28.453  1.00  0.00     0.010 A 
ATOM     38  C   UNL A   1      41.275  24.360  27.777  1.00  0.00    -0.014 A 
BRANCH  38  39
ATOM     39  C   UNL A   1      41.720  25.763  27.971  1.00  0.00     0.031 A 
ATOM     40  C   UNL A   1      43.105  26.163  27.543  1.00  0.00     0.074 A 
ATOM     41  C   UNL A   1      40.895  26.676  28.514  1.00  0.00     0.049 A 
ATOM     42  N   UNL A   1      43.710  27.316  27.671  1.00  0.00    -0.248 NA
ATOM     43  C   UNL A   1      43.914  25.131  26.873  1.00  0.00     0.031 C 
ATOM     44  C   UNL A   1      39.514  26.430  28.926  1.00  0.00     0.029 A 
ATOM     45  N   UNL A   1      41.114  27.995  28.832  1.00  0.00    -0.354 N 
ATOM     46  C   UNL A   1      44.970  27.149  27.111  1.00  0.00     0.074 A 
ATOM     47  C   UNL A   1      45.053  25.776  26.661  1.00  0.00     0.031 C 
ATOM     48  C   UNL A   1      39.021  27.553  29.475  1.00  0.00     0.029 A 
ATOM     49  C   UNL A   1      40.060  28.578  29.494  1.00  0.00     0.049 A 
ATOM     50  H   UNL A   1      41.943  28.474  28.607  1.00  0.00     0.167 HD
ATOM     51  C   UNL A   1      45.961  28.061  26.960  1.00  0.00     0.034 A 
ATOM     52  C   UNL A   1      39.954  29.788  30.079  1.00  0.00     0.034 A 
ATOM     53  C   UNL A   1      45.873  29.429  27.391  1.00  0.00     0.049 A 
ATOM     54  C   UNL A   1      41.100  30.757  29.976  1.00  0.00     0.074 A 
ATOM     55  C   UNL A   1      46.813  30.437  27.255  1.00  0.00     0.029 A 
ATOM     56  N   UNL A   1      44.786  29.985  28.049  1.00  0.00    -0.354 N 
ATOM     57  N   UNL A   1      42.246  30.616  29.356  1.00  0.00    -0.248 NA
ATOM     58  C   UNL A   1      40.925  32.068  30.618  1.00  0.00     0.031 C 
ATOM     59  C   UNL A   1      46.301  31.596  27.848  1.00  0.00     0.029 A 
ATOM     60  C   UNL A   1      45.034  31.316  28.334  1.00  0.00     0.049 A 
ATOM     61  H   UNL A   1      43.959  29.503  28.278  1.00  0.00     0.167 HD
ATOM     62  C   UNL A   1      42.905  31.832  29.487  1.00  0.00     0.074 A 
ATOM     63  C   UNL A   1      42.028  32.703  30.243  1.00  0.00     0.031 C 
ATOM     64  C   UNL A   1      44.129  32.194  29.028  1.00  0.00     0.034 A 
BRANCH  51  65
ATOM     65  C   UNL A   1      47.217  27.617  26.260  1.00  0.00     0.023 A 
ATOM     66  C   UNL A   1      48.225  26.965  26.997  1.00  0.00     0.012 A 
ATOM     67  C   UNL A   1      47.376  27.787  24.871  1.00  0.00     0.148 A 
ATOM     68  C   UNL A   1      49.383  26.510  26.369  1.00  0.00     0.002 A 
ATOM     69  C   UNL A   1      48.515  27.298  24.244  1.00  0.00     0.091 A 
ATOM     70  F   UNL A   1      46.415  28.431  24.192  1.00  0.00    -0.205 F 
ATOM     71  C   UNL A   1      49.524  26.667  24.992  1.00  0.00     0.022 A 
BRANCH  69  72
ATOM     72  S   UNL A   1      48.757  27.388  22.467  1.00  0.00     0.127 S 
ATOM     73  O   UNL A   1      47.770  28.397  22.086  1.00  0.00    -0.237 OA
ATOM     74  O   UNL A   1      50.149  27.828  22.365  1.00  0.00    -0.237 OA
ATOM     75  O   UNL A   1      48.508  26.045  21.960  1.00  0.00    -0.744 OA
ENDBRANCH  69  72
ENDBRANCH  51  65
BRANCH  52  76
ATOM     76  C   UNL A   1      38.704  30.159  30.799  1.00  0.00     0.023 A 
ATOM     77  C   UNL A   1      38.523  29.758  32.135  1.00  0.00     0.012 A 
ATOM     78  C   UNL A   1      37.698  30.915  30.166  1.00  0.00     0.148 A 
ATOM     79  C   UNL A   1      37.348  30.077  32.820  1.00  0.00     0.002 A 
ATOM     80  C   UNL A   1      36.553  31.274  30.870  1.00  0.00     0.091 A 
ATOM     81  F   UNL A   1      37.879  31.274  28.887  1.00  0.00    -0.205 F 
ATOM     82  C   UNL A   1      36.369  30.844  32.191  1.00  0.00     0.022 A 
BRANCH  80  83
ATOM     83  S   UNL A   1      35.314  32.369  30.169  1.00  0.00     0.127 S 
ATOM     84  O   UNL A   1      34.384  32.524  31.282  1.00  0.00    -0.237 OA
ATOM     85  O   UNL A   1      36.102  33.560  29.849  1.00  0.00    -0.237 OA
ATOM     86  O   UNL A   1      34.801  31.668  28.998  1.00  0.00    -0.744 OA
ENDBRANCH  80  83
ENDBRANCH  52  76
BRANCH  64  87
ATOM     87  C   UNL A   1      44.582  33.607  29.279  1.00  0.00     0.023 A 
ATOM     88  C   UNL A   1      45.398  33.895  30.391  1.00  0.00     0.012 A 
ATOM     89  C   UNL A   1      44.264  34.635  28.368  1.00  0.00     0.148 A 
ATOM     90  C   UNL A   1      45.869  35.191  30.606  1.00  0.00     0.002 A 
ATOM     91  C   UNL A   1      44.774  35.912  28.565  1.00  0.00     0.091 A 
ATOM     92  F   UNL A   1      43.469  34.344  27.328  1.00  0.00    -0.205 F 
ATOM     93  C   UNL A   1      45.568  36.194  29.689  1.00  0.00     0.022 A 
BRANCH  91  94
ATOM     94  S   UNL A   1      44.515  37.244  27.387  1.00  0.00     0.127 S 
ATOM     95  O   UNL A   1      44.472  38.413  28.264  1.00  0.00    -0.237 OA
ATOM     96  O   UNL A   1      45.710  37.154  26.547  1.00  0.00    -0.237 OA
ATOM     97  O   UNL A   1      43.269  36.932  26.698  1.00  0.00    -0.744 OA
ENDBRANCH  91  94
ENDBRANCH  64  87
ENDBRANCH  38  39
ENDBRANCH  31  33
ENDBRANCH  30  31
ENDBRANCH  29  30
ENDBRANCH   1  29
TORSDOF 21
ENDMDL
