MODEL 1
REMARK VINA RESULT:     -11.2      0.000      0.000
REMARK SMILES C[C@@H](C(=O)OCCOCCOC(=O)c1ccc(-c2c3nc(c(-c4cccc(S(=O)(=O)[O-])c4F)c4ccc([nH]4)c(-c4cccc(S(=O)(=O)[O-])c4F)c4nc(c(-c5cccc(S(=O)(=O)[O-])c5F)c5ccc2[nH]5)C=C4)C=C3)cc1)c1cc(C(=O)c2ccccc2)ccc1O
REMARK SMILES IDX 8 1 7 2 6 3 5 4 3 5 4 6 2 7 1 8 77 9 78 10 90 11 79 12 89 13
REMARK SMILES IDX 88 14 91 15 80 17 81 18 82 19 83 20 87 21 84 22 86 23 85 24
REMARK SMILES IDX 9 25 10 26 11 27 12 28 13 29 14 30 15 31 76 32 16 33 75 34
REMARK SMILES IDX 17 35 18 36 19 37 69 38 20 39 74 40 68 41 70 42 21 43 73 44
REMARK SMILES IDX 67 45 66 46 22 48 54 49 34 50 53 51 35 52 38 53 52 54 71 55
REMARK SMILES IDX 36 56 37 57 51 59 72 60 39 61 23 62 24 63 32 64 25 65 27 66
REMARK SMILES IDX 33 67 26 68 28 69 29 70 30 71 31 72 55 73 56 74 64 75 57 76
REMARK SMILES IDX 59 77 65 78 58 79 60 80 61 81 62 82 63 83 40 84 41 85 49 86
REMARK SMILES IDX 42 87 44 88 50 89 43 90 45 91 46 92 47 93 48 94
REMARK H PARENT 91 16 70 47 38 58
REMARK Flexibility Score: inf
ROOT
ATOM      1  O   UNL A   1      32.168  30.353  27.327  1.00  0.00    -0.374 OA
ENDROOT
BRANCH   1   2
ATOM      2  C   UNL A   1      32.178  29.014  26.831  1.00  0.00     0.202 C 
BRANCH   2   3
ATOM      3  C   UNL A   1      33.549  28.391  26.547  1.00  0.00     0.261 C 
BRANCH   3   4
ATOM      4  O   UNL A   1      34.054  28.798  25.266  1.00  0.00    -0.463 OA
BRANCH   4   5
ATOM      5  C   UNL A   1      33.306  28.434  24.196  1.00  0.00     0.313 C 
ATOM      6  O   UNL A   1      32.718  29.222  23.454  1.00  0.00    -0.252 OA
BRANCH   5   7
ATOM      7  C   UNL A   1      33.397  26.949  23.866  1.00  0.00     0.130 C 
ATOM      8  C   UNL A   1      33.502  26.739  22.344  1.00  0.00     0.025 C 
BRANCH   7   9
ATOM      9  C   UNL A   1      32.342  26.066  24.563  1.00  0.00     0.009 A 
ATOM     10  C   UNL A   1      32.773  24.874  25.199  1.00  0.00     0.020 A 
ATOM     11  C   UNL A   1      30.975  26.372  24.691  1.00  0.00     0.119 A 
ATOM     12  C   UNL A   1      31.892  24.021  25.897  1.00  0.00     0.023 A 
ATOM     13  C   UNL A   1      30.093  25.526  25.373  1.00  0.00     0.047 A 
ATOM     14  C   UNL A   1      30.546  24.366  25.991  1.00  0.00     0.016 A 
BRANCH  11  15
ATOM     15  O   UNL A   1      30.356  27.485  24.200  1.00  0.00    -0.508 OA
ATOM     16  H   UNL A   1      30.420  27.693  23.289  1.00  0.00     0.293 HD
ENDBRANCH  11  15
BRANCH  12  17
ATOM     17  C   UNL A   1      32.447  22.808  26.571  1.00  0.00     0.193 C 
ATOM     18  O   UNL A   1      32.453  22.729  27.796  1.00  0.00    -0.289 OA
BRANCH  17  19
ATOM     19  C   UNL A   1      32.950  21.651  25.793  1.00  0.00     0.022 A 
ATOM     20  C   UNL A   1      34.333  21.449  25.723  1.00  0.00     0.012 A 
ATOM     21  C   UNL A   1      32.077  20.780  25.132  1.00  0.00     0.012 A 
ATOM     22  C   UNL A   1      34.839  20.346  25.037  1.00  0.00     0.001 A 
ATOM     23  C   UNL A   1      32.590  19.676  24.448  1.00  0.00     0.001 A 
ATOM     24  C   UNL A   1      33.968  19.455  24.409  1.00  0.00     0.000 A 
ENDBRANCH  17  19
ENDBRANCH  12  17
ENDBRANCH   7   9
ENDBRANCH   5   7
ENDBRANCH   4   5
ENDBRANCH   3   4
ENDBRANCH   2   3
ENDBRANCH   1   2
BRANCH   1  25
ATOM     25  C   UNL A   1      31.732  31.386  26.440  1.00  0.00     0.202 C 
BRANCH  25  26
ATOM     26  C   UNL A   1      31.997  32.836  26.870  1.00  0.00     0.261 C 
BRANCH  26  27
ATOM     27  O   UNL A   1      32.782  32.928  28.075  1.00  0.00    -0.460 OA
BRANCH  27  28
ATOM     28  C   UNL A   1      33.886  33.709  27.971  1.00  0.00     0.338 C 
ATOM     29  O   UNL A   1      33.917  34.921  27.806  1.00  0.00    -0.246 OA
BRANCH  28  30
ATOM     30  C   UNL A   1      35.102  32.929  28.266  1.00  0.00     0.060 A 
ATOM     31  C   UNL A   1      34.932  31.620  28.737  1.00  0.00     0.016 A 
ATOM     32  C   UNL A   1      36.375  33.496  28.191  1.00  0.00     0.016 A 
ATOM     33  C   UNL A   1      36.031  30.889  29.181  1.00  0.00     0.010 A 
ATOM     34  C   UNL A   1      37.477  32.762  28.646  1.00  0.00     0.010 A 
ATOM     35  C   UNL A   1      37.305  31.471  29.179  1.00  0.00    -0.014 A 
BRANCH  35  36
ATOM     36  C   UNL A   1      38.425  30.779  29.862  1.00  0.00     0.031 A 
ATOM     37  C   UNL A   1      38.762  31.151  31.281  1.00  0.00     0.074 A 
ATOM     38  C   UNL A   1      39.127  29.819  29.233  1.00  0.00     0.049 A 
ATOM     39  N   UNL A   1      39.695  30.673  32.063  1.00  0.00    -0.248 NA
ATOM     40  C   UNL A   1      37.939  32.204  31.899  1.00  0.00     0.031 C 
ATOM     41  C   UNL A   1      38.897  29.369  27.862  1.00  0.00     0.029 A 
ATOM     42  N   UNL A   1      40.191  29.066  29.664  1.00  0.00    -0.354 N 
ATOM     43  C   UNL A   1      39.586  31.377  33.256  1.00  0.00     0.074 A 
ATOM     44  C   UNL A   1      38.506  32.326  33.092  1.00  0.00     0.031 C 
ATOM     45  C   UNL A   1      39.815  28.438  27.550  1.00  0.00     0.029 A 
ATOM     46  C   UNL A   1      40.705  28.238  28.693  1.00  0.00     0.049 A 
ATOM     47  H   UNL A   1      40.551  29.115  30.578  1.00  0.00     0.167 HD
ATOM     48  C   UNL A   1      40.305  31.233  34.396  1.00  0.00     0.034 A 
ATOM     49  C   UNL A   1      41.779  27.424  28.721  1.00  0.00     0.034 A 
ATOM     50  C   UNL A   1      41.365  30.277  34.568  1.00  0.00     0.049 A 
ATOM     51  C   UNL A   1      42.575  27.294  29.994  1.00  0.00     0.074 A 
ATOM     52  C   UNL A   1      42.122  30.026  35.698  1.00  0.00     0.029 A 
ATOM     53  N   UNL A   1      41.827  29.422  33.579  1.00  0.00    -0.354 N 
ATOM     54  N   UNL A   1      42.378  27.873  31.153  1.00  0.00    -0.248 NA
ATOM     55  C   UNL A   1      43.722  26.373  29.972  1.00  0.00     0.031 C 
ATOM     56  C   UNL A   1      43.055  29.030  35.387  1.00  0.00     0.029 A 
ATOM     57  C   UNL A   1      42.866  28.649  34.069  1.00  0.00     0.049 A 
ATOM     58  H   UNL A   1      41.469  29.373  32.664  1.00  0.00     0.167 HD
ATOM     59  C   UNL A   1      43.351  27.363  32.007  1.00  0.00     0.074 A 
ATOM     60  C   UNL A   1      44.126  26.414  31.235  1.00  0.00     0.031 C 
ATOM     61  C   UNL A   1      43.593  27.667  33.306  1.00  0.00     0.034 A 
BRANCH  48  62
ATOM     62  C   UNL A   1      39.939  32.109  35.563  1.00  0.00     0.023 A 
ATOM     63  C   UNL A   1      40.599  33.343  35.736  1.00  0.00     0.012 A 
ATOM     64  C   UNL A   1      38.915  31.742  36.457  1.00  0.00     0.148 A 
ATOM     65  C   UNL A   1      40.267  34.184  36.798  1.00  0.00     0.002 A 
ATOM     66  C   UNL A   1      38.563  32.602  37.490  1.00  0.00     0.091 A 
ATOM     67  F   UNL A   1      38.317  30.553  36.291  1.00  0.00    -0.205 F 
ATOM     68  C   UNL A   1      39.243  33.818  37.668  1.00  0.00     0.022 A 
BRANCH  66  69
ATOM     69  S   UNL A   1      37.210  32.250  38.620  1.00  0.00     0.127 S 
ATOM     70  O   UNL A   1      37.702  32.845  39.862  1.00  0.00    -0.237 OA
ATOM     71  O   UNL A   1      36.094  32.966  38.001  1.00  0.00    -0.237 OA
ATOM     72  O   UNL A   1      37.068  30.801  38.630  1.00  0.00    -0.744 OA
ENDBRANCH  66  69
ENDBRANCH  48  62
BRANCH  49  73
ATOM     73  C   UNL A   1      42.140  26.635  27.510  1.00  0.00     0.023 A 
ATOM     74  C   UNL A   1      42.790  27.271  26.434  1.00  0.00     0.012 A 
ATOM     75  C   UNL A   1      41.869  25.255  27.431  1.00  0.00     0.148 A 
ATOM     76  C   UNL A   1      43.142  26.549  25.291  1.00  0.00     0.002 A 
ATOM     77  C   UNL A   1      42.271  24.533  26.314  1.00  0.00     0.091 A 
ATOM     78  F   UNL A   1      41.231  24.674  28.456  1.00  0.00    -0.205 F 
ATOM     79  C   UNL A   1      42.894  25.181  25.236  1.00  0.00     0.022 A 
BRANCH  77  80
ATOM     80  S   UNL A   1      42.109  22.746  26.218  1.00  0.00     0.127 S 
ATOM     81  O   UNL A   1      42.843  22.315  27.405  1.00  0.00    -0.237 OA
ATOM     82  O   UNL A   1      40.658  22.568  26.291  1.00  0.00    -0.237 OA
ATOM     83  O   UNL A   1      42.694  22.370  24.938  1.00  0.00    -0.744 OA
ENDBRANCH  77  80
ENDBRANCH  49  73
BRANCH  61  84
ATOM     84  C   UNL A   1      44.725  26.950  33.996  1.00  0.00     0.023 A 
ATOM     85  C   UNL A   1      46.024  27.491  33.947  1.00  0.00     0.012 A 
ATOM     86  C   UNL A   1      44.488  25.789  34.759  1.00  0.00     0.148 A 
ATOM     87  C   UNL A   1      47.075  26.874  34.625  1.00  0.00     0.002 A 
ATOM     88  C   UNL A   1      45.531  25.205  35.468  1.00  0.00     0.091 A 
ATOM     89  F   UNL A   1      43.248  25.278  34.778  1.00  0.00    -0.205 F 
ATOM     90  C   UNL A   1      46.827  25.739  35.394  1.00  0.00     0.022 A 
BRANCH  88  91
ATOM     91  S   UNL A   1      45.281  23.797  36.556  1.00  0.00     0.127 S 
ATOM     92  O   UNL A   1      46.657  23.423  36.880  1.00  0.00    -0.237 OA
ATOM     93  O   UNL A   1      44.534  24.388  37.667  1.00  0.00    -0.237 OA
ATOM     94  O   UNL A   1      44.532  22.820  35.778  1.00  0.00    -0.744 OA
ENDBRANCH  88  91
ENDBRANCH  61  84
ENDBRANCH  35  36
ENDBRANCH  28  30
ENDBRANCH  27  28
ENDBRANCH  26  27
ENDBRANCH  25  26
ENDBRANCH   1  25
TORSDOF 21
ENDMDL
MODEL 2
REMARK VINA RESULT:     -11.1      1.701      2.503
REMARK SMILES C[C@@H](C(=O)OCCOCCOC(=O)c1ccc(-c2c3nc(c(-c4cccc(S(=O)(=O)[O-])c4F)c4ccc([nH]4)c(-c4cccc(S(=O)(=O)[O-])c4F)c4nc(c(-c5cccc(S(=O)(=O)[O-])c5F)c5ccc2[nH]5)C=C4)C=C3)cc1)c1cc(C(=O)c2ccccc2)ccc1O
REMARK SMILES IDX 8 1 7 2 6 3 5 4 3 5 4 6 2 7 1 8 77 9 78 10 90 11 79 12 89 13
REMARK SMILES IDX 88 14 91 15 80 17 81 18 82 19 83 20 87 21 84 22 86 23 85 24
REMARK SMILES IDX 9 25 10 26 11 27 12 28 13 29 14 30 15 31 76 32 16 33 75 34
REMARK SMILES IDX 17 35 18 36 19 37 69 38 20 39 74 40 68 41 70 42 21 43 73 44
REMARK SMILES IDX 67 45 66 46 22 48 54 49 34 50 53 51 35 52 38 53 52 54 71 55
REMARK SMILES IDX 36 56 37 57 51 59 72 60 39 61 23 62 24 63 32 64 25 65 27 66
REMARK SMILES IDX 33 67 26 68 28 69 29 70 30 71 31 72 55 73 56 74 64 75 57 76
REMARK SMILES IDX 59 77 65 78 58 79 60 80 61 81 62 82 63 83 40 84 41 85 49 86
REMARK SMILES IDX 42 87 44 88 50 89 43 90 45 91 46 92 47 93 48 94
REMARK H PARENT 91 16 70 47 38 58
REMARK Flexibility Score: inf
ROOT
ATOM      1  O   UNL A   1      32.543  29.295  24.854  1.00  0.00    -0.374 OA
ENDROOT
BRANCH   1   2
ATOM      2  C   UNL A   1      32.403  28.154  24.007  1.00  0.00     0.202 C 
BRANCH   2   3
ATOM      3  C   UNL A   1      32.951  26.826  24.538  1.00  0.00     0.261 C 
BRANCH   3   4
ATOM      4  O   UNL A   1      31.946  25.802  24.529  1.00  0.00    -0.463 OA
BRANCH   4   5
ATOM      5  C   UNL A   1      31.378  25.524  25.729  1.00  0.00     0.313 C 
ATOM      6  O   UNL A   1      30.882  26.365  26.478  1.00  0.00    -0.252 OA
BRANCH   5   7
ATOM      7  C   UNL A   1      31.237  24.031  26.005  1.00  0.00     0.130 C 
ATOM      8  C   UNL A   1      31.813  23.682  27.390  1.00  0.00     0.025 C 
BRANCH   7   9
ATOM      9  C   UNL A   1      31.716  23.114  24.861  1.00  0.00     0.009 A 
ATOM     10  C   UNL A   1      32.702  22.136  25.147  1.00  0.00     0.020 A 
ATOM     11  C   UNL A   1      31.209  23.111  23.549  1.00  0.00     0.119 A 
ATOM     12  C   UNL A   1      33.175  21.225  24.180  1.00  0.00     0.023 A 
ATOM     13  C   UNL A   1      31.680  22.217  22.581  1.00  0.00     0.047 A 
ATOM     14  C   UNL A   1      32.644  21.265  22.894  1.00  0.00     0.016 A 
BRANCH  11  15
ATOM     15  O   UNL A   1      30.229  23.931  23.069  1.00  0.00    -0.508 OA
ATOM     16  H   UNL A   1      29.613  24.320  23.658  1.00  0.00     0.293 HD
ENDBRANCH  11  15
BRANCH  12  17
ATOM     17  C   UNL A   1      34.185  20.202  24.588  1.00  0.00     0.193 C 
ATOM     18  O   UNL A   1      35.308  20.548  24.943  1.00  0.00    -0.289 OA
BRANCH  17  19
ATOM     19  C   UNL A   1      33.852  18.758  24.632  1.00  0.00     0.022 A 
ATOM     20  C   UNL A   1      32.772  18.351  25.424  1.00  0.00     0.012 A 
ATOM     21  C   UNL A   1      34.593  17.814  23.913  1.00  0.00     0.012 A 
ATOM     22  C   UNL A   1      32.403  17.006  25.455  1.00  0.00     0.001 A 
ATOM     23  C   UNL A   1      34.217  16.470  23.946  1.00  0.00     0.001 A 
ATOM     24  C   UNL A   1      33.119  16.069  24.709  1.00  0.00     0.000 A 
ENDBRANCH  17  19
ENDBRANCH  12  17
ENDBRANCH   7   9
ENDBRANCH   5   7
ENDBRANCH   4   5
ENDBRANCH   3   4
ENDBRANCH   2   3
ENDBRANCH   1   2
BRANCH   1  25
ATOM     25  C   UNL A   1      31.354  30.001  25.218  1.00  0.00     0.202 C 
BRANCH  25  26
ATOM     26  C   UNL A   1      31.517  31.216  26.142  1.00  0.00     0.261 C 
BRANCH  26  27
ATOM     27  O   UNL A   1      32.473  30.993  27.197  1.00  0.00    -0.460 OA
BRANCH  27  28
ATOM     28  C   UNL A   1      33.294  32.043  27.446  1.00  0.00     0.338 C 
ATOM     29  O   UNL A   1      32.979  33.223  27.518  1.00  0.00    -0.246 OA
BRANCH  28  30
ATOM     30  C   UNL A   1      34.643  31.571  27.810  1.00  0.00     0.060 A 
ATOM     31  C   UNL A   1      34.816  30.194  28.001  1.00  0.00     0.016 A 
ATOM     32  C   UNL A   1      35.688  32.460  28.065  1.00  0.00     0.016 A 
ATOM     33  C   UNL A   1      36.022  29.703  28.497  1.00  0.00     0.010 A 
ATOM     34  C   UNL A   1      36.897  31.965  28.572  1.00  0.00     0.010 A 
ATOM     35  C   UNL A   1      37.055  30.590  28.826  1.00  0.00    -0.014 A 
BRANCH  35  36
ATOM     36  C   UNL A   1      38.240  30.089  29.564  1.00  0.00     0.031 A 
ATOM     37  C   UNL A   1      38.475  30.550  30.977  1.00  0.00     0.074 A 
ATOM     38  C   UNL A   1      39.093  29.221  28.989  1.00  0.00     0.049 A 
ATOM     39  N   UNL A   1      39.440  30.237  31.801  1.00  0.00    -0.248 NA
ATOM     40  C   UNL A   1      37.490  31.492  31.535  1.00  0.00     0.031 C 
ATOM     41  C   UNL A   1      38.974  28.701  27.628  1.00  0.00     0.029 A 
ATOM     42  N   UNL A   1      40.239  28.644  29.475  1.00  0.00    -0.354 N 
ATOM     43  C   UNL A   1      39.193  30.954  32.965  1.00  0.00     0.074 A 
ATOM     44  C   UNL A   1      37.995  31.732  32.738  1.00  0.00     0.031 C 
ATOM     45  C   UNL A   1      40.026  27.903  27.375  1.00  0.00     0.029 A 
ATOM     46  C   UNL A   1      40.898  27.869  28.549  1.00  0.00     0.049 A 
ATOM     47  H   UNL A   1      40.559  28.772  30.396  1.00  0.00     0.167 HD
ATOM     48  C   UNL A   1      39.889  30.951  34.128  1.00  0.00     0.034 A 
ATOM     49  C   UNL A   1      42.076  27.220  28.635  1.00  0.00     0.034 A 
ATOM     50  C   UNL A   1      41.069  30.164  34.363  1.00  0.00     0.049 A 
ATOM     51  C   UNL A   1      42.841  27.246  29.933  1.00  0.00     0.074 A 
ATOM     52  C   UNL A   1      41.818  30.060  35.522  1.00  0.00     0.029 A 
ATOM     53  N   UNL A   1      41.680  29.354  33.418  1.00  0.00    -0.354 N 
ATOM     54  N   UNL A   1      42.525  27.826  31.065  1.00  0.00    -0.248 NA
ATOM     55  C   UNL A   1      44.108  26.500  29.975  1.00  0.00     0.031 C 
ATOM     56  C   UNL A   1      42.893  29.200  35.272  1.00  0.00     0.029 A 
ATOM     57  C   UNL A   1      42.803  28.755  33.963  1.00  0.00     0.049 A 
ATOM     58  H   UNL A   1      41.363  29.225  32.496  1.00  0.00     0.167 HD
ATOM     59  C   UNL A   1      43.534  27.489  31.963  1.00  0.00     0.074 A 
ATOM     60  C   UNL A   1      44.461  26.638  31.247  1.00  0.00     0.031 C 
ATOM     61  C   UNL A   1      43.688  27.865  33.256  1.00  0.00     0.034 A 
BRANCH  48  62
ATOM     62  C   UNL A   1      39.364  31.801  35.253  1.00  0.00     0.023 A 
ATOM     63  C   UNL A   1      38.406  31.264  36.138  1.00  0.00     0.012 A 
ATOM     64  C   UNL A   1      39.848  33.106  35.468  1.00  0.00     0.148 A 
ATOM     65  C   UNL A   1      37.917  32.023  37.201  1.00  0.00     0.002 A 
ATOM     66  C   UNL A   1      39.385  33.842  36.552  1.00  0.00     0.091 A 
ATOM     67  F   UNL A   1      40.740  33.607  34.601  1.00  0.00    -0.205 F 
ATOM     68  C   UNL A   1      38.414  33.307  37.414  1.00  0.00     0.022 A 
BRANCH  66  69
ATOM     69  S   UNL A   1      40.016  35.478  36.947  1.00  0.00     0.127 S 
ATOM     70  O   UNL A   1      39.544  36.259  35.805  1.00  0.00    -0.237 OA
ATOM     71  O   UNL A   1      39.338  35.775  38.210  1.00  0.00    -0.237 OA
ATOM     72  O   UNL A   1      41.460  35.331  37.056  1.00  0.00    -0.744 OA
ENDBRANCH  66  69
ENDBRANCH  48  62
BRANCH  49  73
ATOM     73  C   UNL A   1      42.585  26.454  27.462  1.00  0.00     0.023 A 
ATOM     74  C   UNL A   1      43.416  27.093  26.521  1.00  0.00     0.012 A 
ATOM     75  C   UNL A   1      42.275  25.091  27.291  1.00  0.00     0.148 A 
ATOM     76  C   UNL A   1      43.908  26.393  25.419  1.00  0.00     0.002 A 
ATOM     77  C   UNL A   1      42.812  24.387  26.221  1.00  0.00     0.091 A 
ATOM     78  F   UNL A   1      41.465  24.507  28.186  1.00  0.00    -0.205 F 
ATOM     79  C   UNL A   1      43.617  25.040  25.275  1.00  0.00     0.022 A 
BRANCH  77  80
ATOM     80  S   UNL A   1      42.596  22.613  26.034  1.00  0.00     0.127 S 
ATOM     81  O   UNL A   1      41.143  22.497  25.950  1.00  0.00    -0.237 OA
ATOM     82  O   UNL A   1      43.309  22.351  24.783  1.00  0.00    -0.237 OA
ATOM     83  O   UNL A   1      43.215  22.018  27.210  1.00  0.00    -0.744 OA
ENDBRANCH  77  80
ENDBRANCH  49  73
BRANCH  61  84
ATOM     84  C   UNL A   1      44.888  27.341  34.002  1.00  0.00     0.023 A 
ATOM     85  C   UNL A   1      46.047  28.135  34.102  1.00  0.00     0.012 A 
ATOM     86  C   UNL A   1      44.840  26.102  34.671  1.00  0.00     0.148 A 
ATOM     87  C   UNL A   1      47.148  27.693  34.834  1.00  0.00     0.002 A 
ATOM     88  C   UNL A   1      45.924  25.687  35.435  1.00  0.00     0.091 A 
ATOM     89  F   UNL A   1      43.735  25.351  34.548  1.00  0.00    -0.205 F 
ATOM     90  C   UNL A   1      47.083  26.477  35.510  1.00  0.00     0.022 A 
BRANCH  88  91
ATOM     91  S   UNL A   1      45.890  24.180  36.412  1.00  0.00     0.127 S 
ATOM     92  O   UNL A   1      46.925  24.448  37.409  1.00  0.00    -0.237 OA
ATOM     93  O   UNL A   1      44.524  24.176  36.937  1.00  0.00    -0.237 OA
ATOM     94  O   UNL A   1      46.181  23.096  35.482  1.00  0.00    -0.744 OA
ENDBRANCH  88  91
ENDBRANCH  61  84
ENDBRANCH  35  36
ENDBRANCH  28  30
ENDBRANCH  27  28
ENDBRANCH  26  27
ENDBRANCH  25  26
ENDBRANCH   1  25
TORSDOF 21
ENDMDL
MODEL 3
REMARK VINA RESULT:     -11.0      2.341      3.285
REMARK SMILES C[C@@H](C(=O)OCCOCCOC(=O)c1ccc(-c2c3nc(c(-c4cccc(S(=O)(=O)[O-])c4F)c4ccc([nH]4)c(-c4cccc(S(=O)(=O)[O-])c4F)c4nc(c(-c5cccc(S(=O)(=O)[O-])c5F)c5ccc2[nH]5)C=C4)C=C3)cc1)c1cc(C(=O)c2ccccc2)ccc1O
REMARK SMILES IDX 8 1 7 2 6 3 5 4 3 5 4 6 2 7 1 8 77 9 78 10 90 11 79 12 89 13
REMARK SMILES IDX 88 14 91 15 80 17 81 18 82 19 83 20 87 21 84 22 86 23 85 24
REMARK SMILES IDX 9 25 10 26 11 27 12 28 13 29 14 30 15 31 76 32 16 33 75 34
REMARK SMILES IDX 17 35 18 36 19 37 69 38 20 39 74 40 68 41 70 42 21 43 73 44
REMARK SMILES IDX 67 45 66 46 22 48 54 49 34 50 53 51 35 52 38 53 52 54 71 55
REMARK SMILES IDX 36 56 37 57 51 59 72 60 39 61 23 62 24 63 32 64 25 65 27 66
REMARK SMILES IDX 33 67 26 68 28 69 29 70 30 71 31 72 55 73 56 74 64 75 57 76
REMARK SMILES IDX 59 77 65 78 58 79 60 80 61 81 62 82 63 83 40 84 41 85 49 86
REMARK SMILES IDX 42 87 44 88 50 89 43 90 45 91 46 92 47 93 48 94
REMARK H PARENT 91 16 70 47 38 58
REMARK Flexibility Score: inf
ROOT
ATOM      1  O   UNL A   1      33.241  29.322  24.746  1.00  0.00    -0.374 OA
ENDROOT
BRANCH   1   2
ATOM      2  C   UNL A   1      33.343  28.681  23.475  1.00  0.00     0.202 C 
BRANCH   2   3
ATOM      3  C   UNL A   1      33.332  27.149  23.470  1.00  0.00     0.261 C 
BRANCH   3   4
ATOM      4  O   UNL A   1      32.141  26.631  24.082  1.00  0.00    -0.463 OA
BRANCH   4   5
ATOM      5  C   UNL A   1      31.676  25.465  23.570  1.00  0.00     0.313 C 
ATOM      6  O   UNL A   1      31.680  25.176  22.373  1.00  0.00    -0.252 OA
BRANCH   5   7
ATOM      7  C   UNL A   1      31.303  24.438  24.633  1.00  0.00     0.130 C 
ATOM      8  C   UNL A   1      30.887  25.140  25.939  1.00  0.00     0.025 C 
BRANCH   7   9
ATOM      9  C   UNL A   1      32.323  23.296  24.816  1.00  0.00     0.009 A 
ATOM     10  C   UNL A   1      33.656  23.505  24.380  1.00  0.00     0.020 A 
ATOM     11  C   UNL A   1      32.068  22.066  25.448  1.00  0.00     0.119 A 
ATOM     12  C   UNL A   1      34.670  22.538  24.539  1.00  0.00     0.023 A 
ATOM     13  C   UNL A   1      33.067  21.097  25.601  1.00  0.00     0.047 A 
ATOM     14  C   UNL A   1      34.366  21.333  25.168  1.00  0.00     0.016 A 
BRANCH  11  15
ATOM     15  O   UNL A   1      30.875  21.673  25.982  1.00  0.00    -0.508 OA
ATOM     16  H   UNL A   1      30.752  20.785  26.252  1.00  0.00     0.293 HD
ENDBRANCH  11  15
BRANCH  12  17
ATOM     17  C   UNL A   1      36.056  22.867  24.086  1.00  0.00     0.193 C 
ATOM     18  O   UNL A   1      36.271  23.156  22.912  1.00  0.00    -0.289 OA
BRANCH  17  19
ATOM     19  C   UNL A   1      37.192  22.910  25.036  1.00  0.00     0.022 A 
ATOM     20  C   UNL A   1      38.014  21.782  25.139  1.00  0.00     0.012 A 
ATOM     21  C   UNL A   1      37.444  24.039  25.824  1.00  0.00     0.012 A 
ATOM     22  C   UNL A   1      39.118  21.804  25.991  1.00  0.00     0.001 A 
ATOM     23  C   UNL A   1      38.552  24.055  26.673  1.00  0.00     0.001 A 
ATOM     24  C   UNL A   1      39.392  22.942  26.750  1.00  0.00     0.000 A 
ENDBRANCH  17  19
ENDBRANCH  12  17
ENDBRANCH   7   9
ENDBRANCH   5   7
ENDBRANCH   4   5
ENDBRANCH   3   4
ENDBRANCH   2   3
ENDBRANCH   1   2
BRANCH   1  25
ATOM     25  C   UNL A   1      31.946  29.756  25.169  1.00  0.00     0.202 C 
BRANCH  25  26
ATOM     26  C   UNL A   1      31.883  30.702  26.376  1.00  0.00     0.261 C 
BRANCH  26  27
ATOM     27  O   UNL A   1      32.947  30.476  27.321  1.00  0.00    -0.460 OA
BRANCH  27  28
ATOM     28  C   UNL A   1      33.732  31.556  27.557  1.00  0.00     0.338 C 
ATOM     29  O   UNL A   1      33.392  32.731  27.539  1.00  0.00    -0.246 OA
BRANCH  28  30
ATOM     30  C   UNL A   1      35.063  31.136  28.031  1.00  0.00     0.060 A 
ATOM     31  C   UNL A   1      35.227  29.791  28.389  1.00  0.00     0.016 A 
ATOM     32  C   UNL A   1      36.097  32.053  28.226  1.00  0.00     0.016 A 
ATOM     33  C   UNL A   1      36.410  29.367  28.990  1.00  0.00     0.010 A 
ATOM     34  C   UNL A   1      37.282  31.626  28.838  1.00  0.00     0.010 A 
ATOM     35  C   UNL A   1      37.428  30.290  29.258  1.00  0.00    -0.014 A 
BRANCH  35  36
ATOM     36  C   UNL A   1      38.580  29.884  30.100  1.00  0.00     0.031 A 
ATOM     37  C   UNL A   1      38.751  30.504  31.460  1.00  0.00     0.074 A 
ATOM     38  C   UNL A   1      39.458  28.962  29.665  1.00  0.00     0.049 A 
ATOM     39  N   UNL A   1      39.680  30.292  32.355  1.00  0.00    -0.248 NA
ATOM     40  C   UNL A   1      37.741  31.497  31.863  1.00  0.00     0.031 C 
ATOM     41  C   UNL A   1      39.401  28.289  28.369  1.00  0.00     0.029 A 
ATOM     42  N   UNL A   1      40.583  28.450  30.263  1.00  0.00    -0.354 N 
ATOM     43  C   UNL A   1      39.381  31.136  33.418  1.00  0.00     0.074 A 
ATOM     44  C   UNL A   1      38.192  31.876  33.051  1.00  0.00     0.031 C 
ATOM     45  C   UNL A   1      40.463  27.473  28.255  1.00  0.00     0.029 A 
ATOM     46  C   UNL A   1      41.282  27.579  29.462  1.00  0.00     0.049 A 
ATOM     47  H   UNL A   1      40.861  28.685  31.178  1.00  0.00     0.167 HD
ATOM     48  C   UNL A   1      40.024  31.270  34.603  1.00  0.00     0.034 A 
ATOM     49  C   UNL A   1      42.457  26.951  29.673  1.00  0.00     0.034 A 
ATOM     50  C   UNL A   1      41.193  30.522  34.978  1.00  0.00     0.049 A 
ATOM     51  C   UNL A   1      43.163  27.130  30.992  1.00  0.00     0.074 A 
ATOM     52  C   UNL A   1      41.890  30.556  36.173  1.00  0.00     0.029 A 
ATOM     53  N   UNL A   1      41.846  29.614  34.160  1.00  0.00    -0.354 N 
ATOM     54  N   UNL A   1      42.797  27.833  32.036  1.00  0.00    -0.248 NA
ATOM     55  C   UNL A   1      44.428  26.401  31.174  1.00  0.00     0.031 C 
ATOM     56  C   UNL A   1      42.976  29.680  36.071  1.00  0.00     0.029 A 
ATOM     57  C   UNL A   1      42.944  29.087  34.819  1.00  0.00     0.049 A 
ATOM     58  H   UNL A   1      41.571  29.379  33.245  1.00  0.00     0.167 HD
ATOM     59  C   UNL A   1      43.765  27.607  33.009  1.00  0.00     0.074 A 
ATOM     60  C   UNL A   1      44.724  26.685  32.436  1.00  0.00     0.031 C 
ATOM     61  C   UNL A   1      43.861  28.128  34.257  1.00  0.00     0.034 A 
BRANCH  48  62
ATOM     62  C   UNL A   1      39.448  32.240  35.600  1.00  0.00     0.023 A 
ATOM     63  C   UNL A   1      38.426  31.812  36.471  1.00  0.00     0.012 A 
ATOM     64  C   UNL A   1      39.947  33.552  35.711  1.00  0.00     0.148 A 
ATOM     65  C   UNL A   1      37.888  32.684  37.418  1.00  0.00     0.002 A 
ATOM     66  C   UNL A   1      39.433  34.403  36.683  1.00  0.00     0.091 A 
ATOM     67  F   UNL A   1      40.902  33.947  34.857  1.00  0.00    -0.205 F 
ATOM     68  C   UNL A   1      38.399  33.974  37.530  1.00  0.00     0.022 A 
BRANCH  66  69
ATOM     69  S   UNL A   1      40.074  36.061  36.949  1.00  0.00     0.127 S 
ATOM     70  O   UNL A   1      39.264  36.511  38.080  1.00  0.00    -0.237 OA
ATOM     71  O   UNL A   1      41.478  35.803  37.271  1.00  0.00    -0.237 OA
ATOM     72  O   UNL A   1      39.861  36.775  35.698  1.00  0.00    -0.744 OA
ENDBRANCH  66  69
ENDBRANCH  48  62
BRANCH  49  73
ATOM     73  C   UNL A   1      43.018  26.060  28.619  1.00  0.00     0.023 A 
ATOM     74  C   UNL A   1      42.544  24.739  28.500  1.00  0.00     0.012 A 
ATOM     75  C   UNL A   1      43.997  26.523  27.718  1.00  0.00     0.148 A 
ATOM     76  C   UNL A   1      43.053  23.889  27.516  1.00  0.00     0.002 A 
ATOM     77  C   UNL A   1      44.459  25.689  26.708  1.00  0.00     0.091 A 
ATOM     78  F   UNL A   1      44.450  27.776  27.863  1.00  0.00    -0.205 F 
ATOM     79  C   UNL A   1      44.000  24.366  26.614  1.00  0.00     0.022 A 
BRANCH  77  80
ATOM     80  S   UNL A   1      45.578  26.264  25.426  1.00  0.00     0.127 S 
ATOM     81  O   UNL A   1      45.522  25.165  24.466  1.00  0.00    -0.237 OA
ATOM     82  O   UNL A   1      44.927  27.500  24.987  1.00  0.00    -0.237 OA
ATOM     83  O   UNL A   1      46.859  26.466  26.088  1.00  0.00    -0.744 OA
ENDBRANCH  77  80
ENDBRANCH  49  73
BRANCH  61  84
ATOM     84  C   UNL A   1      45.027  27.700  35.109  1.00  0.00     0.023 A 
ATOM     85  C   UNL A   1      46.212  28.461  35.101  1.00  0.00     0.012 A 
ATOM     86  C   UNL A   1      44.922  26.595  35.978  1.00  0.00     0.148 A 
ATOM     87  C   UNL A   1      47.283  28.114  35.924  1.00  0.00     0.002 A 
ATOM     88  C   UNL A   1      45.977  26.281  36.827  1.00  0.00     0.091 A 
ATOM     89  F   UNL A   1      43.793  25.871  35.957  1.00  0.00    -0.205 F 
ATOM     90  C   UNL A   1      47.162  27.034  36.795  1.00  0.00     0.022 A 
BRANCH  88  91
ATOM     91  S   UNL A   1      45.870  24.964  38.044  1.00  0.00     0.127 S 
ATOM     92  O   UNL A   1      45.691  23.788  37.195  1.00  0.00    -0.237 OA
ATOM     93  O   UNL A   1      47.172  25.044  38.708  1.00  0.00    -0.237 OA
ATOM     94  O   UNL A   1      44.738  25.301  38.897  1.00  0.00    -0.744 OA
ENDBRANCH  88  91
ENDBRANCH  61  84
ENDBRANCH  35  36
ENDBRANCH  28  30
ENDBRANCH  27  28
ENDBRANCH  26  27
ENDBRANCH  25  26
ENDBRANCH   1  25
TORSDOF 21
ENDMDL
