MODEL 1
REMARK VINA RESULT:     -12.5      0.000      0.000
REMARK SMILES O=C(OCCOCCOC(=O)c1cccc(N2NC(=O)[C@H]3CC=CC[C@H]3C2=O)c1)c1ccc(-c2c3nc(c(-c4cccc(S(=O)(=O)[O-])c4F)c4ccc([nH]4)c(-c4cccc(S(=O)(=O)[O-])c4F)c4nc(c(-c5cccc(S(=O)(=O)[O-])c5F)c5ccc2[nH]5)C=C4)C=C3)cc1
REMARK SMILES IDX 5 1 4 2 3 3 2 4 1 5 30 6 31 7 92 8 32 9 91 10 33 11 34 12
REMARK SMILES IDX 35 13 85 14 36 15 90 16 84 17 86 18 37 19 89 20 83 21 82 22
REMARK SMILES IDX 38 24 70 25 50 26 69 27 51 28 54 29 68 30 87 31 52 32 53 33
REMARK SMILES IDX 67 35 88 36 55 37 39 38 40 39 48 40 41 41 43 42 49 43 42 44
REMARK SMILES IDX 44 45 45 46 46 47 47 48 71 49 72 50 80 51 73 52 75 53 81 54
REMARK SMILES IDX 74 55 76 56 77 57 78 58 79 59 56 60 57 61 65 62 58 63 60 64
REMARK SMILES IDX 66 65 59 66 61 67 62 68 63 69 64 70 6 71 7 72 8 73 9 74
REMARK SMILES IDX 10 75 11 76 12 77 13 78 29 79 14 80 16 81 15 82 17 83 18 84
REMARK SMILES IDX 27 85 19 86 26 88 28 89 20 90 21 91 25 92 22 93 24 94 23 95
REMARK H PARENT 86 23 54 34 18 87
REMARK Flexibility Score: inf
ROOT
ATOM      1  C   UNL A   1      35.800  21.517  24.795  1.00  0.00     0.202 C 
ENDROOT
BRANCH   1   2
ATOM      2  C   UNL A   1      37.275  21.127  24.685  1.00  0.00     0.261 C 
BRANCH   2   3
ATOM      3  O   UNL A   1      37.911  21.194  25.971  1.00  0.00    -0.460 OA
BRANCH   3   4
ATOM      4  C   UNL A   1      39.229  21.356  26.242  1.00  0.00     0.338 C 
ATOM      5  O   UNL A   1      39.974  20.386  26.123  1.00  0.00    -0.246 OA
BRANCH   4   6
ATOM      6  C   UNL A   1      39.822  22.655  26.686  1.00  0.00     0.060 A 
ATOM      7  C   UNL A   1      39.409  23.906  26.231  1.00  0.00     0.016 A 
ATOM      8  C   UNL A   1      40.801  22.616  27.693  1.00  0.00     0.016 A 
ATOM      9  C   UNL A   1      39.984  25.076  26.687  1.00  0.00     0.010 A 
ATOM     10  C   UNL A   1      41.350  23.797  28.206  1.00  0.00     0.010 A 
ATOM     11  C   UNL A   1      40.947  25.031  27.687  1.00  0.00    -0.014 A 
BRANCH  11  12
ATOM     12  C   UNL A   1      41.543  26.318  28.079  1.00  0.00     0.031 A 
ATOM     13  C   UNL A   1      42.927  26.635  27.613  1.00  0.00     0.074 A 
ATOM     14  C   UNL A   1      40.763  27.237  28.678  1.00  0.00     0.049 A 
ATOM     15  N   UNL A   1      43.623  27.723  27.785  1.00  0.00    -0.248 NA
ATOM     16  C   UNL A   1      43.613  25.596  26.823  1.00  0.00     0.031 C 
ATOM     17  C   UNL A   1      39.362  27.029  29.065  1.00  0.00     0.029 A 
ATOM     18  N   UNL A   1      41.014  28.534  29.033  1.00  0.00    -0.354 N 
ATOM     19  C   UNL A   1      44.840  27.491  27.158  1.00  0.00     0.074 A 
ATOM     20  C   UNL A   1      44.789  26.160  26.597  1.00  0.00     0.031 C 
ATOM     21  C   UNL A   1      38.878  28.163  29.592  1.00  0.00     0.029 A 
ATOM     22  C   UNL A   1      39.946  29.152  29.640  1.00  0.00     0.049 A 
ATOM     23  H   UNL A   1      41.876  28.980  28.870  1.00  0.00     0.167 HD
ATOM     24  C   UNL A   1      45.899  28.324  27.062  1.00  0.00     0.034 A 
ATOM     25  C   UNL A   1      39.862  30.371  30.204  1.00  0.00     0.034 A 
ATOM     26  C   UNL A   1      45.914  29.642  27.632  1.00  0.00     0.049 A 
ATOM     27  C   UNL A   1      41.082  31.250  30.139  1.00  0.00     0.074 A 
ATOM     28  C   UNL A   1      46.949  30.556  27.673  1.00  0.00     0.029 A 
ATOM     29  N   UNL A   1      44.828  30.231  28.267  1.00  0.00    -0.354 N 
ATOM     30  N   UNL A   1      42.233  31.019  29.552  1.00  0.00    -0.248 NA
ATOM     31  C   UNL A   1      40.991  32.560  30.794  1.00  0.00     0.031 C 
ATOM     32  C   UNL A   1      46.493  31.692  28.352  1.00  0.00     0.029 A 
ATOM     33  C   UNL A   1      45.166  31.498  28.704  1.00  0.00     0.049 A 
ATOM     34  H   UNL A   1      43.947  29.809  28.388  1.00  0.00     0.167 HD
ATOM     35  C   UNL A   1      42.999  32.158  29.750  1.00  0.00     0.074 A 
ATOM     36  C   UNL A   1      42.164  33.094  30.479  1.00  0.00     0.031 C 
ATOM     37  C   UNL A   1      44.282  32.409  29.388  1.00  0.00     0.034 A 
BRANCH  24  38
ATOM     38  C   UNL A   1      47.115  27.807  26.343  1.00  0.00     0.023 A 
ATOM     39  C   UNL A   1      48.163  27.207  27.072  1.00  0.00     0.012 A 
ATOM     40  C   UNL A   1      47.229  27.937  24.946  1.00  0.00     0.148 A 
ATOM     41  C   UNL A   1      49.320  26.777  26.424  1.00  0.00     0.002 A 
ATOM     42  C   UNL A   1      48.368  27.469  24.302  1.00  0.00     0.091 A 
ATOM     43  F   UNL A   1      46.233  28.536  24.277  1.00  0.00    -0.205 F 
ATOM     44  C   UNL A   1      49.420  26.902  25.040  1.00  0.00     0.022 A 
BRANCH  42  45
ATOM     45  S   UNL A   1      48.574  27.538  22.520  1.00  0.00     0.127 S 
ATOM     46  O   UNL A   1      47.372  28.263  22.110  1.00  0.00    -0.237 OA
ATOM     47  O   UNL A   1      49.818  28.296  22.388  1.00  0.00    -0.237 OA
ATOM     48  O   UNL A   1      48.648  26.156  22.067  1.00  0.00    -0.744 OA
ENDBRANCH  42  45
ENDBRANCH  24  38
BRANCH  25  49
ATOM     49  C   UNL A   1      38.613  30.807  30.893  1.00  0.00     0.023 A 
ATOM     50  C   UNL A   1      38.435  30.559  32.268  1.00  0.00     0.012 A 
ATOM     51  C   UNL A   1      37.591  31.470  30.183  1.00  0.00     0.148 A 
ATOM     52  C   UNL A   1      37.252  30.930  32.910  1.00  0.00     0.002 A 
ATOM     53  C   UNL A   1      36.442  31.891  30.842  1.00  0.00     0.091 A 
ATOM     54  F   UNL A   1      37.759  31.678  28.870  1.00  0.00    -0.205 F 
ATOM     55  C   UNL A   1      36.260  31.604  32.202  1.00  0.00     0.022 A 
BRANCH  53  56
ATOM     56  S   UNL A   1      35.183  32.879  30.026  1.00  0.00     0.127 S 
ATOM     57  O   UNL A   1      34.664  31.942  29.034  1.00  0.00    -0.237 OA
ATOM     58  O   UNL A   1      34.267  33.180  31.127  1.00  0.00    -0.237 OA
ATOM     59  O   UNL A   1      35.883  34.042  29.500  1.00  0.00    -0.744 OA
ENDBRANCH  53  56
ENDBRANCH  25  49
BRANCH  37  60
ATOM     60  C   UNL A   1      44.839  33.757  29.753  1.00  0.00     0.023 A 
ATOM     61  C   UNL A   1      45.533  33.923  30.968  1.00  0.00     0.012 A 
ATOM     62  C   UNL A   1      44.732  34.836  28.856  1.00  0.00     0.148 A 
ATOM     63  C   UNL A   1      46.081  35.159  31.302  1.00  0.00     0.002 A 
ATOM     64  C   UNL A   1      45.329  36.049  29.171  1.00  0.00     0.091 A 
ATOM     65  F   UNL A   1      44.048  34.658  27.717  1.00  0.00    -0.205 F 
ATOM     66  C   UNL A   1      45.990  36.217  30.399  1.00  0.00     0.022 A 
BRANCH  64  67
ATOM     67  S   UNL A   1      45.353  37.426  28.022  1.00  0.00     0.127 S 
ATOM     68  O   UNL A   1      46.116  38.425  28.769  1.00  0.00    -0.237 OA
ATOM     69  O   UNL A   1      46.055  36.857  26.870  1.00  0.00    -0.237 OA
ATOM     70  O   UNL A   1      43.958  37.762  27.769  1.00  0.00    -0.744 OA
ENDBRANCH  64  67
ENDBRANCH  37  60
ENDBRANCH  11  12
ENDBRANCH   4   6
ENDBRANCH   3   4
ENDBRANCH   2   3
ENDBRANCH   1   2
BRANCH   1  71
ATOM     71  O   UNL A   1      35.552  22.864  25.191  1.00  0.00    -0.374 OA
BRANCH  71  72
ATOM     72  C   UNL A   1      35.117  23.764  24.166  1.00  0.00     0.202 C 
BRANCH  72  73
ATOM     73  C   UNL A   1      34.382  22.967  23.079  1.00  0.00     0.261 C 
BRANCH  73  74
ATOM     74  O   UNL A   1      33.152  23.643  22.776  1.00  0.00    -0.460 OA
BRANCH  74  75
ATOM     75  C   UNL A   1      32.023  22.972  23.144  1.00  0.00     0.338 C 
ATOM     76  O   UNL A   1      31.809  21.784  23.103  1.00  0.00    -0.246 OA
BRANCH  75  77
ATOM     77  C   UNL A   1      31.184  23.958  23.863  1.00  0.00     0.062 A 
ATOM     78  C   UNL A   1      30.929  23.775  25.226  1.00  0.00     0.016 A 
ATOM     79  C   UNL A   1      30.770  25.118  23.219  1.00  0.00     0.044 A 
ATOM     80  C   UNL A   1      30.369  24.815  25.970  1.00  0.00     0.003 A 
ATOM     81  C   UNL A   1      30.177  26.142  23.955  1.00  0.00     0.067 A 
ATOM     82  C   UNL A   1      30.022  26.012  25.340  1.00  0.00     0.028 A 
BRANCH  81  83
ATOM     83  N   UNL A   1      29.593  27.223  23.256  1.00  0.00    -0.221 N 
ATOM     84  N   UNL A   1      28.220  27.380  23.467  1.00  0.00    -0.260 N 
ATOM     85  C   UNL A   1      30.359  28.197  22.629  1.00  0.00     0.249 C 
ATOM     86  C   UNL A   1      27.496  28.470  23.094  1.00  0.00     0.243 C 
ATOM     87  H   UNL A   1      27.740  26.648  23.918  1.00  0.00     0.192 HD
ATOM     88  C   UNL A   1      29.697  29.548  22.507  1.00  0.00     0.097 C 
ATOM     89  O   UNL A   1      31.539  28.056  22.304  1.00  0.00    -0.272 OA
ATOM     90  O   UNL A   1      26.314  28.555  23.413  1.00  0.00    -0.273 OA
ATOM     91  C   UNL A   1      28.203  29.460  22.199  1.00  0.00     0.097 C 
ATOM     92  C   UNL A   1      30.020  30.284  23.816  1.00  0.00     0.041 C 
ATOM     93  C   UNL A   1      27.527  30.838  22.267  1.00  0.00     0.041 C 
ATOM     94  C   UNL A   1      29.115  31.435  24.108  1.00  0.00    -0.030 C 
ATOM     95  C   UNL A   1      28.003  31.691  23.409  1.00  0.00    -0.030 C 
ENDBRANCH  81  83
ENDBRANCH  75  77
ENDBRANCH  74  75
ENDBRANCH  73  74
ENDBRANCH  72  73
ENDBRANCH  71  72
ENDBRANCH   1  71
TORSDOF 18
ENDMDL
MODEL 2
REMARK VINA RESULT:     -12.1      5.177     10.839
REMARK SMILES O=C(OCCOCCOC(=O)c1cccc(N2NC(=O)[C@H]3CC=CC[C@H]3C2=O)c1)c1ccc(-c2c3nc(c(-c4cccc(S(=O)(=O)[O-])c4F)c4ccc([nH]4)c(-c4cccc(S(=O)(=O)[O-])c4F)c4nc(c(-c5cccc(S(=O)(=O)[O-])c5F)c5ccc2[nH]5)C=C4)C=C3)cc1
REMARK SMILES IDX 5 1 4 2 3 3 2 4 1 5 30 6 31 7 92 8 32 9 91 10 33 11 34 12
REMARK SMILES IDX 35 13 85 14 36 15 90 16 84 17 86 18 37 19 89 20 83 21 82 22
REMARK SMILES IDX 38 24 70 25 50 26 69 27 51 28 54 29 68 30 87 31 52 32 53 33
REMARK SMILES IDX 67 35 88 36 55 37 39 38 40 39 48 40 41 41 43 42 49 43 42 44
REMARK SMILES IDX 44 45 45 46 46 47 47 48 71 49 72 50 80 51 73 52 75 53 81 54
REMARK SMILES IDX 74 55 76 56 77 57 78 58 79 59 56 60 57 61 65 62 58 63 60 64
REMARK SMILES IDX 66 65 59 66 61 67 62 68 63 69 64 70 6 71 7 72 8 73 9 74
REMARK SMILES IDX 10 75 11 76 12 77 13 78 29 79 14 80 16 81 15 82 17 83 18 84
REMARK SMILES IDX 27 85 19 86 26 88 28 89 20 90 21 91 25 92 22 93 24 94 23 95
REMARK H PARENT 86 23 54 34 18 87
REMARK Flexibility Score: inf
ROOT
ATOM      1  C   UNL A   1      31.598  31.527  26.761  1.00  0.00     0.202 C 
ENDROOT
BRANCH   1   2
ATOM      2  C   UNL A   1      31.855  33.031  26.653  1.00  0.00     0.261 C 
BRANCH   2   3
ATOM      3  O   UNL A   1      32.131  33.589  27.947  1.00  0.00    -0.460 OA
BRANCH   3   4
ATOM      4  C   UNL A   1      33.237  34.263  28.346  1.00  0.00     0.338 C 
ATOM      5  O   UNL A   1      33.256  35.484  28.215  1.00  0.00    -0.246 OA
BRANCH   4   6
ATOM      6  C   UNL A   1      34.439  33.595  28.932  1.00  0.00     0.060 A 
ATOM      7  C   UNL A   1      34.413  32.373  29.602  1.00  0.00     0.016 A 
ATOM      8  C   UNL A   1      35.691  34.196  28.716  1.00  0.00     0.016 A 
ATOM      9  C   UNL A   1      35.560  31.794  30.111  1.00  0.00     0.010 A 
ATOM     10  C   UNL A   1      36.866  33.590  29.177  1.00  0.00     0.010 A 
ATOM     11  C   UNL A   1      36.794  32.390  29.890  1.00  0.00    -0.014 A 
BRANCH  11  12
ATOM     12  C   UNL A   1      37.958  31.736  30.509  1.00  0.00     0.031 A 
ATOM     13  C   UNL A   1      38.256  32.020  31.946  1.00  0.00     0.074 A 
ATOM     14  C   UNL A   1      38.595  30.767  29.824  1.00  0.00     0.049 A 
ATOM     15  N   UNL A   1      39.185  31.515  32.707  1.00  0.00    -0.248 NA
ATOM     16  C   UNL A   1      37.374  32.986  32.625  1.00  0.00     0.031 C 
ATOM     17  C   UNL A   1      38.282  30.363  28.449  1.00  0.00     0.029 A 
ATOM     18  N   UNL A   1      39.607  29.924  30.194  1.00  0.00    -0.354 N 
ATOM     19  C   UNL A   1      39.025  32.123  33.945  1.00  0.00     0.074 A 
ATOM     20  C   UNL A   1      37.908  33.034  33.836  1.00  0.00     0.031 C 
ATOM     21  C   UNL A   1      39.077  29.342  28.098  1.00  0.00     0.029 A 
ATOM     22  C   UNL A   1      39.996  29.065  29.194  1.00  0.00     0.049 A 
ATOM     23  H   UNL A   1      40.016  29.932  31.089  1.00  0.00     0.167 HD
ATOM     24  C   UNL A   1      39.750  31.929  35.068  1.00  0.00     0.034 A 
ATOM     25  C   UNL A   1      41.011  28.182  29.163  1.00  0.00     0.034 A 
ATOM     26  C   UNL A   1      40.855  31.015  35.139  1.00  0.00     0.049 A 
ATOM     27  C   UNL A   1      41.842  28.037  30.409  1.00  0.00     0.074 A 
ATOM     28  C   UNL A   1      41.718  30.781  36.191  1.00  0.00     0.029 A 
ATOM     29  N   UNL A   1      41.245  30.178  34.101  1.00  0.00    -0.354 N 
ATOM     30  N   UNL A   1      41.690  28.624  31.573  1.00  0.00    -0.248 NA
ATOM     31  C   UNL A   1      42.971  27.101  30.348  1.00  0.00     0.031 C 
ATOM     32  C   UNL A   1      42.646  29.816  35.781  1.00  0.00     0.029 A 
ATOM     33  C   UNL A   1      42.339  29.425  34.486  1.00  0.00     0.049 A 
ATOM     34  H   UNL A   1      40.808  30.129  33.221  1.00  0.00     0.167 HD
ATOM     35  C   UNL A   1      42.690  28.118  32.390  1.00  0.00     0.074 A 
ATOM     36  C   UNL A   1      43.418  27.147  31.596  1.00  0.00     0.031 C 
ATOM     37  C   UNL A   1      43.001  28.438  33.671  1.00  0.00     0.034 A 
BRANCH  24  38
ATOM     38  C   UNL A   1      39.377  32.745  36.274  1.00  0.00     0.023 A 
ATOM     39  C   UNL A   1      39.930  34.030  36.456  1.00  0.00     0.012 A 
ATOM     40  C   UNL A   1      38.493  32.229  37.242  1.00  0.00     0.148 A 
ATOM     41  C   UNL A   1      39.638  34.772  37.599  1.00  0.00     0.002 A 
ATOM     42  C   UNL A   1      38.175  32.992  38.359  1.00  0.00     0.091 A 
ATOM     43  F   UNL A   1      38.001  30.996  37.063  1.00  0.00    -0.205 F 
ATOM     44  C   UNL A   1      38.757  34.257  38.546  1.00  0.00     0.022 A 
BRANCH  42  45
ATOM     45  S   UNL A   1      37.013  32.441  39.612  1.00  0.00     0.127 S 
ATOM     46  O   UNL A   1      37.105  33.521  40.596  1.00  0.00    -0.237 OA
ATOM     47  O   UNL A   1      35.756  32.403  38.865  1.00  0.00    -0.237 OA
ATOM     48  O   UNL A   1      37.494  31.145  40.068  1.00  0.00    -0.744 OA
ENDBRANCH  42  45
ENDBRANCH  24  38
BRANCH  25  49
ATOM     49  C   UNL A   1      41.308  27.407  27.923  1.00  0.00     0.023 A 
ATOM     50  C   UNL A   1      41.822  28.057  26.784  1.00  0.00     0.012 A 
ATOM     51  C   UNL A   1      41.080  26.017  27.869  1.00  0.00     0.148 A 
ATOM     52  C   UNL A   1      42.066  27.344  25.608  1.00  0.00     0.002 A 
ATOM     53  C   UNL A   1      41.383  25.303  26.714  1.00  0.00     0.091 A 
ATOM     54  F   UNL A   1      40.567  25.412  28.949  1.00  0.00    -0.205 F 
ATOM     55  C   UNL A   1      41.858  25.968  25.575  1.00  0.00     0.022 A 
BRANCH  53  56
ATOM     56  S   UNL A   1      41.264  23.511  26.643  1.00  0.00     0.127 S 
ATOM     57  O   UNL A   1      41.709  23.129  27.980  1.00  0.00    -0.237 OA
ATOM     58  O   UNL A   1      39.838  23.309  26.387  1.00  0.00    -0.237 OA
ATOM     59  O   UNL A   1      42.129  23.109  25.543  1.00  0.00    -0.744 OA
ENDBRANCH  53  56
ENDBRANCH  25  49
BRANCH  37  60
ATOM     60  C   UNL A   1      44.158  27.705  34.291  1.00  0.00     0.023 A 
ATOM     61  C   UNL A   1      45.424  28.320  34.354  1.00  0.00     0.012 A 
ATOM     62  C   UNL A   1      43.968  26.438  34.872  1.00  0.00     0.148 A 
ATOM     63  C   UNL A   1      46.497  27.664  34.954  1.00  0.00     0.002 A 
ATOM     64  C   UNL A   1      45.027  25.815  35.518  1.00  0.00     0.091 A 
ATOM     65  F   UNL A   1      42.759  25.865  34.780  1.00  0.00    -0.205 F 
ATOM     66  C   UNL A   1      46.295  26.419  35.547  1.00  0.00     0.022 A 
BRANCH  64  67
ATOM     67  S   UNL A   1      44.828  24.265  36.399  1.00  0.00     0.127 S 
ATOM     68  O   UNL A   1      46.139  23.646  36.215  1.00  0.00    -0.237 OA
ATOM     69  O   UNL A   1      44.552  24.717  37.764  1.00  0.00    -0.237 OA
ATOM     70  O   UNL A   1      43.714  23.580  35.757  1.00  0.00    -0.744 OA
ENDBRANCH  64  67
ENDBRANCH  37  60
ENDBRANCH  11  12
ENDBRANCH   4   6
ENDBRANCH   3   4
ENDBRANCH   2   3
ENDBRANCH   1   2
BRANCH   1  71
ATOM     71  O   UNL A   1      32.763  30.706  26.743  1.00  0.00    -0.374 OA
BRANCH  71  72
ATOM     72  C   UNL A   1      32.789  29.648  25.778  1.00  0.00     0.202 C 
BRANCH  72  73
ATOM     73  C   UNL A   1      31.513  29.716  24.928  1.00  0.00     0.261 C 
BRANCH  73  74
ATOM     74  O   UNL A   1      31.848  29.355  23.578  1.00  0.00    -0.460 OA
BRANCH  74  75
ATOM     75  C   UNL A   1      30.894  28.632  22.925  1.00  0.00     0.338 C 
ATOM     76  O   UNL A   1      30.212  28.966  21.985  1.00  0.00    -0.246 OA
BRANCH  75  77
ATOM     77  C   UNL A   1      31.029  27.243  23.420  1.00  0.00     0.062 A 
ATOM     78  C   UNL A   1      29.905  26.583  23.924  1.00  0.00     0.016 A 
ATOM     79  C   UNL A   1      32.231  26.563  23.259  1.00  0.00     0.044 A 
ATOM     80  C   UNL A   1      29.953  25.206  24.146  1.00  0.00     0.003 A 
ATOM     81  C   UNL A   1      32.290  25.195  23.517  1.00  0.00     0.067 A 
ATOM     82  C   UNL A   1      31.138  24.505  23.912  1.00  0.00     0.028 A 
BRANCH  81  83
ATOM     83  N   UNL A   1      33.555  24.566  23.533  1.00  0.00    -0.221 N 
ATOM     84  N   UNL A   1      34.340  24.863  24.652  1.00  0.00    -0.260 N 
ATOM     85  C   UNL A   1      33.883  23.543  22.653  1.00  0.00     0.249 C 
ATOM     86  C   UNL A   1      35.480  24.206  24.997  1.00  0.00     0.243 C 
ATOM     87  H   UNL A   1      34.047  25.602  25.232  1.00  0.00     0.192 HD
ATOM     88  C   UNL A   1      34.922  22.573  23.162  1.00  0.00     0.097 C 
ATOM     89  O   UNL A   1      33.302  23.324  21.588  1.00  0.00    -0.272 OA
ATOM     90  O   UNL A   1      36.044  24.477  26.053  1.00  0.00    -0.273 OA
ATOM     91  C   UNL A   1      36.030  23.246  23.968  1.00  0.00     0.097 C 
ATOM     92  C   UNL A   1      34.139  21.507  23.946  1.00  0.00     0.041 C 
ATOM     93  C   UNL A   1      36.961  22.215  24.626  1.00  0.00     0.041 C 
ATOM     94  C   UNL A   1      34.973  20.716  24.898  1.00  0.00    -0.030 C 
ATOM     95  C   UNL A   1      36.241  21.026  25.197  1.00  0.00    -0.030 C 
ENDBRANCH  81  83
ENDBRANCH  75  77
ENDBRANCH  74  75
ENDBRANCH  73  74
ENDBRANCH  72  73
ENDBRANCH  71  72
ENDBRANCH   1  71
TORSDOF 18
ENDMDL
MODEL 3
REMARK VINA RESULT:     -12.1      4.876      9.353
REMARK SMILES O=C(OCCOCCOC(=O)c1cccc(N2NC(=O)[C@H]3CC=CC[C@H]3C2=O)c1)c1ccc(-c2c3nc(c(-c4cccc(S(=O)(=O)[O-])c4F)c4ccc([nH]4)c(-c4cccc(S(=O)(=O)[O-])c4F)c4nc(c(-c5cccc(S(=O)(=O)[O-])c5F)c5ccc2[nH]5)C=C4)C=C3)cc1
REMARK SMILES IDX 5 1 4 2 3 3 2 4 1 5 30 6 31 7 92 8 32 9 91 10 33 11 34 12
REMARK SMILES IDX 35 13 85 14 36 15 90 16 84 17 86 18 37 19 89 20 83 21 82 22
REMARK SMILES IDX 38 24 70 25 50 26 69 27 51 28 54 29 68 30 87 31 52 32 53 33
REMARK SMILES IDX 67 35 88 36 55 37 39 38 40 39 48 40 41 41 43 42 49 43 42 44
REMARK SMILES IDX 44 45 45 46 46 47 47 48 71 49 72 50 80 51 73 52 75 53 81 54
REMARK SMILES IDX 74 55 76 56 77 57 78 58 79 59 56 60 57 61 65 62 58 63 60 64
REMARK SMILES IDX 66 65 59 66 61 67 62 68 63 69 64 70 6 71 7 72 8 73 9 74
REMARK SMILES IDX 10 75 11 76 12 77 13 78 29 79 14 80 16 81 15 82 17 83 18 84
REMARK SMILES IDX 27 85 19 86 26 88 28 89 20 90 21 91 25 92 22 93 24 94 23 95
REMARK H PARENT 86 23 54 34 18 87
REMARK Flexibility Score: inf
ROOT
ATOM      1  C   UNL A   1      33.660  28.297  24.821  1.00  0.00     0.202 C 
ENDROOT
BRANCH   1   2
ATOM      2  C   UNL A   1      32.716  28.993  25.804  1.00  0.00     0.261 C 
BRANCH   2   3
ATOM      3  O   UNL A   1      33.050  30.385  25.921  1.00  0.00    -0.460 OA
BRANCH   3   4
ATOM      4  C   UNL A   1      33.512  31.043  27.012  1.00  0.00     0.338 C 
ATOM      5  O   UNL A   1      32.841  31.967  27.465  1.00  0.00    -0.246 OA
BRANCH   4   6
ATOM      6  C   UNL A   1      34.801  30.705  27.690  1.00  0.00     0.060 A 
ATOM      7  C   UNL A   1      35.176  29.418  28.074  1.00  0.00     0.016 A 
ATOM      8  C   UNL A   1      35.733  31.740  27.874  1.00  0.00     0.016 A 
ATOM      9  C   UNL A   1      36.388  29.162  28.685  1.00  0.00     0.010 A 
ATOM     10  C   UNL A   1      36.989  31.483  28.439  1.00  0.00     0.010 A 
ATOM     11  C   UNL A   1      37.308  30.188  28.859  1.00  0.00    -0.014 A 
BRANCH  11  12
ATOM     12  C   UNL A   1      38.552  29.839  29.563  1.00  0.00     0.031 A 
ATOM     13  C   UNL A   1      38.745  30.336  30.959  1.00  0.00     0.074 A 
ATOM     14  C   UNL A   1      39.381  28.938  29.003  1.00  0.00     0.049 A 
ATOM     15  N   UNL A   1      39.726  30.105  31.784  1.00  0.00    -0.248 NA
ATOM     16  C   UNL A   1      37.677  31.189  31.511  1.00  0.00     0.031 C 
ATOM     17  C   UNL A   1      39.193  28.328  27.682  1.00  0.00     0.029 A 
ATOM     18  N   UNL A   1      40.519  28.349  29.480  1.00  0.00    -0.354 N 
ATOM     19  C   UNL A   1      39.415  30.809  32.940  1.00  0.00     0.074 A 
ATOM     20  C   UNL A   1      38.152  31.473  32.713  1.00  0.00     0.031 C 
ATOM     21  C   UNL A   1      40.177  27.443  27.462  1.00  0.00     0.029 A 
ATOM     22  C   UNL A   1      41.095  27.471  28.592  1.00  0.00     0.049 A 
ATOM     23  H   UNL A   1      40.891  28.536  30.372  1.00  0.00     0.167 HD
ATOM     24  C   UNL A   1      40.127  30.884  34.086  1.00  0.00     0.034 A 
ATOM     25  C   UNL A   1      42.257  26.798  28.676  1.00  0.00     0.034 A 
ATOM     26  C   UNL A   1      41.380  30.209  34.276  1.00  0.00     0.049 A 
ATOM     27  C   UNL A   1      43.060  26.955  29.939  1.00  0.00     0.074 A 
ATOM     28  C   UNL A   1      42.237  30.264  35.357  1.00  0.00     0.029 A 
ATOM     29  N   UNL A   1      41.954  29.349  33.348  1.00  0.00    -0.354 N 
ATOM     30  N   UNL A   1      42.763  27.631  31.024  1.00  0.00    -0.248 NA
ATOM     31  C   UNL A   1      44.344  26.249  30.001  1.00  0.00     0.031 C 
ATOM     32  C   UNL A   1      43.341  29.452  35.073  1.00  0.00     0.029 A 
ATOM     33  C   UNL A   1      43.155  28.865  33.830  1.00  0.00     0.049 A 
ATOM     34  H   UNL A   1      41.562  29.119  32.475  1.00  0.00     0.167 HD
ATOM     35  C   UNL A   1      43.812  27.419  31.906  1.00  0.00     0.074 A 
ATOM     36  C   UNL A   1      44.734  26.520  31.240  1.00  0.00     0.031 C 
ATOM     37  C   UNL A   1      44.016  27.935  33.144  1.00  0.00     0.034 A 
BRANCH  24  38
ATOM     38  C   UNL A   1      39.569  31.746  35.184  1.00  0.00     0.023 A 
ATOM     39  C   UNL A   1      38.598  31.226  36.065  1.00  0.00     0.012 A 
ATOM     40  C   UNL A   1      39.991  33.082  35.330  1.00  0.00     0.148 A 
ATOM     41  C   UNL A   1      38.030  32.033  37.050  1.00  0.00     0.002 A 
ATOM     42  C   UNL A   1      39.450  33.868  36.340  1.00  0.00     0.091 A 
ATOM     43  F   UNL A   1      40.893  33.564  34.464  1.00  0.00    -0.205 F 
ATOM     44  C   UNL A   1      38.460  33.350  37.192  1.00  0.00     0.022 A 
BRANCH  42  45
ATOM     45  S   UNL A   1      39.970  35.561  36.638  1.00  0.00     0.127 S 
ATOM     46  O   UNL A   1      41.425  35.418  36.691  1.00  0.00    -0.237 OA
ATOM     47  O   UNL A   1      39.467  36.246  35.448  1.00  0.00    -0.237 OA
ATOM     48  O   UNL A   1      39.341  35.963  37.888  1.00  0.00    -0.744 OA
ENDBRANCH  42  45
ENDBRANCH  24  38
BRANCH  25  49
ATOM     49  C   UNL A   1      42.734  25.958  27.539  1.00  0.00     0.023 A 
ATOM     50  C   UNL A   1      43.617  26.493  26.580  1.00  0.00     0.012 A 
ATOM     51  C   UNL A   1      42.311  24.620  27.402  1.00  0.00     0.148 A 
ATOM     52  C   UNL A   1      44.036  25.724  25.492  1.00  0.00     0.002 A 
ATOM     53  C   UNL A   1      42.781  23.841  26.351  1.00  0.00     0.091 A 
ATOM     54  F   UNL A   1      41.451  24.128  28.305  1.00  0.00    -0.205 F 
ATOM     55  C   UNL A   1      43.629  24.397  25.383  1.00  0.00     0.022 A 
BRANCH  53  56
ATOM     56  S   UNL A   1      42.403  22.090  26.219  1.00  0.00     0.127 S 
ATOM     57  O   UNL A   1      43.309  21.668  25.154  1.00  0.00    -0.237 OA
ATOM     58  O   UNL A   1      42.751  21.600  27.553  1.00  0.00    -0.237 OA
ATOM     59  O   UNL A   1      40.982  22.021  25.912  1.00  0.00    -0.744 OA
ENDBRANCH  53  56
ENDBRANCH  25  49
BRANCH  37  60
ATOM     60  C   UNL A   1      45.269  27.510  33.858  1.00  0.00     0.023 A 
ATOM     61  C   UNL A   1      46.450  28.264  33.711  1.00  0.00     0.012 A 
ATOM     62  C   UNL A   1      45.251  26.404  34.728  1.00  0.00     0.148 A 
ATOM     63  C   UNL A   1      47.609  27.898  34.392  1.00  0.00     0.002 A 
ATOM     64  C   UNL A   1      46.393  26.079  35.446  1.00  0.00     0.091 A 
ATOM     65  F   UNL A   1      44.120  25.690  34.834  1.00  0.00    -0.205 F 
ATOM     66  C   UNL A   1      47.576  26.815  35.269  1.00  0.00     0.022 A 
BRANCH  64  67
ATOM     67  S   UNL A   1      46.407  24.771  36.674  1.00  0.00     0.127 S 
ATOM     68  O   UNL A   1      47.650  25.048  37.391  1.00  0.00    -0.237 OA
ATOM     69  O   UNL A   1      45.188  25.047  37.436  1.00  0.00    -0.237 OA
ATOM     70  O   UNL A   1      46.378  23.520  35.927  1.00  0.00    -0.744 OA
ENDBRANCH  64  67
ENDBRANCH  37  60
ENDBRANCH  11  12
ENDBRANCH   4   6
ENDBRANCH   3   4
ENDBRANCH   2   3
ENDBRANCH   1   2
BRANCH   1  71
ATOM     71  O   UNL A   1      33.570  26.875  24.792  1.00  0.00    -0.374 OA
BRANCH  71  72
ATOM     72  C   UNL A   1      34.067  26.224  23.617  1.00  0.00     0.202 C 
BRANCH  72  73
ATOM     73  C   UNL A   1      34.072  24.706  23.850  1.00  0.00     0.261 C 
BRANCH  73  74
ATOM     74  O   UNL A   1      33.287  24.087  22.818  1.00  0.00    -0.460 OA
BRANCH  74  75
ATOM     75  C   UNL A   1      32.286  23.278  23.267  1.00  0.00     0.338 C 
ATOM     76  O   UNL A   1      32.264  22.072  23.326  1.00  0.00    -0.246 OA
BRANCH  75  77
ATOM     77  C   UNL A   1      31.308  24.174  23.927  1.00  0.00     0.062 A 
ATOM     78  C   UNL A   1      30.934  23.924  25.251  1.00  0.00     0.016 A 
ATOM     79  C   UNL A   1      30.873  25.324  23.279  1.00  0.00     0.044 A 
ATOM     80  C   UNL A   1      30.228  24.893  25.965  1.00  0.00     0.003 A 
ATOM     81  C   UNL A   1      30.135  26.276  23.980  1.00  0.00     0.067 A 
ATOM     82  C   UNL A   1      29.856  26.084  25.339  1.00  0.00     0.028 A 
BRANCH  81  83
ATOM     83  N   UNL A   1      29.544  27.336  23.259  1.00  0.00    -0.221 N 
ATOM     84  N   UNL A   1      28.167  27.482  23.460  1.00  0.00    -0.260 N 
ATOM     85  C   UNL A   1      30.302  28.307  22.618  1.00  0.00     0.249 C 
ATOM     86  C   UNL A   1      27.434  28.556  23.062  1.00  0.00     0.243 C 
ATOM     87  H   UNL A   1      27.693  26.753  23.922  1.00  0.00     0.192 HD
ATOM     88  C   UNL A   1      29.625  29.648  22.467  1.00  0.00     0.097 C 
ATOM     89  O   UNL A   1      31.486  28.173  22.302  1.00  0.00    -0.272 OA
ATOM     90  O   UNL A   1      26.249  28.634  23.373  1.00  0.00    -0.273 OA
ATOM     91  C   UNL A   1      28.135  29.537  22.152  1.00  0.00     0.097 C 
ATOM     92  C   UNL A   1      29.933  30.412  23.764  1.00  0.00     0.041 C 
ATOM     93  C   UNL A   1      27.442  30.909  22.191  1.00  0.00     0.041 C 
ATOM     94  C   UNL A   1      29.013  31.558  24.030  1.00  0.00    -0.030 C 
ATOM     95  C   UNL A   1      27.902  31.788  23.320  1.00  0.00    -0.030 C 
ENDBRANCH  81  83
ENDBRANCH  75  77
ENDBRANCH  74  75
ENDBRANCH  73  74
ENDBRANCH  72  73
ENDBRANCH  71  72
ENDBRANCH   1  71
TORSDOF 18
ENDMDL
