MODEL 1
REMARK VINA RESULT:     -10.7      0.000      0.000
REMARK SMILES CN(C(=O)N1CCC(C(=O)OCCOCCOC(=O)c2ccc(-c3c4nc(c(-c5cccc(S(=O)(=O)[O-])c5F)c5ccc([nH]5)c(-c5cccc(S(=O)(=O)[O-])c5F)c5nc(c(-c6cccc(S(=O)(=O)[O-])c6F)c6ccc3[nH]6)C=C5)C=C4)cc2)CC1)[C@H]1CCSC1
REMARK SMILES IDX 15 1 14 2 13 3 12 4 11 5 9 6 10 7 8 8 3 9 4 10 5 11 6 12
REMARK SMILES IDX 84 13 7 14 83 15 2 16 1 17 85 18 86 19 89 20 87 21 88 22
REMARK SMILES IDX 16 23 17 24 18 25 19 26 20 27 21 28 82 29 22 30 81 31 23 32
REMARK SMILES IDX 24 33 25 34 75 35 26 36 80 37 74 38 76 39 27 40 79 41 73 42
REMARK SMILES IDX 72 43 28 45 60 46 40 47 59 48 41 49 44 50 58 51 77 52 42 53
REMARK SMILES IDX 43 54 57 56 78 57 45 58 29 59 30 60 38 61 31 62 33 63 39 64
REMARK SMILES IDX 32 65 34 66 35 67 36 68 37 69 61 70 62 71 70 72 63 73 65 74
REMARK SMILES IDX 71 75 64 76 66 77 67 78 68 79 69 80 46 81 47 82 55 83 48 84
REMARK SMILES IDX 50 85 56 86 49 87 51 88 52 89 53 90 54 91
REMARK H PARENT 76 44 44 55
REMARK Flexibility Score: inf
ROOT
ATOM      1  C   UNL A   1      37.212  20.885  24.597  1.00  0.00     0.202 C 
ENDROOT
BRANCH   1   2
ATOM      2  O   UNL A   1      35.897  20.820  25.148  1.00  0.00    -0.374 OA
BRANCH   2   3
ATOM      3  C   UNL A   1      35.581  21.753  26.181  1.00  0.00     0.202 C 
BRANCH   3   4
ATOM      4  C   UNL A   1      34.110  22.152  26.324  1.00  0.00     0.261 C 
BRANCH   4   5
ATOM      5  O   UNL A   1      33.418  22.115  25.064  1.00  0.00    -0.463 OA
BRANCH   5   6
ATOM      6  C   UNL A   1      32.072  21.969  25.136  1.00  0.00     0.309 C 
ATOM      7  O   UNL A   1      31.484  20.922  25.387  1.00  0.00    -0.252 OA
BRANCH   6   8
ATOM      8  C   UNL A   1      31.322  23.249  24.845  1.00  0.00     0.103 C 
ATOM      9  C   UNL A   1      31.266  27.340  24.789  1.00  0.00     0.320 C 
ATOM     10  O   UNL A   1      31.534  27.644  25.951  1.00  0.00    -0.248 OA
ATOM     11  N   UNL A   1      30.816  26.061  24.511  1.00  0.00    -0.325 N 
ATOM     12  C   UNL A   1      30.160  25.321  25.585  1.00  0.00     0.122 C 
ATOM     13  C   UNL A   1      31.257  25.271  23.361  1.00  0.00     0.122 C 
ATOM     14  C   UNL A   1      31.003  24.139  26.049  1.00  0.00     0.037 C 
ATOM     15  C   UNL A   1      32.077  24.057  23.791  1.00  0.00     0.037 C 
BRANCH   9  16
ATOM     16  N   UNL A   1      31.317  28.252  23.747  1.00  0.00    -0.324 N 
ATOM     17  C   UNL A   1      32.511  28.507  22.949  1.00  0.00     0.149 C 
BRANCH  16  18
ATOM     18  C   UNL A   1      30.120  29.013  23.331  1.00  0.00     0.097 C 
ATOM     19  C   UNL A   1      30.145  29.713  21.968  1.00  0.00     0.037 C 
ATOM     20  C   UNL A   1      28.832  28.189  23.331  1.00  0.00     0.094 C 
ATOM     21  C   UNL A   1      28.812  30.436  21.848  1.00  0.00     0.072 C 
ATOM     22  S   UNL A   1      27.599  29.339  22.638  1.00  0.00    -0.160 SA
ENDBRANCH  16  18
ENDBRANCH   9  16
ENDBRANCH   6   8
ENDBRANCH   5   6
ENDBRANCH   4   5
ENDBRANCH   3   4
ENDBRANCH   2   3
ENDBRANCH   1   2
BRANCH   1  23
ATOM     23  C   UNL A   1      38.167  19.733  24.940  1.00  0.00     0.261 C 
BRANCH  23  24
ATOM     24  O   UNL A   1      38.794  19.896  26.224  1.00  0.00    -0.460 OA
BRANCH  24  25
ATOM     25  C   UNL A   1      40.144  20.012  26.191  1.00  0.00     0.338 C 
ATOM     26  O   UNL A   1      40.938  19.235  25.677  1.00  0.00    -0.246 OA
BRANCH  25  27
ATOM     27  C   UNL A   1      40.554  21.331  26.707  1.00  0.00     0.060 A 
ATOM     28  C   UNL A   1      40.214  22.460  25.949  1.00  0.00     0.016 A 
ATOM     29  C   UNL A   1      41.310  21.463  27.873  1.00  0.00     0.016 A 
ATOM     30  C   UNL A   1      40.654  23.724  26.339  1.00  0.00     0.010 A 
ATOM     31  C   UNL A   1      41.761  22.732  28.254  1.00  0.00     0.010 A 
ATOM     32  C   UNL A   1      41.457  23.865  27.478  1.00  0.00    -0.014 A 
BRANCH  32  33
ATOM     33  C   UNL A   1      42.055  25.182  27.808  1.00  0.00     0.031 A 
ATOM     34  C   UNL A   1      41.204  26.235  28.459  1.00  0.00     0.074 A 
ATOM     35  C   UNL A   1      43.340  25.441  27.502  1.00  0.00     0.049 A 
ATOM     36  N   UNL A   1      41.513  27.465  28.780  1.00  0.00    -0.248 NA
ATOM     37  C   UNL A   1      39.821  25.856  28.796  1.00  0.00     0.031 C 
ATOM     38  C   UNL A   1      44.266  24.499  26.875  1.00  0.00     0.029 A 
ATOM     39  N   UNL A   1      44.077  26.591  27.648  1.00  0.00    -0.354 N 
ATOM     40  C   UNL A   1      40.357  28.020  29.316  1.00  0.00     0.074 A 
ATOM     41  C   UNL A   1      39.340  26.990  29.288  1.00  0.00     0.031 C 
ATOM     42  C   UNL A   1      45.439  25.120  26.658  1.00  0.00     0.029 A 
ATOM     43  C   UNL A   1      45.336  26.509  27.100  1.00  0.00     0.049 A 
ATOM     44  H   UNL A   1      43.737  27.397  28.101  1.00  0.00     0.167 HD
ATOM     45  C   UNL A   1      40.164  29.271  29.794  1.00  0.00     0.034 A 
ATOM     46  C   UNL A   1      46.283  27.456  26.944  1.00  0.00     0.034 A 
ATOM     47  C   UNL A   1      41.186  30.280  29.854  1.00  0.00     0.049 A 
ATOM     48  C   UNL A   1      46.020  28.852  27.448  1.00  0.00     0.074 A 
ATOM     49  C   UNL A   1      41.113  31.544  30.415  1.00  0.00     0.029 A 
ATOM     50  N   UNL A   1      42.456  30.154  29.316  1.00  0.00    -0.354 N 
ATOM     51  N   UNL A   1      44.983  29.312  28.105  1.00  0.00    -0.248 NA
ATOM     52  C   UNL A   1      47.069  29.856  27.209  1.00  0.00     0.031 C 
ATOM     53  C   UNL A   1      42.326  32.196  30.180  1.00  0.00     0.029 A 
ATOM     54  C   UNL A   1      43.163  31.329  29.496  1.00  0.00     0.049 A 
ATOM     55  H   UNL A   1      42.804  29.347  28.870  1.00  0.00     0.167 HD
ATOM     56  C   UNL A   1      45.265  30.645  28.381  1.00  0.00     0.074 A 
ATOM     57  C   UNL A   1      46.582  30.915  27.844  1.00  0.00     0.031 C 
ATOM     58  C   UNL A   1      44.496  31.570  29.006  1.00  0.00     0.034 A 
BRANCH  45  59
ATOM     59  C   UNL A   1      38.801  29.630  30.320  1.00  0.00     0.023 A 
ATOM     60  C   UNL A   1      38.465  29.330  31.654  1.00  0.00     0.012 A 
ATOM     61  C   UNL A   1      37.895  30.356  29.521  1.00  0.00     0.148 A 
ATOM     62  C   UNL A   1      37.241  29.736  32.183  1.00  0.00     0.002 A 
ATOM     63  C   UNL A   1      36.692  30.789  30.067  1.00  0.00     0.091 A 
ATOM     64  F   UNL A   1      38.228  30.611  28.248  1.00  0.00    -0.205 F 
ATOM     65  C   UNL A   1      36.361  30.475  31.395  1.00  0.00     0.022 A 
BRANCH  63  66
ATOM     66  S   UNL A   1      35.526  31.809  29.158  1.00  0.00     0.127 S 
ATOM     67  O   UNL A   1      34.902  30.824  28.273  1.00  0.00    -0.237 OA
ATOM     68  O   UNL A   1      34.657  32.306  30.224  1.00  0.00    -0.237 OA
ATOM     69  O   UNL A   1      36.318  32.831  28.489  1.00  0.00    -0.744 OA
ENDBRANCH  63  66
ENDBRANCH  45  59
BRANCH  46  70
ATOM     70  C   UNL A   1      47.582  27.123  26.290  1.00  0.00     0.023 A 
ATOM     71  C   UNL A   1      48.631  26.593  27.066  1.00  0.00     0.012 A 
ATOM     72  C   UNL A   1      47.789  27.336  24.914  1.00  0.00     0.148 A 
ATOM     73  C   UNL A   1      49.873  26.315  26.491  1.00  0.00     0.002 A 
ATOM     74  C   UNL A   1      49.009  27.003  24.336  1.00  0.00     0.091 A 
ATOM     75  F   UNL A   1      46.791  27.868  24.194  1.00  0.00    -0.205 F 
ATOM     76  C   UNL A   1      50.058  26.511  25.125  1.00  0.00     0.022 A 
BRANCH  74  77
ATOM     77  S   UNL A   1      49.281  27.097  22.562  1.00  0.00     0.127 S 
ATOM     78  O   UNL A   1      48.440  26.007  22.073  1.00  0.00    -0.237 OA
ATOM     79  O   UNL A   1      48.792  28.440  22.248  1.00  0.00    -0.237 OA
ATOM     80  O   UNL A   1      50.717  26.932  22.386  1.00  0.00    -0.744 OA
ENDBRANCH  74  77
ENDBRANCH  46  70
BRANCH  58  81
ATOM     81  C   UNL A   1      45.055  32.960  29.168  1.00  0.00     0.023 A 
ATOM     82  C   UNL A   1      45.931  33.235  30.236  1.00  0.00     0.012 A 
ATOM     83  C   UNL A   1      44.791  33.962  28.214  1.00  0.00     0.148 A 
ATOM     84  C   UNL A   1      46.516  34.494  30.367  1.00  0.00     0.002 A 
ATOM     85  C   UNL A   1      45.415  35.200  28.323  1.00  0.00     0.091 A 
ATOM     86  F   UNL A   1      43.944  33.683  27.212  1.00  0.00    -0.205 F 
ATOM     87  C   UNL A   1      46.268  35.471  29.405  1.00  0.00     0.022 A 
BRANCH  85  88
ATOM     88  S   UNL A   1      45.232  36.489  27.085  1.00  0.00     0.127 S 
ATOM     89  O   UNL A   1      45.727  37.663  27.801  1.00  0.00    -0.237 OA
ATOM     90  O   UNL A   1      46.107  36.014  26.013  1.00  0.00    -0.237 OA
ATOM     91  O   UNL A   1      43.817  36.520  26.741  1.00  0.00    -0.744 OA
ENDBRANCH  85  88
ENDBRANCH  58  81
ENDBRANCH  32  33
ENDBRANCH  25  27
ENDBRANCH  24  25
ENDBRANCH  23  24
ENDBRANCH   1  23
TORSDOF 19
ENDMDL
MODEL 2
REMARK VINA RESULT:     -10.7      5.479     10.844
REMARK SMILES CN(C(=O)N1CCC(C(=O)OCCOCCOC(=O)c2ccc(-c3c4nc(c(-c5cccc(S(=O)(=O)[O-])c5F)c5ccc([nH]5)c(-c5cccc(S(=O)(=O)[O-])c5F)c5nc(c(-c6cccc(S(=O)(=O)[O-])c6F)c6ccc3[nH]6)C=C5)C=C4)cc2)CC1)[C@H]1CCSC1
REMARK SMILES IDX 15 1 14 2 13 3 12 4 11 5 9 6 10 7 8 8 3 9 4 10 5 11 6 12
REMARK SMILES IDX 84 13 7 14 83 15 2 16 1 17 85 18 86 19 89 20 87 21 88 22
REMARK SMILES IDX 16 23 17 24 18 25 19 26 20 27 21 28 82 29 22 30 81 31 23 32
REMARK SMILES IDX 24 33 25 34 75 35 26 36 80 37 74 38 76 39 27 40 79 41 73 42
REMARK SMILES IDX 72 43 28 45 60 46 40 47 59 48 41 49 44 50 58 51 77 52 42 53
REMARK SMILES IDX 43 54 57 56 78 57 45 58 29 59 30 60 38 61 31 62 33 63 39 64
REMARK SMILES IDX 32 65 34 66 35 67 36 68 37 69 61 70 62 71 70 72 63 73 65 74
REMARK SMILES IDX 71 75 64 76 66 77 67 78 68 79 69 80 46 81 47 82 55 83 48 84
REMARK SMILES IDX 50 85 56 86 49 87 51 88 52 89 53 90 54 91
REMARK H PARENT 76 44 44 55
REMARK Flexibility Score: inf
ROOT
ATOM      1  C   UNL A   1      31.681  30.901  26.019  1.00  0.00     0.202 C 
ENDROOT
BRANCH   1   2
ATOM      2  O   UNL A   1      32.861  30.100  26.043  1.00  0.00    -0.374 OA
BRANCH   2   3
ATOM      3  C   UNL A   1      33.109  29.278  24.901  1.00  0.00     0.202 C 
BRANCH   3   4
ATOM      4  C   UNL A   1      31.883  28.785  24.127  1.00  0.00     0.261 C 
BRANCH   4   5
ATOM      5  O   UNL A   1      32.252  28.002  22.979  1.00  0.00    -0.463 OA
BRANCH   5   6
ATOM      6  C   UNL A   1      31.277  27.211  22.467  1.00  0.00     0.309 C 
ATOM      7  O   UNL A   1      30.229  27.610  21.970  1.00  0.00    -0.252 OA
BRANCH   6   8
ATOM      8  C   UNL A   1      31.589  25.737  22.584  1.00  0.00     0.103 C 
ATOM      9  C   UNL A   1      33.619  22.725  24.468  1.00  0.00     0.320 C 
ATOM     10  O   UNL A   1      34.795  23.066  24.364  1.00  0.00    -0.248 OA
ATOM     11  N   UNL A   1      32.675  23.285  23.625  1.00  0.00    -0.325 N 
ATOM     12  C   UNL A   1      33.130  23.799  22.338  1.00  0.00     0.122 C 
ATOM     13  C   UNL A   1      31.347  23.722  24.060  1.00  0.00     0.122 C 
ATOM     14  C   UNL A   1      33.028  25.319  22.272  1.00  0.00     0.037 C 
ATOM     15  C   UNL A   1      31.197  25.239  23.974  1.00  0.00     0.037 C 
BRANCH   9  16
ATOM     16  N   UNL A   1      33.203  21.735  25.344  1.00  0.00    -0.324 N 
ATOM     17  C   UNL A   1      32.813  21.987  26.728  1.00  0.00     0.149 C 
BRANCH  16  18
ATOM     18  C   UNL A   1      33.074  20.328  24.911  1.00  0.00     0.097 C 
ATOM     19  C   UNL A   1      32.502  20.048  23.517  1.00  0.00     0.037 C 
ATOM     20  C   UNL A   1      34.384  19.541  24.967  1.00  0.00     0.094 C 
ATOM     21  C   UNL A   1      32.453  18.534  23.383  1.00  0.00     0.072 C 
ATOM     22  S   UNL A   1      33.937  17.930  24.240  1.00  0.00    -0.160 SA
ENDBRANCH  16  18
ENDBRANCH   9  16
ENDBRANCH   6   8
ENDBRANCH   5   6
ENDBRANCH   4   5
ENDBRANCH   3   4
ENDBRANCH   2   3
ENDBRANCH   1   2
BRANCH   1  23
ATOM     23  C   UNL A   1      31.778  32.301  26.642  1.00  0.00     0.261 C 
BRANCH  23  24
ATOM     24  O   UNL A   1      32.627  32.334  27.803  1.00  0.00    -0.460 OA
BRANCH  24  25
ATOM     25  C   UNL A   1      33.624  33.251  27.757  1.00  0.00     0.338 C 
ATOM     26  O   UNL A   1      33.514  34.447  27.519  1.00  0.00    -0.246 OA
BRANCH  25  27
ATOM     27  C   UNL A   1      34.887  32.654  28.227  1.00  0.00     0.060 A 
ATOM     28  C   UNL A   1      34.833  31.360  28.767  1.00  0.00     0.016 A 
ATOM     29  C   UNL A   1      36.090  33.361  28.204  1.00  0.00     0.016 A 
ATOM     30  C   UNL A   1      35.979  30.780  29.311  1.00  0.00     0.010 A 
ATOM     31  C   UNL A   1      37.234  32.781  28.763  1.00  0.00     0.010 A 
ATOM     32  C   UNL A   1      37.180  31.500  29.341  1.00  0.00    -0.014 A 
BRANCH  32  33
ATOM     33  C   UNL A   1      38.358  30.951  30.057  1.00  0.00     0.031 A 
ATOM     34  C   UNL A   1      39.200  29.898  29.391  1.00  0.00     0.074 A 
ATOM     35  C   UNL A   1      38.654  31.369  31.301  1.00  0.00     0.049 A 
ATOM     36  N   UNL A   1      40.234  29.250  29.860  1.00  0.00    -0.248 NA
ATOM     37  C   UNL A   1      38.831  29.525  28.015  1.00  0.00     0.031 C 
ATOM     38  C   UNL A   1      37.916  32.387  32.048  1.00  0.00     0.029 A 
ATOM     39  N   UNL A   1      39.637  30.962  32.170  1.00  0.00    -0.354 N 
ATOM     40  C   UNL A   1      40.615  28.366  28.858  1.00  0.00     0.074 A 
ATOM     41  C   UNL A   1      39.706  28.566  27.749  1.00  0.00     0.031 C 
ATOM     42  C   UNL A   1      38.450  32.500  33.277  1.00  0.00     0.029 A 
ATOM     43  C   UNL A   1      39.545  31.542  33.414  1.00  0.00     0.049 A 
ATOM     44  H   UNL A   1      40.339  30.316  31.925  1.00  0.00     0.167 HD
ATOM     45  C   UNL A   1      41.633  27.474  28.860  1.00  0.00     0.034 A 
ATOM     46  C   UNL A   1      40.244  31.303  34.541  1.00  0.00     0.034 A 
ATOM     47  C   UNL A   1      42.556  27.303  29.949  1.00  0.00     0.049 A 
ATOM     48  C   UNL A   1      41.344  30.271  34.523  1.00  0.00     0.074 A 
ATOM     49  C   UNL A   1      43.679  26.497  30.003  1.00  0.00     0.029 A 
ATOM     50  N   UNL A   1      42.450  27.926  31.182  1.00  0.00    -0.354 N 
ATOM     51  N   UNL A   1      41.799  29.566  33.516  1.00  0.00    -0.248 NA
ATOM     52  C   UNL A   1      42.041  30.017  35.793  1.00  0.00     0.031 C 
ATOM     53  C   UNL A   1      44.231  26.602  31.284  1.00  0.00     0.029 A 
ATOM     54  C   UNL A   1      43.465  27.494  32.017  1.00  0.00     0.049 A 
ATOM     55  H   UNL A   1      41.755  28.579  31.427  1.00  0.00     0.167 HD
ATOM     56  C   UNL A   1      42.849  28.809  34.022  1.00  0.00     0.074 A 
ATOM     57  C   UNL A   1      42.982  29.160  35.420  1.00  0.00     0.031 C 
ATOM     58  C   UNL A   1      43.623  27.892  33.392  1.00  0.00     0.034 A 
BRANCH  45  59
ATOM     59  C   UNL A   1      41.832  26.618  27.639  1.00  0.00     0.023 A 
ATOM     60  C   UNL A   1      42.489  27.150  26.513  1.00  0.00     0.012 A 
ATOM     61  C   UNL A   1      41.461  25.259  27.650  1.00  0.00     0.148 A 
ATOM     62  C   UNL A   1      42.763  26.345  25.408  1.00  0.00     0.002 A 
ATOM     63  C   UNL A   1      41.769  24.454  26.560  1.00  0.00     0.091 A 
ATOM     64  F   UNL A   1      40.818  24.781  28.725  1.00  0.00    -0.205 F 
ATOM     65  C   UNL A   1      42.414  24.996  25.437  1.00  0.00     0.022 A 
BRANCH  63  66
ATOM     66  S   UNL A   1      41.431  22.690  26.530  1.00  0.00     0.127 S 
ATOM     67  O   UNL A   1      39.976  22.673  26.370  1.00  0.00    -0.237 OA
ATOM     68  O   UNL A   1      42.177  22.254  25.351  1.00  0.00    -0.237 OA
ATOM     69  O   UNL A   1      41.923  22.162  27.795  1.00  0.00    -0.744 OA
ENDBRANCH  63  66
ENDBRANCH  45  59
BRANCH  46  70
ATOM     70  C   UNL A   1      39.942  32.059  35.791  1.00  0.00     0.023 A 
ATOM     71  C   UNL A   1      40.766  33.140  36.162  1.00  0.00     0.012 A 
ATOM     72  C   UNL A   1      38.855  31.713  36.616  1.00  0.00     0.148 A 
ATOM     73  C   UNL A   1      40.535  33.837  37.350  1.00  0.00     0.002 A 
ATOM     74  C   UNL A   1      38.596  32.448  37.768  1.00  0.00     0.091 A 
ATOM     75  F   UNL A   1      38.097  30.664  36.266  1.00  0.00    -0.205 F 
ATOM     76  C   UNL A   1      39.445  33.498  38.146  1.00  0.00     0.022 A 
BRANCH  74  77
ATOM     77  S   UNL A   1      37.135  32.161  38.773  1.00  0.00     0.127 S 
ATOM     78  O   UNL A   1      37.039  30.704  38.752  1.00  0.00    -0.237 OA
ATOM     79  O   UNL A   1      37.532  32.733  40.061  1.00  0.00    -0.237 OA
ATOM     80  O   UNL A   1      36.063  32.887  38.107  1.00  0.00    -0.744 OA
ENDBRANCH  74  77
ENDBRANCH  46  70
BRANCH  58  81
ATOM     81  C   UNL A   1      44.701  27.208  34.193  1.00  0.00     0.023 A 
ATOM     82  C   UNL A   1      45.940  27.852  34.379  1.00  0.00     0.012 A 
ATOM     83  C   UNL A   1      44.455  25.979  34.837  1.00  0.00     0.148 A 
ATOM     84  C   UNL A   1      46.927  27.272  35.174  1.00  0.00     0.002 A 
ATOM     85  C   UNL A   1      45.426  25.430  35.667  1.00  0.00     0.091 A 
ATOM     86  F   UNL A   1      43.274  25.378  34.636  1.00  0.00    -0.205 F 
ATOM     87  C   UNL A   1      46.667  26.069  35.827  1.00  0.00     0.022 A 
BRANCH  85  88
ATOM     88  S   UNL A   1      45.149  23.934  36.623  1.00  0.00     0.127 S 
ATOM     89  O   UNL A   1      46.513  23.445  36.814  1.00  0.00    -0.237 OA
ATOM     90  O   UNL A   1      44.512  24.454  37.833  1.00  0.00    -0.237 OA
ATOM     91  O   UNL A   1      44.293  23.085  35.805  1.00  0.00    -0.744 OA
ENDBRANCH  85  88
ENDBRANCH  58  81
ENDBRANCH  32  33
ENDBRANCH  25  27
ENDBRANCH  24  25
ENDBRANCH  23  24
ENDBRANCH   1  23
TORSDOF 19
ENDMDL
MODEL 3
REMARK VINA RESULT:     -10.6      1.747      2.252
REMARK SMILES CN(C(=O)N1CCC(C(=O)OCCOCCOC(=O)c2ccc(-c3c4nc(c(-c5cccc(S(=O)(=O)[O-])c5F)c5ccc([nH]5)c(-c5cccc(S(=O)(=O)[O-])c5F)c5nc(c(-c6cccc(S(=O)(=O)[O-])c6F)c6ccc3[nH]6)C=C5)C=C4)cc2)CC1)[C@H]1CCSC1
REMARK SMILES IDX 15 1 14 2 13 3 12 4 11 5 9 6 10 7 8 8 3 9 4 10 5 11 6 12
REMARK SMILES IDX 84 13 7 14 83 15 2 16 1 17 85 18 86 19 89 20 87 21 88 22
REMARK SMILES IDX 16 23 17 24 18 25 19 26 20 27 21 28 82 29 22 30 81 31 23 32
REMARK SMILES IDX 24 33 25 34 75 35 26 36 80 37 74 38 76 39 27 40 79 41 73 42
REMARK SMILES IDX 72 43 28 45 60 46 40 47 59 48 41 49 44 50 58 51 77 52 42 53
REMARK SMILES IDX 43 54 57 56 78 57 45 58 29 59 30 60 38 61 31 62 33 63 39 64
REMARK SMILES IDX 32 65 34 66 35 67 36 68 37 69 61 70 62 71 70 72 63 73 65 74
REMARK SMILES IDX 71 75 64 76 66 77 67 78 68 79 69 80 46 81 47 82 55 83 48 84
REMARK SMILES IDX 50 85 56 86 49 87 51 88 52 89 53 90 54 91
REMARK H PARENT 76 44 44 55
REMARK Flexibility Score: inf
ROOT
ATOM      1  C   UNL A   1      36.433  20.911  24.670  1.00  0.00     0.202 C 
ENDROOT
BRANCH   1   2
ATOM      2  O   UNL A   1      35.298  20.154  25.085  1.00  0.00    -0.374 OA
BRANCH   2   3
ATOM      3  C   UNL A   1      34.174  20.888  25.573  1.00  0.00     0.202 C 
BRANCH   3   4
ATOM      4  C   UNL A   1      32.789  20.401  25.135  1.00  0.00     0.261 C 
BRANCH   4   5
ATOM      5  O   UNL A   1      32.753  20.071  23.736  1.00  0.00    -0.463 OA
BRANCH   5   6
ATOM      6  C   UNL A   1      32.337  21.061  22.908  1.00  0.00     0.309 C 
ATOM      7  O   UNL A   1      31.756  20.894  21.840  1.00  0.00    -0.252 OA
BRANCH   6   8
ATOM      8  C   UNL A   1      32.681  22.442  23.416  1.00  0.00     0.103 C 
ATOM      9  C   UNL A   1      32.956  26.463  22.714  1.00  0.00     0.320 C 
ATOM     10  O   UNL A   1      33.696  26.531  21.734  1.00  0.00    -0.248 OA
ATOM     11  N   UNL A   1      32.942  25.306  23.472  1.00  0.00    -0.325 N 
ATOM     12  C   UNL A   1      34.133  24.462  23.450  1.00  0.00     0.122 C 
ATOM     13  C   UNL A   1      31.724  24.687  23.998  1.00  0.00     0.122 C 
ATOM     14  C   UNL A   1      33.869  23.137  22.745  1.00  0.00     0.037 C 
ATOM     15  C   UNL A   1      31.447  23.339  23.338  1.00  0.00     0.037 C 
BRANCH   9  16
ATOM     16  N   UNL A   1      32.188  27.533  23.146  1.00  0.00    -0.324 N 
ATOM     17  C   UNL A   1      31.071  28.088  22.389  1.00  0.00     0.149 C 
BRANCH  16  18
ATOM     18  C   UNL A   1      32.422  28.169  24.459  1.00  0.00     0.097 C 
ATOM     19  C   UNL A   1      33.844  28.635  24.795  1.00  0.00     0.037 C 
ATOM     20  C   UNL A   1      31.533  29.383  24.726  1.00  0.00     0.094 C 
ATOM     21  C   UNL A   1      33.775  29.196  26.206  1.00  0.00     0.072 C 
ATOM     22  S   UNL A   1      32.159  30.020  26.316  1.00  0.00    -0.160 SA
ENDBRANCH  16  18
ENDBRANCH   9  16
ENDBRANCH   6   8
ENDBRANCH   5   6
ENDBRANCH   4   5
ENDBRANCH   3   4
ENDBRANCH   2   3
ENDBRANCH   1   2
BRANCH   1  23
ATOM     23  C   UNL A   1      37.811  20.265  24.870  1.00  0.00     0.261 C 
BRANCH  23  24
ATOM     24  O   UNL A   1      38.342  20.488  26.188  1.00  0.00    -0.460 OA
BRANCH  24  25
ATOM     25  C   UNL A   1      39.696  20.498  26.266  1.00  0.00     0.338 C 
ATOM     26  O   UNL A   1      40.465  19.656  25.821  1.00  0.00    -0.246 OA
BRANCH  25  27
ATOM     27  C   UNL A   1      40.165  21.786  26.809  1.00  0.00     0.060 A 
ATOM     28  C   UNL A   1      39.675  22.958  26.216  1.00  0.00     0.016 A 
ATOM     29  C   UNL A   1      41.112  21.852  27.832  1.00  0.00     0.016 A 
ATOM     30  C   UNL A   1      40.153  24.203  26.627  1.00  0.00     0.010 A 
ATOM     31  C   UNL A   1      41.598  23.102  28.232  1.00  0.00     0.010 A 
ATOM     32  C   UNL A   1      41.141  24.281  27.616  1.00  0.00    -0.014 A 
BRANCH  32  33
ATOM     33  C   UNL A   1      41.763  25.587  27.944  1.00  0.00     0.031 A 
ATOM     34  C   UNL A   1      40.945  26.639  28.639  1.00  0.00     0.074 A 
ATOM     35  C   UNL A   1      43.039  25.840  27.598  1.00  0.00     0.049 A 
ATOM     36  N   UNL A   1      41.276  27.861  28.966  1.00  0.00    -0.248 NA
ATOM     37  C   UNL A   1      39.570  26.268  29.017  1.00  0.00     0.031 C 
ATOM     38  C   UNL A   1      43.934  24.898  26.926  1.00  0.00     0.029 A 
ATOM     39  N   UNL A   1      43.792  26.980  27.734  1.00  0.00    -0.354 N 
ATOM     40  C   UNL A   1      40.145  28.419  29.549  1.00  0.00     0.074 A 
ATOM     41  C   UNL A   1      39.117  27.399  29.541  1.00  0.00     0.031 C 
ATOM     42  C   UNL A   1      45.105  25.511  26.677  1.00  0.00     0.029 A 
ATOM     43  C   UNL A   1      45.031  26.894  27.142  1.00  0.00     0.049 A 
ATOM     44  H   UNL A   1      43.475  27.782  28.210  1.00  0.00     0.167 HD
ATOM     45  C   UNL A   1      39.981  29.665  30.051  1.00  0.00     0.034 A 
ATOM     46  C   UNL A   1      45.981  27.835  26.967  1.00  0.00     0.034 A 
ATOM     47  C   UNL A   1      41.014  30.664  30.090  1.00  0.00     0.049 A 
ATOM     48  C   UNL A   1      45.749  29.226  27.500  1.00  0.00     0.074 A 
ATOM     49  C   UNL A   1      40.972  31.919  30.671  1.00  0.00     0.029 A 
ATOM     50  N   UNL A   1      42.263  30.534  29.506  1.00  0.00    -0.354 N 
ATOM     51  N   UNL A   1      44.739  29.686  28.199  1.00  0.00    -0.248 NA
ATOM     52  C   UNL A   1      46.798  30.223  27.239  1.00  0.00     0.031 C 
ATOM     53  C   UNL A   1      42.183  32.564  30.403  1.00  0.00     0.029 A 
ATOM     54  C   UNL A   1      42.988  31.699  29.679  1.00  0.00     0.049 A 
ATOM     55  H   UNL A   1      42.588  29.730  29.038  1.00  0.00     0.167 HD
ATOM     56  C   UNL A   1      45.044  31.012  28.483  1.00  0.00     0.074 A 
ATOM     57  C   UNL A   1      46.344  31.277  27.905  1.00  0.00     0.031 C 
ATOM     58  C   UNL A   1      44.305  31.935  29.147  1.00  0.00     0.034 A 
BRANCH  45  59
ATOM     59  C   UNL A   1      38.640  30.029  30.628  1.00  0.00     0.023 A 
ATOM     60  C   UNL A   1      38.349  29.717  31.970  1.00  0.00     0.012 A 
ATOM     61  C   UNL A   1      37.712  30.771  29.870  1.00  0.00     0.148 A 
ATOM     62  C   UNL A   1      37.147  30.127  32.547  1.00  0.00     0.002 A 
ATOM     63  C   UNL A   1      36.534  31.207  30.462  1.00  0.00     0.091 A 
ATOM     64  F   UNL A   1      38.003  31.038  28.589  1.00  0.00    -0.205 F 
ATOM     65  C   UNL A   1      36.247  30.881  31.797  1.00  0.00     0.022 A 
BRANCH  63  66
ATOM     66  S   UNL A   1      35.345  32.247  29.606  1.00  0.00     0.127 S 
ATOM     67  O   UNL A   1      34.856  31.340  28.566  1.00  0.00    -0.237 OA
ATOM     68  O   UNL A   1      34.376  32.539  30.662  1.00  0.00    -0.237 OA
ATOM     69  O   UNL A   1      36.090  33.401  29.124  1.00  0.00    -0.744 OA
ENDBRANCH  63  66
ENDBRANCH  45  59
BRANCH  46  70
ATOM     70  C   UNL A   1      47.254  27.499  26.264  1.00  0.00     0.023 A 
ATOM     71  C   UNL A   1      47.346  27.691  24.872  1.00  0.00     0.012 A 
ATOM     72  C   UNL A   1      48.365  26.986  26.960  1.00  0.00     0.148 A 
ATOM     73  C   UNL A   1      48.509  27.343  24.181  1.00  0.00     0.002 A 
ATOM     74  C   UNL A   1      49.539  26.696  26.275  1.00  0.00     0.091 A 
ATOM     75  F   UNL A   1      48.252  26.782  28.281  1.00  0.00    -0.205 F 
ATOM     76  C   UNL A   1      49.607  26.856  24.883  1.00  0.00     0.022 A 
BRANCH  74  77
ATOM     77  S   UNL A   1      51.040  26.194  27.125  1.00  0.00     0.127 S 
ATOM     78  O   UNL A   1      50.717  24.825  27.519  1.00  0.00    -0.237 OA
ATOM     79  O   UNL A   1      52.045  26.309  26.067  1.00  0.00    -0.237 OA
ATOM     80  O   UNL A   1      51.206  27.154  28.208  1.00  0.00    -0.744 OA
ENDBRANCH  74  77
ENDBRANCH  46  70
BRANCH  58  81
ATOM     81  C   UNL A   1      44.883  33.317  29.309  1.00  0.00     0.023 A 
ATOM     82  C   UNL A   1      45.685  33.607  30.431  1.00  0.00     0.012 A 
ATOM     83  C   UNL A   1      44.712  34.295  28.309  1.00  0.00     0.148 A 
ATOM     84  C   UNL A   1      46.287  34.856  30.567  1.00  0.00     0.002 A 
ATOM     85  C   UNL A   1      45.355  35.522  28.428  1.00  0.00     0.091 A 
ATOM     86  F   UNL A   1      43.935  34.003  27.256  1.00  0.00    -0.205 F 
ATOM     87  C   UNL A   1      46.133  35.808  29.562  1.00  0.00     0.022 A 
BRANCH  85  88
ATOM     88  S   UNL A   1      45.293  36.776  27.143  1.00  0.00     0.127 S 
ATOM     89  O   UNL A   1      45.992  36.112  26.045  1.00  0.00    -0.237 OA
ATOM     90  O   UNL A   1      43.854  36.940  26.941  1.00  0.00    -0.237 OA
ATOM     91  O   UNL A   1      45.965  37.948  27.690  1.00  0.00    -0.744 OA
ENDBRANCH  85  88
ENDBRANCH  58  81
ENDBRANCH  32  33
ENDBRANCH  25  27
ENDBRANCH  24  25
ENDBRANCH  23  24
ENDBRANCH   1  23
TORSDOF 19
ENDMDL
