MODEL 1
REMARK VINA RESULT:     -10.2      0.000      0.000
REMARK SMILES Cn1cc(SCC[C@@H]2CCC[C@@]2([NH3+])C(=O)OCCOCCOC(=O)c2ccc(-c3c4nc(c(-c5cccc(S(=O)(=O)[O-])c5F)c5ccc([nH]5)c(-c5cccc(S(=O)(=O)[O-])c5F)c5nc(c(-c6cccc(S(=O)(=O)[O-])c6F)c6ccc3[nH]6)C=C5)C=C4)cc2)cn1
REMARK SMILES IDX 18 1 17 2 16 3 14 4 15 5 12 6 8 7 9 8 10 9 11 10 7 11 6 12
REMARK SMILES IDX 5 13 4 14 1 15 2 16 3 17 89 18 88 19 13 20 19 24 20 25 21 26
REMARK SMILES IDX 22 27 23 28 24 29 25 30 26 31 87 32 27 33 86 34 28 35 29 36
REMARK SMILES IDX 30 37 80 38 31 39 85 40 79 41 81 42 32 43 84 44 78 45 77 46
REMARK SMILES IDX 33 48 65 49 45 50 64 51 46 52 49 53 63 54 82 55 47 56 48 57
REMARK SMILES IDX 62 59 83 60 50 61 34 62 35 63 43 64 36 65 38 66 44 67 37 68
REMARK SMILES IDX 39 69 40 70 41 71 42 72 66 73 67 74 75 75 68 76 70 77 76 78
REMARK SMILES IDX 69 79 71 80 72 81 73 82 74 83 51 84 52 85 60 86 53 87 55 88
REMARK SMILES IDX 61 89 54 90 56 91 57 92 58 93 59 94
REMARK H PARENT 13 21 13 22 13 23 81 47 49 58
REMARK Flexibility Score: inf
ROOT
ATOM      1  C   UNL A   1      35.533  23.943  24.718  1.00  0.00     0.202 C 
ENDROOT
BRANCH   1   2
ATOM      2  C   UNL A   1      34.228  24.715  24.468  1.00  0.00     0.261 C 
BRANCH   2   3
ATOM      3  O   UNL A   1      34.334  26.128  24.705  1.00  0.00    -0.459 OA
BRANCH   3   4
ATOM      4  C   UNL A   1      33.596  26.881  23.843  1.00  0.00     0.368 C 
ATOM      5  O   UNL A   1      33.164  26.465  22.769  1.00  0.00    -0.245 OA
BRANCH   4   6
ATOM      6  C   UNL A   1      33.266  28.300  24.382  1.00  0.00     0.195 C 
ATOM      7  C   UNL A   1      31.794  28.606  24.764  1.00  0.00     0.063 C 
ATOM      8  C   UNL A   1      31.972  29.758  25.776  1.00  0.00     0.011 C 
ATOM      9  C   UNL A   1      33.210  29.414  26.585  1.00  0.00     0.008 C 
ATOM     10  C   UNL A   1      33.939  28.357  25.779  1.00  0.00     0.081 C 
BRANCH   7  11
ATOM     11  C   UNL A   1      30.801  28.992  23.649  1.00  0.00     0.022 C 
BRANCH  11  12
ATOM     12  C   UNL A   1      30.090  27.823  22.920  1.00  0.00     0.075 C 
BRANCH  12  13
ATOM     13  S   UNL A   1      29.002  26.701  23.871  1.00  0.00    -0.123 SA
BRANCH  13  14
ATOM     14  C   UNL A   1      30.063  25.396  24.323  1.00  0.00     0.045 A 
ATOM     15  C   UNL A   1      31.269  22.927  26.572  1.00  0.00     0.173 C 
ATOM     16  N   UNL A   1      31.041  23.818  25.458  1.00  0.00    -0.275 N 
ATOM     17  C   UNL A   1      30.620  25.115  25.545  1.00  0.00     0.123 A 
ATOM     18  N   UNL A   1      31.020  23.329  24.202  1.00  0.00    -0.181 NA
ATOM     19  C   UNL A   1      30.433  24.309  23.504  1.00  0.00     0.150 A 
ENDBRANCH  13  14
ENDBRANCH  12  13
ENDBRANCH  11  12
ENDBRANCH   7  11
BRANCH   6  20
ATOM     20  N   UNL A   1      33.840  29.339  23.496  1.00  0.00    -0.343 N 
ATOM     21  H   UNL A   1      33.090  29.928  23.133  1.00  0.00     0.345 HD
ATOM     22  H   UNL A   1      34.329  28.893  22.720  1.00  0.00     0.345 HD
ATOM     23  H   UNL A   1      34.495  29.912  24.026  1.00  0.00     0.345 HD
ENDBRANCH   6  20
ENDBRANCH   4   6
ENDBRANCH   3   4
ENDBRANCH   2   3
ENDBRANCH   1   2
BRANCH   1  24
ATOM     24  O   UNL A   1      35.872  22.898  23.808  1.00  0.00    -0.374 OA
BRANCH  24  25
ATOM     25  C   UNL A   1      35.826  21.574  24.346  1.00  0.00     0.202 C 
BRANCH  25  26
ATOM     26  C   UNL A   1      37.168  20.908  24.649  1.00  0.00     0.261 C 
BRANCH  26  27
ATOM     27  O   UNL A   1      37.647  21.299  25.945  1.00  0.00    -0.460 OA
BRANCH  27  28
ATOM     28  C   UNL A   1      38.977  21.146  26.126  1.00  0.00     0.338 C 
ATOM     29  O   UNL A   1      39.674  20.218  25.734  1.00  0.00    -0.246 OA
BRANCH  28  30
ATOM     30  C   UNL A   1      39.537  22.385  26.693  1.00  0.00     0.060 A 
ATOM     31  C   UNL A   1      38.950  23.594  26.295  1.00  0.00     0.016 A 
ATOM     32  C   UNL A   1      40.618  22.376  27.578  1.00  0.00     0.016 A 
ATOM     33  C   UNL A   1      39.483  24.803  26.724  1.00  0.00     0.010 A 
ATOM     34  C   UNL A   1      41.159  23.593  28.002  1.00  0.00     0.010 A 
ATOM     35  C   UNL A   1      40.620  24.808  27.541  1.00  0.00    -0.014 A 
BRANCH  35  36
ATOM     36  C   UNL A   1      41.339  26.081  27.775  1.00  0.00     0.031 A 
ATOM     37  C   UNL A   1      40.646  27.171  28.543  1.00  0.00     0.074 A 
ATOM     38  C   UNL A   1      42.592  26.255  27.321  1.00  0.00     0.049 A 
ATOM     39  N   UNL A   1      41.068  28.371  28.840  1.00  0.00    -0.248 NA
ATOM     40  C   UNL A   1      39.291  26.870  29.039  1.00  0.00     0.031 C 
ATOM     41  C   UNL A   1      43.365  25.265  26.573  1.00  0.00     0.029 A 
ATOM     42  N   UNL A   1      43.424  27.342  27.403  1.00  0.00    -0.354 N 
ATOM     43  C   UNL A   1      40.025  28.981  29.526  1.00  0.00     0.074 A 
ATOM     44  C   UNL A   1      38.943  28.022  29.593  1.00  0.00     0.031 C 
ATOM     45  C   UNL A   1      44.550  25.802  26.236  1.00  0.00     0.029 A 
ATOM     46  C   UNL A   1      44.605  27.181  26.720  1.00  0.00     0.049 A 
ATOM     47  H   UNL A   1      43.197  28.160  27.903  1.00  0.00     0.167 HD
ATOM     48  C   UNL A   1      39.976  30.222  30.061  1.00  0.00     0.034 A 
ATOM     49  C   UNL A   1      45.603  28.057  26.488  1.00  0.00     0.034 A 
ATOM     50  C   UNL A   1      41.062  31.163  30.008  1.00  0.00     0.049 A 
ATOM     51  C   UNL A   1      45.514  29.442  27.074  1.00  0.00     0.074 A 
ATOM     52  C   UNL A   1      41.133  32.426  30.567  1.00  0.00     0.029 A 
ATOM     53  N   UNL A   1      42.259  30.951  29.341  1.00  0.00    -0.354 N 
ATOM     54  N   UNL A   1      44.570  29.964  27.821  1.00  0.00    -0.248 NA
ATOM     55  C   UNL A   1      46.642  30.348  26.814  1.00  0.00     0.031 C 
ATOM     56  C   UNL A   1      42.359  32.994  30.206  1.00  0.00     0.029 A 
ATOM     57  C   UNL A   1      43.069  32.067  29.458  1.00  0.00     0.049 A 
ATOM     58  H   UNL A   1      42.498  30.129  28.856  1.00  0.00     0.167 HD
ATOM     59  C   UNL A   1      45.007  31.243  28.150  1.00  0.00     0.074 A 
ATOM     60  C   UNL A   1      46.308  31.408  27.537  1.00  0.00     0.031 C 
ATOM     61  C   UNL A   1      44.383  32.199  28.883  1.00  0.00     0.034 A 
BRANCH  48  62
ATOM     62  C   UNL A   1      38.709  30.634  30.763  1.00  0.00     0.023 A 
ATOM     63  C   UNL A   1      38.572  30.424  32.151  1.00  0.00     0.012 A 
ATOM     64  C   UNL A   1      37.676  31.281  30.058  1.00  0.00     0.148 A 
ATOM     65  C   UNL A   1      37.415  30.823  32.819  1.00  0.00     0.002 A 
ATOM     66  C   UNL A   1      36.546  31.719  30.739  1.00  0.00     0.091 A 
ATOM     67  F   UNL A   1      37.814  31.450  28.735  1.00  0.00    -0.205 F 
ATOM     68  C   UNL A   1      36.409  31.480  32.115  1.00  0.00     0.022 A 
BRANCH  66  69
ATOM     69  S   UNL A   1      35.232  32.645  29.939  1.00  0.00     0.127 S 
ATOM     70  O   UNL A   1      35.974  33.753  29.339  1.00  0.00    -0.237 OA
ATOM     71  O   UNL A   1      34.709  31.670  28.983  1.00  0.00    -0.237 OA
ATOM     72  O   UNL A   1      34.302  33.019  30.997  1.00  0.00    -0.744 OA
ENDBRANCH  66  69
ENDBRANCH  48  62
BRANCH  49  73
ATOM     73  C   UNL A   1      46.781  27.645  25.676  1.00  0.00     0.023 A 
ATOM     74  C   UNL A   1      46.771  27.839  24.281  1.00  0.00     0.012 A 
ATOM     75  C   UNL A   1      47.918  27.077  26.282  1.00  0.00     0.148 A 
ATOM     76  C   UNL A   1      47.859  27.444  23.501  1.00  0.00     0.002 A 
ATOM     77  C   UNL A   1      49.021  26.741  25.508  1.00  0.00     0.091 A 
ATOM     78  F   UNL A   1      47.902  26.887  27.609  1.00  0.00    -0.205 F 
ATOM     79  C   UNL A   1      48.987  26.905  24.115  1.00  0.00     0.022 A 
BRANCH  77  80
ATOM     80  S   UNL A   1      50.565  26.170  26.227  1.00  0.00     0.127 S 
ATOM     81  O   UNL A   1      50.153  24.927  26.873  1.00  0.00    -0.237 OA
ATOM     82  O   UNL A   1      51.404  26.003  25.039  1.00  0.00    -0.237 OA
ATOM     83  O   UNL A   1      50.999  27.234  27.121  1.00  0.00    -0.744 OA
ENDBRANCH  77  80
ENDBRANCH  49  73
BRANCH  61  84
ATOM     84  C   UNL A   1      45.113  33.498  29.106  1.00  0.00     0.023 A 
ATOM     85  C   UNL A   1      45.914  33.669  30.252  1.00  0.00     0.012 A 
ATOM     86  C   UNL A   1      45.060  34.523  28.141  1.00  0.00     0.148 A 
ATOM     87  C   UNL A   1      46.623  34.854  30.451  1.00  0.00     0.002 A 
ATOM     88  C   UNL A   1      45.811  35.678  28.319  1.00  0.00     0.091 A 
ATOM     89  F   UNL A   1      44.280  34.348  27.064  1.00  0.00    -0.205 F 
ATOM     90  C   UNL A   1      46.580  35.852  29.481  1.00  0.00     0.022 A 
BRANCH  88  91
ATOM     91  S   UNL A   1      45.898  36.973  27.077  1.00  0.00     0.127 S 
ATOM     92  O   UNL A   1      46.476  36.256  25.941  1.00  0.00    -0.237 OA
ATOM     93  O   UNL A   1      44.492  37.341  26.914  1.00  0.00    -0.237 OA
ATOM     94  O   UNL A   1      46.736  38.020  27.644  1.00  0.00    -0.744 OA
ENDBRANCH  88  91
ENDBRANCH  61  84
ENDBRANCH  35  36
ENDBRANCH  28  30
ENDBRANCH  27  28
ENDBRANCH  26  27
ENDBRANCH  25  26
ENDBRANCH  24  25
ENDBRANCH   1  24
TORSDOF 22
ENDMDL
MODEL 2
REMARK VINA RESULT:     -10.1      2.020      2.732
REMARK SMILES Cn1cc(SCC[C@@H]2CCC[C@@]2([NH3+])C(=O)OCCOCCOC(=O)c2ccc(-c3c4nc(c(-c5cccc(S(=O)(=O)[O-])c5F)c5ccc([nH]5)c(-c5cccc(S(=O)(=O)[O-])c5F)c5nc(c(-c6cccc(S(=O)(=O)[O-])c6F)c6ccc3[nH]6)C=C5)C=C4)cc2)cn1
REMARK SMILES IDX 18 1 17 2 16 3 14 4 15 5 12 6 8 7 9 8 10 9 11 10 7 11 6 12
REMARK SMILES IDX 5 13 4 14 1 15 2 16 3 17 89 18 88 19 13 20 19 24 20 25 21 26
REMARK SMILES IDX 22 27 23 28 24 29 25 30 26 31 87 32 27 33 86 34 28 35 29 36
REMARK SMILES IDX 30 37 80 38 31 39 85 40 79 41 81 42 32 43 84 44 78 45 77 46
REMARK SMILES IDX 33 48 65 49 45 50 64 51 46 52 49 53 63 54 82 55 47 56 48 57
REMARK SMILES IDX 62 59 83 60 50 61 34 62 35 63 43 64 36 65 38 66 44 67 37 68
REMARK SMILES IDX 39 69 40 70 41 71 42 72 66 73 67 74 75 75 68 76 70 77 76 78
REMARK SMILES IDX 69 79 71 80 72 81 73 82 74 83 51 84 52 85 60 86 53 87 55 88
REMARK SMILES IDX 61 89 54 90 56 91 57 92 58 93 59 94
REMARK H PARENT 13 21 13 22 13 23 81 47 49 58
REMARK Flexibility Score: inf
ROOT
ATOM      1  C   UNL A   1      35.334  22.829  26.908  1.00  0.00     0.202 C 
ENDROOT
BRANCH   1   2
ATOM      2  C   UNL A   1      33.841  22.707  27.249  1.00  0.00     0.261 C 
BRANCH   2   3
ATOM      3  O   UNL A   1      32.966  23.010  26.150  1.00  0.00    -0.459 OA
BRANCH   3   4
ATOM      4  C   UNL A   1      32.221  24.133  26.342  1.00  0.00     0.368 C 
ATOM      5  O   UNL A   1      31.404  24.265  27.252  1.00  0.00    -0.245 OA
BRANCH   4   6
ATOM      6  C   UNL A   1      32.563  25.282  25.355  1.00  0.00     0.195 C 
ATOM      7  C   UNL A   1      32.487  24.979  23.835  1.00  0.00     0.063 C 
ATOM      8  C   UNL A   1      32.261  26.391  23.251  1.00  0.00     0.011 C 
ATOM      9  C   UNL A   1      31.334  27.100  24.222  1.00  0.00     0.008 C 
ATOM     10  C   UNL A   1      31.392  26.289  25.502  1.00  0.00     0.081 C 
BRANCH   7  11
ATOM     11  C   UNL A   1      33.681  24.279  23.155  1.00  0.00     0.022 C 
BRANCH  11  12
ATOM     12  C   UNL A   1      33.554  22.750  22.936  1.00  0.00     0.075 C 
BRANCH  12  13
ATOM     13  S   UNL A   1      31.892  21.984  22.900  1.00  0.00    -0.123 SA
BRANCH  13  14
ATOM     14  C   UNL A   1      32.160  20.404  23.583  1.00  0.00     0.045 A 
ATOM     15  C   UNL A   1      33.853  17.291  23.797  1.00  0.00     0.173 C 
ATOM     16  N   UNL A   1      32.963  18.417  23.957  1.00  0.00    -0.275 N 
ATOM     17  C   UNL A   1      32.528  19.240  22.957  1.00  0.00     0.123 A 
ATOM     18  N   UNL A   1      32.671  18.871  25.193  1.00  0.00    -0.181 NA
ATOM     19  C   UNL A   1      32.162  20.087  24.957  1.00  0.00     0.150 A 
ENDBRANCH  13  14
ENDBRANCH  12  13
ENDBRANCH  11  12
ENDBRANCH   7  11
BRANCH   6  20
ATOM     20  N   UNL A   1      33.842  25.928  25.732  1.00  0.00    -0.343 N 
ATOM     21  H   UNL A   1      33.904  25.991  26.748  1.00  0.00     0.345 HD
ATOM     22  H   UNL A   1      33.881  26.865  25.330  1.00  0.00     0.345 HD
ATOM     23  H   UNL A   1      34.620  25.374  25.377  1.00  0.00     0.345 HD
ENDBRANCH   6  20
ENDBRANCH   4   6
ENDBRANCH   3   4
ENDBRANCH   2   3
ENDBRANCH   1   2
BRANCH   1  24
ATOM     24  O   UNL A   1      35.756  22.411  25.610  1.00  0.00    -0.374 OA
BRANCH  24  25
ATOM     25  C   UNL A   1      35.694  21.004  25.366  1.00  0.00     0.202 C 
BRANCH  25  26
ATOM     26  C   UNL A   1      37.008  20.311  25.002  1.00  0.00     0.261 C 
BRANCH  26  27
ATOM     27  O   UNL A   1      38.100  21.243  25.043  1.00  0.00    -0.460 OA
BRANCH  27  28
ATOM     28  C   UNL A   1      39.079  20.927  25.919  1.00  0.00     0.338 C 
ATOM     29  O   UNL A   1      39.591  19.828  26.090  1.00  0.00    -0.246 OA
BRANCH  28  30
ATOM     30  C   UNL A   1      39.618  22.163  26.514  1.00  0.00     0.060 A 
ATOM     31  C   UNL A   1      39.060  23.375  26.085  1.00  0.00     0.016 A 
ATOM     32  C   UNL A   1      40.651  22.148  27.453  1.00  0.00     0.016 A 
ATOM     33  C   UNL A   1      39.578  24.581  26.541  1.00  0.00     0.010 A 
ATOM     34  C   UNL A   1      41.177  23.361  27.905  1.00  0.00     0.010 A 
ATOM     35  C   UNL A   1      40.672  24.579  27.415  1.00  0.00    -0.014 A 
BRANCH  35  36
ATOM     36  C   UNL A   1      41.386  25.847  27.685  1.00  0.00     0.031 A 
ATOM     37  C   UNL A   1      40.662  26.941  28.420  1.00  0.00     0.074 A 
ATOM     38  C   UNL A   1      42.661  26.014  27.294  1.00  0.00     0.049 A 
ATOM     39  N   UNL A   1      41.077  28.138  28.739  1.00  0.00    -0.248 NA
ATOM     40  C   UNL A   1      39.284  26.648  28.849  1.00  0.00     0.031 C 
ATOM     41  C   UNL A   1      43.463  25.020  26.583  1.00  0.00     0.029 A 
ATOM     42  N   UNL A   1      43.494  27.096  27.418  1.00  0.00    -0.354 N 
ATOM     43  C   UNL A   1      40.005  28.753  29.374  1.00  0.00     0.074 A 
ATOM     44  C   UNL A   1      38.916  27.802  29.387  1.00  0.00     0.031 C 
ATOM     45  C   UNL A   1      44.666  25.550  26.305  1.00  0.00     0.029 A 
ATOM     46  C   UNL A   1      44.706  26.928  26.793  1.00  0.00     0.049 A 
ATOM     47  H   UNL A   1      43.248  27.914  27.907  1.00  0.00     0.167 HD
ATOM     48  C   UNL A   1      39.938  29.995  29.908  1.00  0.00     0.034 A 
ATOM     49  C   UNL A   1      45.719  27.798  26.612  1.00  0.00     0.034 A 
ATOM     50  C   UNL A   1      41.031  30.928  29.908  1.00  0.00     0.049 A 
ATOM     51  C   UNL A   1      45.610  29.183  27.194  1.00  0.00     0.074 A 
ATOM     52  C   UNL A   1      41.082  32.191  30.472  1.00  0.00     0.029 A 
ATOM     53  N   UNL A   1      42.258  30.710  29.301  1.00  0.00    -0.354 N 
ATOM     54  N   UNL A   1      44.634  29.710  27.895  1.00  0.00    -0.248 NA
ATOM     55  C   UNL A   1      46.755  30.082  26.991  1.00  0.00     0.031 C 
ATOM     56  C   UNL A   1      42.328  32.751  30.172  1.00  0.00     0.029 A 
ATOM     57  C   UNL A   1      43.068  31.821  29.459  1.00  0.00     0.049 A 
ATOM     58  H   UNL A   1      42.515  29.887  28.828  1.00  0.00     0.167 HD
ATOM     59  C   UNL A   1      45.062  30.986  28.246  1.00  0.00     0.074 A 
ATOM     60  C   UNL A   1      46.393  31.144  27.698  1.00  0.00     0.031 C 
ATOM     61  C   UNL A   1      44.409  31.945  28.948  1.00  0.00     0.034 A 
BRANCH  48  62
ATOM     62  C   UNL A   1      38.641  30.414  30.548  1.00  0.00     0.023 A 
ATOM     63  C   UNL A   1      38.414  30.155  31.915  1.00  0.00     0.012 A 
ATOM     64  C   UNL A   1      37.670  31.115  29.807  1.00  0.00     0.148 A 
ATOM     65  C   UNL A   1      37.228  30.559  32.527  1.00  0.00     0.002 A 
ATOM     66  C   UNL A   1      36.511  31.558  30.435  1.00  0.00     0.091 A 
ATOM     67  F   UNL A   1      37.894  31.331  28.503  1.00  0.00    -0.205 F 
ATOM     68  C   UNL A   1      36.284  31.270  31.790  1.00  0.00     0.022 A 
BRANCH  66  69
ATOM     69  S   UNL A   1      35.272  32.549  29.595  1.00  0.00     0.127 S 
ATOM     70  O   UNL A   1      34.300  32.775  30.664  1.00  0.00    -0.237 OA
ATOM     71  O   UNL A   1      36.039  33.732  29.206  1.00  0.00    -0.237 OA
ATOM     72  O   UNL A   1      34.796  31.740  28.481  1.00  0.00    -0.744 OA
ENDBRANCH  66  69
ENDBRANCH  48  62
BRANCH  49  73
ATOM     73  C   UNL A   1      46.934  27.379  25.857  1.00  0.00     0.023 A 
ATOM     74  C   UNL A   1      47.920  26.603  26.495  1.00  0.00     0.012 A 
ATOM     75  C   UNL A   1      47.105  27.732  24.505  1.00  0.00     0.148 A 
ATOM     76  C   UNL A   1      49.073  26.216  25.810  1.00  0.00     0.002 A 
ATOM     77  C   UNL A   1      48.226  27.293  23.811  1.00  0.00     0.091 A 
ATOM     78  F   UNL A   1      46.161  28.483  23.920  1.00  0.00    -0.205 F 
ATOM     79  C   UNL A   1      49.220  26.551  24.466  1.00  0.00     0.022 A 
BRANCH  77  80
ATOM     80  S   UNL A   1      48.433  27.560  22.047  1.00  0.00     0.127 S 
ATOM     81  O   UNL A   1      47.170  28.202  21.691  1.00  0.00    -0.237 OA
ATOM     82  O   UNL A   1      49.604  28.436  22.013  1.00  0.00    -0.237 OA
ATOM     83  O   UNL A   1      48.655  26.240  21.473  1.00  0.00    -0.744 OA
ENDBRANCH  77  80
ENDBRANCH  49  73
BRANCH  61  84
ATOM     84  C   UNL A   1      45.135  33.240  29.209  1.00  0.00     0.023 A 
ATOM     85  C   UNL A   1      45.976  33.364  30.333  1.00  0.00     0.012 A 
ATOM     86  C   UNL A   1      45.039  34.310  28.297  1.00  0.00     0.148 A 
ATOM     87  C   UNL A   1      46.681  34.545  30.564  1.00  0.00     0.002 A 
ATOM     88  C   UNL A   1      45.785  35.463  28.505  1.00  0.00     0.091 A 
ATOM     89  F   UNL A   1      44.222  34.178  27.242  1.00  0.00    -0.205 F 
ATOM     90  C   UNL A   1      46.595  35.588  29.645  1.00  0.00     0.022 A 
BRANCH  88  91
ATOM     91  S   UNL A   1      45.816  36.817  27.325  1.00  0.00     0.127 S 
ATOM     92  O   UNL A   1      46.291  36.146  26.116  1.00  0.00    -0.237 OA
ATOM     93  O   UNL A   1      44.412  37.225  27.284  1.00  0.00    -0.237 OA
ATOM     94  O   UNL A   1      46.720  37.815  27.880  1.00  0.00    -0.744 OA
ENDBRANCH  88  91
ENDBRANCH  61  84
ENDBRANCH  35  36
ENDBRANCH  28  30
ENDBRANCH  27  28
ENDBRANCH  26  27
ENDBRANCH  25  26
ENDBRANCH  24  25
ENDBRANCH   1  24
TORSDOF 22
ENDMDL
MODEL 3
REMARK VINA RESULT:     -10.0      1.711      8.226
REMARK SMILES Cn1cc(SCC[C@@H]2CCC[C@@]2([NH3+])C(=O)OCCOCCOC(=O)c2ccc(-c3c4nc(c(-c5cccc(S(=O)(=O)[O-])c5F)c5ccc([nH]5)c(-c5cccc(S(=O)(=O)[O-])c5F)c5nc(c(-c6cccc(S(=O)(=O)[O-])c6F)c6ccc3[nH]6)C=C5)C=C4)cc2)cn1
REMARK SMILES IDX 18 1 17 2 16 3 14 4 15 5 12 6 8 7 9 8 10 9 11 10 7 11 6 12
REMARK SMILES IDX 5 13 4 14 1 15 2 16 3 17 89 18 88 19 13 20 19 24 20 25 21 26
REMARK SMILES IDX 22 27 23 28 24 29 25 30 26 31 87 32 27 33 86 34 28 35 29 36
REMARK SMILES IDX 30 37 80 38 31 39 85 40 79 41 81 42 32 43 84 44 78 45 77 46
REMARK SMILES IDX 33 48 65 49 45 50 64 51 46 52 49 53 63 54 82 55 47 56 48 57
REMARK SMILES IDX 62 59 83 60 50 61 34 62 35 63 43 64 36 65 38 66 44 67 37 68
REMARK SMILES IDX 39 69 40 70 41 71 42 72 66 73 67 74 75 75 68 76 70 77 76 78
REMARK SMILES IDX 69 79 71 80 72 81 73 82 74 83 51 84 52 85 60 86 53 87 55 88
REMARK SMILES IDX 61 89 54 90 56 91 57 92 58 93 59 94
REMARK H PARENT 13 21 13 22 13 23 81 47 49 58
REMARK Flexibility Score: inf
ROOT
ATOM      1  C   UNL A   1      34.246  21.949  24.562  1.00  0.00     0.202 C 
ENDROOT
BRANCH   1   2
ATOM      2  C   UNL A   1      32.991  22.212  25.407  1.00  0.00     0.261 C 
BRANCH   2   3
ATOM      3  O   UNL A   1      32.479  23.549  25.286  1.00  0.00    -0.459 OA
BRANCH   3   4
ATOM      4  C   UNL A   1      31.805  23.770  24.123  1.00  0.00     0.368 C 
ATOM      5  O   UNL A   1      31.039  22.955  23.611  1.00  0.00    -0.245 OA
BRANCH   4   6
ATOM      6  C   UNL A   1      32.020  25.193  23.540  1.00  0.00     0.195 C 
ATOM      7  C   UNL A   1      31.263  26.372  24.208  1.00  0.00     0.063 C 
ATOM      8  C   UNL A   1      32.159  27.569  23.823  1.00  0.00     0.011 C 
ATOM      9  C   UNL A   1      33.588  27.065  23.908  1.00  0.00     0.008 C 
ATOM     10  C   UNL A   1      33.484  25.552  23.908  1.00  0.00     0.081 C 
BRANCH   7  11
ATOM     11  C   UNL A   1      29.793  26.628  23.819  1.00  0.00     0.022 C 
BRANCH  11  12
ATOM     12  C   UNL A   1      29.502  27.931  23.031  1.00  0.00     0.075 C 
BRANCH  12  13
ATOM     13  S   UNL A   1      27.809  28.625  23.037  1.00  0.00    -0.123 SA
BRANCH  13  14
ATOM     14  C   UNL A   1      28.047  30.278  22.544  1.00  0.00     0.045 A 
ATOM     15  C   UNL A   1      27.639  33.009  20.312  1.00  0.00     0.173 C 
ATOM     16  N   UNL A   1      28.002  32.126  21.396  1.00  0.00    -0.275 N 
ATOM     17  C   UNL A   1      28.252  30.787  21.287  1.00  0.00     0.123 A 
ATOM     18  N   UNL A   1      27.896  32.551  22.671  1.00  0.00    -0.181 NA
ATOM     19  C   UNL A   1      27.942  31.412  23.375  1.00  0.00     0.150 A 
ENDBRANCH  13  14
ENDBRANCH  12  13
ENDBRANCH  11  12
ENDBRANCH   7  11
BRANCH   6  20
ATOM     20  N   UNL A   1      31.851  25.183  22.069  1.00  0.00    -0.343 N 
ATOM     21  H   UNL A   1      32.203  26.059  21.681  1.00  0.00     0.345 HD
ATOM     22  H   UNL A   1      30.861  25.084  21.841  1.00  0.00     0.345 HD
ATOM     23  H   UNL A   1      32.371  24.402  21.672  1.00  0.00     0.345 HD
ENDBRANCH   6  20
ENDBRANCH   4   6
ENDBRANCH   3   4
ENDBRANCH   2   3
ENDBRANCH   1   2
BRANCH   1  24
ATOM     24  O   UNL A   1      35.512  21.987  25.219  1.00  0.00    -0.374 OA
BRANCH  24  25
ATOM     25  C   UNL A   1      36.598  21.395  24.500  1.00  0.00     0.202 C 
BRANCH  25  26
ATOM     26  C   UNL A   1      37.556  20.517  25.304  1.00  0.00     0.261 C 
BRANCH  26  27
ATOM     27  O   UNL A   1      38.906  20.990  25.177  1.00  0.00    -0.460 OA
BRANCH  27  28
ATOM     28  C   UNL A   1      39.680  20.792  26.267  1.00  0.00     0.338 C 
ATOM     29  O   UNL A   1      40.156  19.732  26.652  1.00  0.00    -0.246 OA
BRANCH  28  30
ATOM     30  C   UNL A   1      40.063  22.097  26.835  1.00  0.00     0.060 A 
ATOM     31  C   UNL A   1      39.380  23.225  26.363  1.00  0.00     0.016 A 
ATOM     32  C   UNL A   1      41.073  22.223  27.792  1.00  0.00     0.016 A 
ATOM     33  C   UNL A   1      39.750  24.494  26.793  1.00  0.00     0.010 A 
ATOM     34  C   UNL A   1      41.450  23.499  28.217  1.00  0.00     0.010 A 
ATOM     35  C   UNL A   1      40.820  24.639  27.685  1.00  0.00    -0.014 A 
BRANCH  35  36
ATOM     36  C   UNL A   1      41.381  25.987  27.931  1.00  0.00     0.031 A 
ATOM     37  C   UNL A   1      42.771  26.290  27.445  1.00  0.00     0.074 A 
ATOM     38  C   UNL A   1      40.658  26.927  28.563  1.00  0.00     0.049 A 
ATOM     39  N   UNL A   1      43.471  27.385  27.572  1.00  0.00    -0.248 NA
ATOM     40  C   UNL A   1      43.466  25.212  26.721  1.00  0.00     0.031 C 
ATOM     41  C   UNL A   1      39.298  26.748  29.071  1.00  0.00     0.029 A 
ATOM     42  N   UNL A   1      40.982  28.213  28.911  1.00  0.00    -0.354 N 
ATOM     43  C   UNL A   1      44.699  27.121  26.978  1.00  0.00     0.074 A 
ATOM     44  C   UNL A   1      44.653  25.757  26.498  1.00  0.00     0.031 C 
ATOM     45  C   UNL A   1      38.914  27.875  29.693  1.00  0.00     0.029 A 
ATOM     46  C   UNL A   1      40.011  28.841  29.652  1.00  0.00     0.049 A 
ATOM     47  H   UNL A   1      41.829  28.645  28.654  1.00  0.00     0.167 HD
ATOM     48  C   UNL A   1      45.764  27.943  26.836  1.00  0.00     0.034 A 
ATOM     49  C   UNL A   1      40.019  30.047  30.254  1.00  0.00     0.034 A 
ATOM     50  C   UNL A   1      45.795  29.304  27.298  1.00  0.00     0.049 A 
ATOM     51  C   UNL A   1      41.227  30.935  30.101  1.00  0.00     0.074 A 
ATOM     52  C   UNL A   1      46.806  30.237  27.154  1.00  0.00     0.029 A 
ATOM     53  N   UNL A   1      44.779  29.920  28.011  1.00  0.00    -0.354 N 
ATOM     54  N   UNL A   1      42.336  30.713  29.436  1.00  0.00    -0.248 NA
ATOM     55  C   UNL A   1      41.173  32.251  30.754  1.00  0.00     0.031 C 
ATOM     56  C   UNL A   1      46.415  31.407  27.814  1.00  0.00     0.029 A 
ATOM     57  C   UNL A   1      45.143  31.216  28.331  1.00  0.00     0.049 A 
ATOM     58  H   UNL A   1      43.923  29.498  28.254  1.00  0.00     0.167 HD
ATOM     59  C   UNL A   1      43.093  31.874  29.559  1.00  0.00     0.074 A 
ATOM     60  C   UNL A   1      42.307  32.802  30.345  1.00  0.00     0.031 C 
ATOM     61  C   UNL A   1      44.331  32.144  29.074  1.00  0.00     0.034 A 
BRANCH  48  62
ATOM     62  C   UNL A   1      46.983  27.397  26.141  1.00  0.00     0.023 A 
ATOM     63  C   UNL A   1      47.183  27.649  24.768  1.00  0.00     0.012 A 
ATOM     64  C   UNL A   1      47.960  26.683  26.861  1.00  0.00     0.148 A 
ATOM     65  C   UNL A   1      48.320  27.171  24.116  1.00  0.00     0.002 A 
ATOM     66  C   UNL A   1      49.113  26.251  26.216  1.00  0.00     0.091 A 
ATOM     67  F   UNL A   1      47.740  26.433  28.160  1.00  0.00    -0.205 F 
ATOM     68  C   UNL A   1      49.289  26.483  24.843  1.00  0.00     0.022 A 
BRANCH  66  69
ATOM     69  S   UNL A   1      50.455  25.428  27.080  1.00  0.00     0.127 S 
ATOM     70  O   UNL A   1      50.953  26.500  27.942  1.00  0.00    -0.237 OA
ATOM     71  O   UNL A   1      49.755  24.354  27.783  1.00  0.00    -0.237 OA
ATOM     72  O   UNL A   1      51.381  24.978  26.049  1.00  0.00    -0.744 OA
ENDBRANCH  66  69
ENDBRANCH  48  62
BRANCH  49  73
ATOM     73  C   UNL A   1      38.837  30.494  31.043  1.00  0.00     0.023 A 
ATOM     74  C   UNL A   1      38.808  30.289  32.436  1.00  0.00     0.012 A 
ATOM     75  C   UNL A   1      37.750  31.137  30.420  1.00  0.00     0.148 A 
ATOM     76  C   UNL A   1      37.702  30.685  33.189  1.00  0.00     0.002 A 
ATOM     77  C   UNL A   1      36.679  31.582  31.184  1.00  0.00     0.091 A 
ATOM     78  F   UNL A   1      37.790  31.309  29.091  1.00  0.00    -0.205 F 
ATOM     79  C   UNL A   1      36.643  31.341  32.566  1.00  0.00     0.022 A 
BRANCH  77  80
ATOM     80  S   UNL A   1      35.338  32.555  30.489  1.00  0.00     0.127 S 
ATOM     81  O   UNL A   1      34.965  31.760  29.323  1.00  0.00    -0.237 OA
ATOM     82  O   UNL A   1      34.365  32.546  31.582  1.00  0.00    -0.237 OA
ATOM     83  O   UNL A   1      35.909  33.865  30.207  1.00  0.00    -0.744 OA
ENDBRANCH  77  80
ENDBRANCH  49  73
BRANCH  61  84
ATOM     84  C   UNL A   1      44.903  33.513  29.338  1.00  0.00     0.023 A 
ATOM     85  C   UNL A   1      45.684  33.742  30.489  1.00  0.00     0.012 A 
ATOM     86  C   UNL A   1      44.726  34.554  28.405  1.00  0.00     0.148 A 
ATOM     87  C   UNL A   1      46.249  34.995  30.724  1.00  0.00     0.002 A 
ATOM     88  C   UNL A   1      45.336  35.784  28.620  1.00  0.00     0.091 A 
ATOM     89  F   UNL A   1      43.967  34.321  27.325  1.00  0.00    -0.205 F 
ATOM     90  C   UNL A   1      46.085  36.010  29.785  1.00  0.00     0.022 A 
BRANCH  88  91
ATOM     91  S   UNL A   1      45.265  37.118  27.418  1.00  0.00     0.127 S 
ATOM     92  O   UNL A   1      45.883  38.217  28.159  1.00  0.00    -0.237 OA
ATOM     93  O   UNL A   1      46.076  36.590  26.321  1.00  0.00    -0.237 OA
ATOM     94  O   UNL A   1      43.856  37.296  27.097  1.00  0.00    -0.744 OA
ENDBRANCH  88  91
ENDBRANCH  61  84
ENDBRANCH  35  36
ENDBRANCH  28  30
ENDBRANCH  27  28
ENDBRANCH  26  27
ENDBRANCH  25  26
ENDBRANCH  24  25
ENDBRANCH   1  24
TORSDOF 22
ENDMDL
