MODEL 1
REMARK VINA RESULT:     -12.7      0.000      0.000
REMARK SMILES O=C(OCCOCCOC(=O)c1ccc(-c2c3nc(c(-c4cccc(S(=O)(=O)[O-])c4F)c4ccc([nH]4)c(-c4cccc(S(=O)(=O)[O-])c4F)c4nc(c(-c5cccc(S(=O)(=O)[O-])c5F)c5ccc2[nH]5)C=C4)C=C3)cc1)C1=Cc2cc(S(F)(F)(F)(F)F)cc(Br)c2O[C@H]1C(F)(F)F
REMARK SMILES IDX 7 1 6 2 5 3 4 4 3 5 2 6 1 7 75 8 76 9 91 10 77 11 90 12
REMARK SMILES IDX 78 13 89 14 79 15 87 16 86 17 88 18 92 19 93 20 94 21 95 22
REMARK SMILES IDX 80 23 81 24 82 25 83 26 84 27 85 28 8 29 9 30 10 31 11 32
REMARK SMILES IDX 12 33 13 34 74 35 14 36 73 37 15 38 16 39 17 40 67 41 18 42
REMARK SMILES IDX 72 43 66 44 68 45 19 46 71 47 65 48 64 49 20 51 52 52 32 53
REMARK SMILES IDX 51 54 33 55 36 56 50 57 69 58 34 59 35 60 49 62 70 63 37 64
REMARK SMILES IDX 21 65 22 66 30 67 23 68 25 69 31 70 24 71 26 72 27 73 28 74
REMARK SMILES IDX 29 75 53 76 54 77 62 78 55 79 57 80 63 81 56 82 58 83 59 84
REMARK SMILES IDX 60 85 61 86 38 87 39 88 47 89 40 90 42 91 48 92 41 93 43 94
REMARK SMILES IDX 44 95 45 96 46 97
REMARK H PARENT 68 50 36 61
REMARK Flexibility Score: inf
ROOT
ATOM      1  C   UNL A   1      33.252  28.786  24.411  1.00  0.00     0.202 C 
ENDROOT
BRANCH   1   2
ATOM      2  O   UNL A   1      33.121  27.449  24.869  1.00  0.00    -0.374 OA
BRANCH   2   3
ATOM      3  C   UNL A   1      33.631  26.559  23.887  1.00  0.00     0.202 C 
BRANCH   3   4
ATOM      4  C   UNL A   1      34.340  25.401  24.571  1.00  0.00     0.261 C 
BRANCH   4   5
ATOM      5  O   UNL A   1      33.407  24.668  25.351  1.00  0.00    -0.460 OA
BRANCH   5   6
ATOM      6  C   UNL A   1      32.549  23.723  24.728  1.00  0.00     0.338 C 
ATOM      7  O   UNL A   1      32.666  23.480  23.486  1.00  0.00    -0.246 OA
BRANCH   6   8
ATOM      8  C   UNL A   1      31.491  23.001  25.547  1.00  0.00     0.087 C 
ATOM      9  C   UNL A   1      31.603  21.665  25.776  1.00  0.00     0.027 C 
ATOM     10  C   UNL A   1      30.309  23.772  26.111  1.00  0.00     0.316 C 
ATOM     11  C   UNL A   1      32.785  20.893  25.212  1.00  0.00     0.020 A 
ATOM     12  O   UNL A   1      34.245  22.720  25.637  1.00  0.00    -0.474 OA
ATOM     13  C   UNL A   1      32.527  19.620  24.730  1.00  0.00     0.036 A 
ATOM     14  C   UNL A   1      34.026  21.359  25.293  1.00  0.00     0.142 A 
ATOM     15  C   UNL A   1      33.676  18.802  24.628  1.00  0.00     0.109 A 
ATOM     16  C   UNL A   1      35.099  20.538  25.047  1.00  0.00     0.062 A 
ATOM     17  C   UNL A   1      34.917  19.250  24.626  1.00  0.00     0.044 A 
ATOM     18  Br  UNL A   1      36.919  21.222  25.305  1.00  0.00    -0.047 Br
BRANCH  10  19
ATOM     19  C   UNL A   1      30.423  25.235  25.714  1.00  0.00     0.430 C 
ATOM     20  F   UNL A   1      30.717  25.329  24.421  1.00  0.00    -0.167 F 
ATOM     21  F   UNL A   1      29.235  25.788  25.941  1.00  0.00    -0.167 F 
ATOM     22  F   UNL A   1      31.351  25.869  26.426  1.00  0.00    -0.167 F 
ENDBRANCH  10  19
BRANCH  15  23
ATOM     23  S   UNL A   1      33.426  17.014  24.492  1.00  0.00     0.310 S 
ATOM     24  F   UNL A   1      31.913  17.130  24.950  1.00  0.00    -0.094 F 
ATOM     25  F   UNL A   1      33.806  16.878  26.015  1.00  0.00    -0.094 F 
ATOM     26  F   UNL A   1      33.210  15.478  24.381  1.00  0.00    -0.094 F 
ATOM     27  F   UNL A   1      32.914  17.185  23.008  1.00  0.00    -0.094 F 
ATOM     28  F   UNL A   1      33.533  18.585  24.622  1.00  0.00    -0.094 F 
ENDBRANCH  15  23
ENDBRANCH   6   8
ENDBRANCH   5   6
ENDBRANCH   4   5
ENDBRANCH   3   4
ENDBRANCH   2   3
ENDBRANCH   1   2
BRANCH   1  29
ATOM     29  C   UNL A   1      32.041  29.592  24.851  1.00  0.00     0.261 C 
BRANCH  29  30
ATOM     30  O   UNL A   1      32.055  29.737  26.263  1.00  0.00    -0.460 OA
BRANCH  30  31
ATOM     31  C   UNL A   1      32.688  30.861  26.856  1.00  0.00     0.338 C 
ATOM     32  O   UNL A   1      32.100  31.988  26.866  1.00  0.00    -0.246 OA
BRANCH  31  33
ATOM     33  C   UNL A   1      34.068  30.719  27.476  1.00  0.00     0.060 A 
ATOM     34  C   UNL A   1      34.512  29.441  27.774  1.00  0.00     0.016 A 
ATOM     35  C   UNL A   1      34.743  31.792  27.871  1.00  0.00     0.016 A 
ATOM     36  C   UNL A   1      35.534  29.402  28.751  1.00  0.00     0.010 A 
ATOM     37  C   UNL A   1      35.818  31.669  28.720  1.00  0.00     0.010 A 
ATOM     38  C   UNL A   1      36.274  30.438  29.102  1.00  0.00    -0.014 A 
BRANCH  38  39
ATOM     39  C   UNL A   1      37.563  30.271  29.890  1.00  0.00     0.031 A 
ATOM     40  C   UNL A   1      37.712  30.797  31.175  1.00  0.00     0.074 A 
ATOM     41  C   UNL A   1      38.492  29.448  29.279  1.00  0.00     0.049 A 
ATOM     42  N   UNL A   1      38.716  30.588  32.029  1.00  0.00    -0.248 NA
ATOM     43  C   UNL A   1      36.742  31.700  31.814  1.00  0.00     0.031 C 
ATOM     44  C   UNL A   1      38.344  28.907  27.987  1.00  0.00     0.029 A 
ATOM     45  N   UNL A   1      39.696  29.010  29.784  1.00  0.00    -0.354 N 
ATOM     46  C   UNL A   1      38.496  31.246  33.168  1.00  0.00     0.074 A 
ATOM     47  C   UNL A   1      37.227  31.977  33.044  1.00  0.00     0.031 C 
ATOM     48  C   UNL A   1      39.449  28.163  27.713  1.00  0.00     0.029 A 
ATOM     49  C   UNL A   1      40.304  28.226  28.829  1.00  0.00     0.049 A 
ATOM     50  H   UNL A   1      40.060  29.222  30.675  1.00  0.00     0.167 HD
ATOM     51  C   UNL A   1      39.304  31.266  34.307  1.00  0.00     0.034 A 
ATOM     52  C   UNL A   1      41.535  27.596  28.907  1.00  0.00     0.034 A 
ATOM     53  C   UNL A   1      40.516  30.600  34.401  1.00  0.00     0.049 A 
ATOM     54  C   UNL A   1      42.372  27.663  30.025  1.00  0.00     0.074 A 
ATOM     55  C   UNL A   1      41.338  30.603  35.543  1.00  0.00     0.029 A 
ATOM     56  N   UNL A   1      41.135  29.836  33.436  1.00  0.00    -0.354 N 
ATOM     57  N   UNL A   1      42.134  28.289  31.178  1.00  0.00    -0.248 NA
ATOM     58  C   UNL A   1      43.692  27.025  30.106  1.00  0.00     0.031 C 
ATOM     59  C   UNL A   1      42.442  29.859  35.269  1.00  0.00     0.029 A 
ATOM     60  C   UNL A   1      42.329  29.379  33.950  1.00  0.00     0.049 A 
ATOM     61  H   UNL A   1      40.785  29.649  32.535  1.00  0.00     0.167 HD
ATOM     62  C   UNL A   1      43.157  28.113  32.016  1.00  0.00     0.074 A 
ATOM     63  C   UNL A   1      44.178  27.304  31.336  1.00  0.00     0.031 C 
ATOM     64  C   UNL A   1      43.279  28.591  33.322  1.00  0.00     0.034 A 
BRANCH  51  65
ATOM     65  C   UNL A   1      38.828  32.063  35.510  1.00  0.00     0.023 A 
ATOM     66  C   UNL A   1      39.071  33.426  35.482  1.00  0.00     0.012 A 
ATOM     67  C   UNL A   1      38.156  31.503  36.510  1.00  0.00     0.148 A 
ATOM     68  C   UNL A   1      38.812  34.080  36.710  1.00  0.00     0.002 A 
ATOM     69  C   UNL A   1      37.816  32.236  37.622  1.00  0.00     0.091 A 
ATOM     70  F   UNL A   1      37.809  30.222  36.434  1.00  0.00    -0.205 F 
ATOM     71  C   UNL A   1      38.079  33.577  37.687  1.00  0.00     0.022 A 
BRANCH  69  72
ATOM     72  S   UNL A   1      37.009  31.416  39.018  1.00  0.00     0.127 S 
ATOM     73  O   UNL A   1      35.649  32.070  39.278  1.00  0.00    -0.237 OA
ATOM     74  O   UNL A   1      36.807  29.934  38.692  1.00  0.00    -0.237 OA
ATOM     75  O   UNL A   1      37.989  31.566  40.411  1.00  0.00    -0.744 OA
ENDBRANCH  69  72
ENDBRANCH  51  65
BRANCH  52  76
ATOM     76  C   UNL A   1      42.004  26.786  27.709  1.00  0.00     0.023 A 
ATOM     77  C   UNL A   1      42.550  27.395  26.593  1.00  0.00     0.012 A 
ATOM     78  C   UNL A   1      41.806  25.473  27.751  1.00  0.00     0.148 A 
ATOM     79  C   UNL A   1      42.589  26.563  25.447  1.00  0.00     0.002 A 
ATOM     80  C   UNL A   1      41.994  24.701  26.630  1.00  0.00     0.091 A 
ATOM     81  F   UNL A   1      41.422  24.901  28.888  1.00  0.00    -0.205 F 
ATOM     82  C   UNL A   1      42.475  25.248  25.473  1.00  0.00     0.022 A 
BRANCH  80  83
ATOM     83  S   UNL A   1      41.598  22.936  26.685  1.00  0.00     0.127 S 
ATOM     84  O   UNL A   1      42.043  22.271  25.380  1.00  0.00    -0.237 OA
ATOM     85  O   UNL A   1      42.326  22.287  27.864  1.00  0.00    -0.237 OA
ATOM     86  O   UNL A   1      39.910  22.737  26.878  1.00  0.00    -0.744 OA
ENDBRANCH  80  83
ENDBRANCH  52  76
BRANCH  64  87
ATOM     87  C   UNL A   1      44.531  28.225  34.102  1.00  0.00     0.023 A 
ATOM     88  C   UNL A   1      45.630  29.054  33.942  1.00  0.00     0.012 A 
ATOM     89  C   UNL A   1      44.613  27.102  34.805  1.00  0.00     0.148 A 
ATOM     90  C   UNL A   1      46.856  28.460  34.325  1.00  0.00     0.002 A 
ATOM     91  C   UNL A   1      45.827  26.650  35.265  1.00  0.00     0.091 A 
ATOM     92  F   UNL A   1      43.510  26.406  35.067  1.00  0.00    -0.205 F 
ATOM     93  C   UNL A   1      46.963  27.390  35.091  1.00  0.00     0.022 A 
BRANCH  91  94
ATOM     94  S   UNL A   1      45.922  25.055  36.114  1.00  0.00     0.127 S 
ATOM     95  O   UNL A   1      45.370  23.958  35.201  1.00  0.00    -0.237 OA
ATOM     96  O   UNL A   1      47.381  24.747  36.458  1.00  0.00    -0.237 OA
ATOM     97  O   UNL A   1      44.999  25.118  37.552  1.00  0.00    -0.744 OA
ENDBRANCH  91  94
ENDBRANCH  64  87
ENDBRANCH  38  39
ENDBRANCH  31  33
ENDBRANCH  30  31
ENDBRANCH  29  30
ENDBRANCH   1  29
TORSDOF 19
ENDMDL
MODEL 2
REMARK VINA RESULT:     -12.3      5.339      8.444
REMARK SMILES O=C(OCCOCCOC(=O)c1ccc(-c2c3nc(c(-c4cccc(S(=O)(=O)[O-])c4F)c4ccc([nH]4)c(-c4cccc(S(=O)(=O)[O-])c4F)c4nc(c(-c5cccc(S(=O)(=O)[O-])c5F)c5ccc2[nH]5)C=C4)C=C3)cc1)C1=Cc2cc(S(F)(F)(F)(F)F)cc(Br)c2O[C@H]1C(F)(F)F
REMARK SMILES IDX 7 1 6 2 5 3 4 4 3 5 2 6 1 7 75 8 76 9 91 10 77 11 90 12
REMARK SMILES IDX 78 13 89 14 79 15 87 16 86 17 88 18 92 19 93 20 94 21 95 22
REMARK SMILES IDX 80 23 81 24 82 25 83 26 84 27 85 28 8 29 9 30 10 31 11 32
REMARK SMILES IDX 12 33 13 34 74 35 14 36 73 37 15 38 16 39 17 40 67 41 18 42
REMARK SMILES IDX 72 43 66 44 68 45 19 46 71 47 65 48 64 49 20 51 52 52 32 53
REMARK SMILES IDX 51 54 33 55 36 56 50 57 69 58 34 59 35 60 49 62 70 63 37 64
REMARK SMILES IDX 21 65 22 66 30 67 23 68 25 69 31 70 24 71 26 72 27 73 28 74
REMARK SMILES IDX 29 75 53 76 54 77 62 78 55 79 57 80 63 81 56 82 58 83 59 84
REMARK SMILES IDX 60 85 61 86 38 87 39 88 47 89 40 90 42 91 48 92 41 93 43 94
REMARK SMILES IDX 44 95 45 96 46 97
REMARK H PARENT 68 50 36 61
REMARK Flexibility Score: inf
ROOT
ATOM      1  C   UNL A   1      38.005  20.145  24.818  1.00  0.00     0.202 C 
ENDROOT
BRANCH   1   2
ATOM      2  O   UNL A   1      37.532  21.215  25.623  1.00  0.00    -0.374 OA
BRANCH   2   3
ATOM      3  C   UNL A   1      37.413  22.388  24.832  1.00  0.00     0.202 C 
BRANCH   3   4
ATOM      4  C   UNL A   1      36.192  22.271  23.933  1.00  0.00     0.261 C 
BRANCH   4   5
ATOM      5  O   UNL A   1      35.075  22.871  24.573  1.00  0.00    -0.460 OA
BRANCH   5   6
ATOM      6  C   UNL A   1      33.763  22.631  24.084  1.00  0.00     0.338 C 
ATOM      7  O   UNL A   1      33.573  22.443  22.842  1.00  0.00    -0.246 OA
BRANCH   6   8
ATOM      8  C   UNL A   1      32.588  22.597  25.047  1.00  0.00     0.087 C 
ATOM      9  C   UNL A   1      32.101  23.755  25.567  1.00  0.00     0.027 C 
ATOM     10  C   UNL A   1      31.956  21.268  25.428  1.00  0.00     0.316 C 
ATOM     11  C   UNL A   1      32.733  25.084  25.186  1.00  0.00     0.020 A 
ATOM     12  O   UNL A   1      33.063  24.344  22.952  1.00  0.00    -0.474 OA
ATOM     13  C   UNL A   1      32.850  26.031  26.191  1.00  0.00     0.036 A 
ATOM     14  C   UNL A   1      33.039  25.376  23.928  1.00  0.00     0.142 A 
ATOM     15  C   UNL A   1      33.026  27.351  25.718  1.00  0.00     0.109 A 
ATOM     16  C   UNL A   1      33.334  26.666  23.560  1.00  0.00     0.062 A 
ATOM     17  C   UNL A   1      33.408  27.664  24.493  1.00  0.00     0.044 A 
ATOM     18  Br  UNL A   1      33.652  27.086  21.672  1.00  0.00    -0.047 Br
BRANCH  10  19
ATOM     19  C   UNL A   1      32.681  20.138  24.715  1.00  0.00     0.430 C 
ATOM     20  F   UNL A   1      32.535  20.269  23.400  1.00  0.00    -0.167 F 
ATOM     21  F   UNL A   1      33.968  20.248  25.031  1.00  0.00    -0.167 F 
ATOM     22  F   UNL A   1      32.231  18.946  25.094  1.00  0.00    -0.167 F 
ENDBRANCH  10  19
BRANCH  15  23
ATOM     23  S   UNL A   1      32.704  28.709  26.871  1.00  0.00     0.310 S 
ATOM     24  F   UNL A   1      33.296  29.783  25.865  1.00  0.00    -0.094 F 
ATOM     25  F   UNL A   1      34.165  28.532  27.435  1.00  0.00    -0.094 F 
ATOM     26  F   UNL A   1      32.434  29.877  27.860  1.00  0.00    -0.094 F 
ATOM     27  F   UNL A   1      31.297  28.963  26.200  1.00  0.00    -0.094 F 
ATOM     28  F   UNL A   1      33.006  27.601  25.786  1.00  0.00    -0.094 F 
ENDBRANCH  15  23
ENDBRANCH   6   8
ENDBRANCH   5   6
ENDBRANCH   4   5
ENDBRANCH   3   4
ENDBRANCH   2   3
ENDBRANCH   1   2
BRANCH   1  29
ATOM     29  C   UNL A   1      38.782  19.166  25.682  1.00  0.00     0.261 C 
BRANCH  29  30
ATOM     30  O   UNL A   1      40.147  19.551  25.725  1.00  0.00    -0.460 OA
BRANCH  30  31
ATOM     31  C   UNL A   1      40.709  20.045  26.932  1.00  0.00     0.338 C 
ATOM     32  O   UNL A   1      40.780  19.292  27.954  1.00  0.00    -0.246 OA
BRANCH  31  33
ATOM     33  C   UNL A   1      41.224  21.474  27.003  1.00  0.00     0.060 A 
ATOM     34  C   UNL A   1      41.952  21.841  28.122  1.00  0.00     0.016 A 
ATOM     35  C   UNL A   1      40.839  22.373  26.105  1.00  0.00     0.016 A 
ATOM     36  C   UNL A   1      41.980  23.236  28.356  1.00  0.00     0.010 A 
ATOM     37  C   UNL A   1      41.020  23.716  26.339  1.00  0.00     0.010 A 
ATOM     38  C   UNL A   1      41.680  24.152  27.454  1.00  0.00    -0.014 A 
BRANCH  38  39
ATOM     39  C   UNL A   1      42.049  25.615  27.645  1.00  0.00     0.031 A 
ATOM     40  C   UNL A   1      41.198  26.508  28.299  1.00  0.00     0.074 A 
ATOM     41  C   UNL A   1      43.336  25.926  27.242  1.00  0.00     0.049 A 
ATOM     42  N   UNL A   1      41.464  27.760  28.672  1.00  0.00    -0.248 NA
ATOM     43  C   UNL A   1      39.818  26.190  28.697  1.00  0.00     0.031 C 
ATOM     44  C   UNL A   1      44.203  25.028  26.590  1.00  0.00     0.029 A 
ATOM     45  N   UNL A   1      44.001  27.123  27.390  1.00  0.00    -0.354 N 
ATOM     46  C   UNL A   1      40.407  28.292  29.290  1.00  0.00     0.074 A 
ATOM     47  C   UNL A   1      39.330  27.292  29.309  1.00  0.00     0.031 C 
ATOM     48  C   UNL A   1      45.370  25.678  26.338  1.00  0.00     0.029 A 
ATOM     49  C   UNL A   1      45.252  26.992  26.829  1.00  0.00     0.049 A 
ATOM     50  H   UNL A   1      43.644  27.933  27.822  1.00  0.00     0.167 HD
ATOM     51  C   UNL A   1      40.299  29.571  29.839  1.00  0.00     0.034 A 
ATOM     52  C   UNL A   1      46.246  27.952  26.738  1.00  0.00     0.034 A 
ATOM     53  C   UNL A   1      41.310  30.518  29.786  1.00  0.00     0.049 A 
ATOM     54  C   UNL A   1      46.117  29.251  27.235  1.00  0.00     0.074 A 
ATOM     55  C   UNL A   1      41.219  31.808  30.341  1.00  0.00     0.029 A 
ATOM     56  N   UNL A   1      42.551  30.394  29.203  1.00  0.00    -0.354 N 
ATOM     57  N   UNL A   1      45.075  29.769  27.887  1.00  0.00    -0.248 NA
ATOM     58  C   UNL A   1      47.152  30.287  27.117  1.00  0.00     0.031 C 
ATOM     59  C   UNL A   1      42.387  32.457  30.089  1.00  0.00     0.029 A 
ATOM     60  C   UNL A   1      43.225  31.584  29.371  1.00  0.00     0.049 A 
ATOM     61  H   UNL A   1      42.897  29.594  28.745  1.00  0.00     0.167 HD
ATOM     62  C   UNL A   1      45.327  31.036  28.223  1.00  0.00     0.074 A 
ATOM     63  C   UNL A   1      46.664  31.390  27.726  1.00  0.00     0.031 C 
ATOM     64  C   UNL A   1      44.498  31.910  28.929  1.00  0.00     0.034 A 
BRANCH  51  65
ATOM     65  C   UNL A   1      39.000  29.945  30.533  1.00  0.00     0.023 A 
ATOM     66  C   UNL A   1      38.824  29.456  31.817  1.00  0.00     0.012 A 
ATOM     67  C   UNL A   1      38.105  30.751  29.973  1.00  0.00     0.148 A 
ATOM     68  C   UNL A   1      37.517  29.644  32.327  1.00  0.00     0.002 A 
ATOM     69  C   UNL A   1      36.903  31.000  30.593  1.00  0.00     0.091 A 
ATOM     70  F   UNL A   1      38.374  31.324  28.804  1.00  0.00    -0.205 F 
ATOM     71  C   UNL A   1      36.637  30.499  31.838  1.00  0.00     0.022 A 
BRANCH  69  72
ATOM     72  S   UNL A   1      35.656  32.003  29.751  1.00  0.00     0.127 S 
ATOM     73  O   UNL A   1      35.143  31.252  28.519  1.00  0.00    -0.237 OA
ATOM     74  O   UNL A   1      34.490  32.275  30.704  1.00  0.00    -0.237 OA
ATOM     75  O   UNL A   1      36.352  33.487  29.263  1.00  0.00    -0.744 OA
ENDBRANCH  69  72
ENDBRANCH  51  65
BRANCH  52  76
ATOM     76  C   UNL A   1      47.552  27.572  26.058  1.00  0.00     0.023 A 
ATOM     77  C   UNL A   1      47.761  27.807  24.710  1.00  0.00     0.012 A 
ATOM     78  C   UNL A   1      48.458  26.943  26.797  1.00  0.00     0.148 A 
ATOM     79  C   UNL A   1      48.844  27.078  24.162  1.00  0.00     0.002 A 
ATOM     80  C   UNL A   1      49.563  26.371  26.213  1.00  0.00     0.091 A 
ATOM     81  F   UNL A   1      48.296  26.866  28.115  1.00  0.00    -0.205 F 
ATOM     82  C   UNL A   1      49.802  26.513  24.873  1.00  0.00     0.022 A 
BRANCH  80  83
ATOM     83  S   UNL A   1      50.716  25.416  27.228  1.00  0.00     0.127 S 
ATOM     84  O   UNL A   1      51.346  26.330  28.283  1.00  0.00    -0.237 OA
ATOM     85  O   UNL A   1      49.963  24.279  27.923  1.00  0.00    -0.237 OA
ATOM     86  O   UNL A   1      51.945  24.762  26.234  1.00  0.00    -0.744 OA
ENDBRANCH  80  83
ENDBRANCH  52  76
BRANCH  64  87
ATOM     87  C   UNL A   1      45.022  33.304  29.231  1.00  0.00     0.023 A 
ATOM     88  C   UNL A   1      45.511  33.523  30.509  1.00  0.00     0.012 A 
ATOM     89  C   UNL A   1      44.907  34.298  28.359  1.00  0.00     0.148 A 
ATOM     90  C   UNL A   1      45.581  34.890  30.869  1.00  0.00     0.002 A 
ATOM     91  C   UNL A   1      45.123  35.599  28.746  1.00  0.00     0.091 A 
ATOM     92  F   UNL A   1      44.579  34.032  27.097  1.00  0.00    -0.205 F 
ATOM     93  C   UNL A   1      45.550  35.893  30.011  1.00  0.00     0.022 A 
BRANCH  91  94
ATOM     94  S   UNL A   1      44.839  36.940  27.566  1.00  0.00     0.127 S 
ATOM     95  O   UNL A   1      43.435  36.808  26.972  1.00  0.00    -0.237 OA
ATOM     96  O   UNL A   1      44.965  38.286  28.283  1.00  0.00    -0.237 OA
ATOM     97  O   UNL A   1      45.998  36.852  26.312  1.00  0.00    -0.744 OA
ENDBRANCH  91  94
ENDBRANCH  64  87
ENDBRANCH  38  39
ENDBRANCH  31  33
ENDBRANCH  30  31
ENDBRANCH  29  30
ENDBRANCH   1  29
TORSDOF 19
ENDMDL
MODEL 3
REMARK VINA RESULT:     -12.2      2.799      3.843
REMARK SMILES O=C(OCCOCCOC(=O)c1ccc(-c2c3nc(c(-c4cccc(S(=O)(=O)[O-])c4F)c4ccc([nH]4)c(-c4cccc(S(=O)(=O)[O-])c4F)c4nc(c(-c5cccc(S(=O)(=O)[O-])c5F)c5ccc2[nH]5)C=C4)C=C3)cc1)C1=Cc2cc(S(F)(F)(F)(F)F)cc(Br)c2O[C@H]1C(F)(F)F
REMARK SMILES IDX 7 1 6 2 5 3 4 4 3 5 2 6 1 7 75 8 76 9 91 10 77 11 90 12
REMARK SMILES IDX 78 13 89 14 79 15 87 16 86 17 88 18 92 19 93 20 94 21 95 22
REMARK SMILES IDX 80 23 81 24 82 25 83 26 84 27 85 28 8 29 9 30 10 31 11 32
REMARK SMILES IDX 12 33 13 34 74 35 14 36 73 37 15 38 16 39 17 40 67 41 18 42
REMARK SMILES IDX 72 43 66 44 68 45 19 46 71 47 65 48 64 49 20 51 52 52 32 53
REMARK SMILES IDX 51 54 33 55 36 56 50 57 69 58 34 59 35 60 49 62 70 63 37 64
REMARK SMILES IDX 21 65 22 66 30 67 23 68 25 69 31 70 24 71 26 72 27 73 28 74
REMARK SMILES IDX 29 75 53 76 54 77 62 78 55 79 57 80 63 81 56 82 58 83 59 84
REMARK SMILES IDX 60 85 61 86 38 87 39 88 47 89 40 90 42 91 48 92 41 93 43 94
REMARK SMILES IDX 44 95 45 96 46 97
REMARK H PARENT 68 50 36 61
REMARK Flexibility Score: inf
ROOT
ATOM      1  C   UNL A   1      31.331  31.987  26.651  1.00  0.00     0.202 C 
ENDROOT
BRANCH   1   2
ATOM      2  O   UNL A   1      31.736  30.909  25.821  1.00  0.00    -0.374 OA
BRANCH   2   3
ATOM      3  C   UNL A   1      32.022  29.773  26.624  1.00  0.00     0.202 C 
BRANCH   3   4
ATOM      4  C   UNL A   1      32.366  28.593  25.729  1.00  0.00     0.261 C 
BRANCH   4   5
ATOM      5  O   UNL A   1      31.295  27.660  25.745  1.00  0.00    -0.460 OA
BRANCH   5   6
ATOM      6  C   UNL A   1      30.740  27.196  24.523  1.00  0.00     0.338 C 
ATOM      7  O   UNL A   1      29.520  26.842  24.472  1.00  0.00    -0.246 OA
BRANCH   6   8
ATOM      8  C   UNL A   1      31.605  27.122  23.275  1.00  0.00     0.087 C 
ATOM      9  C   UNL A   1      32.585  26.184  23.181  1.00  0.00     0.027 C 
ATOM     10  C   UNL A   1      31.374  28.097  22.131  1.00  0.00     0.316 C 
ATOM     11  C   UNL A   1      32.816  25.209  24.324  1.00  0.00     0.020 A 
ATOM     12  O   UNL A   1      30.479  25.051  24.729  1.00  0.00    -0.474 OA
ATOM     13  C   UNL A   1      34.132  24.889  24.616  1.00  0.00     0.036 A 
ATOM     14  C   UNL A   1      31.808  24.592  24.930  1.00  0.00     0.142 A 
ATOM     15  C   UNL A   1      34.282  23.694  25.357  1.00  0.00     0.109 A 
ATOM     16  C   UNL A   1      32.038  23.514  25.749  1.00  0.00     0.062 A 
ATOM     17  C   UNL A   1      33.313  23.106  26.034  1.00  0.00     0.044 A 
ATOM     18  Br  UNL A   1      30.520  22.545  26.522  1.00  0.00    -0.047 Br
BRANCH  10  19
ATOM     19  C   UNL A   1      30.230  29.033  22.487  1.00  0.00     0.430 C 
ATOM     20  F   UNL A   1      30.468  29.609  23.661  1.00  0.00    -0.167 F 
ATOM     21  F   UNL A   1      30.186  29.962  21.537  1.00  0.00    -0.167 F 
ATOM     22  F   UNL A   1      29.066  28.392  22.535  1.00  0.00    -0.167 F 
ENDBRANCH  10  19
BRANCH  15  23
ATOM     23  S   UNL A   1      35.916  22.916  25.379  1.00  0.00     0.310 S 
ATOM     24  F   UNL A   1      36.549  24.084  24.513  1.00  0.00    -0.094 F 
ATOM     25  F   UNL A   1      35.556  22.198  24.024  1.00  0.00    -0.094 F 
ATOM     26  F   UNL A   1      37.320  22.249  25.392  1.00  0.00    -0.094 F 
ATOM     27  F   UNL A   1      36.311  23.751  26.660  1.00  0.00    -0.094 F 
ATOM     28  F   UNL A   1      34.538  23.687  25.318  1.00  0.00    -0.094 F 
ENDBRANCH  15  23
ENDBRANCH   6   8
ENDBRANCH   5   6
ENDBRANCH   4   5
ENDBRANCH   3   4
ENDBRANCH   2   3
ENDBRANCH   1   2
BRANCH   1  29
ATOM     29  C   UNL A   1      32.555  32.626  27.285  1.00  0.00     0.261 C 
BRANCH  29  30
ATOM     30  O   UNL A   1      32.208  33.899  27.808  1.00  0.00    -0.460 OA
BRANCH  30  31
ATOM     31  C   UNL A   1      33.087  34.563  28.704  1.00  0.00     0.338 C 
ATOM     32  O   UNL A   1      32.826  35.746  29.090  1.00  0.00    -0.246 OA
BRANCH  31  33
ATOM     33  C   UNL A   1      34.341  33.861  29.200  1.00  0.00     0.060 A 
ATOM     34  C   UNL A   1      34.224  33.043  30.311  1.00  0.00     0.016 A 
ATOM     35  C   UNL A   1      35.528  34.161  28.687  1.00  0.00     0.016 A 
ATOM     36  C   UNL A   1      35.445  32.821  30.990  1.00  0.00     0.010 A 
ATOM     37  C   UNL A   1      36.683  33.795  29.335  1.00  0.00     0.010 A 
ATOM     38  C   UNL A   1      36.640  33.035  30.472  1.00  0.00    -0.014 A 
BRANCH  38  39
ATOM     39  C   UNL A   1      37.901  32.468  31.104  1.00  0.00     0.031 A 
ATOM     40  C   UNL A   1      38.417  32.978  32.297  1.00  0.00     0.074 A 
ATOM     41  C   UNL A   1      38.388  31.339  30.471  1.00  0.00     0.049 A 
ATOM     42  N   UNL A   1      39.409  32.475  33.035  1.00  0.00    -0.248 NA
ATOM     43  C   UNL A   1      37.925  34.198  32.955  1.00  0.00     0.031 C 
ATOM     44  C   UNL A   1      37.866  30.814  29.271  1.00  0.00     0.029 A 
ATOM     45  N   UNL A   1      39.433  30.533  30.863  1.00  0.00    -0.354 N 
ATOM     46  C   UNL A   1      39.606  33.230  34.117  1.00  0.00     0.074 A 
ATOM     47  C   UNL A   1      38.659  34.353  34.078  1.00  0.00     0.031 C 
ATOM     48  C   UNL A   1      38.595  29.715  28.941  1.00  0.00     0.029 A 
ATOM     49  C   UNL A   1      39.582  29.534  29.927  1.00  0.00     0.049 A 
ATOM     50  H   UNL A   1      39.980  30.652  31.673  1.00  0.00     0.167 HD
ATOM     51  C   UNL A   1      40.538  33.026  35.137  1.00  0.00     0.034 A 
ATOM     52  C   UNL A   1      40.522  28.516  29.915  1.00  0.00     0.034 A 
ATOM     53  C   UNL A   1      41.449  31.982  35.147  1.00  0.00     0.049 A 
ATOM     54  C   UNL A   1      41.493  28.345  30.905  1.00  0.00     0.074 A 
ATOM     55  C   UNL A   1      42.390  31.758  36.170  1.00  0.00     0.029 A 
ATOM     56  N   UNL A   1      41.614  30.998  34.197  1.00  0.00    -0.354 N 
ATOM     57  N   UNL A   1      41.664  29.076  32.007  1.00  0.00    -0.248 NA
ATOM     58  C   UNL A   1      42.513  27.288  30.886  1.00  0.00     0.031 C 
ATOM     59  C   UNL A   1      43.118  30.658  35.839  1.00  0.00     0.029 A 
ATOM     60  C   UNL A   1      42.646  30.178  34.602  1.00  0.00     0.049 A 
ATOM     61  H   UNL A   1      41.087  30.897  33.373  1.00  0.00     0.167 HD
ATOM     62  C   UNL A   1      42.683  28.597  32.723  1.00  0.00     0.074 A 
ATOM     63  C   UNL A   1      43.249  27.444  32.009  1.00  0.00     0.031 C 
ATOM     64  C   UNL A   1      43.161  29.072  33.946  1.00  0.00     0.034 A 
BRANCH  51  65
ATOM     65  C   UNL A   1      40.554  34.004  36.300  1.00  0.00     0.023 A 
ATOM     66  C   UNL A   1      41.112  35.247  36.052  1.00  0.00     0.012 A 
ATOM     67  C   UNL A   1      40.007  33.715  37.475  1.00  0.00     0.148 A 
ATOM     68  C   UNL A   1      41.303  36.032  37.214  1.00  0.00     0.002 A 
ATOM     69  C   UNL A   1      40.116  34.590  38.530  1.00  0.00     0.091 A 
ATOM     70  F   UNL A   1      39.348  32.572  37.632  1.00  0.00    -0.205 F 
ATOM     71  C   UNL A   1      40.707  35.813  38.373  1.00  0.00     0.022 A 
BRANCH  69  72
ATOM     72  S   UNL A   1      39.466  34.116  40.151  1.00  0.00     0.127 S 
ATOM     73  O   UNL A   1      39.986  35.088  41.214  1.00  0.00    -0.237 OA
ATOM     74  O   UNL A   1      37.937  34.164  40.122  1.00  0.00    -0.237 OA
ATOM     75  O   UNL A   1      39.980  32.530  40.529  1.00  0.00    -0.744 OA
ENDBRANCH  69  72
ENDBRANCH  51  65
BRANCH  52  76
ATOM     76  C   UNL A   1      40.495  27.528  28.760  1.00  0.00     0.023 A 
ATOM     77  C   UNL A   1      39.689  26.403  28.788  1.00  0.00     0.012 A 
ATOM     78  C   UNL A   1      41.328  27.754  27.751  1.00  0.00     0.148 A 
ATOM     79  C   UNL A   1      40.046  25.418  27.836  1.00  0.00     0.002 A 
ATOM     80  C   UNL A   1      41.527  26.801  26.781  1.00  0.00     0.091 A 
ATOM     81  F   UNL A   1      41.977  28.913  27.678  1.00  0.00    -0.205 F 
ATOM     82  C   UNL A   1      40.807  25.638  26.780  1.00  0.00     0.022 A 
BRANCH  80  83
ATOM     83  S   UNL A   1      42.759  27.088  25.487  1.00  0.00     0.127 S 
ATOM     84  O   UNL A   1      42.902  25.829  24.629  1.00  0.00    -0.237 OA
ATOM     85  O   UNL A   1      42.311  28.258  24.606  1.00  0.00    -0.237 OA
ATOM     86  O   UNL A   1      44.265  27.462  26.207  1.00  0.00    -0.744 OA
ENDBRANCH  80  83
ENDBRANCH  52  76
BRANCH  64  87
ATOM     87  C   UNL A   1      44.319  28.332  34.596  1.00  0.00     0.023 A 
ATOM     88  C   UNL A   1      45.595  28.727  34.231  1.00  0.00     0.012 A 
ATOM     89  C   UNL A   1      44.122  27.278  35.379  1.00  0.00     0.148 A 
ATOM     90  C   UNL A   1      46.595  27.766  34.511  1.00  0.00     0.002 A 
ATOM     91  C   UNL A   1      45.168  26.458  35.725  1.00  0.00     0.091 A 
ATOM     92  F   UNL A   1      42.900  27.014  35.834  1.00  0.00    -0.205 F 
ATOM     93  C   UNL A   1      46.449  26.755  35.349  1.00  0.00     0.022 A 
BRANCH  91  94
ATOM     94  S   UNL A   1      44.848  24.963  36.693  1.00  0.00     0.127 S 
ATOM     95  O   UNL A   1      46.161  24.210  36.918  1.00  0.00    -0.237 OA
ATOM     96  O   UNL A   1      44.243  25.349  38.045  1.00  0.00    -0.237 OA
ATOM     97  O   UNL A   1      43.754  23.959  35.845  1.00  0.00    -0.744 OA
ENDBRANCH  91  94
ENDBRANCH  64  87
ENDBRANCH  38  39
ENDBRANCH  31  33
ENDBRANCH  30  31
ENDBRANCH  29  30
ENDBRANCH   1  29
TORSDOF 19
ENDMDL
