MODEL 1
REMARK VINA RESULT:     -10.9      0.000      0.000
REMARK SMILES CC1(C)CCC[C@H]1NS(=O)(=O)c1ccc(O)c(C(=O)OCCOCCOC(=O)c2ccc(-c3c4nc(c(-c5cccc(S(=O)(=O)[O-])c5F)c5ccc([nH]5)c(-c5cccc(S(=O)(=O)[O-])c5F)c5nc(c(-c6cccc(S(=O)(=O)[O-])c6F)c6ccc3[nH]6)C=C5)C=C4)cc2)c1
REMARK SMILES IDX 23 1 22 2 21 3 20 4 18 5 19 6 17 7 12 8 13 9 92 10 14 11
REMARK SMILES IDX 15 12 9 13 10 14 11 15 8 16 7 18 1 19 2 20 3 21 4 22 5 23
REMARK SMILES IDX 6 24 16 25 24 27 25 28 26 29 27 30 28 31 29 32 30 33 91 34
REMARK SMILES IDX 31 35 90 36 32 37 33 38 34 39 84 40 35 41 89 42 83 43 85 44
REMARK SMILES IDX 36 45 88 46 82 47 81 48 37 50 69 51 49 52 68 53 50 54 53 55
REMARK SMILES IDX 67 56 86 57 51 58 52 59 66 61 87 62 54 63 38 64 39 65 47 66
REMARK SMILES IDX 40 67 42 68 48 69 41 70 43 71 44 72 45 73 46 74 70 75 71 76
REMARK SMILES IDX 79 77 72 78 74 79 80 80 73 81 75 82 76 83 77 84 78 85 55 86
REMARK SMILES IDX 56 87 64 88 57 89 59 90 65 91 58 92 60 93 61 94 62 95 63 96
REMARK H PARENT 8 17 16 26 85 49 53 60
REMARK Flexibility Score: inf
ROOT
ATOM      1  O   UNL A   1      33.225  31.095  26.800  1.00  0.00    -0.374 OA
ENDROOT
BRANCH   1   2
ATOM      2  C   UNL A   1      34.326  30.772  27.656  1.00  0.00     0.202 C 
BRANCH   2   3
ATOM      3  C   UNL A   1      34.726  29.294  27.646  1.00  0.00     0.261 C 
BRANCH   3   4
ATOM      4  O   UNL A   1      34.607  28.781  26.312  1.00  0.00    -0.460 OA
BRANCH   4   5
ATOM      5  C   UNL A   1      33.705  27.794  26.106  1.00  0.00     0.342 C 
ATOM      6  O   UNL A   1      32.838  27.419  26.879  1.00  0.00    -0.246 OA
BRANCH   5   7
ATOM      7  C   UNL A   1      33.741  27.401  24.675  1.00  0.00     0.103 A 
ATOM      8  C   UNL A   1      33.638  25.571  23.090  1.00  0.00     0.083 A 
ATOM      9  C   UNL A   1      33.441  26.489  22.053  1.00  0.00     0.025 A 
ATOM     10  C   UNL A   1      33.787  26.024  24.404  1.00  0.00     0.041 A 
ATOM     11  C   UNL A   1      33.467  27.861  22.312  1.00  0.00     0.048 A 
ATOM     12  C   UNL A   1      33.614  28.317  23.623  1.00  0.00     0.130 A 
BRANCH   8  13
ATOM     13  S   UNL A   1      33.460  23.833  22.774  1.00  0.00     0.240 S 
ATOM     14  O   UNL A   1      33.443  23.669  21.340  1.00  0.00    -0.207 OA
ATOM     15  O   UNL A   1      32.365  23.347  23.590  1.00  0.00    -0.207 OA
BRANCH  13  16
ATOM     16  N   UNL A   1      34.822  23.091  23.425  1.00  0.00    -0.208 NA
ATOM     17  H   UNL A   1      34.765  22.112  23.145  1.00  0.00     0.141 HD
BRANCH  16  18
ATOM     18  C   UNL A   1      35.134  23.080  24.863  1.00  0.00     0.075 C 
ATOM     19  C   UNL A   1      34.217  20.626  24.766  1.00  0.00     0.013 C 
ATOM     20  C   UNL A   1      35.122  21.645  25.469  1.00  0.00    -0.019 C 
ATOM     21  C   UNL A   1      34.677  21.724  26.947  1.00  0.00     0.013 C 
ATOM     22  C   UNL A   1      36.596  21.217  25.376  1.00  0.00     0.008 C 
ATOM     23  C   UNL A   1      37.373  22.473  25.724  1.00  0.00     0.002 C 
ATOM     24  C   UNL A   1      36.550  23.618  25.146  1.00  0.00     0.020 C 
ENDBRANCH  16  18
ENDBRANCH  13  16
ENDBRANCH   8  13
BRANCH  12  25
ATOM     25  O   UNL A   1      33.619  29.658  23.868  1.00  0.00    -0.507 OA
ATOM     26  H   UNL A   1      33.698  29.975  24.747  1.00  0.00     0.293 HD
ENDBRANCH  12  25
ENDBRANCH   5   7
ENDBRANCH   4   5
ENDBRANCH   3   4
ENDBRANCH   2   3
ENDBRANCH   1   2
BRANCH   1  27
ATOM     27  C   UNL A   1      32.306  32.073  27.296  1.00  0.00     0.202 C 
BRANCH  27  28
ATOM     28  C   UNL A   1      32.890  33.479  27.483  1.00  0.00     0.261 C 
BRANCH  28  29
ATOM     29  O   UNL A   1      32.409  34.098  28.689  1.00  0.00    -0.460 OA
BRANCH  29  30
ATOM     30  C   UNL A   1      33.277  34.948  29.289  1.00  0.00     0.338 C 
ATOM     31  O   UNL A   1      33.077  36.110  29.601  1.00  0.00    -0.246 OA
BRANCH  30  32
ATOM     32  C   UNL A   1      34.491  34.209  29.686  1.00  0.00     0.060 A 
ATOM     33  C   UNL A   1      34.361  33.210  30.660  1.00  0.00     0.016 A 
ATOM     34  C   UNL A   1      35.743  34.521  29.151  1.00  0.00     0.016 A 
ATOM     35  C   UNL A   1      35.491  32.543  31.134  1.00  0.00     0.010 A 
ATOM     36  C   UNL A   1      36.874  33.859  29.634  1.00  0.00     0.010 A 
ATOM     37  C   UNL A   1      36.757  32.890  30.648  1.00  0.00    -0.014 A 
BRANCH  37  38
ATOM     38  C   UNL A   1      37.985  32.354  31.282  1.00  0.00     0.031 A 
ATOM     39  C   UNL A   1      38.676  31.186  30.636  1.00  0.00     0.074 A 
ATOM     40  C   UNL A   1      38.438  32.858  32.443  1.00  0.00     0.049 A 
ATOM     41  N   UNL A   1      39.664  30.459  31.084  1.00  0.00    -0.248 NA
ATOM     42  C   UNL A   1      38.179  30.780  29.311  1.00  0.00     0.031 C 
ATOM     43  C   UNL A   1      37.861  33.997  33.154  1.00  0.00     0.029 A 
ATOM     44  N   UNL A   1      39.467  32.442  33.252  1.00  0.00    -0.354 N 
ATOM     45  C   UNL A   1      39.880  29.481  30.119  1.00  0.00     0.074 A 
ATOM     46  C   UNL A   1      38.921  29.711  29.060  1.00  0.00     0.031 C 
ATOM     47  C   UNL A   1      38.514  34.162  34.316  1.00  0.00     0.029 A 
ATOM     48  C   UNL A   1      39.531  33.119  34.446  1.00  0.00     0.049 A 
ATOM     49  H   UNL A   1      40.098  31.729  33.000  1.00  0.00     0.167 HD
ATOM     50  C   UNL A   1      40.799  28.488  30.113  1.00  0.00     0.034 A 
ATOM     51  C   UNL A   1      40.295  32.897  35.534  1.00  0.00     0.034 A 
ATOM     52  C   UNL A   1      41.765  28.282  31.156  1.00  0.00     0.049 A 
ATOM     53  C   UNL A   1      41.294  31.768  35.515  1.00  0.00     0.074 A 
ATOM     54  C   UNL A   1      42.769  27.332  31.221  1.00  0.00     0.029 A 
ATOM     55  N   UNL A   1      41.843  29.029  32.320  1.00  0.00    -0.354 N 
ATOM     56  N   UNL A   1      41.557  30.916  34.554  1.00  0.00    -0.248 NA
ATOM     57  C   UNL A   1      42.119  31.584  36.720  1.00  0.00     0.031 C 
ATOM     58  C   UNL A   1      43.439  27.491  32.438  1.00  0.00     0.029 A 
ATOM     59  C   UNL A   1      42.870  28.558  33.117  1.00  0.00     0.049 A 
ATOM     60  H   UNL A   1      41.252  29.784  32.547  1.00  0.00     0.167 HD
ATOM     61  C   UNL A   1      42.603  30.126  35.018  1.00  0.00     0.074 A 
ATOM     62  C   UNL A   1      42.931  30.605  36.345  1.00  0.00     0.031 C 
ATOM     63  C   UNL A   1      43.230  29.091  34.405  1.00  0.00     0.034 A 
BRANCH  50  64
ATOM     64  C   UNL A   1      40.819  27.559  28.929  1.00  0.00     0.023 A 
ATOM     65  C   UNL A   1      39.847  26.544  28.824  1.00  0.00     0.012 A 
ATOM     66  C   UNL A   1      41.763  27.725  27.897  1.00  0.00     0.148 A 
ATOM     67  C   UNL A   1      39.829  25.692  27.720  1.00  0.00     0.002 A 
ATOM     68  C   UNL A   1      41.713  26.898  26.781  1.00  0.00     0.091 A 
ATOM     69  F   UNL A   1      42.695  28.679  28.031  1.00  0.00    -0.205 F 
ATOM     70  C   UNL A   1      40.755  25.876  26.695  1.00  0.00     0.022 A 
BRANCH  68  71
ATOM     71  S   UNL A   1      42.814  27.106  25.377  1.00  0.00     0.127 S 
ATOM     72  O   UNL A   1      44.104  27.296  26.038  1.00  0.00    -0.237 OA
ATOM     73  O   UNL A   1      42.669  25.827  24.679  1.00  0.00    -0.237 OA
ATOM     74  O   UNL A   1      42.311  28.258  24.641  1.00  0.00    -0.744 OA
ENDBRANCH  68  71
ENDBRANCH  50  64
BRANCH  51  75
ATOM     75  C   UNL A   1      40.162  33.778  36.730  1.00  0.00     0.023 A 
ATOM     76  C   UNL A   1      40.700  35.078  36.696  1.00  0.00     0.012 A 
ATOM     77  C   UNL A   1      39.485  33.344  37.887  1.00  0.00     0.148 A 
ATOM     78  C   UNL A   1      40.592  35.922  37.802  1.00  0.00     0.002 A 
ATOM     79  C   UNL A   1      39.334  34.208  38.965  1.00  0.00     0.091 A 
ATOM     80  F   UNL A   1      38.996  32.097  37.908  1.00  0.00    -0.205 F 
ATOM     81  C   UNL A   1      39.900  35.492  38.932  1.00  0.00     0.022 A 
BRANCH  79  82
ATOM     82  S   UNL A   1      38.349  33.782  40.407  1.00  0.00     0.127 S 
ATOM     83  O   UNL A   1      38.199  35.078  41.062  1.00  0.00    -0.237 OA
ATOM     84  O   UNL A   1      37.128  33.255  39.795  1.00  0.00    -0.237 OA
ATOM     85  O   UNL A   1      39.129  32.790  41.136  1.00  0.00    -0.744 OA
ENDBRANCH  79  82
ENDBRANCH  51  75
BRANCH  63  86
ATOM     86  C   UNL A   1      44.375  28.427  35.124  1.00  0.00     0.023 A 
ATOM     87  C   UNL A   1      45.701  28.764  34.794  1.00  0.00     0.012 A 
ATOM     88  C   UNL A   1      44.127  27.561  36.208  1.00  0.00     0.148 A 
ATOM     89  C   UNL A   1      46.766  28.235  35.521  1.00  0.00     0.002 A 
ATOM     90  C   UNL A   1      45.191  27.075  36.957  1.00  0.00     0.091 A 
ATOM     91  F   UNL A   1      42.856  27.242  36.493  1.00  0.00    -0.205 F 
ATOM     92  C   UNL A   1      46.512  27.404  36.610  1.00  0.00     0.022 A 
BRANCH  90  93
ATOM     93  S   UNL A   1      44.957  26.080  38.435  1.00  0.00     0.127 S 
ATOM     94  O   UNL A   1      46.307  26.056  38.994  1.00  0.00    -0.237 OA
ATOM     95  O   UNL A   1      43.994  26.878  39.195  1.00  0.00    -0.237 OA
ATOM     96  O   UNL A   1      44.450  24.792  37.979  1.00  0.00    -0.744 OA
ENDBRANCH  90  93
ENDBRANCH  63  86
ENDBRANCH  37  38
ENDBRANCH  30  32
ENDBRANCH  29  30
ENDBRANCH  28  29
ENDBRANCH  27  28
ENDBRANCH   1  27
TORSDOF 21
ENDMDL
MODEL 2
REMARK VINA RESULT:     -10.8      2.312      3.319
REMARK SMILES CC1(C)CCC[C@H]1NS(=O)(=O)c1ccc(O)c(C(=O)OCCOCCOC(=O)c2ccc(-c3c4nc(c(-c5cccc(S(=O)(=O)[O-])c5F)c5ccc([nH]5)c(-c5cccc(S(=O)(=O)[O-])c5F)c5nc(c(-c6cccc(S(=O)(=O)[O-])c6F)c6ccc3[nH]6)C=C5)C=C4)cc2)c1
REMARK SMILES IDX 23 1 22 2 21 3 20 4 18 5 19 6 17 7 12 8 13 9 92 10 14 11
REMARK SMILES IDX 15 12 9 13 10 14 11 15 8 16 7 18 1 19 2 20 3 21 4 22 5 23
REMARK SMILES IDX 6 24 16 25 24 27 25 28 26 29 27 30 28 31 29 32 30 33 91 34
REMARK SMILES IDX 31 35 90 36 32 37 33 38 34 39 84 40 35 41 89 42 83 43 85 44
REMARK SMILES IDX 36 45 88 46 82 47 81 48 37 50 69 51 49 52 68 53 50 54 53 55
REMARK SMILES IDX 67 56 86 57 51 58 52 59 66 61 87 62 54 63 38 64 39 65 47 66
REMARK SMILES IDX 40 67 42 68 48 69 41 70 43 71 44 72 45 73 46 74 70 75 71 76
REMARK SMILES IDX 79 77 72 78 74 79 80 80 73 81 75 82 76 83 77 84 78 85 55 86
REMARK SMILES IDX 56 87 64 88 57 89 59 90 65 91 58 92 60 93 61 94 62 95 63 96
REMARK H PARENT 8 17 16 26 85 49 53 60
REMARK Flexibility Score: inf
ROOT
ATOM      1  O   UNL A   1      32.869  28.989  25.501  1.00  0.00    -0.374 OA
ENDROOT
BRANCH   1   2
ATOM      2  C   UNL A   1      33.587  28.841  24.272  1.00  0.00     0.202 C 
BRANCH   2   3
ATOM      3  C   UNL A   1      34.018  27.407  23.956  1.00  0.00     0.261 C 
BRANCH   3   4
ATOM      4  O   UNL A   1      33.556  27.052  22.645  1.00  0.00    -0.460 OA
BRANCH   4   5
ATOM      5  C   UNL A   1      33.054  25.805  22.482  1.00  0.00     0.342 C 
ATOM      6  O   UNL A   1      33.600  24.860  21.939  1.00  0.00    -0.246 OA
BRANCH   5   7
ATOM      7  C   UNL A   1      31.830  25.670  23.311  1.00  0.00     0.103 A 
ATOM      8  C   UNL A   1      30.838  24.664  25.279  1.00  0.00     0.083 A 
ATOM      9  C   UNL A   1      29.762  25.553  25.184  1.00  0.00     0.025 A 
ATOM     10  C   UNL A   1      31.876  24.720  24.346  1.00  0.00     0.041 A 
ATOM     11  C   UNL A   1      29.681  26.447  24.114  1.00  0.00     0.048 A 
ATOM     12  C   UNL A   1      30.716  26.509  23.181  1.00  0.00     0.130 A 
BRANCH   8  13
ATOM     13  S   UNL A   1      31.003  23.633  26.716  1.00  0.00     0.240 S 
ATOM     14  O   UNL A   1      29.669  23.376  27.202  1.00  0.00    -0.207 OA
ATOM     15  O   UNL A   1      32.004  24.232  27.575  1.00  0.00    -0.207 OA
BRANCH  13  16
ATOM     16  N   UNL A   1      31.712  22.200  26.192  1.00  0.00    -0.208 NA
ATOM     17  H   UNL A   1      32.329  21.903  26.947  1.00  0.00     0.141 HD
BRANCH  16  18
ATOM     18  C   UNL A   1      32.507  22.089  24.958  1.00  0.00     0.075 C 
ATOM     19  C   UNL A   1      34.553  22.118  26.597  1.00  0.00     0.013 C 
ATOM     20  C   UNL A   1      33.991  21.701  25.233  1.00  0.00    -0.019 C 
ATOM     21  C   UNL A   1      34.889  22.334  24.145  1.00  0.00     0.013 C 
ATOM     22  C   UNL A   1      33.980  20.170  25.095  1.00  0.00     0.008 C 
ATOM     23  C   UNL A   1      33.049  19.906  23.927  1.00  0.00     0.002 C 
ATOM     24  C   UNL A   1      31.974  20.982  24.030  1.00  0.00     0.020 C 
ENDBRANCH  16  18
ENDBRANCH  13  16
ENDBRANCH   8  13
BRANCH  12  25
ATOM     25  O   UNL A   1      30.637  27.399  22.152  1.00  0.00    -0.507 OA
ATOM     26  H   UNL A   1      31.391  27.575  21.623  1.00  0.00     0.293 HD
ENDBRANCH  12  25
ENDBRANCH   5   7
ENDBRANCH   4   5
ENDBRANCH   3   4
ENDBRANCH   2   3
ENDBRANCH   1   2
BRANCH   1  27
ATOM     27  C   UNL A   1      31.761  29.894  25.481  1.00  0.00     0.202 C 
BRANCH  27  28
ATOM     28  C   UNL A   1      31.868  31.076  26.451  1.00  0.00     0.261 C 
BRANCH  28  29
ATOM     29  O   UNL A   1      32.928  30.886  27.406  1.00  0.00    -0.460 OA
BRANCH  29  30
ATOM     30  C   UNL A   1      33.684  31.982  27.657  1.00  0.00     0.338 C 
ATOM     31  O   UNL A   1      33.314  33.143  27.692  1.00  0.00    -0.246 OA
BRANCH  30  32
ATOM     32  C   UNL A   1      35.038  31.560  28.065  1.00  0.00     0.060 A 
ATOM     33  C   UNL A   1      35.220  30.223  28.447  1.00  0.00     0.016 A 
ATOM     34  C   UNL A   1      36.099  32.466  28.123  1.00  0.00     0.016 A 
ATOM     35  C   UNL A   1      36.458  29.794  28.925  1.00  0.00     0.010 A 
ATOM     36  C   UNL A   1      37.335  32.037  28.611  1.00  0.00     0.010 A 
ATOM     37  C   UNL A   1      37.511  30.709  29.044  1.00  0.00    -0.014 A 
BRANCH  37  38
ATOM     38  C   UNL A   1      38.763  30.336  29.743  1.00  0.00     0.031 A 
ATOM     39  C   UNL A   1      39.646  29.285  29.129  1.00  0.00     0.074 A 
ATOM     40  C   UNL A   1      39.076  30.877  30.934  1.00  0.00     0.049 A 
ATOM     41  N   UNL A   1      40.698  28.693  29.627  1.00  0.00    -0.248 NA
ATOM     42  C   UNL A   1      39.285  28.837  27.773  1.00  0.00     0.031 C 
ATOM     43  C   UNL A   1      38.306  31.913  31.620  1.00  0.00     0.029 A 
ATOM     44  N   UNL A   1      40.104  30.592  31.798  1.00  0.00    -0.354 N 
ATOM     45  C   UNL A   1      41.101  27.772  28.667  1.00  0.00     0.074 A 
ATOM     46  C   UNL A   1      40.182  27.885  27.556  1.00  0.00     0.031 C 
ATOM     47  C   UNL A   1      38.863  32.146  32.820  1.00  0.00     0.029 A 
ATOM     48  C   UNL A   1      40.006  31.251  33.001  1.00  0.00     0.049 A 
ATOM     49  H   UNL A   1      40.841  29.977  31.578  1.00  0.00     0.167 HD
ATOM     50  C   UNL A   1      42.148  26.915  28.706  1.00  0.00     0.034 A 
ATOM     51  C   UNL A   1      40.730  31.117  34.130  1.00  0.00     0.034 A 
ATOM     52  C   UNL A   1      43.072  26.825  29.803  1.00  0.00     0.049 A 
ATOM     53  C   UNL A   1      41.875  30.137  34.159  1.00  0.00     0.074 A 
ATOM     54  C   UNL A   1      44.192  26.022  29.918  1.00  0.00     0.029 A 
ATOM     55  N   UNL A   1      42.978  27.556  30.976  1.00  0.00    -0.354 N 
ATOM     56  N   UNL A   1      42.307  29.346  33.207  1.00  0.00    -0.248 NA
ATOM     57  C   UNL A   1      42.647  30.047  35.408  1.00  0.00     0.031 C 
ATOM     58  C   UNL A   1      44.763  26.250  31.174  1.00  0.00     0.029 A 
ATOM     59  C   UNL A   1      44.014  27.216  31.828  1.00  0.00     0.049 A 
ATOM     60  H   UNL A   1      42.277  28.218  31.175  1.00  0.00     0.167 HD
ATOM     61  C   UNL A   1      43.425  28.700  33.725  1.00  0.00     0.074 A 
ATOM     62  C   UNL A   1      43.607  29.195  35.073  1.00  0.00     0.031 C 
ATOM     63  C   UNL A   1      44.222  27.771  33.140  1.00  0.00     0.034 A 
BRANCH  50  64
ATOM     64  C   UNL A   1      42.363  26.017  27.518  1.00  0.00     0.023 A 
ATOM     65  C   UNL A   1      43.081  26.496  26.404  1.00  0.00     0.012 A 
ATOM     66  C   UNL A   1      41.905  24.685  27.527  1.00  0.00     0.148 A 
ATOM     67  C   UNL A   1      43.318  25.669  25.305  1.00  0.00     0.002 A 
ATOM     68  C   UNL A   1      42.181  23.856  26.447  1.00  0.00     0.091 A 
ATOM     69  F   UNL A   1      41.202  24.258  28.586  1.00  0.00    -0.205 F 
ATOM     70  C   UNL A   1      42.878  24.348  25.332  1.00  0.00     0.022 A 
BRANCH  68  71
ATOM     71  S   UNL A   1      41.721  22.119  26.421  1.00  0.00     0.127 S 
ATOM     72  O   UNL A   1      42.484  21.629  25.274  1.00  0.00    -0.237 OA
ATOM     73  O   UNL A   1      42.205  21.652  27.721  1.00  0.00    -0.237 OA
ATOM     74  O   UNL A   1      40.273  22.091  26.268  1.00  0.00    -0.744 OA
ENDBRANCH  68  71
ENDBRANCH  50  64
BRANCH  51  75
ATOM     75  C   UNL A   1      40.408  31.951  35.323  1.00  0.00     0.023 A 
ATOM     76  C   UNL A   1      41.233  33.043  35.649  1.00  0.00     0.012 A 
ATOM     77  C   UNL A   1      39.277  31.682  36.120  1.00  0.00     0.148 A 
ATOM     78  C   UNL A   1      40.955  33.837  36.763  1.00  0.00     0.002 A 
ATOM     79  C   UNL A   1      38.976  32.508  37.197  1.00  0.00     0.091 A 
ATOM     80  F   UNL A   1      38.513  30.626  35.806  1.00  0.00    -0.205 F 
ATOM     81  C   UNL A   1      39.822  33.577  37.529  1.00  0.00     0.022 A 
BRANCH  79  82
ATOM     82  S   UNL A   1      37.470  32.322  38.158  1.00  0.00     0.127 S 
ATOM     83  O   UNL A   1      36.483  32.971  37.299  1.00  0.00    -0.237 OA
ATOM     84  O   UNL A   1      37.346  30.867  38.250  1.00  0.00    -0.237 OA
ATOM     85  O   UNL A   1      37.732  32.981  39.431  1.00  0.00    -0.744 OA
ENDBRANCH  79  82
ENDBRANCH  51  75
BRANCH  63  86
ATOM     86  C   UNL A   1      45.405  27.259  33.919  1.00  0.00     0.023 A 
ATOM     87  C   UNL A   1      46.631  27.949  33.869  1.00  0.00     0.012 A 
ATOM     88  C   UNL A   1      45.260  26.163  34.793  1.00  0.00     0.148 A 
ATOM     89  C   UNL A   1      47.702  27.545  34.664  1.00  0.00     0.002 A 
ATOM     90  C   UNL A   1      46.316  25.796  35.617  1.00  0.00     0.091 A 
ATOM     91  F   UNL A   1      44.088  25.512  34.812  1.00  0.00    -0.205 F 
ATOM     92  C   UNL A   1      47.541  26.480  35.549  1.00  0.00     0.022 A 
BRANCH  90  93
ATOM     93  S   UNL A   1      46.170  24.502  36.856  1.00  0.00     0.127 S 
ATOM     94  O   UNL A   1      46.919  25.074  37.973  1.00  0.00    -0.237 OA
ATOM     95  O   UNL A   1      44.723  24.433  37.061  1.00  0.00    -0.237 OA
ATOM     96  O   UNL A   1      46.755  23.307  36.262  1.00  0.00    -0.744 OA
ENDBRANCH  90  93
ENDBRANCH  63  86
ENDBRANCH  37  38
ENDBRANCH  30  32
ENDBRANCH  29  30
ENDBRANCH  28  29
ENDBRANCH  27  28
ENDBRANCH   1  27
TORSDOF 21
ENDMDL
MODEL 3
REMARK VINA RESULT:     -10.6      1.590      7.700
REMARK SMILES CC1(C)CCC[C@H]1NS(=O)(=O)c1ccc(O)c(C(=O)OCCOCCOC(=O)c2ccc(-c3c4nc(c(-c5cccc(S(=O)(=O)[O-])c5F)c5ccc([nH]5)c(-c5cccc(S(=O)(=O)[O-])c5F)c5nc(c(-c6cccc(S(=O)(=O)[O-])c6F)c6ccc3[nH]6)C=C5)C=C4)cc2)c1
REMARK SMILES IDX 23 1 22 2 21 3 20 4 18 5 19 6 17 7 12 8 13 9 92 10 14 11
REMARK SMILES IDX 15 12 9 13 10 14 11 15 8 16 7 18 1 19 2 20 3 21 4 22 5 23
REMARK SMILES IDX 6 24 16 25 24 27 25 28 26 29 27 30 28 31 29 32 30 33 91 34
REMARK SMILES IDX 31 35 90 36 32 37 33 38 34 39 84 40 35 41 89 42 83 43 85 44
REMARK SMILES IDX 36 45 88 46 82 47 81 48 37 50 69 51 49 52 68 53 50 54 53 55
REMARK SMILES IDX 67 56 86 57 51 58 52 59 66 61 87 62 54 63 38 64 39 65 47 66
REMARK SMILES IDX 40 67 42 68 48 69 41 70 43 71 44 72 45 73 46 74 70 75 71 76
REMARK SMILES IDX 79 77 72 78 74 79 80 80 73 81 75 82 76 83 77 84 78 85 55 86
REMARK SMILES IDX 56 87 64 88 57 89 59 90 65 91 58 92 60 93 61 94 62 95 63 96
REMARK H PARENT 8 17 16 26 85 49 53 60
REMARK Flexibility Score: inf
ROOT
ATOM      1  O   UNL A   1      31.831  30.582  26.886  1.00  0.00    -0.374 OA
ENDROOT
BRANCH   1   2
ATOM      2  C   UNL A   1      31.522  29.317  26.290  1.00  0.00     0.202 C 
BRANCH   2   3
ATOM      3  C   UNL A   1      31.639  28.122  27.240  1.00  0.00     0.261 C 
BRANCH   3   4
ATOM      4  O   UNL A   1      32.549  27.163  26.684  1.00  0.00    -0.460 OA
BRANCH   4   5
ATOM      5  C   UNL A   1      33.671  27.641  26.098  1.00  0.00     0.342 C 
ATOM      6  O   UNL A   1      34.605  28.201  26.648  1.00  0.00    -0.246 OA
BRANCH   5   7
ATOM      7  C   UNL A   1      33.735  27.139  24.702  1.00  0.00     0.103 A 
ATOM      8  C   UNL A   1      33.420  25.236  23.235  1.00  0.00     0.083 A 
ATOM      9  C   UNL A   1      33.455  26.092  22.129  1.00  0.00     0.025 A 
ATOM     10  C   UNL A   1      33.558  25.757  24.525  1.00  0.00     0.041 A 
ATOM     11  C   UNL A   1      33.703  27.455  22.300  1.00  0.00     0.048 A 
ATOM     12  C   UNL A   1      33.839  27.979  23.587  1.00  0.00     0.130 A 
BRANCH   8  13
ATOM     13  S   UNL A   1      32.963  23.534  23.018  1.00  0.00     0.240 S 
ATOM     14  O   UNL A   1      32.975  23.276  21.598  1.00  0.00    -0.207 OA
ATOM     15  O   UNL A   1      31.770  23.295  23.806  1.00  0.00    -0.207 OA
BRANCH  13  16
ATOM     16  N   UNL A   1      34.152  22.623  23.782  1.00  0.00    -0.208 NA
ATOM     17  H   UNL A   1      33.728  22.276  24.642  1.00  0.00     0.141 HD
BRANCH  16  18
ATOM     18  C   UNL A   1      35.465  23.161  24.172  1.00  0.00     0.075 C 
ATOM     19  C   UNL A   1      34.571  22.833  26.615  1.00  0.00     0.013 C 
ATOM     20  C   UNL A   1      35.783  22.935  25.680  1.00  0.00    -0.019 C 
ATOM     21  C   UNL A   1      36.668  24.096  26.190  1.00  0.00     0.013 C 
ATOM     22  C   UNL A   1      36.577  21.619  25.674  1.00  0.00     0.008 C 
ATOM     23  C   UNL A   1      37.457  21.718  24.443  1.00  0.00     0.002 C 
ATOM     24  C   UNL A   1      36.616  22.468  23.417  1.00  0.00     0.020 C 
ENDBRANCH  16  18
ENDBRANCH  13  16
ENDBRANCH   8  13
BRANCH  12  25
ATOM     25  O   UNL A   1      34.062  29.315  23.744  1.00  0.00    -0.507 OA
ATOM     26  H   UNL A   1      34.939  29.643  23.786  1.00  0.00     0.293 HD
ENDBRANCH  12  25
ENDBRANCH   5   7
ENDBRANCH   4   5
ENDBRANCH   3   4
ENDBRANCH   2   3
ENDBRANCH   1   2
BRANCH   1  27
ATOM     27  C   UNL A   1      31.131  31.714  26.362  1.00  0.00     0.202 C 
BRANCH  27  28
ATOM     28  C   UNL A   1      31.697  33.078  26.777  1.00  0.00     0.261 C 
BRANCH  28  29
ATOM     29  O   UNL A   1      33.073  32.980  27.184  1.00  0.00    -0.460 OA
BRANCH  29  30
ATOM     30  C   UNL A   1      33.466  33.881  28.118  1.00  0.00     0.338 C 
ATOM     31  O   UNL A   1      32.933  34.943  28.390  1.00  0.00    -0.246 OA
BRANCH  30  32
ATOM     32  C   UNL A   1      34.572  33.312  28.913  1.00  0.00     0.060 A 
ATOM     33  C   UNL A   1      35.875  33.454  28.418  1.00  0.00     0.016 A 
ATOM     34  C   UNL A   1      34.334  32.608  30.096  1.00  0.00     0.016 A 
ATOM     35  C   UNL A   1      36.946  32.858  29.084  1.00  0.00     0.010 A 
ATOM     36  C   UNL A   1      35.406  32.005  30.756  1.00  0.00     0.010 A 
ATOM     37  C   UNL A   1      36.711  32.100  30.237  1.00  0.00    -0.014 A 
BRANCH  37  38
ATOM     38  C   UNL A   1      37.791  31.284  30.841  1.00  0.00     0.031 A 
ATOM     39  C   UNL A   1      38.211  31.579  32.254  1.00  0.00     0.074 A 
ATOM     40  C   UNL A   1      38.427  30.342  30.124  1.00  0.00     0.049 A 
ATOM     41  N   UNL A   1      39.223  31.108  32.932  1.00  0.00    -0.248 NA
ATOM     42  C   UNL A   1      37.382  32.544  32.997  1.00  0.00     0.031 C 
ATOM     43  C   UNL A   1      38.099  29.958  28.752  1.00  0.00     0.029 A 
ATOM     44  N   UNL A   1      39.516  29.567  30.440  1.00  0.00    -0.354 N 
ATOM     45  C   UNL A   1      39.181  31.749  34.165  1.00  0.00     0.074 A 
ATOM     46  C   UNL A   1      38.042  32.640  34.143  1.00  0.00     0.031 C 
ATOM     47  C   UNL A   1      38.995  29.052  28.327  1.00  0.00     0.029 A 
ATOM     48  C   UNL A   1      39.980  28.820  29.383  1.00  0.00     0.049 A 
ATOM     49  H   UNL A   1      39.924  29.548  31.336  1.00  0.00     0.167 HD
ATOM     50  C   UNL A   1      40.012  31.600  35.223  1.00  0.00     0.034 A 
ATOM     51  C   UNL A   1      41.094  28.069  29.269  1.00  0.00     0.034 A 
ATOM     52  C   UNL A   1      41.127  30.694  35.248  1.00  0.00     0.049 A 
ATOM     53  C   UNL A   1      42.019  27.940  30.452  1.00  0.00     0.074 A 
ATOM     54  C   UNL A   1      42.001  30.437  36.288  1.00  0.00     0.029 A 
ATOM     55  N   UNL A   1      41.527  29.905  34.182  1.00  0.00    -0.354 N 
ATOM     56  N   UNL A   1      41.911  28.471  31.646  1.00  0.00    -0.248 NA
ATOM     57  C   UNL A   1      43.207  27.089  30.282  1.00  0.00     0.031 C 
ATOM     58  C   UNL A   1      42.946  29.508  35.841  1.00  0.00     0.029 A 
ATOM     59  C   UNL A   1      42.642  29.166  34.533  1.00  0.00     0.049 A 
ATOM     60  H   UNL A   1      41.083  29.875  33.303  1.00  0.00     0.167 HD
ATOM     61  C   UNL A   1      42.988  27.985  32.381  1.00  0.00     0.074 A 
ATOM     62  C   UNL A   1      43.734  27.112  31.500  1.00  0.00     0.031 C 
ATOM     63  C   UNL A   1      43.333  28.247  33.666  1.00  0.00     0.034 A 
BRANCH  50  64
ATOM     64  C   UNL A   1      39.735  32.423  36.452  1.00  0.00     0.023 A 
ATOM     65  C   UNL A   1      40.450  33.618  36.667  1.00  0.00     0.012 A 
ATOM     66  C   UNL A   1      38.730  32.043  37.363  1.00  0.00     0.148 A 
ATOM     67  C   UNL A   1      40.187  34.410  37.785  1.00  0.00     0.002 A 
ATOM     68  C   UNL A   1      38.446  32.858  38.452  1.00  0.00     0.091 A 
ATOM     69  F   UNL A   1      38.080  30.889  37.154  1.00  0.00    -0.205 F 
ATOM     70  C   UNL A   1      39.178  34.036  38.670  1.00  0.00     0.022 A 
BRANCH  68  71
ATOM     71  S   UNL A   1      37.115  32.500  39.605  1.00  0.00     0.127 S 
ATOM     72  O   UNL A   1      37.275  33.574  40.583  1.00  0.00    -0.237 OA
ATOM     73  O   UNL A   1      35.929  32.620  38.755  1.00  0.00    -0.237 OA
ATOM     74  O   UNL A   1      37.369  31.156  40.104  1.00  0.00    -0.744 OA
ENDBRANCH  68  71
ENDBRANCH  50  64
BRANCH  51  75
ATOM     75  C   UNL A   1      41.385  27.360  27.991  1.00  0.00     0.023 A 
ATOM     76  C   UNL A   1      41.845  28.093  26.881  1.00  0.00     0.012 A 
ATOM     77  C   UNL A   1      41.232  25.964  27.877  1.00  0.00     0.148 A 
ATOM     78  C   UNL A   1      42.122  27.454  25.672  1.00  0.00     0.002 A 
ATOM     79  C   UNL A   1      41.561  25.326  26.686  1.00  0.00     0.091 A 
ATOM     80  F   UNL A   1      40.775  25.285  28.938  1.00  0.00    -0.205 F 
ATOM     81  C   UNL A   1      41.991  26.071  25.577  1.00  0.00     0.022 A 
BRANCH  79  82
ATOM     82  S   UNL A   1      41.543  23.537  26.518  1.00  0.00     0.127 S 
ATOM     83  O   UNL A   1      42.207  23.114  27.747  1.00  0.00    -0.237 OA
ATOM     84  O   UNL A   1      40.109  23.252  26.463  1.00  0.00    -0.237 OA
ATOM     85  O   UNL A   1      42.257  23.251  25.280  1.00  0.00    -0.744 OA
ENDBRANCH  79  82
ENDBRANCH  51  75
BRANCH  63  86
ATOM     86  C   UNL A   1      44.539  27.547  34.234  1.00  0.00     0.023 A 
ATOM     87  C   UNL A   1      45.809  28.147  34.138  1.00  0.00     0.012 A 
ATOM     88  C   UNL A   1      44.387  26.353  34.968  1.00  0.00     0.148 A 
ATOM     89  C   UNL A   1      46.915  27.559  34.750  1.00  0.00     0.002 A 
ATOM     90  C   UNL A   1      45.485  25.799  35.615  1.00  0.00     0.091 A 
ATOM     91  F   UNL A   1      43.171  25.793  35.033  1.00  0.00    -0.205 F 
ATOM     92  C   UNL A   1      46.752  26.396  35.500  1.00  0.00     0.022 A 
BRANCH  90  93
ATOM     93  S   UNL A   1      45.352  24.360  36.682  1.00  0.00     0.127 S 
ATOM     94  O   UNL A   1      44.872  23.342  35.750  1.00  0.00    -0.237 OA
ATOM     95  O   UNL A   1      46.734  24.178  37.128  1.00  0.00    -0.237 OA
ATOM     96  O   UNL A   1      44.418  24.725  37.739  1.00  0.00    -0.744 OA
ENDBRANCH  90  93
ENDBRANCH  63  86
ENDBRANCH  37  38
ENDBRANCH  30  32
ENDBRANCH  29  30
ENDBRANCH  28  29
ENDBRANCH  27  28
ENDBRANCH   1  27
TORSDOF 21
ENDMDL
