MODEL 1
REMARK VINA RESULT:     -11.6      0.000      0.000
REMARK SMILES O=C(OCCOCCOC(=O)c1cc(-c2ccn(C(F)F)c(=O)c2)ccc1O)c1ccc(-c2c3nc(c(-c4cccc(S(=O)(=O)[O-])c4F)c4ccc([nH]4)c(-c4cccc(S(=O)(=O)[O-])c4F)c4nc(c(-c5cccc(S(=O)(=O)[O-])c5F)c5ccc2[nH]5)C=C4)C=C3)cc1
REMARK SMILES IDX 5 1 4 2 3 3 2 4 1 5 29 6 30 7 91 8 31 9 90 10 32 11 33 12
REMARK SMILES IDX 34 13 84 14 35 15 89 16 83 17 85 18 36 19 88 20 82 21 81 22
REMARK SMILES IDX 37 24 69 25 49 26 68 27 50 28 53 29 67 30 86 31 51 32 52 33
REMARK SMILES IDX 66 35 87 36 54 37 38 38 39 39 47 40 40 41 42 42 48 43 41 44
REMARK SMILES IDX 43 45 44 46 45 47 46 48 70 49 71 50 79 51 72 52 74 53 80 54
REMARK SMILES IDX 73 55 75 56 76 57 77 58 78 59 55 60 56 61 64 62 57 63 59 64
REMARK SMILES IDX 65 65 58 66 60 67 61 68 62 69 63 70 6 71 7 72 8 73 9 74
REMARK SMILES IDX 10 75 11 76 12 77 13 78 27 79 14 80 26 81 25 82 28 83 15 85
REMARK SMILES IDX 16 86 24 87 17 88 22 89 18 90 23 91 19 92 20 93 21 94
REMARK H PARENT 85 23 53 34 28 84
REMARK Flexibility Score: inf
ROOT
ATOM      1  C   UNL A   1      31.884  29.351  25.717  1.00  0.00     0.202 C 
ENDROOT
BRANCH   1   2
ATOM      2  C   UNL A   1      31.968  30.616  26.569  1.00  0.00     0.261 C 
BRANCH   2   3
ATOM      3  O   UNL A   1      33.254  31.247  26.525  1.00  0.00    -0.460 OA
BRANCH   3   4
ATOM      4  C   UNL A   1      33.873  31.833  27.581  1.00  0.00     0.338 C 
ATOM      5  O   UNL A   1      33.538  32.965  27.923  1.00  0.00    -0.246 OA
BRANCH   4   6
ATOM      6  C   UNL A   1      35.118  31.244  28.159  1.00  0.00     0.060 A 
ATOM      7  C   UNL A   1      36.221  32.107  28.291  1.00  0.00     0.016 A 
ATOM      8  C   UNL A   1      35.256  29.921  28.582  1.00  0.00     0.016 A 
ATOM      9  C   UNL A   1      37.440  31.641  28.792  1.00  0.00     0.010 A 
ATOM     10  C   UNL A   1      36.485  29.432  29.005  1.00  0.00     0.010 A 
ATOM     11  C   UNL A   1      37.574  30.294  29.138  1.00  0.00    -0.014 A 
BRANCH  11  12
ATOM     12  C   UNL A   1      38.739  29.793  29.884  1.00  0.00     0.031 A 
ATOM     13  C   UNL A   1      39.175  30.409  31.172  1.00  0.00     0.074 A 
ATOM     14  C   UNL A   1      39.483  28.860  29.261  1.00  0.00     0.049 A 
ATOM     15  N   UNL A   1      40.155  30.043  31.952  1.00  0.00    -0.248 NA
ATOM     16  C   UNL A   1      38.436  31.592  31.645  1.00  0.00     0.031 C 
ATOM     17  C   UNL A   1      39.193  28.314  27.929  1.00  0.00     0.029 A 
ATOM     18  N   UNL A   1      40.656  28.257  29.619  1.00  0.00    -0.354 N 
ATOM     19  C   UNL A   1      40.139  30.925  33.023  1.00  0.00     0.074 A 
ATOM     20  C   UNL A   1      39.075  31.873  32.777  1.00  0.00     0.031 C 
ATOM     21  C   UNL A   1      40.190  27.499  27.561  1.00  0.00     0.029 A 
ATOM     22  C   UNL A   1      41.162  27.431  28.646  1.00  0.00     0.049 A 
ATOM     23  H   UNL A   1      41.094  28.400  30.489  1.00  0.00     0.167 HD
ATOM     24  C   UNL A   1      40.934  30.904  34.119  1.00  0.00     0.034 A 
ATOM     25  C   UNL A   1      42.276  26.681  28.637  1.00  0.00     0.034 A 
ATOM     26  C   UNL A   1      41.994  29.949  34.310  1.00  0.00     0.049 A 
ATOM     27  C   UNL A   1      43.099  26.629  29.885  1.00  0.00     0.074 A 
ATOM     28  C   UNL A   1      42.793  29.766  35.423  1.00  0.00     0.029 A 
ATOM     29  N   UNL A   1      42.413  29.034  33.356  1.00  0.00    -0.354 N 
ATOM     30  N   UNL A   1      42.940  27.313  30.993  1.00  0.00    -0.248 NA
ATOM     31  C   UNL A   1      44.209  25.669  29.920  1.00  0.00     0.031 C 
ATOM     32  C   UNL A   1      43.703  28.744  35.137  1.00  0.00     0.029 A 
ATOM     33  C   UNL A   1      43.463  28.285  33.852  1.00  0.00     0.049 A 
ATOM     34  H   UNL A   1      42.020  28.933  32.459  1.00  0.00     0.167 HD
ATOM     35  C   UNL A   1      43.908  26.849  31.869  1.00  0.00     0.074 A 
ATOM     36  C   UNL A   1      44.649  25.820  31.165  1.00  0.00     0.031 C 
ATOM     37  C   UNL A   1      44.159  27.243  33.140  1.00  0.00     0.034 A 
BRANCH  24  38
ATOM     38  C   UNL A   1      40.635  31.848  35.252  1.00  0.00     0.023 A 
ATOM     39  C   UNL A   1      41.395  33.032  35.347  1.00  0.00     0.012 A 
ATOM     40  C   UNL A   1      39.518  31.672  36.091  1.00  0.00     0.148 A 
ATOM     41  C   UNL A   1      41.046  34.030  36.256  1.00  0.00     0.002 A 
ATOM     42  C   UNL A   1      39.163  32.682  36.981  1.00  0.00     0.091 A 
ATOM     43  F   UNL A   1      38.811  30.539  35.983  1.00  0.00    -0.205 F 
ATOM     44  C   UNL A   1      39.924  33.860  37.063  1.00  0.00     0.022 A 
BRANCH  42  45
ATOM     45  S   UNL A   1      37.703  32.600  38.027  1.00  0.00     0.127 S 
ATOM     46  O   UNL A   1      37.979  33.656  39.002  1.00  0.00    -0.237 OA
ATOM     47  O   UNL A   1      36.631  32.911  37.082  1.00  0.00    -0.237 OA
ATOM     48  O   UNL A   1      37.672  31.252  38.575  1.00  0.00    -0.744 OA
ENDBRANCH  42  45
ENDBRANCH  24  38
BRANCH  25  49
ATOM     49  C   UNL A   1      42.548  25.832  27.450  1.00  0.00     0.023 A 
ATOM     50  C   UNL A   1      43.413  26.316  26.451  1.00  0.00     0.012 A 
ATOM     51  C   UNL A   1      42.092  24.501  27.389  1.00  0.00     0.148 A 
ATOM     52  C   UNL A   1      43.819  25.487  25.406  1.00  0.00     0.002 A 
ATOM     53  C   UNL A   1      42.526  23.671  26.362  1.00  0.00     0.091 A 
ATOM     54  F   UNL A   1      41.282  24.064  28.364  1.00  0.00    -0.205 F 
ATOM     55  C   UNL A   1      43.386  24.164  25.367  1.00  0.00     0.022 A 
BRANCH  53  56
ATOM     56  S   UNL A   1      42.117  21.923  26.291  1.00  0.00     0.127 S 
ATOM     57  O   UNL A   1      42.451  21.485  27.644  1.00  0.00    -0.237 OA
ATOM     58  O   UNL A   1      40.685  21.959  25.992  1.00  0.00    -0.237 OA
ATOM     59  O   UNL A   1      42.942  21.365  25.227  1.00  0.00    -0.744 OA
ENDBRANCH  53  56
ENDBRANCH  25  49
BRANCH  37  60
ATOM     60  C   UNL A   1      45.284  26.574  33.870  1.00  0.00     0.023 A 
ATOM     61  C   UNL A   1      46.542  27.204  33.911  1.00  0.00     0.012 A 
ATOM     62  C   UNL A   1      45.048  25.425  34.648  1.00  0.00     0.148 A 
ATOM     63  C   UNL A   1      47.554  26.699  34.722  1.00  0.00     0.002 A 
ATOM     64  C   UNL A   1      46.050  24.947  35.479  1.00  0.00     0.091 A 
ATOM     65  F   UNL A   1      43.838  24.851  34.585  1.00  0.00    -0.205 F 
ATOM     66  C   UNL A   1      47.304  25.580  35.516  1.00  0.00     0.022 A 
BRANCH  64  67
ATOM     67  S   UNL A   1      45.805  23.561  36.595  1.00  0.00     0.127 S 
ATOM     68  O   UNL A   1      47.177  23.267  37.010  1.00  0.00    -0.237 OA
ATOM     69  O   UNL A   1      44.966  24.152  37.637  1.00  0.00    -0.237 OA
ATOM     70  O   UNL A   1      45.166  22.514  35.810  1.00  0.00    -0.744 OA
ENDBRANCH  64  67
ENDBRANCH  37  60
ENDBRANCH  11  12
ENDBRANCH   4   6
ENDBRANCH   3   4
ENDBRANCH   2   3
ENDBRANCH   1   2
BRANCH   1  71
ATOM     71  O   UNL A   1      31.041  29.397  24.572  1.00  0.00    -0.374 OA
BRANCH  71  72
ATOM     72  C   UNL A   1      30.753  28.130  23.976  1.00  0.00     0.202 C 
BRANCH  72  73
ATOM     73  C   UNL A   1      30.513  27.006  24.992  1.00  0.00     0.261 C 
BRANCH  73  74
ATOM     74  O   UNL A   1      31.456  25.933  24.819  1.00  0.00    -0.460 OA
BRANCH  74  75
ATOM     75  C   UNL A   1      31.616  25.101  25.884  1.00  0.00     0.342 C 
ATOM     76  O   UNL A   1      30.790  24.771  26.702  1.00  0.00    -0.246 OA
BRANCH  75  77
ATOM     77  C   UNL A   1      32.930  24.433  25.743  1.00  0.00     0.102 A 
ATOM     78  C   UNL A   1      32.949  23.025  25.704  1.00  0.00     0.028 A 
ATOM     79  C   UNL A   1      34.112  25.158  25.586  1.00  0.00     0.130 A 
ATOM     80  C   UNL A   1      34.141  22.351  25.437  1.00  0.00    -0.017 A 
ATOM     81  C   UNL A   1      35.313  24.485  25.371  1.00  0.00     0.048 A 
ATOM     82  C   UNL A   1      35.323  23.091  25.285  1.00  0.00     0.012 A 
BRANCH  79  83
ATOM     83  O   UNL A   1      34.101  26.520  25.658  1.00  0.00    -0.507 OA
ATOM     84  H   UNL A   1      33.610  26.948  26.332  1.00  0.00     0.293 HD
ENDBRANCH  79  83
BRANCH  80  85
ATOM     85  C   UNL A   1      34.204  20.886  25.289  1.00  0.00    -0.011 A 
ATOM     86  C   UNL A   1      35.442  20.185  25.013  1.00  0.00     0.027 A 
ATOM     87  C   UNL A   1      33.048  20.198  25.288  1.00  0.00     0.080 A 
ATOM     88  C   UNL A   1      35.427  18.894  24.663  1.00  0.00     0.095 A 
ATOM     89  C   UNL A   1      33.019  18.753  24.921  1.00  0.00     0.255 A 
ATOM     90  N   UNL A   1      34.241  18.187  24.591  1.00  0.00    -0.258 N 
ATOM     91  O   UNL A   1      31.935  18.180  24.887  1.00  0.00    -0.269 OA
BRANCH  90  92
ATOM     92  C   UNL A   1      34.228  16.830  24.109  1.00  0.00     0.451 C 
ATOM     93  F   UNL A   1      34.332  16.774  22.760  1.00  0.00    -0.185 F 
ATOM     94  F   UNL A   1      35.260  16.124  24.639  1.00  0.00    -0.185 F 
ENDBRANCH  90  92
ENDBRANCH  80  85
ENDBRANCH  75  77
ENDBRANCH  74  75
ENDBRANCH  73  74
ENDBRANCH  72  73
ENDBRANCH  71  72
ENDBRANCH   1  71
TORSDOF 20
ENDMDL
MODEL 2
REMARK VINA RESULT:     -11.4      5.115      8.089
REMARK SMILES O=C(OCCOCCOC(=O)c1cc(-c2ccn(C(F)F)c(=O)c2)ccc1O)c1ccc(-c2c3nc(c(-c4cccc(S(=O)(=O)[O-])c4F)c4ccc([nH]4)c(-c4cccc(S(=O)(=O)[O-])c4F)c4nc(c(-c5cccc(S(=O)(=O)[O-])c5F)c5ccc2[nH]5)C=C4)C=C3)cc1
REMARK SMILES IDX 5 1 4 2 3 3 2 4 1 5 29 6 30 7 91 8 31 9 90 10 32 11 33 12
REMARK SMILES IDX 34 13 84 14 35 15 89 16 83 17 85 18 36 19 88 20 82 21 81 22
REMARK SMILES IDX 37 24 69 25 49 26 68 27 50 28 53 29 67 30 86 31 51 32 52 33
REMARK SMILES IDX 66 35 87 36 54 37 38 38 39 39 47 40 40 41 42 42 48 43 41 44
REMARK SMILES IDX 43 45 44 46 45 47 46 48 70 49 71 50 79 51 72 52 74 53 80 54
REMARK SMILES IDX 73 55 75 56 76 57 77 58 78 59 55 60 56 61 64 62 57 63 59 64
REMARK SMILES IDX 65 65 58 66 60 67 61 68 62 69 63 70 6 71 7 72 8 73 9 74
REMARK SMILES IDX 10 75 11 76 12 77 13 78 27 79 14 80 26 81 25 82 28 83 15 85
REMARK SMILES IDX 16 86 24 87 17 88 22 89 18 90 23 91 19 92 20 93 21 94
REMARK H PARENT 85 23 53 34 28 84
REMARK Flexibility Score: inf
ROOT
ATOM      1  C   UNL A   1      38.213  20.617  25.675  1.00  0.00     0.202 C 
ENDROOT
BRANCH   1   2
ATOM      2  C   UNL A   1      39.264  19.576  25.294  1.00  0.00     0.261 C 
BRANCH   2   3
ATOM      3  O   UNL A   1      40.214  19.320  26.336  1.00  0.00    -0.460 OA
BRANCH   3   4
ATOM      4  C   UNL A   1      41.460  19.853  26.405  1.00  0.00     0.338 C 
ATOM      5  O   UNL A   1      42.435  19.104  26.431  1.00  0.00    -0.246 OA
BRANCH   4   6
ATOM      6  C   UNL A   1      41.656  21.301  26.715  1.00  0.00     0.060 A 
ATOM      7  C   UNL A   1      41.933  21.626  28.055  1.00  0.00     0.016 A 
ATOM      8  C   UNL A   1      41.595  22.335  25.779  1.00  0.00     0.016 A 
ATOM      9  C   UNL A   1      42.101  22.958  28.449  1.00  0.00     0.010 A 
ATOM     10  C   UNL A   1      41.680  23.663  26.176  1.00  0.00     0.010 A 
ATOM     11  C   UNL A   1      41.960  23.979  27.506  1.00  0.00    -0.014 A 
BRANCH  11  12
ATOM     12  C   UNL A   1      42.351  25.368  27.797  1.00  0.00     0.031 A 
ATOM     13  C   UNL A   1      41.370  26.374  28.301  1.00  0.00     0.074 A 
ATOM     14  C   UNL A   1      43.597  25.720  27.426  1.00  0.00     0.049 A 
ATOM     15  N   UNL A   1      41.588  27.616  28.636  1.00  0.00    -0.248 NA
ATOM     16  C   UNL A   1      39.967  25.948  28.437  1.00  0.00     0.031 C 
ATOM     17  C   UNL A   1      44.565  24.818  26.790  1.00  0.00     0.029 A 
ATOM     18  N   UNL A   1      44.239  26.925  27.464  1.00  0.00    -0.354 N 
ATOM     19  C   UNL A   1      40.363  28.119  29.050  1.00  0.00     0.074 A 
ATOM     20  C   UNL A   1      39.392  27.058  28.889  1.00  0.00     0.031 C 
ATOM     21  C   UNL A   1      45.657  25.515  26.449  1.00  0.00     0.029 A 
ATOM     22  C   UNL A   1      45.483  26.897  26.881  1.00  0.00     0.049 A 
ATOM     23  H   UNL A   1      43.850  27.734  27.869  1.00  0.00     0.167 HD
ATOM     24  C   UNL A   1      40.103  29.351  29.547  1.00  0.00     0.034 A 
ATOM     25  C   UNL A   1      46.394  27.872  26.732  1.00  0.00     0.034 A 
ATOM     26  C   UNL A   1      41.102  30.380  29.671  1.00  0.00     0.049 A 
ATOM     27  C   UNL A   1      46.106  29.205  27.348  1.00  0.00     0.074 A 
ATOM     28  C   UNL A   1      40.980  31.627  30.256  1.00  0.00     0.029 A 
ATOM     29  N   UNL A   1      42.397  30.287  29.184  1.00  0.00    -0.354 N 
ATOM     30  N   UNL A   1      45.009  29.603  27.947  1.00  0.00    -0.248 NA
ATOM     31  C   UNL A   1      47.184  30.200  27.333  1.00  0.00     0.031 C 
ATOM     32  C   UNL A   1      42.201  32.293  30.112  1.00  0.00     0.029 A 
ATOM     33  C   UNL A   1      43.085  31.456  29.450  1.00  0.00     0.049 A 
ATOM     34  H   UNL A   1      42.770  29.504  28.718  1.00  0.00     0.167 HD
ATOM     35  C   UNL A   1      45.270  30.884  28.407  1.00  0.00     0.074 A 
ATOM     36  C   UNL A   1      46.634  31.195  28.021  1.00  0.00     0.031 C 
ATOM     37  C   UNL A   1      44.453  31.724  29.084  1.00  0.00     0.034 A 
BRANCH  24  38
ATOM     38  C   UNL A   1      38.736  29.637  30.105  1.00  0.00     0.023 A 
ATOM     39  C   UNL A   1      38.468  29.256  31.436  1.00  0.00     0.012 A 
ATOM     40  C   UNL A   1      37.799  30.426  29.409  1.00  0.00     0.148 A 
ATOM     41  C   UNL A   1      37.292  29.657  32.069  1.00  0.00     0.002 A 
ATOM     42  C   UNL A   1      36.638  30.842  30.054  1.00  0.00     0.091 A 
ATOM     43  F   UNL A   1      38.075  30.777  28.146  1.00  0.00    -0.205 F 
ATOM     44  C   UNL A   1      36.385  30.459  31.382  1.00  0.00     0.022 A 
BRANCH  42  45
ATOM     45  S   UNL A   1      35.425  31.927  29.291  1.00  0.00     0.127 S 
ATOM     46  O   UNL A   1      34.604  32.308  30.441  1.00  0.00    -0.237 OA
ATOM     47  O   UNL A   1      36.265  33.000  28.761  1.00  0.00    -0.237 OA
ATOM     48  O   UNL A   1      34.740  31.126  28.286  1.00  0.00    -0.744 OA
ENDBRANCH  42  45
ENDBRANCH  24  38
BRANCH  25  49
ATOM     49  C   UNL A   1      47.694  27.535  26.100  1.00  0.00     0.023 A 
ATOM     50  C   UNL A   1      48.687  26.911  26.878  1.00  0.00     0.012 A 
ATOM     51  C   UNL A   1      47.885  27.675  24.712  1.00  0.00     0.148 A 
ATOM     52  C   UNL A   1      49.854  26.434  26.283  1.00  0.00     0.002 A 
ATOM     53  C   UNL A   1      49.036  27.168  24.120  1.00  0.00     0.091 A 
ATOM     54  F   UNL A   1      46.914  28.260  23.995  1.00  0.00    -0.205 F 
ATOM     55  C   UNL A   1      50.024  26.552  24.905  1.00  0.00     0.022 A 
BRANCH  53  56
ATOM     56  S   UNL A   1      49.293  27.169  22.342  1.00  0.00     0.127 S 
ATOM     57  O   UNL A   1      48.446  26.056  21.921  1.00  0.00    -0.237 OA
ATOM     58  O   UNL A   1      48.800  28.494  21.965  1.00  0.00    -0.237 OA
ATOM     59  O   UNL A   1      50.724  26.980  22.147  1.00  0.00    -0.744 OA
ENDBRANCH  53  56
ENDBRANCH  25  49
BRANCH  37  60
ATOM     60  C   UNL A   1      44.989  33.073  29.458  1.00  0.00     0.023 A 
ATOM     61  C   UNL A   1      45.713  33.210  30.657  1.00  0.00     0.012 A 
ATOM     62  C   UNL A   1      44.922  34.146  28.549  1.00  0.00     0.148 A 
ATOM     63  C   UNL A   1      46.371  34.403  30.946  1.00  0.00     0.002 A 
ATOM     64  C   UNL A   1      45.606  35.319  28.829  1.00  0.00     0.091 A 
ATOM     65  F   UNL A   1      44.224  33.979  27.417  1.00  0.00    -0.205 F 
ATOM     66  C   UNL A   1      46.329  35.451  30.027  1.00  0.00     0.022 A 
BRANCH  64  67
ATOM     67  S   UNL A   1      45.679  36.697  27.680  1.00  0.00     0.127 S 
ATOM     68  O   UNL A   1      46.217  36.056  26.480  1.00  0.00    -0.237 OA
ATOM     69  O   UNL A   1      44.273  37.089  27.584  1.00  0.00    -0.237 OA
ATOM     70  O   UNL A   1      46.554  37.689  28.288  1.00  0.00    -0.744 OA
ENDBRANCH  64  67
ENDBRANCH  37  60
ENDBRANCH  11  12
ENDBRANCH   4   6
ENDBRANCH   3   4
ENDBRANCH   2   3
ENDBRANCH   1   2
BRANCH   1  71
ATOM     71  O   UNL A   1      37.991  21.678  24.753  1.00  0.00    -0.374 OA
BRANCH  71  72
ATOM     72  C   UNL A   1      36.815  22.456  24.992  1.00  0.00     0.202 C 
BRANCH  72  73
ATOM     73  C   UNL A   1      36.602  23.588  23.978  1.00  0.00     0.261 C 
BRANCH  73  74
ATOM     74  O   UNL A   1      35.521  23.286  23.078  1.00  0.00    -0.460 OA
BRANCH  74  75
ATOM     75  C   UNL A   1      34.426  24.090  23.169  1.00  0.00     0.342 C 
ATOM     76  O   UNL A   1      34.217  25.133  22.595  1.00  0.00    -0.246 OA
BRANCH  75  77
ATOM     77  C   UNL A   1      33.380  23.348  23.908  1.00  0.00     0.102 A 
ATOM     78  C   UNL A   1      33.399  21.941  23.834  1.00  0.00     0.028 A 
ATOM     79  C   UNL A   1      32.441  23.998  24.710  1.00  0.00     0.130 A 
ATOM     80  C   UNL A   1      32.522  21.190  24.617  1.00  0.00    -0.017 A 
ATOM     81  C   UNL A   1      31.530  23.252  25.453  1.00  0.00     0.048 A 
ATOM     82  C   UNL A   1      31.580  21.856  25.415  1.00  0.00     0.012 A 
BRANCH  79  83
ATOM     83  O   UNL A   1      32.399  25.361  24.755  1.00  0.00    -0.507 OA
ATOM     84  H   UNL A   1      33.114  25.862  24.414  1.00  0.00     0.293 HD
ENDBRANCH  79  83
BRANCH  80  85
ATOM     85  C   UNL A   1      32.559  19.717  24.653  1.00  0.00    -0.011 A 
ATOM     86  C   UNL A   1      32.529  18.969  25.893  1.00  0.00     0.027 A 
ATOM     87  C   UNL A   1      32.754  19.059  23.496  1.00  0.00     0.080 A 
ATOM     88  C   UNL A   1      32.791  17.657  25.901  1.00  0.00     0.095 A 
ATOM     89  C   UNL A   1      33.026  17.592  23.487  1.00  0.00     0.255 A 
ATOM     90  N   UNL A   1      33.061  16.976  24.728  1.00  0.00    -0.258 N 
ATOM     91  O   UNL A   1      33.246  17.045  22.412  1.00  0.00    -0.269 OA
BRANCH  90  92
ATOM     92  C   UNL A   1      33.447  15.589  24.762  1.00  0.00     0.451 C 
ATOM     93  F   UNL A   1      34.580  15.399  25.479  1.00  0.00    -0.185 F 
ATOM     94  F   UNL A   1      32.467  14.832  25.318  1.00  0.00    -0.185 F 
ENDBRANCH  90  92
ENDBRANCH  80  85
ENDBRANCH  75  77
ENDBRANCH  74  75
ENDBRANCH  73  74
ENDBRANCH  72  73
ENDBRANCH  71  72
ENDBRANCH   1  71
TORSDOF 20
ENDMDL
MODEL 3
REMARK VINA RESULT:     -11.3      2.002      7.917
REMARK SMILES O=C(OCCOCCOC(=O)c1cc(-c2ccn(C(F)F)c(=O)c2)ccc1O)c1ccc(-c2c3nc(c(-c4cccc(S(=O)(=O)[O-])c4F)c4ccc([nH]4)c(-c4cccc(S(=O)(=O)[O-])c4F)c4nc(c(-c5cccc(S(=O)(=O)[O-])c5F)c5ccc2[nH]5)C=C4)C=C3)cc1
REMARK SMILES IDX 5 1 4 2 3 3 2 4 1 5 29 6 30 7 91 8 31 9 90 10 32 11 33 12
REMARK SMILES IDX 34 13 84 14 35 15 89 16 83 17 85 18 36 19 88 20 82 21 81 22
REMARK SMILES IDX 37 24 69 25 49 26 68 27 50 28 53 29 67 30 86 31 51 32 52 33
REMARK SMILES IDX 66 35 87 36 54 37 38 38 39 39 47 40 40 41 42 42 48 43 41 44
REMARK SMILES IDX 43 45 44 46 45 47 46 48 70 49 71 50 79 51 72 52 74 53 80 54
REMARK SMILES IDX 73 55 75 56 76 57 77 58 78 59 55 60 56 61 64 62 57 63 59 64
REMARK SMILES IDX 65 65 58 66 60 67 61 68 62 69 63 70 6 71 7 72 8 73 9 74
REMARK SMILES IDX 10 75 11 76 12 77 13 78 27 79 14 80 26 81 25 82 28 83 15 85
REMARK SMILES IDX 16 86 24 87 17 88 22 89 18 90 23 91 19 92 20 93 21 94
REMARK H PARENT 85 23 53 34 28 84
REMARK Flexibility Score: inf
ROOT
ATOM      1  C   UNL A   1      31.735  30.587  25.937  1.00  0.00     0.202 C 
ENDROOT
BRANCH   1   2
ATOM      2  C   UNL A   1      31.375  31.856  26.706  1.00  0.00     0.261 C 
BRANCH   2   3
ATOM      3  O   UNL A   1      32.395  32.862  26.654  1.00  0.00    -0.460 OA
BRANCH   3   4
ATOM      4  C   UNL A   1      33.049  33.368  27.730  1.00  0.00     0.338 C 
ATOM      5  O   UNL A   1      32.726  34.470  28.167  1.00  0.00    -0.246 OA
BRANCH   4   6
ATOM      6  C   UNL A   1      34.311  32.740  28.221  1.00  0.00     0.060 A 
ATOM      7  C   UNL A   1      35.462  33.549  28.214  1.00  0.00     0.016 A 
ATOM      8  C   UNL A   1      34.424  31.430  28.690  1.00  0.00     0.016 A 
ATOM      9  C   UNL A   1      36.698  33.041  28.626  1.00  0.00     0.010 A 
ATOM     10  C   UNL A   1      35.662  30.895  29.024  1.00  0.00     0.010 A 
ATOM     11  C   UNL A   1      36.798  31.704  29.020  1.00  0.00    -0.014 A 
BRANCH  11  12
ATOM     12  C   UNL A   1      38.001  31.174  29.681  1.00  0.00     0.031 A 
ATOM     13  C   UNL A   1      38.839  30.108  29.056  1.00  0.00     0.074 A 
ATOM     14  C   UNL A   1      38.208  31.584  30.947  1.00  0.00     0.049 A 
ATOM     15  N   UNL A   1      39.944  29.581  29.509  1.00  0.00    -0.248 NA
ATOM     16  C   UNL A   1      38.383  29.548  27.774  1.00  0.00     0.031 C 
ATOM     17  C   UNL A   1      37.340  32.519  31.674  1.00  0.00     0.029 A 
ATOM     18  N   UNL A   1      39.155  31.227  31.865  1.00  0.00    -0.354 N 
ATOM     19  C   UNL A   1      40.337  28.648  28.559  1.00  0.00     0.074 A 
ATOM     20  C   UNL A   1      39.331  28.651  27.520  1.00  0.00     0.031 C 
ATOM     21  C   UNL A   1      37.766  32.619  32.940  1.00  0.00     0.029 A 
ATOM     22  C   UNL A   1      38.956  31.793  33.100  1.00  0.00     0.049 A 
ATOM     23  H   UNL A   1      39.906  30.624  31.661  1.00  0.00     0.167 HD
ATOM     24  C   UNL A   1      41.459  27.892  28.563  1.00  0.00     0.034 A 
ATOM     25  C   UNL A   1      39.669  31.679  34.233  1.00  0.00     0.034 A 
ATOM     26  C   UNL A   1      42.423  27.912  29.632  1.00  0.00     0.049 A 
ATOM     27  C   UNL A   1      40.939  30.889  34.188  1.00  0.00     0.074 A 
ATOM     28  C   UNL A   1      43.646  27.270  29.697  1.00  0.00     0.029 A 
ATOM     29  N   UNL A   1      42.261  28.593  30.830  1.00  0.00    -0.354 N 
ATOM     30  N   UNL A   1      41.422  30.182  33.194  1.00  0.00    -0.248 NA
ATOM     31  C   UNL A   1      41.794  30.923  35.380  1.00  0.00     0.031 C 
ATOM     32  C   UNL A   1      44.219  27.556  30.939  1.00  0.00     0.029 A 
ATOM     33  C   UNL A   1      43.358  28.384  31.642  1.00  0.00     0.049 A 
ATOM     34  H   UNL A   1      41.479  29.144  31.064  1.00  0.00     0.167 HD
ATOM     35  C   UNL A   1      42.651  29.710  33.625  1.00  0.00     0.074 A 
ATOM     36  C   UNL A   1      42.842  30.215  34.972  1.00  0.00     0.031 C 
ATOM     37  C   UNL A   1      43.537  28.928  32.965  1.00  0.00     0.034 A 
BRANCH  24  38
ATOM     38  C   UNL A   1      41.786  27.069  27.347  1.00  0.00     0.023 A 
ATOM     39  C   UNL A   1      42.370  27.721  26.241  1.00  0.00     0.012 A 
ATOM     40  C   UNL A   1      41.698  25.663  27.355  1.00  0.00     0.148 A 
ATOM     41  C   UNL A   1      42.865  26.988  25.163  1.00  0.00     0.002 A 
ATOM     42  C   UNL A   1      42.215  24.937  26.286  1.00  0.00     0.091 A 
ATOM     43  F   UNL A   1      41.141  25.065  28.417  1.00  0.00    -0.205 F 
ATOM     44  C   UNL A   1      42.799  25.598  25.191  1.00  0.00     0.022 A 
BRANCH  42  45
ATOM     45  S   UNL A   1      42.240  23.141  26.239  1.00  0.00     0.127 S 
ATOM     46  O   UNL A   1      40.818  22.821  26.371  1.00  0.00    -0.237 OA
ATOM     47  O   UNL A   1      42.803  22.876  24.916  1.00  0.00    -0.237 OA
ATOM     48  O   UNL A   1      43.070  22.717  27.359  1.00  0.00    -0.744 OA
ENDBRANCH  42  45
ENDBRANCH  24  38
BRANCH  25  49
ATOM     49  C   UNL A   1      39.242  32.461  35.420  1.00  0.00     0.023 A 
ATOM     50  C   UNL A   1      38.499  31.818  36.427  1.00  0.00     0.012 A 
ATOM     51  C   UNL A   1      39.704  33.775  35.629  1.00  0.00     0.148 A 
ATOM     52  C   UNL A   1      38.219  32.473  37.625  1.00  0.00     0.002 A 
ATOM     53  C   UNL A   1      39.450  34.410  36.839  1.00  0.00     0.091 A 
ATOM     54  F   UNL A   1      40.424  34.356  34.657  1.00  0.00    -0.205 F 
ATOM     55  C   UNL A   1      38.704  33.762  37.837  1.00  0.00     0.022 A 
BRANCH  53  56
ATOM     56  S   UNL A   1      40.129  36.022  37.249  1.00  0.00     0.127 S 
ATOM     57  O   UNL A   1      39.791  36.797  36.058  1.00  0.00    -0.237 OA
ATOM     58  O   UNL A   1      39.369  36.375  38.449  1.00  0.00    -0.237 OA
ATOM     59  O   UNL A   1      41.551  35.808  37.478  1.00  0.00    -0.744 OA
ENDBRANCH  53  56
ENDBRANCH  25  49
BRANCH  37  60
ATOM     60  C   UNL A   1      44.803  28.551  33.674  1.00  0.00     0.023 A 
ATOM     61  C   UNL A   1      45.903  29.426  33.617  1.00  0.00     0.012 A 
ATOM     62  C   UNL A   1      44.839  27.429  34.524  1.00  0.00     0.148 A 
ATOM     63  C   UNL A   1      47.028  29.191  34.404  1.00  0.00     0.002 A 
ATOM     64  C   UNL A   1      45.949  27.220  35.329  1.00  0.00     0.091 A 
ATOM     65  F   UNL A   1      43.772  26.618  34.553  1.00  0.00    -0.205 F 
ATOM     66  C   UNL A   1      47.045  28.098  35.269  1.00  0.00     0.022 A 
BRANCH  64  67
ATOM     67  S   UNL A   1      46.038  25.888  36.530  1.00  0.00     0.127 S 
ATOM     68  O   UNL A   1      47.156  26.319  37.369  1.00  0.00    -0.237 OA
ATOM     69  O   UNL A   1      44.727  25.967  37.172  1.00  0.00    -0.237 OA
ATOM     70  O   UNL A   1      46.279  24.670  35.769  1.00  0.00    -0.744 OA
ENDBRANCH  64  67
ENDBRANCH  37  60
ENDBRANCH  11  12
ENDBRANCH   4   6
ENDBRANCH   3   4
ENDBRANCH   2   3
ENDBRANCH   1   2
BRANCH   1  71
ATOM     71  O   UNL A   1      32.246  29.496  26.694  1.00  0.00    -0.374 OA
BRANCH  71  72
ATOM     72  C   UNL A   1      32.423  28.279  25.964  1.00  0.00     0.202 C 
BRANCH  72  73
ATOM     73  C   UNL A   1      31.142  27.447  25.822  1.00  0.00     0.261 C 
BRANCH  73  74
ATOM     74  O   UNL A   1      30.513  27.670  24.548  1.00  0.00    -0.460 OA
BRANCH  74  75
ATOM     75  C   UNL A   1      29.962  26.576  23.954  1.00  0.00     0.342 C 
ATOM     76  O   UNL A   1      28.792  26.285  23.868  1.00  0.00    -0.246 OA
BRANCH  75  77
ATOM     77  C   UNL A   1      31.026  25.897  23.181  1.00  0.00     0.102 A 
ATOM     78  C   UNL A   1      31.444  24.625  23.618  1.00  0.00     0.028 A 
ATOM     79  C   UNL A   1      31.562  26.453  22.018  1.00  0.00     0.130 A 
ATOM     80  C   UNL A   1      32.343  23.885  22.850  1.00  0.00    -0.017 A 
ATOM     81  C   UNL A   1      32.500  25.738  21.278  1.00  0.00     0.048 A 
ATOM     82  C   UNL A   1      32.878  24.456  21.686  1.00  0.00     0.012 A 
BRANCH  79  83
ATOM     83  O   UNL A   1      31.184  27.700  21.613  1.00  0.00    -0.507 OA
ATOM     84  H   UNL A   1      30.765  28.281  22.218  1.00  0.00     0.293 HD
ENDBRANCH  79  83
BRANCH  80  85
ATOM     85  C   UNL A   1      32.743  22.512  23.207  1.00  0.00    -0.011 A 
ATOM     86  C   UNL A   1      32.026  21.345  22.733  1.00  0.00     0.027 A 
ATOM     87  C   UNL A   1      33.732  22.352  24.104  1.00  0.00     0.080 A 
ATOM     88  C   UNL A   1      32.274  20.138  23.253  1.00  0.00     0.095 A 
ATOM     89  C   UNL A   1      34.035  21.008  24.677  1.00  0.00     0.255 A 
ATOM     90  N   UNL A   1      33.242  19.965  24.226  1.00  0.00    -0.258 N 
ATOM     91  O   UNL A   1      34.913  20.920  25.529  1.00  0.00    -0.269 OA
BRANCH  90  92
ATOM     92  C   UNL A   1      33.423  18.682  24.855  1.00  0.00     0.451 C 
ATOM     93  F   UNL A   1      32.565  18.500  25.886  1.00  0.00    -0.185 F 
ATOM     94  F   UNL A   1      33.223  17.679  23.961  1.00  0.00    -0.185 F 
ENDBRANCH  90  92
ENDBRANCH  80  85
ENDBRANCH  75  77
ENDBRANCH  74  75
ENDBRANCH  73  74
ENDBRANCH  72  73
ENDBRANCH  71  72
ENDBRANCH   1  71
TORSDOF 20
ENDMDL
