MODEL 1
REMARK VINA RESULT:      -8.8      0.000      0.000
REMARK SMILES C[C@@H]1CCC[C@H](C)[N@H+]1Cc1cc2c(cc1Cl)C=C(C(=O)OCCOCCOC(=O)c1ccc(-c3c4nc(c(-c5cccc(S(=O)(=O)[O-])c5F)c5ccc([nH]5)c(-c5cccc(S(=O)(=O)[O-])c5F)c5nc(c(-c6cccc(S(=O)(=O)[O-])c6F)c6ccc3[nH]6)C=C5)C=C4)cc1)[C@@H](C(F)(F)F)O2
REMARK SMILES IDX 25 1 24 2 23 3 22 4 21 5 19 6 20 7 18 8 10 9 11 10 15 11
REMARK SMILES IDX 12 12 14 13 16 14 13 15 98 16 17 17 93 18 9 19 8 20 7 21
REMARK SMILES IDX 6 22 5 23 4 24 2 25 3 27 1 28 94 29 95 30 96 31 97 32 26 33
REMARK SMILES IDX 27 34 28 35 29 36 30 37 31 38 92 39 32 40 91 41 33 42 34 43
REMARK SMILES IDX 35 44 85 45 36 46 90 47 84 48 86 49 37 50 89 51 83 52 82 53
REMARK SMILES IDX 38 55 70 56 50 57 69 58 51 59 54 60 68 61 87 62 52 63 53 64
REMARK SMILES IDX 67 66 88 67 55 68 39 69 40 70 48 71 41 72 43 73 49 74 42 75
REMARK SMILES IDX 44 76 45 77 46 78 47 79 71 80 72 81 80 82 73 83 75 84 81 85
REMARK SMILES IDX 74 86 76 87 77 88 78 89 79 90 56 91 57 92 65 93 58 94 60 95
REMARK SMILES IDX 66 96 59 97 61 98 62 99 63 100 64 101
REMARK H PARENT 8 26 86 54 54 65
REMARK Flexibility Score: inf
ROOT
ATOM      1  C   UNL A   1      35.419  35.205  33.096  1.00  0.00     0.202 C 
ENDROOT
BRANCH   1   2
ATOM      2  O   UNL A   1      34.325  35.827  32.424  1.00  0.00    -0.374 OA
BRANCH   2   3
ATOM      3  C   UNL A   1      33.465  35.019  31.626  1.00  0.00     0.202 C 
BRANCH   3   4
ATOM      4  C   UNL A   1      34.022  34.441  30.321  1.00  0.00     0.261 C 
BRANCH   4   5
ATOM      5  O   UNL A   1      34.372  33.053  30.435  1.00  0.00    -0.460 OA
BRANCH   5   6
ATOM      6  C   UNL A   1      34.552  32.446  29.240  1.00  0.00     0.338 C 
ATOM      7  O   UNL A   1      33.809  32.516  28.272  1.00  0.00    -0.246 OA
BRANCH   6   8
ATOM      8  C   UNL A   1      35.847  31.744  29.194  1.00  0.00     0.087 C 
ATOM      9  C   UNL A   1      39.571  28.559  30.303  1.00  0.00     0.029 A 
ATOM     10  C   UNL A   1      39.452  29.651  29.413  1.00  0.00     0.058 A 
ATOM     11  C   UNL A   1      38.507  28.314  31.186  1.00  0.00     0.050 A 
ATOM     12  C   UNL A   1      38.252  30.361  29.304  1.00  0.00     0.128 A 
ATOM     13  C   UNL A   1      37.285  28.959  31.013  1.00  0.00     0.033 A 
ATOM     14  Cl  UNL A   1      38.610  27.229  32.529  1.00  0.00    -0.084 Cl
ATOM     15  C   UNL A   1      37.151  29.953  30.049  1.00  0.00     0.019 A 
ATOM     16  O   UNL A   1      38.191  31.402  28.416  1.00  0.00    -0.475 OA
ATOM     17  C   UNL A   1      35.866  30.584  29.858  1.00  0.00     0.027 C 
ATOM     18  C   UNL A   1      37.070  32.341  28.554  1.00  0.00     0.316 C 
BRANCH   9  19
ATOM     19  C   UNL A   1      40.788  27.655  30.229  1.00  0.00     0.301 C 
BRANCH  19  20
ATOM     20  N   UNL A   1      41.258  27.256  28.877  1.00  0.00    -0.327 N 
ATOM     21  C   UNL A   1      40.366  26.960  26.581  1.00  0.00     0.075 C 
ATOM     22  C   UNL A   1      40.260  26.549  28.059  1.00  0.00     0.181 C 
ATOM     23  C   UNL A   1      40.318  25.019  28.187  1.00  0.00     0.065 C 
ATOM     24  C   UNL A   1      41.725  24.453  28.043  1.00  0.00     0.012 C 
ATOM     25  C   UNL A   1      42.630  26.725  28.819  1.00  0.00     0.181 C 
ATOM     26  H   UNL A   1      41.353  28.146  28.386  1.00  0.00     0.348 HD
ATOM     27  C   UNL A   1      42.726  25.193  28.920  1.00  0.00     0.065 C 
ATOM     28  C   UNL A   1      43.401  27.231  27.590  1.00  0.00     0.075 C 
ENDBRANCH  19  20
ENDBRANCH   9  19
BRANCH  18  29
ATOM     29  C   UNL A   1      37.522  33.606  29.298  1.00  0.00     0.430 C 
ATOM     30  F   UNL A   1      36.762  34.676  28.965  1.00  0.00    -0.167 F 
ATOM     31  F   UNL A   1      37.421  33.452  30.639  1.00  0.00    -0.167 F 
ATOM     32  F   UNL A   1      38.808  33.920  29.024  1.00  0.00    -0.167 F 
ENDBRANCH  18  29
ENDBRANCH   6   8
ENDBRANCH   5   6
ENDBRANCH   4   5
ENDBRANCH   3   4
ENDBRANCH   2   3
ENDBRANCH   1   2
BRANCH   1  33
ATOM     33  C   UNL A   1      35.157  34.478  34.424  1.00  0.00     0.261 C 
BRANCH  33  34
ATOM     34  O   UNL A   1      35.798  33.194  34.497  1.00  0.00    -0.460 OA
BRANCH  34  35
ATOM     35  C   UNL A   1      36.845  33.128  35.360  1.00  0.00     0.338 C 
ATOM     36  O   UNL A   1      36.818  33.322  36.565  1.00  0.00    -0.246 OA
BRANCH  35  37
ATOM     37  C   UNL A   1      38.011  32.563  34.654  1.00  0.00     0.060 A 
ATOM     38  C   UNL A   1      37.847  31.808  33.493  1.00  0.00     0.016 A 
ATOM     39  C   UNL A   1      39.290  32.826  35.160  1.00  0.00     0.016 A 
ATOM     40  C   UNL A   1      38.978  31.331  32.827  1.00  0.00     0.010 A 
ATOM     41  C   UNL A   1      40.418  32.348  34.492  1.00  0.00     0.010 A 
ATOM     42  C   UNL A   1      40.271  31.612  33.310  1.00  0.00    -0.014 A 
BRANCH  42  43
ATOM     43  C   UNL A   1      41.457  31.250  32.497  1.00  0.00     0.031 A 
ATOM     44  C   UNL A   1      42.187  29.955  32.693  1.00  0.00     0.074 A 
ATOM     45  C   UNL A   1      41.886  32.131  31.572  1.00  0.00     0.049 A 
ATOM     46  N   UNL A   1      43.177  29.465  31.995  1.00  0.00    -0.248 NA
ATOM     47  C   UNL A   1      41.759  29.102  33.813  1.00  0.00     0.031 C 
ATOM     48  C   UNL A   1      41.299  33.454  31.339  1.00  0.00     0.029 A 
ATOM     49  N   UNL A   1      42.907  32.053  30.660  1.00  0.00    -0.354 N 
ATOM     50  C   UNL A   1      43.499  28.251  32.587  1.00  0.00     0.074 A 
ATOM     51  C   UNL A   1      42.608  28.085  33.717  1.00  0.00     0.031 C 
ATOM     52  C   UNL A   1      41.953  34.051  30.331  1.00  0.00     0.029 A 
ATOM     53  C   UNL A   1      43.015  33.167  29.861  1.00  0.00     0.049 A 
ATOM     54  H   UNL A   1      43.503  31.274  30.583  1.00  0.00     0.167 HD
ATOM     55  C   UNL A   1      44.433  27.349  32.203  1.00  0.00     0.034 A 
ATOM     56  C   UNL A   1      43.868  33.447  28.856  1.00  0.00     0.034 A 
ATOM     57  C   UNL A   1      45.304  27.513  31.070  1.00  0.00     0.049 A 
ATOM     58  C   UNL A   1      44.888  32.425  28.447  1.00  0.00     0.074 A 
ATOM     59  C   UNL A   1      46.232  26.616  30.570  1.00  0.00     0.029 A 
ATOM     60  N   UNL A   1      45.371  28.644  30.273  1.00  0.00    -0.354 N 
ATOM     61  N   UNL A   1      45.079  31.221  28.928  1.00  0.00    -0.248 NA
ATOM     62  C   UNL A   1      45.790  32.784  27.343  1.00  0.00     0.031 C 
ATOM     63  C   UNL A   1      46.877  27.213  29.485  1.00  0.00     0.029 A 
ATOM     64  C   UNL A   1      46.334  28.472  29.294  1.00  0.00     0.049 A 
ATOM     65  H   UNL A   1      44.816  29.449  30.386  1.00  0.00     0.167 HD
ATOM     66  C   UNL A   1      46.108  30.670  28.176  1.00  0.00     0.074 A 
ATOM     67  C   UNL A   1      46.493  31.666  27.196  1.00  0.00     0.031 C 
ATOM     68  C   UNL A   1      46.684  29.451  28.297  1.00  0.00     0.034 A 
BRANCH  55  69
ATOM     69  C   UNL A   1      44.537  26.060  32.970  1.00  0.00     0.023 A 
ATOM     70  C   UNL A   1      44.016  24.882  32.399  1.00  0.00     0.012 A 
ATOM     71  C   UNL A   1      45.266  25.988  34.172  1.00  0.00     0.148 A 
ATOM     72  C   UNL A   1      44.217  23.648  33.016  1.00  0.00     0.002 A 
ATOM     73  C   UNL A   1      45.484  24.751  34.768  1.00  0.00     0.091 A 
ATOM     74  F   UNL A   1      45.747  27.124  34.695  1.00  0.00    -0.205 F 
ATOM     75  C   UNL A   1      44.959  23.582  34.193  1.00  0.00     0.022 A 
BRANCH  73  76
ATOM     76  S   UNL A   1      46.468  24.545  36.256  1.00  0.00     0.127 S 
ATOM     77  O   UNL A   1      45.704  25.332  37.224  1.00  0.00    -0.237 OA
ATOM     78  O   UNL A   1      46.411  23.099  36.465  1.00  0.00    -0.237 OA
ATOM     79  O   UNL A   1      47.790  25.069  35.943  1.00  0.00    -0.744 OA
ENDBRANCH  73  76
ENDBRANCH  55  69
BRANCH  56  80
ATOM     80  C   UNL A   1      43.732  34.738  28.131  1.00  0.00     0.023 A 
ATOM     81  C   UNL A   1      42.882  34.815  27.012  1.00  0.00     0.012 A 
ATOM     82  C   UNL A   1      44.374  35.901  28.597  1.00  0.00     0.148 A 
ATOM     83  C   UNL A   1      42.679  36.032  26.361  1.00  0.00     0.002 A 
ATOM     84  C   UNL A   1      44.139  37.116  27.967  1.00  0.00     0.091 A 
ATOM     85  F   UNL A   1      45.174  35.797  29.667  1.00  0.00    -0.205 F 
ATOM     86  C   UNL A   1      43.299  37.183  26.845  1.00  0.00     0.022 A 
BRANCH  84  87
ATOM     87  S   UNL A   1      44.817  38.667  28.568  1.00  0.00     0.127 S 
ATOM     88  O   UNL A   1      43.884  39.639  28.002  1.00  0.00    -0.237 OA
ATOM     89  O   UNL A   1      44.720  38.490  30.017  1.00  0.00    -0.237 OA
ATOM     90  O   UNL A   1      46.176  38.734  28.052  1.00  0.00    -0.744 OA
ENDBRANCH  84  87
ENDBRANCH  56  80
BRANCH  68  91
ATOM     91  C   UNL A   1      47.795  29.088  27.350  1.00  0.00     0.023 A 
ATOM     92  C   UNL A   1      49.132  29.251  27.758  1.00  0.00     0.012 A 
ATOM     93  C   UNL A   1      47.512  28.448  26.128  1.00  0.00     0.148 A 
ATOM     94  C   UNL A   1      50.175  28.782  26.961  1.00  0.00     0.002 A 
ATOM     95  C   UNL A   1      48.554  27.953  25.354  1.00  0.00     0.091 A 
ATOM     96  F   UNL A   1      46.229  28.309  25.764  1.00  0.00    -0.205 F 
ATOM     97  C   UNL A   1      49.886  28.121  25.768  1.00  0.00     0.022 A 
BRANCH  95  98
ATOM     98  S   UNL A   1      48.283  27.027  23.838  1.00  0.00     0.127 S 
ATOM     99  O   UNL A   1      47.522  27.986  23.037  1.00  0.00    -0.237 OA
ATOM    100  O   UNL A   1      49.651  26.793  23.373  1.00  0.00    -0.237 OA
ATOM    101  O   UNL A   1      47.552  25.827  24.221  1.00  0.00    -0.744 OA
ENDBRANCH  95  98
ENDBRANCH  68  91
ENDBRANCH  42  43
ENDBRANCH  35  37
ENDBRANCH  34  35
ENDBRANCH  33  34
ENDBRANCH   1  33
TORSDOF 20
ENDMDL
MODEL 2
REMARK VINA RESULT:      -8.5      0.750      7.161
REMARK SMILES C[C@@H]1CCC[C@H](C)[N@H+]1Cc1cc2c(cc1Cl)C=C(C(=O)OCCOCCOC(=O)c1ccc(-c3c4nc(c(-c5cccc(S(=O)(=O)[O-])c5F)c5ccc([nH]5)c(-c5cccc(S(=O)(=O)[O-])c5F)c5nc(c(-c6cccc(S(=O)(=O)[O-])c6F)c6ccc3[nH]6)C=C5)C=C4)cc1)[C@@H](C(F)(F)F)O2
REMARK SMILES IDX 25 1 24 2 23 3 22 4 21 5 19 6 20 7 18 8 10 9 11 10 15 11
REMARK SMILES IDX 12 12 14 13 16 14 13 15 98 16 17 17 93 18 9 19 8 20 7 21
REMARK SMILES IDX 6 22 5 23 4 24 2 25 3 27 1 28 94 29 95 30 96 31 97 32 26 33
REMARK SMILES IDX 27 34 28 35 29 36 30 37 31 38 92 39 32 40 91 41 33 42 34 43
REMARK SMILES IDX 35 44 85 45 36 46 90 47 84 48 86 49 37 50 89 51 83 52 82 53
REMARK SMILES IDX 38 55 70 56 50 57 69 58 51 59 54 60 68 61 87 62 52 63 53 64
REMARK SMILES IDX 67 66 88 67 55 68 39 69 40 70 48 71 41 72 43 73 49 74 42 75
REMARK SMILES IDX 44 76 45 77 46 78 47 79 71 80 72 81 80 82 73 83 75 84 81 85
REMARK SMILES IDX 74 86 76 87 77 88 78 89 79 90 56 91 57 92 65 93 58 94 60 95
REMARK SMILES IDX 66 96 59 97 61 98 62 99 63 100 64 101
REMARK H PARENT 8 26 86 54 54 65
REMARK Flexibility Score: inf
ROOT
ATOM      1  C   UNL A   1      36.238  34.625  33.673  1.00  0.00     0.202 C 
ENDROOT
BRANCH   1   2
ATOM      2  O   UNL A   1      35.430  35.669  33.131  1.00  0.00    -0.374 OA
BRANCH   2   3
ATOM      3  C   UNL A   1      34.093  35.367  32.744  1.00  0.00     0.202 C 
BRANCH   3   4
ATOM      4  C   UNL A   1      33.871  34.222  31.751  1.00  0.00     0.261 C 
BRANCH   4   5
ATOM      5  O   UNL A   1      35.061  33.879  31.024  1.00  0.00    -0.460 OA
BRANCH   5   6
ATOM      6  C   UNL A   1      34.828  33.082  29.958  1.00  0.00     0.338 C 
ATOM      7  O   UNL A   1      33.845  33.111  29.230  1.00  0.00    -0.246 OA
BRANCH   6   8
ATOM      8  C   UNL A   1      35.981  32.205  29.691  1.00  0.00     0.087 C 
ATOM      9  C   UNL A   1      39.347  28.503  30.154  1.00  0.00     0.029 A 
ATOM     10  C   UNL A   1      39.233  29.618  29.292  1.00  0.00     0.058 A 
ATOM     11  C   UNL A   1      38.427  28.394  31.210  1.00  0.00     0.050 A 
ATOM     12  C   UNL A   1      38.147  30.493  29.389  1.00  0.00     0.128 A 
ATOM     13  C   UNL A   1      37.298  29.209  31.248  1.00  0.00     0.033 A 
ATOM     14  Cl  UNL A   1      38.605  27.279  32.520  1.00  0.00    -0.084 Cl
ATOM     15  C   UNL A   1      37.144  30.231  30.317  1.00  0.00     0.019 A 
ATOM     16  O   UNL A   1      38.083  31.549  28.519  1.00  0.00    -0.475 OA
ATOM     17  C   UNL A   1      35.949  31.041  30.348  1.00  0.00     0.027 C 
ATOM     18  C   UNL A   1      37.148  32.634  28.845  1.00  0.00     0.316 C 
BRANCH   9  19
ATOM     19  C   UNL A   1      40.391  27.437  29.874  1.00  0.00     0.301 C 
BRANCH  19  20
ATOM     20  N   UNL A   1      40.510  26.951  28.476  1.00  0.00    -0.327 N 
ATOM     21  C   UNL A   1      39.534  25.218  26.992  1.00  0.00     0.075 C 
ATOM     22  C   UNL A   1      40.286  25.507  28.301  1.00  0.00     0.181 C 
ATOM     23  C   UNL A   1      41.568  24.664  28.371  1.00  0.00     0.065 C 
ATOM     24  C   UNL A   1      42.697  25.207  27.505  1.00  0.00     0.012 C 
ATOM     25  C   UNL A   1      41.621  27.529  27.701  1.00  0.00     0.181 C 
ATOM     26  H   UNL A   1      39.695  27.356  28.013  1.00  0.00     0.348 HD
ATOM     27  C   UNL A   1      42.916  26.698  27.727  1.00  0.00     0.065 C 
ATOM     28  C   UNL A   1      41.219  27.849  26.253  1.00  0.00     0.075 C 
ENDBRANCH  19  20
ENDBRANCH   9  19
BRANCH  18  29
ATOM     29  C   UNL A   1      37.897  33.808  29.492  1.00  0.00     0.430 C 
ATOM     30  F   UNL A   1      37.187  34.957  29.409  1.00  0.00    -0.167 F 
ATOM     31  F   UNL A   1      38.129  33.581  30.806  1.00  0.00    -0.167 F 
ATOM     32  F   UNL A   1      39.095  34.028  28.904  1.00  0.00    -0.167 F 
ENDBRANCH  18  29
ENDBRANCH   6   8
ENDBRANCH   5   6
ENDBRANCH   4   5
ENDBRANCH   3   4
ENDBRANCH   2   3
ENDBRANCH   1   2
BRANCH   1  33
ATOM     33  C   UNL A   1      35.939  34.115  35.090  1.00  0.00     0.261 C 
BRANCH  33  34
ATOM     34  O   UNL A   1      36.540  32.839  35.366  1.00  0.00    -0.460 OA
BRANCH  34  35
ATOM     35  C   UNL A   1      37.760  32.899  35.961  1.00  0.00     0.338 C 
ATOM     36  O   UNL A   1      37.999  33.201  37.119  1.00  0.00    -0.246 OA
BRANCH  35  37
ATOM     37  C   UNL A   1      38.765  32.325  35.046  1.00  0.00     0.060 A 
ATOM     38  C   UNL A   1      38.378  31.646  33.892  1.00  0.00     0.016 A 
ATOM     39  C   UNL A   1      40.122  32.503  35.349  1.00  0.00     0.016 A 
ATOM     40  C   UNL A   1      39.360  31.160  33.027  1.00  0.00     0.010 A 
ATOM     41  C   UNL A   1      41.101  32.016  34.483  1.00  0.00     0.010 A 
ATOM     42  C   UNL A   1      40.727  31.356  33.306  1.00  0.00    -0.014 A 
BRANCH  42  43
ATOM     43  C   UNL A   1      41.747  30.990  32.293  1.00  0.00     0.031 A 
ATOM     44  C   UNL A   1      42.188  31.953  31.231  1.00  0.00     0.074 A 
ATOM     45  C   UNL A   1      42.267  29.748  32.334  1.00  0.00     0.049 A 
ATOM     46  N   UNL A   1      43.134  31.805  30.342  1.00  0.00    -0.248 NA
ATOM     47  C   UNL A   1      41.480  33.241  31.150  1.00  0.00     0.031 C 
ATOM     48  C   UNL A   1      41.864  28.701  33.277  1.00  0.00     0.029 A 
ATOM     49  N   UNL A   1      43.240  29.154  31.572  1.00  0.00    -0.354 N 
ATOM     50  C   UNL A   1      43.139  32.973  29.590  1.00  0.00     0.074 A 
ATOM     51  C   UNL A   1      42.085  33.816  30.116  1.00  0.00     0.031 C 
ATOM     52  C   UNL A   1      42.603  27.604  33.054  1.00  0.00     0.029 A 
ATOM     53  C   UNL A   1      43.513  27.859  31.943  1.00  0.00     0.049 A 
ATOM     54  H   UNL A   1      43.699  29.611  30.831  1.00  0.00     0.167 HD
ATOM     55  C   UNL A   1      43.964  33.317  28.574  1.00  0.00     0.034 A 
ATOM     56  C   UNL A   1      44.403  26.974  31.452  1.00  0.00     0.034 A 
ATOM     57  C   UNL A   1      45.020  32.482  28.066  1.00  0.00     0.049 A 
ATOM     58  C   UNL A   1      45.312  27.386  30.331  1.00  0.00     0.074 A 
ATOM     59  C   UNL A   1      45.949  32.782  27.084  1.00  0.00     0.029 A 
ATOM     60  N   UNL A   1      45.280  31.186  28.480  1.00  0.00    -0.354 N 
ATOM     61  N   UNL A   1      45.396  28.547  29.731  1.00  0.00    -0.248 NA
ATOM     62  C   UNL A   1      46.263  26.380  29.836  1.00  0.00     0.031 C 
ATOM     63  C   UNL A   1      46.756  31.659  26.888  1.00  0.00     0.029 A 
ATOM     64  C   UNL A   1      46.346  30.669  27.765  1.00  0.00     0.049 A 
ATOM     65  H   UNL A   1      44.782  30.705  29.180  1.00  0.00     0.167 HD
ATOM     66  C   UNL A   1      46.422  28.421  28.802  1.00  0.00     0.074 A 
ATOM     67  C   UNL A   1      46.939  27.074  28.927  1.00  0.00     0.031 C 
ATOM     68  C   UNL A   1      46.881  29.341  27.921  1.00  0.00     0.034 A 
BRANCH  55  69
ATOM     69  C   UNL A   1      43.817  34.684  27.966  1.00  0.00     0.023 A 
ATOM     70  C   UNL A   1      43.014  34.839  26.819  1.00  0.00     0.012 A 
ATOM     71  C   UNL A   1      44.347  35.822  28.603  1.00  0.00     0.148 A 
ATOM     72  C   UNL A   1      42.743  36.108  26.311  1.00  0.00     0.002 A 
ATOM     73  C   UNL A   1      44.051  37.086  28.107  1.00  0.00     0.091 A 
ATOM     74  F   UNL A   1      45.110  35.646  29.691  1.00  0.00    -0.205 F 
ATOM     75  C   UNL A   1      43.251  37.230  26.960  1.00  0.00     0.022 A 
BRANCH  73  76
ATOM     76  S   UNL A   1      44.611  38.600  28.894  1.00  0.00     0.127 S 
ATOM     77  O   UNL A   1      46.034  38.596  28.557  1.00  0.00    -0.237 OA
ATOM     78  O   UNL A   1      43.822  39.617  28.201  1.00  0.00    -0.237 OA
ATOM     79  O   UNL A   1      44.314  38.452  30.312  1.00  0.00    -0.744 OA
ENDBRANCH  73  76
ENDBRANCH  55  69
BRANCH  56  80
ATOM     80  C   UNL A   1      44.509  25.631  32.080  1.00  0.00     0.023 A 
ATOM     81  C   UNL A   1      43.933  24.520  31.437  1.00  0.00     0.012 A 
ATOM     82  C   UNL A   1      45.248  25.442  33.264  1.00  0.00     0.148 A 
ATOM     83  C   UNL A   1      44.084  23.239  31.968  1.00  0.00     0.002 A 
ATOM     84  C   UNL A   1      45.426  24.160  33.767  1.00  0.00     0.091 A 
ATOM     85  F   UNL A   1      45.788  26.519  33.851  1.00  0.00    -0.205 F 
ATOM     86  C   UNL A   1      44.838  23.058  33.125  1.00  0.00     0.022 A 
BRANCH  84  87
ATOM     87  S   UNL A   1      46.454  23.813  35.198  1.00  0.00     0.127 S 
ATOM     88  O   UNL A   1      47.746  24.346  34.772  1.00  0.00    -0.237 OA
ATOM     89  O   UNL A   1      45.781  24.588  36.241  1.00  0.00    -0.237 OA
ATOM     90  O   UNL A   1      46.405  22.371  35.384  1.00  0.00    -0.744 OA
ENDBRANCH  84  87
ENDBRANCH  56  80
BRANCH  68  91
ATOM     91  C   UNL A   1      48.014  28.954  27.010  1.00  0.00     0.023 A 
ATOM     92  C   UNL A   1      49.339  29.064  27.471  1.00  0.00     0.012 A 
ATOM     93  C   UNL A   1      47.756  28.344  25.767  1.00  0.00     0.148 A 
ATOM     94  C   UNL A   1      50.396  28.570  26.706  1.00  0.00     0.002 A 
ATOM     95  C   UNL A   1      48.809  27.824  25.025  1.00  0.00     0.091 A 
ATOM     96  F   UNL A   1      46.484  28.255  25.353  1.00  0.00    -0.205 F 
ATOM     97  C   UNL A   1      50.129  27.939  25.492  1.00  0.00     0.022 A 
BRANCH  95  98
ATOM     98  S   UNL A   1      48.565  26.932  23.485  1.00  0.00     0.127 S 
ATOM     99  O   UNL A   1      47.770  27.886  22.712  1.00  0.00    -0.237 OA
ATOM    100  O   UNL A   1      49.938  26.756  23.011  1.00  0.00    -0.237 OA
ATOM    101  O   UNL A   1      47.875  25.698  23.835  1.00  0.00    -0.744 OA
ENDBRANCH  95  98
ENDBRANCH  68  91
ENDBRANCH  42  43
ENDBRANCH  35  37
ENDBRANCH  34  35
ENDBRANCH  33  34
ENDBRANCH   1  33
TORSDOF 20
ENDMDL
MODEL 3
REMARK VINA RESULT:      -8.1      5.754      9.812
REMARK SMILES C[C@@H]1CCC[C@H](C)[N@H+]1Cc1cc2c(cc1Cl)C=C(C(=O)OCCOCCOC(=O)c1ccc(-c3c4nc(c(-c5cccc(S(=O)(=O)[O-])c5F)c5ccc([nH]5)c(-c5cccc(S(=O)(=O)[O-])c5F)c5nc(c(-c6cccc(S(=O)(=O)[O-])c6F)c6ccc3[nH]6)C=C5)C=C4)cc1)[C@@H](C(F)(F)F)O2
REMARK SMILES IDX 25 1 24 2 23 3 22 4 21 5 19 6 20 7 18 8 10 9 11 10 15 11
REMARK SMILES IDX 12 12 14 13 16 14 13 15 98 16 17 17 93 18 9 19 8 20 7 21
REMARK SMILES IDX 6 22 5 23 4 24 2 25 3 27 1 28 94 29 95 30 96 31 97 32 26 33
REMARK SMILES IDX 27 34 28 35 29 36 30 37 31 38 92 39 32 40 91 41 33 42 34 43
REMARK SMILES IDX 35 44 85 45 36 46 90 47 84 48 86 49 37 50 89 51 83 52 82 53
REMARK SMILES IDX 38 55 70 56 50 57 69 58 51 59 54 60 68 61 87 62 52 63 53 64
REMARK SMILES IDX 67 66 88 67 55 68 39 69 40 70 48 71 41 72 43 73 49 74 42 75
REMARK SMILES IDX 44 76 45 77 46 78 47 79 71 80 72 81 80 82 73 83 75 84 81 85
REMARK SMILES IDX 74 86 76 87 77 88 78 89 79 90 56 91 57 92 65 93 58 94 60 95
REMARK SMILES IDX 66 96 59 97 61 98 62 99 63 100 64 101
REMARK H PARENT 8 26 86 54 54 65
REMARK Flexibility Score: inf
ROOT
ATOM      1  C   UNL A   1      31.779  30.499  26.734  1.00  0.00     0.202 C 
ENDROOT
BRANCH   1   2
ATOM      2  O   UNL A   1      31.328  30.727  25.400  1.00  0.00    -0.374 OA
BRANCH   2   3
ATOM      3  C   UNL A   1      30.894  29.614  24.626  1.00  0.00     0.202 C 
BRANCH   3   4
ATOM      4  C   UNL A   1      31.868  29.021  23.603  1.00  0.00     0.261 C 
BRANCH   4   5
ATOM      5  O   UNL A   1      31.965  27.591  23.695  1.00  0.00    -0.460 OA
BRANCH   5   6
ATOM      6  C   UNL A   1      33.122  27.166  24.250  1.00  0.00     0.338 C 
ATOM      7  O   UNL A   1      33.967  27.864  24.791  1.00  0.00    -0.246 OA
BRANCH   6   8
ATOM      8  C   UNL A   1      33.212  25.695  24.223  1.00  0.00     0.087 C 
ATOM      9  C   UNL A   1      34.995  21.030  24.772  1.00  0.00     0.029 A 
ATOM     10  C   UNL A   1      33.834  21.568  24.169  1.00  0.00     0.058 A 
ATOM     11  C   UNL A   1      35.966  21.928  25.241  1.00  0.00     0.050 A 
ATOM     12  C   UNL A   1      33.589  22.944  24.185  1.00  0.00     0.128 A 
ATOM     13  C   UNL A   1      35.679  23.287  25.341  1.00  0.00     0.033 A 
ATOM     14  Cl  UNL A   1      37.558  21.450  25.719  1.00  0.00    -0.084 Cl
ATOM     15  C   UNL A   1      34.478  23.785  24.846  1.00  0.00     0.019 A 
ATOM     16  O   UNL A   1      32.442  23.407  23.597  1.00  0.00    -0.475 OA
ATOM     17  C   UNL A   1      34.181  25.190  24.993  1.00  0.00     0.027 C 
ATOM     18  C   UNL A   1      32.362  24.847  23.317  1.00  0.00     0.316 C 
BRANCH   9  19
ATOM     19  C   UNL A   1      35.120  19.528  24.958  1.00  0.00     0.301 C 
BRANCH  19  20
ATOM     20  N   UNL A   1      33.897  18.712  24.747  1.00  0.00    -0.327 N 
ATOM     21  C   UNL A   1      32.171  17.521  26.073  1.00  0.00     0.075 C 
ATOM     22  C   UNL A   1      33.669  17.666  25.756  1.00  0.00     0.181 C 
ATOM     23  C   UNL A   1      34.265  16.300  25.386  1.00  0.00     0.065 C 
ATOM     24  C   UNL A   1      33.922  15.855  23.970  1.00  0.00     0.012 C 
ATOM     25  C   UNL A   1      33.630  18.328  23.351  1.00  0.00     0.181 C 
ATOM     26  H   UNL A   1      33.138  19.368  24.935  1.00  0.00     0.348 HD
ATOM     27  C   UNL A   1      34.192  16.953  22.949  1.00  0.00     0.065 C 
ATOM     28  C   UNL A   1      32.139  18.423  22.993  1.00  0.00     0.075 C 
ENDBRANCH  19  20
ENDBRANCH   9  19
BRANCH  18  29
ATOM     29  C   UNL A   1      32.683  25.123  21.841  1.00  0.00     0.430 C 
ATOM     30  F   UNL A   1      31.600  25.589  21.176  1.00  0.00    -0.167 F 
ATOM     31  F   UNL A   1      33.656  26.055  21.714  1.00  0.00    -0.167 F 
ATOM     32  F   UNL A   1      33.105  24.010  21.199  1.00  0.00    -0.167 F 
ENDBRANCH  18  29
ENDBRANCH   6   8
ENDBRANCH   5   6
ENDBRANCH   4   5
ENDBRANCH   3   4
ENDBRANCH   2   3
ENDBRANCH   1   2
BRANCH   1  33
ATOM     33  C   UNL A   1      33.283  30.581  27.032  1.00  0.00     0.261 C 
BRANCH  33  34
ATOM     34  O   UNL A   1      33.822  31.899  26.839  1.00  0.00    -0.460 OA
BRANCH  34  35
ATOM     35  C   UNL A   1      34.232  32.520  27.976  1.00  0.00     0.338 C 
ATOM     36  O   UNL A   1      33.608  33.339  28.632  1.00  0.00    -0.246 OA
BRANCH  35  37
ATOM     37  C   UNL A   1      35.484  31.892  28.438  1.00  0.00     0.060 A 
ATOM     38  C   UNL A   1      36.700  32.568  28.349  1.00  0.00     0.016 A 
ATOM     39  C   UNL A   1      35.420  30.608  28.997  1.00  0.00     0.016 A 
ATOM     40  C   UNL A   1      37.855  31.959  28.841  1.00  0.00     0.010 A 
ATOM     41  C   UNL A   1      36.576  30.002  29.488  1.00  0.00     0.010 A 
ATOM     42  C   UNL A   1      37.800  30.680  29.430  1.00  0.00    -0.014 A 
BRANCH  42  43
ATOM     43  C   UNL A   1      39.000  30.126  30.104  1.00  0.00     0.031 A 
ATOM     44  C   UNL A   1      39.390  30.540  31.491  1.00  0.00     0.074 A 
ATOM     45  C   UNL A   1      39.756  29.239  29.428  1.00  0.00     0.049 A 
ATOM     46  N   UNL A   1      40.353  30.071  32.240  1.00  0.00    -0.248 NA
ATOM     47  C   UNL A   1      38.608  31.616  32.121  1.00  0.00     0.031 C 
ATOM     48  C   UNL A   1      39.515  28.813  28.047  1.00  0.00     0.029 A 
ATOM     49  N   UNL A   1      40.873  28.538  29.804  1.00  0.00    -0.354 N 
ATOM     50  C   UNL A   1      40.303  30.792  33.426  1.00  0.00     0.074 A 
ATOM     51  C   UNL A   1      39.222  31.747  33.291  1.00  0.00     0.031 C 
ATOM     52  C   UNL A   1      40.441  27.905  27.701  1.00  0.00     0.029 A 
ATOM     53  C   UNL A   1      41.350  27.700  28.824  1.00  0.00     0.049 A 
ATOM     54  H   UNL A   1      41.292  28.626  30.690  1.00  0.00     0.167 HD
ATOM     55  C   UNL A   1      41.071  30.649  34.531  1.00  0.00     0.034 A 
ATOM     56  C   UNL A   1      42.399  26.854  28.826  1.00  0.00     0.034 A 
ATOM     57  C   UNL A   1      42.133  29.688  34.664  1.00  0.00     0.049 A 
ATOM     58  C   UNL A   1      43.228  26.709  30.069  1.00  0.00     0.074 A 
ATOM     59  C   UNL A   1      42.916  29.429  35.776  1.00  0.00     0.029 A 
ATOM     60  N   UNL A   1      42.574  28.843  33.659  1.00  0.00    -0.354 N 
ATOM     61  N   UNL A   1      43.072  27.297  31.229  1.00  0.00    -0.248 NA
ATOM     62  C   UNL A   1      44.357  25.770  30.015  1.00  0.00     0.031 C 
ATOM     63  C   UNL A   1      43.846  28.444  35.436  1.00  0.00     0.029 A 
ATOM     64  C   UNL A   1      43.626  28.072  34.121  1.00  0.00     0.049 A 
ATOM     65  H   UNL A   1      42.195  28.797  32.752  1.00  0.00     0.167 HD
ATOM     66  C   UNL A   1      44.069  26.786  32.051  1.00  0.00     0.074 A 
ATOM     67  C   UNL A   1      44.817  25.830  31.260  1.00  0.00     0.031 C 
ATOM     68  C   UNL A   1      44.341  27.094  33.341  1.00  0.00     0.034 A 
BRANCH  55  69
ATOM     69  C   UNL A   1      40.766  31.506  35.728  1.00  0.00     0.023 A 
ATOM     70  C   UNL A   1      41.618  32.587  36.030  1.00  0.00     0.012 A 
ATOM     71  C   UNL A   1      39.575  31.334  36.458  1.00  0.00     0.148 A 
ATOM     72  C   UNL A   1      41.291  33.484  37.045  1.00  0.00     0.002 A 
ATOM     73  C   UNL A   1      39.242  32.247  37.452  1.00  0.00     0.091 A 
ATOM     74  F   UNL A   1      38.784  30.296  36.153  1.00  0.00    -0.205 F 
ATOM     75  C   UNL A   1      40.099  33.320  37.748  1.00  0.00     0.022 A 
BRANCH  73  76
ATOM     76  S   UNL A   1      37.709  32.160  38.383  1.00  0.00     0.127 S 
ATOM     77  O   UNL A   1      36.885  33.145  37.684  1.00  0.00    -0.237 OA
ATOM     78  O   UNL A   1      37.304  30.770  38.179  1.00  0.00    -0.237 OA
ATOM     79  O   UNL A   1      38.049  32.506  39.756  1.00  0.00    -0.744 OA
ENDBRANCH  73  76
ENDBRANCH  55  69
BRANCH  56  80
ATOM     80  C   UNL A   1      42.667  26.031  27.617  1.00  0.00     0.023 A 
ATOM     81  C   UNL A   1      43.431  26.574  26.568  1.00  0.00     0.012 A 
ATOM     82  C   UNL A   1      42.239  24.691  27.544  1.00  0.00     0.148 A 
ATOM     83  C   UNL A   1      43.759  25.797  25.457  1.00  0.00     0.002 A 
ATOM     84  C   UNL A   1      42.601  23.912  26.453  1.00  0.00     0.091 A 
ATOM     85  F   UNL A   1      41.517  24.202  28.561  1.00  0.00    -0.205 F 
ATOM     86  C   UNL A   1      43.354  24.465  25.405  1.00  0.00     0.022 A 
BRANCH  84  87
ATOM     87  S   UNL A   1      42.206  22.164  26.337  1.00  0.00     0.127 S 
ATOM     88  O   UNL A   1      42.984  21.760  25.168  1.00  0.00    -0.237 OA
ATOM     89  O   UNL A   1      42.707  21.661  27.616  1.00  0.00    -0.237 OA
ATOM     90  O   UNL A   1      40.761  22.093  26.179  1.00  0.00    -0.744 OA
ENDBRANCH  84  87
ENDBRANCH  56  80
BRANCH  68  91
ATOM     91  C   UNL A   1      45.488  26.395  34.016  1.00  0.00     0.023 A 
ATOM     92  C   UNL A   1      46.751  27.015  34.051  1.00  0.00     0.012 A 
ATOM     93  C   UNL A   1      45.276  25.205  34.739  1.00  0.00     0.148 A 
ATOM     94  C   UNL A   1      47.790  26.461  34.799  1.00  0.00     0.002 A 
ATOM     95  C   UNL A   1      46.304  24.676  35.509  1.00  0.00     0.091 A 
ATOM     96  F   UNL A   1      44.063  24.635  34.685  1.00  0.00    -0.205 F 
ATOM     97  C   UNL A   1      47.562  25.301  35.538  1.00  0.00     0.022 A 
BRANCH  95  98
ATOM     98  S   UNL A   1      46.092  23.227  36.550  1.00  0.00     0.127 S 
ATOM     99  O   UNL A   1      44.906  23.592  37.327  1.00  0.00    -0.237 OA
ATOM    100  O   UNL A   1      45.874  22.169  35.564  1.00  0.00    -0.237 OA
ATOM    101  O   UNL A   1      47.319  23.100  37.325  1.00  0.00    -0.744 OA
ENDBRANCH  95  98
ENDBRANCH  68  91
ENDBRANCH  42  43
ENDBRANCH  35  37
ENDBRANCH  34  35
ENDBRANCH  33  34
ENDBRANCH   1  33
TORSDOF 20
ENDMDL
