MODEL 1
REMARK VINA RESULT:     -11.3      0.000      0.000
REMARK SMILES C[C@H]1CC[C@H](CNC(=O)NCc2ccc(C(=O)OCCOCCOC(=O)c3ccc(-c4c5nc(c(-c6cccc(S(=O)(=O)[O-])c6F)c6ccc([nH]6)c(-c6cccc(S(=O)(=O)[O-])c6F)c6nc(c(-c7cccc(S(=O)(=O)[O-])c7F)c7ccc4[nH]7)C=C6)C=C5)cc3)o2)CC1
REMARK SMILES IDX 20 1 19 2 18 3 16 4 17 5 15 6 12 7 13 8 90 9 14 10 11 11
REMARK SMILES IDX 10 12 7 13 8 14 9 16 6 18 5 19 1 20 2 21 92 22 3 23 91 24
REMARK SMILES IDX 4 25 21 26 22 27 23 28 24 29 25 30 26 31 27 32 28 33 89 34
REMARK SMILES IDX 29 35 88 36 30 37 31 38 32 39 82 40 33 41 87 42 81 43 83 44
REMARK SMILES IDX 34 45 86 46 80 47 79 48 35 50 67 51 47 52 66 53 48 54 51 55
REMARK SMILES IDX 65 56 84 57 49 58 50 59 64 61 85 62 52 63 36 64 37 65 45 66
REMARK SMILES IDX 38 67 40 68 46 69 39 70 41 71 42 72 43 73 44 74 68 75 69 76
REMARK SMILES IDX 77 77 70 78 72 79 78 80 71 81 73 82 74 83 75 84 76 85 53 86
REMARK SMILES IDX 54 87 62 88 55 89 57 90 63 91 56 92 58 93 59 94 60 95 61 96
REMARK H PARENT 7 15 10 17 83 49 51 60
REMARK Flexibility Score: inf
ROOT
ATOM      1  C   UNL A   1      33.837  28.985  25.498  1.00  0.00     0.202 C 
ENDROOT
BRANCH   1   2
ATOM      2  C   UNL A   1      33.918  27.777  24.560  1.00  0.00     0.261 C 
BRANCH   2   3
ATOM      3  O   UNL A   1      33.576  28.171  23.218  1.00  0.00    -0.457 OA
BRANCH   3   4
ATOM      4  C   UNL A   1      32.906  27.247  22.471  1.00  0.00     0.374 C 
ATOM      5  O   UNL A   1      33.382  26.637  21.521  1.00  0.00    -0.242 OA
BRANCH   4   6
ATOM      6  C   UNL A   1      31.597  27.022  23.045  1.00  0.00     0.211 A 
ATOM      7  C   UNL A   1      30.232  26.395  24.670  1.00  0.00     0.124 A 
ATOM      8  C   UNL A   1      29.441  26.967  23.696  1.00  0.00     0.048 A 
ATOM      9  O   UNL A   1      31.534  26.396  24.260  1.00  0.00    -0.452 OA
ATOM     10  C   UNL A   1      30.317  27.374  22.655  1.00  0.00     0.058 A 
BRANCH   7  11
ATOM     11  C   UNL A   1      29.941  25.772  25.992  1.00  0.00     0.193 C 
BRANCH  11  12
ATOM     12  N   UNL A   1      29.864  24.334  25.854  1.00  0.00    -0.331 N 
ATOM     13  N   UNL A   1      31.898  23.418  26.620  1.00  0.00    -0.338 N 
ATOM     14  C   UNL A   1      30.629  23.306  26.216  1.00  0.00     0.315 C 
ATOM     15  H   UNL A   1      32.238  22.603  27.058  1.00  0.00     0.165 HD
ATOM     16  O   UNL A   1      30.143  22.173  26.181  1.00  0.00    -0.249 OA
ATOM     17  H   UNL A   1      29.051  24.045  25.378  1.00  0.00     0.165 HD
BRANCH  13  18
ATOM     18  C   UNL A   1      32.883  24.478  26.553  1.00  0.00     0.121 C 
BRANCH  18  19
ATOM     19  C   UNL A   1      34.270  23.925  26.181  1.00  0.00     0.008 C 
ATOM     20  C   UNL A   1      37.282  21.352  24.274  1.00  0.00     0.007 C 
ATOM     21  C   UNL A   1      35.942  21.958  24.689  1.00  0.00    -0.014 C 
ATOM     22  C   UNL A   1      35.843  23.424  24.253  1.00  0.00     0.003 C 
ATOM     23  C   UNL A   1      35.736  21.836  26.203  1.00  0.00     0.003 C 
ATOM     24  C   UNL A   1      34.508  24.041  24.670  1.00  0.00     0.006 C 
ATOM     25  C   UNL A   1      34.413  22.460  26.642  1.00  0.00     0.006 C 
ENDBRANCH  18  19
ENDBRANCH  13  18
ENDBRANCH  11  12
ENDBRANCH   7  11
ENDBRANCH   4   6
ENDBRANCH   3   4
ENDBRANCH   2   3
ENDBRANCH   1   2
BRANCH   1  26
ATOM     26  O   UNL A   1      32.558  29.184  26.106  1.00  0.00    -0.374 OA
BRANCH  26  27
ATOM     27  C   UNL A   1      31.856  30.374  25.742  1.00  0.00     0.202 C 
BRANCH  27  28
ATOM     28  C   UNL A   1      31.836  31.478  26.805  1.00  0.00     0.261 C 
BRANCH  28  29
ATOM     29  O   UNL A   1      32.882  31.296  27.776  1.00  0.00    -0.460 OA
BRANCH  29  30
ATOM     30  C   UNL A   1      33.771  32.318  27.844  1.00  0.00     0.338 C 
ATOM     31  O   UNL A   1      33.517  33.511  27.829  1.00  0.00    -0.246 OA
BRANCH  30  32
ATOM     32  C   UNL A   1      35.129  31.801  28.102  1.00  0.00     0.060 A 
ATOM     33  C   UNL A   1      35.266  30.414  28.243  1.00  0.00     0.016 A 
ATOM     34  C   UNL A   1      36.229  32.643  28.285  1.00  0.00     0.016 A 
ATOM     35  C   UNL A   1      36.483  29.870  28.642  1.00  0.00     0.010 A 
ATOM     36  C   UNL A   1      37.453  32.092  28.684  1.00  0.00     0.010 A 
ATOM     37  C   UNL A   1      37.570  30.710  28.914  1.00  0.00    -0.014 A 
BRANCH  37  38
ATOM     38  C   UNL A   1      38.763  30.146  29.594  1.00  0.00     0.031 A 
ATOM     39  C   UNL A   1      39.092  30.603  30.991  1.00  0.00     0.074 A 
ATOM     40  C   UNL A   1      39.525  29.213  28.995  1.00  0.00     0.049 A 
ATOM     41  N   UNL A   1      40.050  30.207  31.788  1.00  0.00    -0.248 NA
ATOM     42  C   UNL A   1      38.226  31.646  31.565  1.00  0.00     0.031 C 
ATOM     43  C   UNL A   1      39.319  28.695  27.644  1.00  0.00     0.029 A 
ATOM     44  N   UNL A   1      40.635  28.546  29.448  1.00  0.00    -0.354 N 
ATOM     45  C   UNL A   1      39.918  30.966  32.945  1.00  0.00     0.074 A 
ATOM     46  C   UNL A   1      38.802  31.862  32.739  1.00  0.00     0.031 C 
ATOM     47  C   UNL A   1      40.286  27.803  27.369  1.00  0.00     0.029 A 
ATOM     48  C   UNL A   1      41.182  27.693  28.519  1.00  0.00     0.049 A 
ATOM     49  H   UNL A   1      41.005  28.667  30.352  1.00  0.00     0.167 HD
ATOM     50  C   UNL A   1      40.646  30.911  34.087  1.00  0.00     0.034 A 
ATOM     51  C   UNL A   1      42.282  26.917  28.588  1.00  0.00     0.034 A 
ATOM     52  C   UNL A   1      41.739  30.003  34.305  1.00  0.00     0.049 A 
ATOM     53  C   UNL A   1      43.068  26.864  29.872  1.00  0.00     0.074 A 
ATOM     54  C   UNL A   1      42.506  29.835  35.444  1.00  0.00     0.029 A 
ATOM     55  N   UNL A   1      42.229  29.113  33.360  1.00  0.00    -0.354 N 
ATOM     56  N   UNL A   1      42.850  27.491  31.002  1.00  0.00    -0.248 NA
ATOM     57  C   UNL A   1      44.228  25.960  29.903  1.00  0.00     0.031 C 
ATOM     58  C   UNL A   1      43.472  28.856  35.182  1.00  0.00     0.029 A 
ATOM     59  C   UNL A   1      43.291  28.397  33.888  1.00  0.00     0.049 A 
ATOM     60  H   UNL A   1      41.873  29.006  32.448  1.00  0.00     0.167 HD
ATOM     61  C   UNL A   1      43.817  27.030  31.889  1.00  0.00     0.074 A 
ATOM     62  C   UNL A   1      44.611  26.056  31.169  1.00  0.00     0.031 C 
ATOM     63  C   UNL A   1      44.037  27.389  33.180  1.00  0.00     0.034 A 
BRANCH  50  64
ATOM     64  C   UNL A   1      40.255  31.840  35.204  1.00  0.00     0.023 A 
ATOM     65  C   UNL A   1      40.873  33.103  35.309  1.00  0.00     0.012 A 
ATOM     66  C   UNL A   1      39.253  31.483  36.128  1.00  0.00     0.148 A 
ATOM     67  C   UNL A   1      40.525  33.983  36.333  1.00  0.00     0.002 A 
ATOM     68  C   UNL A   1      38.882  32.382  37.121  1.00  0.00     0.091 A 
ATOM     69  F   UNL A   1      38.697  30.267  36.030  1.00  0.00    -0.205 F 
ATOM     70  C   UNL A   1      39.524  33.626  37.232  1.00  0.00     0.022 A 
BRANCH  68  71
ATOM     71  S   UNL A   1      37.551  32.041  38.279  1.00  0.00     0.127 S 
ATOM     72  O   UNL A   1      37.310  30.620  38.040  1.00  0.00    -0.237 OA
ATOM     73  O   UNL A   1      38.175  32.346  39.567  1.00  0.00    -0.237 OA
ATOM     74  O   UNL A   1      36.463  32.935  37.909  1.00  0.00    -0.744 OA
ENDBRANCH  68  71
ENDBRANCH  50  64
BRANCH  51  75
ATOM     75  C   UNL A   1      42.671  26.080  27.419  1.00  0.00     0.023 A 
ATOM     76  C   UNL A   1      43.475  26.633  26.403  1.00  0.00     0.012 A 
ATOM     77  C   UNL A   1      42.269  24.734  27.321  1.00  0.00     0.148 A 
ATOM     78  C   UNL A   1      43.847  25.869  25.297  1.00  0.00     0.002 A 
ATOM     79  C   UNL A   1      42.689  23.963  26.244  1.00  0.00     0.091 A 
ATOM     80  F   UNL A   1      41.491  24.231  28.291  1.00  0.00    -0.205 F 
ATOM     81  C   UNL A   1      43.465  24.532  25.222  1.00  0.00     0.022 A 
BRANCH  79  82
ATOM     82  S   UNL A   1      42.353  22.202  26.133  1.00  0.00     0.127 S 
ATOM     83  O   UNL A   1      42.835  21.722  27.425  1.00  0.00    -0.237 OA
ATOM     84  O   UNL A   1      40.898  22.183  25.972  1.00  0.00    -0.237 OA
ATOM     85  O   UNL A   1      43.090  21.734  24.967  1.00  0.00    -0.744 OA
ENDBRANCH  79  82
ENDBRANCH  51  75
BRANCH  63  86
ATOM     86  C   UNL A   1      45.158  26.701  33.916  1.00  0.00     0.023 A 
ATOM     87  C   UNL A   1      46.463  27.228  33.863  1.00  0.00     0.012 A 
ATOM     88  C   UNL A   1      44.905  25.566  34.713  1.00  0.00     0.148 A 
ATOM     89  C   UNL A   1      47.505  26.617  34.559  1.00  0.00     0.002 A 
ATOM     90  C   UNL A   1      45.940  24.989  35.441  1.00  0.00     0.091 A 
ATOM     91  F   UNL A   1      43.662  25.062  34.737  1.00  0.00    -0.205 F 
ATOM     92  C   UNL A   1      47.242  25.505  35.356  1.00  0.00     0.022 A 
BRANCH  90  93
ATOM     93  S   UNL A   1      45.663  23.615  36.566  1.00  0.00     0.127 S 
ATOM     94  O   UNL A   1      44.783  24.219  37.564  1.00  0.00    -0.237 OA
ATOM     95  O   UNL A   1      45.016  22.627  35.702  1.00  0.00    -0.237 OA
ATOM     96  O   UNL A   1      46.983  23.222  37.041  1.00  0.00    -0.744 OA
ENDBRANCH  90  93
ENDBRANCH  63  86
ENDBRANCH  37  38
ENDBRANCH  30  32
ENDBRANCH  29  30
ENDBRANCH  28  29
ENDBRANCH  27  28
ENDBRANCH  26  27
ENDBRANCH   1  26
TORSDOF 21
ENDMDL
MODEL 2
REMARK VINA RESULT:     -11.3      1.329      7.533
REMARK SMILES C[C@H]1CC[C@H](CNC(=O)NCc2ccc(C(=O)OCCOCCOC(=O)c3ccc(-c4c5nc(c(-c6cccc(S(=O)(=O)[O-])c6F)c6ccc([nH]6)c(-c6cccc(S(=O)(=O)[O-])c6F)c6nc(c(-c7cccc(S(=O)(=O)[O-])c7F)c7ccc4[nH]7)C=C6)C=C5)cc3)o2)CC1
REMARK SMILES IDX 20 1 19 2 18 3 16 4 17 5 15 6 12 7 13 8 90 9 14 10 11 11
REMARK SMILES IDX 10 12 7 13 8 14 9 16 6 18 5 19 1 20 2 21 92 22 3 23 91 24
REMARK SMILES IDX 4 25 21 26 22 27 23 28 24 29 25 30 26 31 27 32 28 33 89 34
REMARK SMILES IDX 29 35 88 36 30 37 31 38 32 39 82 40 33 41 87 42 81 43 83 44
REMARK SMILES IDX 34 45 86 46 80 47 79 48 35 50 67 51 47 52 66 53 48 54 51 55
REMARK SMILES IDX 65 56 84 57 49 58 50 59 64 61 85 62 52 63 36 64 37 65 45 66
REMARK SMILES IDX 38 67 40 68 46 69 39 70 41 71 42 72 43 73 44 74 68 75 69 76
REMARK SMILES IDX 77 77 70 78 72 79 78 80 71 81 73 82 74 83 75 84 76 85 53 86
REMARK SMILES IDX 54 87 62 88 55 89 57 90 63 91 56 92 58 93 59 94 60 95 61 96
REMARK H PARENT 7 15 10 17 83 49 51 60
REMARK Flexibility Score: inf
ROOT
ATOM      1  C   UNL A   1      33.594  29.392  26.572  1.00  0.00     0.202 C 
ENDROOT
BRANCH   1   2
ATOM      2  C   UNL A   1      33.443  28.047  25.856  1.00  0.00     0.261 C 
BRANCH   2   3
ATOM      3  O   UNL A   1      34.177  28.061  24.617  1.00  0.00    -0.457 OA
BRANCH   3   4
ATOM      4  C   UNL A   1      33.432  28.099  23.475  1.00  0.00     0.374 C 
ATOM      5  O   UNL A   1      33.199  29.111  22.825  1.00  0.00    -0.242 OA
BRANCH   4   6
ATOM      6  C   UNL A   1      33.060  26.752  23.100  1.00  0.00     0.211 A 
ATOM      7  C   UNL A   1      31.651  25.049  22.986  1.00  0.00     0.124 A 
ATOM      8  C   UNL A   1      32.743  24.703  22.218  1.00  0.00     0.048 A 
ATOM      9  O   UNL A   1      31.858  26.275  23.550  1.00  0.00    -0.452 OA
ATOM     10  C   UNL A   1      33.645  25.798  22.286  1.00  0.00     0.058 A 
BRANCH   7  11
ATOM     11  C   UNL A   1      30.379  24.354  23.332  1.00  0.00     0.193 C 
BRANCH  11  12
ATOM     12  N   UNL A   1      29.857  24.871  24.579  1.00  0.00    -0.331 N 
ATOM     13  N   UNL A   1      30.948  23.751  26.345  1.00  0.00    -0.338 N 
ATOM     14  C   UNL A   1      30.159  24.718  25.867  1.00  0.00     0.315 C 
ATOM     15  H   UNL A   1      31.242  23.915  27.271  1.00  0.00     0.165 HD
ATOM     16  O   UNL A   1      29.684  25.516  26.679  1.00  0.00    -0.249 OA
ATOM     17  H   UNL A   1      29.097  25.482  24.443  1.00  0.00     0.165 HD
BRANCH  13  18
ATOM     18  C   UNL A   1      31.464  22.512  25.797  1.00  0.00     0.121 C 
BRANCH  18  19
ATOM     19  C   UNL A   1      33.002  22.518  25.767  1.00  0.00     0.008 C 
ATOM     20  C   UNL A   1      37.074  23.408  24.369  1.00  0.00     0.007 C 
ATOM     21  C   UNL A   1      35.550  23.359  24.466  1.00  0.00    -0.014 C 
ATOM     22  C   UNL A   1      35.061  24.002  25.769  1.00  0.00     0.003 C 
ATOM     23  C   UNL A   1      35.045  21.916  24.362  1.00  0.00     0.003 C 
ATOM     24  C   UNL A   1      33.537  23.952  25.879  1.00  0.00     0.006 C 
ATOM     25  C   UNL A   1      33.525  21.842  24.484  1.00  0.00     0.006 C 
ENDBRANCH  18  19
ENDBRANCH  13  18
ENDBRANCH  11  12
ENDBRANCH   7  11
ENDBRANCH   4   6
ENDBRANCH   3   4
ENDBRANCH   2   3
ENDBRANCH   1   2
BRANCH   1  26
ATOM     26  O   UNL A   1      32.879  30.473  25.968  1.00  0.00    -0.374 OA
BRANCH  26  27
ATOM     27  C   UNL A   1      31.707  30.924  26.649  1.00  0.00     0.202 C 
BRANCH  27  28
ATOM     28  C   UNL A   1      31.583  32.443  26.810  1.00  0.00     0.261 C 
BRANCH  28  29
ATOM     29  O   UNL A   1      32.859  33.095  26.682  1.00  0.00    -0.460 OA
BRANCH  29  30
ATOM     30  C   UNL A   1      33.347  33.608  27.838  1.00  0.00     0.338 C 
ATOM     31  O   UNL A   1      32.812  34.437  28.556  1.00  0.00    -0.246 OA
BRANCH  30  32
ATOM     32  C   UNL A   1      34.586  32.905  28.229  1.00  0.00     0.060 A 
ATOM     33  C   UNL A   1      34.443  31.638  28.807  1.00  0.00     0.016 A 
ATOM     34  C   UNL A   1      35.848  33.492  28.113  1.00  0.00     0.016 A 
ATOM     35  C   UNL A   1      35.551  30.985  29.341  1.00  0.00     0.010 A 
ATOM     36  C   UNL A   1      36.961  32.833  28.650  1.00  0.00     0.010 A 
ATOM     37  C   UNL A   1      36.808  31.601  29.311  1.00  0.00    -0.014 A 
BRANCH  37  38
ATOM     38  C   UNL A   1      37.912  31.024  30.117  1.00  0.00     0.031 A 
ATOM     39  C   UNL A   1      38.854  30.044  29.470  1.00  0.00     0.074 A 
ATOM     40  C   UNL A   1      38.099  31.391  31.398  1.00  0.00     0.049 A 
ATOM     41  N   UNL A   1      39.912  29.459  29.970  1.00  0.00    -0.248 NA
ATOM     42  C   UNL A   1      38.566  29.673  28.075  1.00  0.00     0.031 C 
ATOM     43  C   UNL A   1      37.252  32.321  32.142  1.00  0.00     0.029 A 
ATOM     44  N   UNL A   1      39.059  31.011  32.302  1.00  0.00    -0.354 N 
ATOM     45  C   UNL A   1      40.401  28.635  28.962  1.00  0.00     0.074 A 
ATOM     46  C   UNL A   1      39.512  28.778  27.830  1.00  0.00     0.031 C 
ATOM     47  C   UNL A   1      37.719  32.425  33.398  1.00  0.00     0.029 A 
ATOM     48  C   UNL A   1      38.891  31.564  33.548  1.00  0.00     0.049 A 
ATOM     49  H   UNL A   1      39.797  30.400  32.078  1.00  0.00     0.167 HD
ATOM     50  C   UNL A   1      41.502  27.845  28.967  1.00  0.00     0.034 A 
ATOM     51  C   UNL A   1      39.599  31.392  34.682  1.00  0.00     0.034 A 
ATOM     52  C   UNL A   1      42.402  27.722  30.081  1.00  0.00     0.049 A 
ATOM     53  C   UNL A   1      40.826  30.517  34.660  1.00  0.00     0.074 A 
ATOM     54  C   UNL A   1      43.571  26.987  30.166  1.00  0.00     0.029 A 
ATOM     55  N   UNL A   1      42.230  28.342  31.309  1.00  0.00    -0.354 N 
ATOM     56  N   UNL A   1      41.348  29.850  33.659  1.00  0.00    -0.248 NA
ATOM     57  C   UNL A   1      41.587  30.408  35.914  1.00  0.00     0.031 C 
ATOM     58  C   UNL A   1      44.096  27.148  31.454  1.00  0.00     0.029 A 
ATOM     59  C   UNL A   1      43.268  28.003  32.161  1.00  0.00     0.049 A 
ATOM     60  H   UNL A   1      41.480  28.936  31.541  1.00  0.00     0.167 HD
ATOM     61  C   UNL A   1      42.516  29.276  34.150  1.00  0.00     0.074 A 
ATOM     62  C   UNL A   1      42.635  29.690  35.533  1.00  0.00     0.031 C 
ATOM     63  C   UNL A   1      43.405  28.468  33.518  1.00  0.00     0.034 A 
BRANCH  50  64
ATOM     64  C   UNL A   1      41.811  27.079  27.709  1.00  0.00     0.023 A 
ATOM     65  C   UNL A   1      42.318  27.761  26.584  1.00  0.00     0.012 A 
ATOM     66  C   UNL A   1      41.637  25.682  27.649  1.00  0.00     0.148 A 
ATOM     67  C   UNL A   1      42.616  27.072  25.409  1.00  0.00     0.002 A 
ATOM     68  C   UNL A   1      41.975  24.996  26.489  1.00  0.00     0.091 A 
ATOM     69  F   UNL A   1      41.128  25.054  28.719  1.00  0.00    -0.205 F 
ATOM     70  C   UNL A   1      42.454  25.690  25.365  1.00  0.00     0.022 A 
BRANCH  68  71
ATOM     71  S   UNL A   1      41.871  23.207  26.363  1.00  0.00     0.127 S 
ATOM     72  O   UNL A   1      42.639  22.784  27.532  1.00  0.00    -0.237 OA
ATOM     73  O   UNL A   1      40.430  22.972  26.462  1.00  0.00    -0.237 OA
ATOM     74  O   UNL A   1      42.452  22.864  25.072  1.00  0.00    -0.744 OA
ENDBRANCH  68  71
ENDBRANCH  50  64
BRANCH  51  75
ATOM     75  C   UNL A   1      39.197  32.111  35.923  1.00  0.00     0.023 A 
ATOM     76  C   UNL A   1      39.631  33.435  36.132  1.00  0.00     0.012 A 
ATOM     77  C   UNL A   1      38.367  31.500  36.882  1.00  0.00     0.148 A 
ATOM     78  C   UNL A   1      39.270  34.126  37.288  1.00  0.00     0.002 A 
ATOM     79  C   UNL A   1      37.966  32.213  38.006  1.00  0.00     0.091 A 
ATOM     80  F   UNL A   1      37.979  30.234  36.672  1.00  0.00    -0.205 F 
ATOM     81  C   UNL A   1      38.430  33.521  38.220  1.00  0.00     0.022 A 
BRANCH  79  82
ATOM     82  S   UNL A   1      36.783  31.559  39.189  1.00  0.00     0.127 S 
ATOM     83  O   UNL A   1      36.447  30.269  38.594  1.00  0.00    -0.237 OA
ATOM     84  O   UNL A   1      37.588  31.485  40.410  1.00  0.00    -0.237 OA
ATOM     85  O   UNL A   1      35.703  32.533  39.243  1.00  0.00    -0.744 OA
ENDBRANCH  79  82
ENDBRANCH  51  75
BRANCH  63  86
ATOM     86  C   UNL A   1      44.608  28.005  34.298  1.00  0.00     0.023 A 
ATOM     87  C   UNL A   1      45.770  28.800  34.337  1.00  0.00     0.012 A 
ATOM     88  C   UNL A   1      44.566  26.810  35.045  1.00  0.00     0.148 A 
ATOM     89  C   UNL A   1      46.883  28.396  35.075  1.00  0.00     0.002 A 
ATOM     90  C   UNL A   1      45.662  26.437  35.816  1.00  0.00     0.091 A 
ATOM     91  F   UNL A   1      43.461  26.052  34.982  1.00  0.00    -0.205 F 
ATOM     92  C   UNL A   1      46.825  27.222  35.822  1.00  0.00     0.022 A 
BRANCH  90  93
ATOM     93  S   UNL A   1      45.630  24.991  36.882  1.00  0.00     0.127 S 
ATOM     94  O   UNL A   1      44.486  25.281  37.744  1.00  0.00    -0.237 OA
ATOM     95  O   UNL A   1      45.413  23.902  35.928  1.00  0.00    -0.237 OA
ATOM     96  O   UNL A   1      46.928  24.959  37.542  1.00  0.00    -0.744 OA
ENDBRANCH  90  93
ENDBRANCH  63  86
ENDBRANCH  37  38
ENDBRANCH  30  32
ENDBRANCH  29  30
ENDBRANCH  28  29
ENDBRANCH  27  28
ENDBRANCH  26  27
ENDBRANCH   1  26
TORSDOF 21
ENDMDL
MODEL 3
REMARK VINA RESULT:     -11.2      2.446      9.132
REMARK SMILES C[C@H]1CC[C@H](CNC(=O)NCc2ccc(C(=O)OCCOCCOC(=O)c3ccc(-c4c5nc(c(-c6cccc(S(=O)(=O)[O-])c6F)c6ccc([nH]6)c(-c6cccc(S(=O)(=O)[O-])c6F)c6nc(c(-c7cccc(S(=O)(=O)[O-])c7F)c7ccc4[nH]7)C=C6)C=C5)cc3)o2)CC1
REMARK SMILES IDX 20 1 19 2 18 3 16 4 17 5 15 6 12 7 13 8 90 9 14 10 11 11
REMARK SMILES IDX 10 12 7 13 8 14 9 16 6 18 5 19 1 20 2 21 92 22 3 23 91 24
REMARK SMILES IDX 4 25 21 26 22 27 23 28 24 29 25 30 26 31 27 32 28 33 89 34
REMARK SMILES IDX 29 35 88 36 30 37 31 38 32 39 82 40 33 41 87 42 81 43 83 44
REMARK SMILES IDX 34 45 86 46 80 47 79 48 35 50 67 51 47 52 66 53 48 54 51 55
REMARK SMILES IDX 65 56 84 57 49 58 50 59 64 61 85 62 52 63 36 64 37 65 45 66
REMARK SMILES IDX 38 67 40 68 46 69 39 70 41 71 42 72 43 73 44 74 68 75 69 76
REMARK SMILES IDX 77 77 70 78 72 79 78 80 71 81 73 82 74 83 75 84 76 85 53 86
REMARK SMILES IDX 54 87 62 88 55 89 57 90 63 91 56 92 58 93 59 94 60 95 61 96
REMARK H PARENT 7 15 10 17 83 49 51 60
REMARK Flexibility Score: inf
ROOT
ATOM      1  C   UNL A   1      42.791  19.020  26.229  1.00  0.00     0.202 C 
ENDROOT
BRANCH   1   2
ATOM      2  C   UNL A   1      41.780  19.908  26.960  1.00  0.00     0.261 C 
BRANCH   2   3
ATOM      3  O   UNL A   1      41.141  20.800  26.028  1.00  0.00    -0.457 OA
BRANCH   3   4
ATOM      4  C   UNL A   1      39.830  20.544  25.752  1.00  0.00     0.374 C 
ATOM      5  O   UNL A   1      39.365  19.432  25.530  1.00  0.00    -0.242 OA
BRANCH   4   6
ATOM      6  C   UNL A   1      39.066  21.767  25.872  1.00  0.00     0.211 A 
ATOM      7  C   UNL A   1      37.336  23.071  25.418  1.00  0.00     0.124 A 
ATOM      8  C   UNL A   1      38.045  23.699  26.421  1.00  0.00     0.048 A 
ATOM      9  O   UNL A   1      37.974  21.918  25.060  1.00  0.00    -0.452 OA
ATOM     10  C   UNL A   1      39.152  22.861  26.716  1.00  0.00     0.058 A 
BRANCH   7  11
ATOM     11  C   UNL A   1      36.099  23.418  24.665  1.00  0.00     0.193 C 
BRANCH  11  12
ATOM     12  N   UNL A   1      34.935  22.941  25.380  1.00  0.00    -0.331 N 
ATOM     13  N   UNL A   1      33.018  23.582  24.163  1.00  0.00    -0.338 N 
ATOM     14  C   UNL A   1      33.626  22.895  25.135  1.00  0.00     0.315 C 
ATOM     15  H   UNL A   1      32.103  23.266  23.980  1.00  0.00     0.165 HD
ATOM     16  O   UNL A   1      32.922  22.175  25.846  1.00  0.00    -0.249 OA
ATOM     17  H   UNL A   1      35.164  22.559  26.258  1.00  0.00     0.165 HD
BRANCH  13  18
ATOM     18  C   UNL A   1      33.414  24.692  23.319  1.00  0.00     0.121 C 
BRANCH  18  19
ATOM     19  C   UNL A   1      32.823  26.017  23.833  1.00  0.00     0.008 C 
ATOM     20  C   UNL A   1      30.293  29.610  23.942  1.00  0.00     0.007 C 
ATOM     21  C   UNL A   1      30.927  28.293  23.497  1.00  0.00    -0.014 C 
ATOM     22  C   UNL A   1      30.683  27.190  24.532  1.00  0.00     0.003 C 
ATOM     23  C   UNL A   1      32.429  28.470  23.248  1.00  0.00     0.003 C 
ATOM     24  C   UNL A   1      31.320  25.868  24.099  1.00  0.00     0.006 C 
ATOM     25  C   UNL A   1      33.086  27.157  22.828  1.00  0.00     0.006 C 
ENDBRANCH  18  19
ENDBRANCH  13  18
ENDBRANCH  11  12
ENDBRANCH   7  11
ENDBRANCH   4   6
ENDBRANCH   3   4
ENDBRANCH   2   3
ENDBRANCH   1   2
BRANCH   1  26
ATOM     26  O   UNL A   1      43.402  19.626  25.087  1.00  0.00    -0.374 OA
BRANCH  26  27
ATOM     27  C   UNL A   1      44.434  20.580  25.345  1.00  0.00     0.202 C 
BRANCH  27  28
ATOM     28  C   UNL A   1      44.442  21.806  24.425  1.00  0.00     0.261 C 
BRANCH  28  29
ATOM     29  O   UNL A   1      43.621  22.866  24.948  1.00  0.00    -0.460 OA
BRANCH  29  30
ATOM     30  C   UNL A   1      44.241  24.068  25.034  1.00  0.00     0.338 C 
ATOM     31  O   UNL A   1      45.243  24.420  24.434  1.00  0.00    -0.246 OA
BRANCH  30  32
ATOM     32  C   UNL A   1      43.444  24.999  25.858  1.00  0.00     0.060 A 
ATOM     33  C   UNL A   1      44.065  26.190  26.252  1.00  0.00     0.016 A 
ATOM     34  C   UNL A   1      42.157  24.689  26.304  1.00  0.00     0.016 A 
ATOM     35  C   UNL A   1      43.433  27.041  27.155  1.00  0.00     0.010 A 
ATOM     36  C   UNL A   1      41.523  25.548  27.212  1.00  0.00     0.010 A 
ATOM     37  C   UNL A   1      42.180  26.699  27.680  1.00  0.00    -0.014 A 
BRANCH  37  38
ATOM     38  C   UNL A   1      41.650  27.467  28.833  1.00  0.00     0.031 A 
ATOM     39  C   UNL A   1      42.366  27.386  30.156  1.00  0.00     0.074 A 
ATOM     40  C   UNL A   1      40.567  28.255  28.703  1.00  0.00     0.049 A 
ATOM     41  N   UNL A   1      42.109  28.010  31.276  1.00  0.00    -0.248 NA
ATOM     42  C   UNL A   1      43.525  26.481  30.225  1.00  0.00     0.031 C 
ATOM     43  C   UNL A   1      39.780  28.411  27.481  1.00  0.00     0.029 A 
ATOM     44  N   UNL A   1      39.938  29.062  29.617  1.00  0.00    -0.354 N 
ATOM     45  C   UNL A   1      43.057  27.557  32.188  1.00  0.00     0.074 A 
ATOM     46  C   UNL A   1      43.880  26.589  31.497  1.00  0.00     0.031 C 
ATOM     47  C   UNL A   1      38.758  29.249  27.727  1.00  0.00     0.029 A 
ATOM     48  C   UNL A   1      38.814  29.680  29.123  1.00  0.00     0.049 A 
ATOM     49  H   UNL A   1      40.261  29.186  30.538  1.00  0.00     0.167 HD
ATOM     50  C   UNL A   1      43.241  27.927  33.478  1.00  0.00     0.034 A 
ATOM     51  C   UNL A   1      37.931  30.498  29.730  1.00  0.00     0.034 A 
ATOM     52  C   UNL A   1      42.441  28.908  34.160  1.00  0.00     0.049 A 
ATOM     53  C   UNL A   1      38.163  30.903  31.162  1.00  0.00     0.074 A 
ATOM     54  C   UNL A   1      42.580  29.387  35.450  1.00  0.00     0.029 A 
ATOM     55  N   UNL A   1      41.346  29.556  33.609  1.00  0.00    -0.354 N 
ATOM     56  N   UNL A   1      39.141  30.567  31.969  1.00  0.00    -0.248 NA
ATOM     57  C   UNL A   1      37.193  31.836  31.754  1.00  0.00     0.031 C 
ATOM     58  C   UNL A   1      41.556  30.312  35.686  1.00  0.00     0.029 A 
ATOM     59  C   UNL A   1      40.795  30.427  34.535  1.00  0.00     0.049 A 
ATOM     60  H   UNL A   1      41.009  29.417  32.694  1.00  0.00     0.167 HD
ATOM     61  C   UNL A   1      38.927  31.277  33.146  1.00  0.00     0.074 A 
ATOM     62  C   UNL A   1      37.736  32.076  32.940  1.00  0.00     0.031 C 
ATOM     63  C   UNL A   1      39.644  31.259  34.298  1.00  0.00     0.034 A 
BRANCH  50  64
ATOM     64  C   UNL A   1      44.380  27.288  34.227  1.00  0.00     0.023 A 
ATOM     65  C   UNL A   1      45.634  27.931  34.270  1.00  0.00     0.012 A 
ATOM     66  C   UNL A   1      44.203  26.073  34.917  1.00  0.00     0.148 A 
ATOM     67  C   UNL A   1      46.703  27.360  34.961  1.00  0.00     0.002 A 
ATOM     68  C   UNL A   1      45.261  25.531  35.638  1.00  0.00     0.091 A 
ATOM     69  F   UNL A   1      43.012  25.462  34.842  1.00  0.00    -0.205 F 
ATOM     70  C   UNL A   1      46.513  26.167  35.651  1.00  0.00     0.022 A 
BRANCH  68  71
ATOM     71  S   UNL A   1      45.092  24.036  36.619  1.00  0.00     0.127 S 
ATOM     72  O   UNL A   1      44.463  24.551  37.834  1.00  0.00    -0.237 OA
ATOM     73  O   UNL A   1      44.218  23.212  35.782  1.00  0.00    -0.237 OA
ATOM     74  O   UNL A   1      46.441  23.512  36.783  1.00  0.00    -0.744 OA
ENDBRANCH  68  71
ENDBRANCH  50  64
BRANCH  51  75
ATOM     75  C   UNL A   1      36.772  31.034  28.963  1.00  0.00     0.023 A 
ATOM     76  C   UNL A   1      36.694  32.416  28.695  1.00  0.00     0.012 A 
ATOM     77  C   UNL A   1      35.763  30.182  28.476  1.00  0.00     0.148 A 
ATOM     78  C   UNL A   1      35.616  32.940  27.983  1.00  0.00     0.002 A 
ATOM     79  C   UNL A   1      34.720  30.704  27.720  1.00  0.00     0.091 A 
ATOM     80  F   UNL A   1      35.848  28.873  28.756  1.00  0.00    -0.205 F 
ATOM     81  C   UNL A   1      34.635  32.086  27.486  1.00  0.00     0.022 A 
BRANCH  79  82
ATOM     82  S   UNL A   1      33.487  29.662  26.933  1.00  0.00     0.127 S 
ATOM     83  O   UNL A   1      32.565  30.653  26.384  1.00  0.00    -0.237 OA
ATOM     84  O   UNL A   1      34.288  28.948  25.937  1.00  0.00    -0.237 OA
ATOM     85  O   UNL A   1      32.954  28.817  27.991  1.00  0.00    -0.744 OA
ENDBRANCH  79  82
ENDBRANCH  51  75
BRANCH  63  86
ATOM     86  C   UNL A   1      39.187  32.158  35.420  1.00  0.00     0.023 A 
ATOM     87  C   UNL A   1      38.249  31.689  36.359  1.00  0.00     0.012 A 
ATOM     88  C   UNL A   1      39.735  33.447  35.577  1.00  0.00     0.148 A 
ATOM     89  C   UNL A   1      37.835  32.500  37.416  1.00  0.00     0.002 A 
ATOM     90  C   UNL A   1      39.354  34.233  36.659  1.00  0.00     0.091 A 
ATOM     91  F   UNL A   1      40.611  33.889  34.662  1.00  0.00    -0.205 F 
ATOM     92  C   UNL A   1      38.395  33.766  37.572  1.00  0.00     0.022 A 
BRANCH  90  93
ATOM     93  S   UNL A   1      40.100  35.835  36.984  1.00  0.00     0.127 S 
ATOM     94  O   UNL A   1      39.578  36.143  38.313  1.00  0.00    -0.237 OA
ATOM     95  O   UNL A   1      41.531  35.529  36.946  1.00  0.00    -0.237 OA
ATOM     96  O   UNL A   1      39.645  36.706  35.908  1.00  0.00    -0.744 OA
ENDBRANCH  90  93
ENDBRANCH  63  86
ENDBRANCH  37  38
ENDBRANCH  30  32
ENDBRANCH  29  30
ENDBRANCH  28  29
ENDBRANCH  27  28
ENDBRANCH  26  27
ENDBRANCH   1  26
TORSDOF 21
ENDMDL
