MODEL 1
REMARK VINA RESULT:      -8.9      0.000      0.000
REMARK SMILES CCCCCCNC(=O)Oc1cccc(-c2ccc([C@@H](C)C(=O)OCCOCCOC(=O)c3ccc(-c4c5nc(c(-c6cccc(S(=O)(=O)[O-])c6F)c6ccc([nH]6)c(-c6cccc(S(=O)(=O)[O-])c6F)c6nc(c(-c7cccc(S(=O)(=O)[O-])c7F)c7ccc4[nH]7)C=C6)C=C5)cc3)cc2F)c1
REMARK SMILES IDX 24 1 22 2 23 3 20 4 21 5 19 6 16 7 17 8 97 9 18 10 96 11
REMARK SMILES IDX 98 12 15 13 11 14 12 15 99 16 13 17 14 18 10 19 8 20 7 21
REMARK SMILES IDX 9 23 6 24 5 25 4 26 3 27 2 28 1 29 25 30 26 31 27 32 28 33
REMARK SMILES IDX 29 34 30 35 31 36 32 37 33 38 34 39 95 40 35 41 94 42 36 43
REMARK SMILES IDX 37 44 38 45 88 46 39 47 93 48 87 49 89 50 40 51 92 52 86 53
REMARK SMILES IDX 85 54 41 56 73 57 53 58 72 59 54 60 57 61 71 62 90 63 55 64
REMARK SMILES IDX 56 65 70 67 91 68 58 69 42 70 43 71 51 72 44 73 46 74 52 75
REMARK SMILES IDX 45 76 47 77 48 78 49 79 50 80 74 81 75 82 83 83 76 84 78 85
REMARK SMILES IDX 84 86 77 87 79 88 80 89 81 90 82 91 59 92 60 93 68 94 61 95
REMARK SMILES IDX 63 96 69 97 62 98 64 99 65 100 66 101 67 102
REMARK H PARENT 7 22 89 55 57 66
REMARK Flexibility Score: inf
ROOT
ATOM      1  O   UNL A   1      42.906  20.736  26.575  1.00  0.00    -0.463 OA
ENDROOT
BRANCH   1   2
ATOM      2  C   UNL A   1      42.426  21.891  26.048  1.00  0.00     0.313 C 
ATOM      3  O   UNL A   1      42.567  22.232  24.877  1.00  0.00    -0.252 OA
BRANCH   2   4
ATOM      4  C   UNL A   1      41.704  22.771  27.054  1.00  0.00     0.126 C 
ATOM      5  C   UNL A   1      41.988  22.263  28.465  1.00  0.00     0.025 C 
BRANCH   4   6
ATOM      6  C   UNL A   1      40.220  23.043  26.834  1.00  0.00    -0.031 A 
ATOM      7  C   UNL A   1      37.500  23.579  26.128  1.00  0.00     0.018 A 
ATOM      8  C   UNL A   1      38.274  24.518  26.831  1.00  0.00     0.012 A 
ATOM      9  C   UNL A   1      38.105  22.349  25.841  1.00  0.00     0.131 A 
ATOM     10  C   UNL A   1      39.611  24.258  27.176  1.00  0.00     0.005 A 
ATOM     11  C   UNL A   1      39.433  22.079  26.184  1.00  0.00     0.044 A 
ATOM     12  F   UNL A   1      37.431  21.399  25.172  1.00  0.00    -0.206 F 
BRANCH   7  13
ATOM     13  C   UNL A   1      36.139  23.903  25.659  1.00  0.00    -0.012 A 
ATOM     14  C   UNL A   1      34.560  24.424  23.884  1.00  0.00     0.133 A 
ATOM     15  C   UNL A   1      33.539  24.626  24.809  1.00  0.00     0.047 A 
ATOM     16  C   UNL A   1      35.851  24.079  24.295  1.00  0.00     0.056 A 
ATOM     17  C   UNL A   1      33.805  24.452  26.163  1.00  0.00     0.004 A 
ATOM     18  C   UNL A   1      35.091  24.094  26.582  1.00  0.00     0.009 A 
BRANCH  14  19
ATOM     19  O   UNL A   1      34.258  24.698  22.540  1.00  0.00    -0.410 OA
BRANCH  19  20
ATOM     20  C   UNL A   1      32.927  24.832  22.184  1.00  0.00     0.412 C 
ATOM     21  N   UNL A   1      32.308  23.640  21.937  1.00  0.00    -0.321 N 
ATOM     22  H   UNL A   1      31.363  23.685  21.664  1.00  0.00     0.167 HD
ATOM     23  O   UNL A   1      32.306  25.890  22.081  1.00  0.00    -0.224 OA
BRANCH  21  24
ATOM     24  C   UNL A   1      32.890  22.315  22.034  1.00  0.00     0.119 C 
BRANCH  24  25
ATOM     25  C   UNL A   1      32.086  21.408  22.967  1.00  0.00     0.021 C 
BRANCH  25  26
ATOM     26  C   UNL A   1      32.801  21.025  24.270  1.00  0.00     0.002 C 
BRANCH  26  27
ATOM     27  C   UNL A   1      32.052  21.369  25.562  1.00  0.00    -0.000 C 
BRANCH  27  28
ATOM     28  C   UNL A   1      30.915  22.383  25.414  1.00  0.00    -0.003 C 
ATOM     29  C   UNL A   1      30.331  22.833  26.744  1.00  0.00     0.004 C 
ENDBRANCH  27  28
ENDBRANCH  26  27
ENDBRANCH  25  26
ENDBRANCH  24  25
ENDBRANCH  21  24
ENDBRANCH  19  20
ENDBRANCH  14  19
ENDBRANCH   7  13
ENDBRANCH   4   6
ENDBRANCH   2   4
ENDBRANCH   1   2
BRANCH   1  30
ATOM     30  C   UNL A   1      42.181  19.540  26.241  1.00  0.00     0.261 C 
BRANCH  30  31
ATOM     31  C   UNL A   1      43.126  18.356  26.028  1.00  0.00     0.202 C 
BRANCH  31  32
ATOM     32  O   UNL A   1      44.167  18.540  25.068  1.00  0.00    -0.374 OA
BRANCH  32  33
ATOM     33  C   UNL A   1      45.489  18.751  25.567  1.00  0.00     0.202 C 
BRANCH  33  34
ATOM     34  C   UNL A   1      46.289  19.908  24.954  1.00  0.00     0.261 C 
BRANCH  34  35
ATOM     35  O   UNL A   1      46.053  21.155  25.627  1.00  0.00    -0.460 OA
BRANCH  35  36
ATOM     36  C   UNL A   1      45.795  22.205  24.809  1.00  0.00     0.338 C 
ATOM     37  O   UNL A   1      45.254  22.174  23.719  1.00  0.00    -0.246 OA
BRANCH  36  38
ATOM     38  C   UNL A   1      46.087  23.469  25.516  1.00  0.00     0.060 A 
ATOM     39  C   UNL A   1      46.042  23.452  26.918  1.00  0.00     0.016 A 
ATOM     40  C   UNL A   1      46.324  24.657  24.826  1.00  0.00     0.016 A 
ATOM     41  C   UNL A   1      46.173  24.639  27.636  1.00  0.00     0.010 A 
ATOM     42  C   UNL A   1      46.447  25.847  25.547  1.00  0.00     0.010 A 
ATOM     43  C   UNL A   1      46.331  25.849  26.951  1.00  0.00    -0.014 A 
BRANCH  43  44
ATOM     44  C   UNL A   1      46.192  27.138  27.669  1.00  0.00     0.031 A 
ATOM     45  C   UNL A   1      44.837  27.516  28.201  1.00  0.00     0.074 A 
ATOM     46  C   UNL A   1      47.237  27.974  27.811  1.00  0.00     0.049 A 
ATOM     47  N   UNL A   1      44.438  28.643  28.729  1.00  0.00    -0.248 NA
ATOM     48  C   UNL A   1      43.788  26.484  28.121  1.00  0.00     0.031 C 
ATOM     49  C   UNL A   1      48.601  27.703  27.362  1.00  0.00     0.029 A 
ATOM     50  N   UNL A   1      47.298  29.240  28.337  1.00  0.00    -0.354 N 
ATOM     51  C   UNL A   1      43.085  28.476  28.996  1.00  0.00     0.074 A 
ATOM     52  C   UNL A   1      42.730  27.137  28.581  1.00  0.00     0.031 C 
ATOM     53  C   UNL A   1      49.356  28.792  27.590  1.00  0.00     0.029 A 
ATOM     54  C   UNL A   1      48.521  29.844  28.165  1.00  0.00     0.049 A 
ATOM     55  H   UNL A   1      46.540  29.671  28.795  1.00  0.00     0.167 HD
ATOM     56  C   UNL A   1      42.217  29.357  29.544  1.00  0.00     0.034 A 
ATOM     57  C   UNL A   1      48.906  31.115  28.404  1.00  0.00     0.034 A 
ATOM     58  C   UNL A   1      42.583  30.677  29.981  1.00  0.00     0.049 A 
ATOM     59  C   UNL A   1      47.914  32.087  28.990  1.00  0.00     0.074 A 
ATOM     60  C   UNL A   1      41.787  31.632  30.588  1.00  0.00     0.029 A 
ATOM     61  N   UNL A   1      43.847  31.229  29.849  1.00  0.00    -0.354 N 
ATOM     62  N   UNL A   1      46.662  31.887  29.326  1.00  0.00    -0.248 NA
ATOM     63  C   UNL A   1      48.391  33.452  29.257  1.00  0.00     0.031 C 
ATOM     64  C   UNL A   1      42.565  32.772  30.801  1.00  0.00     0.029 A 
ATOM     65  C   UNL A   1      43.852  32.515  30.357  1.00  0.00     0.049 A 
ATOM     66  H   UNL A   1      44.624  30.773  29.453  1.00  0.00     0.167 HD
ATOM     67  C   UNL A   1      46.220  33.080  29.888  1.00  0.00     0.074 A 
ATOM     68  C   UNL A   1      47.337  34.000  29.849  1.00  0.00     0.031 C 
ATOM     69  C   UNL A   1      44.997  33.389  30.384  1.00  0.00     0.034 A 
BRANCH  56  70
ATOM     70  C   UNL A   1      40.787  28.923  29.720  1.00  0.00     0.023 A 
ATOM     71  C   UNL A   1      40.463  27.962  30.697  1.00  0.00     0.012 A 
ATOM     72  C   UNL A   1      39.758  29.518  28.964  1.00  0.00     0.148 A 
ATOM     73  C   UNL A   1      39.138  27.578  30.901  1.00  0.00     0.002 A 
ATOM     74  C   UNL A   1      38.435  29.164  29.203  1.00  0.00     0.091 A 
ATOM     75  F   UNL A   1      40.091  30.415  28.025  1.00  0.00    -0.205 F 
ATOM     76  C   UNL A   1      38.125  28.187  30.164  1.00  0.00     0.022 A 
BRANCH  74  77
ATOM     77  S   UNL A   1      37.056  29.951  28.364  1.00  0.00     0.127 S 
ATOM     78  O   UNL A   1      35.914  29.260  28.960  1.00  0.00    -0.237 OA
ATOM     79  O   UNL A   1      37.204  31.348  28.773  1.00  0.00    -0.237 OA
ATOM     80  O   UNL A   1      37.258  29.709  26.942  1.00  0.00    -0.744 OA
ENDBRANCH  74  77
ENDBRANCH  56  70
BRANCH  57  81
ATOM     81  C   UNL A   1      50.303  31.539  28.104  1.00  0.00     0.023 A 
ATOM     82  C   UNL A   1      51.332  31.243  29.021  1.00  0.00     0.012 A 
ATOM     83  C   UNL A   1      50.620  32.223  26.914  1.00  0.00     0.148 A 
ATOM     84  C   UNL A   1      52.643  31.647  28.772  1.00  0.00     0.002 A 
ATOM     85  C   UNL A   1      51.939  32.573  26.647  1.00  0.00     0.091 A 
ATOM     86  F   UNL A   1      49.626  32.512  26.063  1.00  0.00    -0.205 F 
ATOM     87  C   UNL A   1      52.949  32.304  27.581  1.00  0.00     0.022 A 
BRANCH  85  88
ATOM     88  S   UNL A   1      52.441  33.304  25.084  1.00  0.00     0.127 S 
ATOM     89  O   UNL A   1      52.036  34.696  25.260  1.00  0.00    -0.237 OA
ATOM     90  O   UNL A   1      53.886  33.076  25.094  1.00  0.00    -0.237 OA
ATOM     91  O   UNL A   1      51.726  32.560  24.055  1.00  0.00    -0.744 OA
ENDBRANCH  85  88
ENDBRANCH  57  81
BRANCH  69  92
ATOM     92  C   UNL A   1      44.798  34.748  31.000  1.00  0.00     0.023 A 
ATOM     93  C   UNL A   1      45.151  34.973  32.344  1.00  0.00     0.012 A 
ATOM     94  C   UNL A   1      44.387  35.833  30.198  1.00  0.00     0.148 A 
ATOM     95  C   UNL A   1      45.082  36.256  32.885  1.00  0.00     0.002 A 
ATOM     96  C   UNL A   1      44.368  37.115  30.730  1.00  0.00     0.091 A 
ATOM     97  F   UNL A   1      44.043  35.590  28.925  1.00  0.00    -0.205 F 
ATOM     98  C   UNL A   1      44.706  37.328  32.076  1.00  0.00     0.022 A 
BRANCH  96  99
ATOM     99  S   UNL A   1      43.999  38.568  29.739  1.00  0.00     0.127 S 
ATOM    100  O   UNL A   1      43.757  39.577  30.770  1.00  0.00    -0.237 OA
ATOM    101  O   UNL A   1      45.240  38.750  28.986  1.00  0.00    -0.237 OA
ATOM    102  O   UNL A   1      42.841  38.219  28.927  1.00  0.00    -0.744 OA
ENDBRANCH  96  99
ENDBRANCH  69  92
ENDBRANCH  43  44
ENDBRANCH  36  38
ENDBRANCH  35  36
ENDBRANCH  34  35
ENDBRANCH  33  34
ENDBRANCH  32  33
ENDBRANCH  31  32
ENDBRANCH  30  31
ENDBRANCH   1  30
TORSDOF 26
ENDMDL
MODEL 2
REMARK VINA RESULT:      -8.8      4.556      6.505
REMARK SMILES CCCCCCNC(=O)Oc1cccc(-c2ccc([C@@H](C)C(=O)OCCOCCOC(=O)c3ccc(-c4c5nc(c(-c6cccc(S(=O)(=O)[O-])c6F)c6ccc([nH]6)c(-c6cccc(S(=O)(=O)[O-])c6F)c6nc(c(-c7cccc(S(=O)(=O)[O-])c7F)c7ccc4[nH]7)C=C6)C=C5)cc3)cc2F)c1
REMARK SMILES IDX 24 1 22 2 23 3 20 4 21 5 19 6 16 7 17 8 97 9 18 10 96 11
REMARK SMILES IDX 98 12 15 13 11 14 12 15 99 16 13 17 14 18 10 19 8 20 7 21
REMARK SMILES IDX 9 23 6 24 5 25 4 26 3 27 2 28 1 29 25 30 26 31 27 32 28 33
REMARK SMILES IDX 29 34 30 35 31 36 32 37 33 38 34 39 95 40 35 41 94 42 36 43
REMARK SMILES IDX 37 44 38 45 88 46 39 47 93 48 87 49 89 50 40 51 92 52 86 53
REMARK SMILES IDX 85 54 41 56 73 57 53 58 72 59 54 60 57 61 71 62 90 63 55 64
REMARK SMILES IDX 56 65 70 67 91 68 58 69 42 70 43 71 51 72 44 73 46 74 52 75
REMARK SMILES IDX 45 76 47 77 48 78 49 79 50 80 74 81 75 82 83 83 76 84 78 85
REMARK SMILES IDX 84 86 77 87 79 88 80 89 81 90 82 91 59 92 60 93 68 94 61 95
REMARK SMILES IDX 63 96 69 97 62 98 64 99 65 100 66 101 67 102
REMARK H PARENT 7 22 89 55 57 66
REMARK Flexibility Score: inf
ROOT
ATOM      1  O   UNL A   1      39.468  22.787  26.361  1.00  0.00    -0.463 OA
ENDROOT
BRANCH   1   2
ATOM      2  C   UNL A   1      39.396  21.452  26.130  1.00  0.00     0.313 C 
ATOM      3  O   UNL A   1      40.356  20.687  26.164  1.00  0.00    -0.252 OA
BRANCH   2   4
ATOM      4  C   UNL A   1      37.999  20.962  25.788  1.00  0.00     0.126 C 
ATOM      5  C   UNL A   1      38.099  19.664  24.993  1.00  0.00     0.025 C 
BRANCH   4   6
ATOM      6  C   UNL A   1      37.029  21.950  25.148  1.00  0.00    -0.031 A 
ATOM      7  C   UNL A   1      34.997  23.597  23.992  1.00  0.00     0.018 A 
ATOM      8  C   UNL A   1      36.006  23.017  23.205  1.00  0.00     0.012 A 
ATOM      9  C   UNL A   1      35.067  23.377  25.373  1.00  0.00     0.131 A 
ATOM     10  C   UNL A   1      37.004  22.205  23.770  1.00  0.00     0.005 A 
ATOM     11  C   UNL A   1      36.058  22.575  25.946  1.00  0.00     0.044 A 
ATOM     12  F   UNL A   1      34.139  23.899  26.193  1.00  0.00    -0.206 F 
BRANCH   7  13
ATOM     13  C   UNL A   1      33.880  24.345  23.381  1.00  0.00    -0.012 A 
ATOM     14  C   UNL A   1      32.947  26.362  22.396  1.00  0.00     0.133 A 
ATOM     15  C   UNL A   1      31.688  25.776  22.310  1.00  0.00     0.047 A 
ATOM     16  C   UNL A   1      34.033  25.668  22.936  1.00  0.00     0.056 A 
ATOM     17  C   UNL A   1      31.518  24.465  22.742  1.00  0.00     0.004 A 
ATOM     18  C   UNL A   1      32.604  23.758  23.271  1.00  0.00     0.009 A 
BRANCH  14  19
ATOM     19  O   UNL A   1      33.041  27.715  22.027  1.00  0.00    -0.410 OA
BRANCH  19  20
ATOM     20  C   UNL A   1      33.574  28.605  22.944  1.00  0.00     0.412 C 
ATOM     21  N   UNL A   1      32.630  29.250  23.690  1.00  0.00    -0.321 N 
ATOM     22  H   UNL A   1      32.961  29.906  24.345  1.00  0.00     0.167 HD
ATOM     23  O   UNL A   1      34.771  28.838  23.117  1.00  0.00    -0.224 OA
BRANCH  21  24
ATOM     24  C   UNL A   1      31.191  29.073  23.623  1.00  0.00     0.119 C 
BRANCH  24  25
ATOM     25  C   UNL A   1      30.686  28.114  24.701  1.00  0.00     0.021 C 
BRANCH  25  26
ATOM     26  C   UNL A   1      31.720  27.743  25.773  1.00  0.00     0.002 C 
BRANCH  26  27
ATOM     27  C   UNL A   1      31.891  26.243  26.037  1.00  0.00    -0.000 C 
BRANCH  27  28
ATOM     28  C   UNL A   1      30.592  25.438  26.123  1.00  0.00    -0.003 C 
ATOM     29  C   UNL A   1      30.809  23.982  26.506  1.00  0.00     0.004 C 
ENDBRANCH  27  28
ENDBRANCH  26  27
ENDBRANCH  25  26
ENDBRANCH  24  25
ENDBRANCH  21  24
ENDBRANCH  19  20
ENDBRANCH  14  19
ENDBRANCH   7  13
ENDBRANCH   4   6
ENDBRANCH   2   4
ENDBRANCH   1   2
BRANCH   1  30
ATOM     30  C   UNL A   1      40.317  23.196  27.448  1.00  0.00     0.261 C 
BRANCH  30  31
ATOM     31  C   UNL A   1      41.520  23.996  26.944  1.00  0.00     0.202 C 
BRANCH  31  32
ATOM     32  O   UNL A   1      42.437  23.299  26.100  1.00  0.00    -0.374 OA
BRANCH  32  33
ATOM     33  C   UNL A   1      43.532  22.633  26.731  1.00  0.00     0.202 C 
BRANCH  33  34
ATOM     34  C   UNL A   1      44.870  22.626  25.980  1.00  0.00     0.261 C 
BRANCH  34  35
ATOM     35  O   UNL A   1      45.786  23.614  26.481  1.00  0.00    -0.460 OA
BRANCH  35  36
ATOM     36  C   UNL A   1      45.919  24.715  25.701  1.00  0.00     0.338 C 
ATOM     37  O   UNL A   1      46.168  24.748  24.509  1.00  0.00    -0.246 OA
BRANCH  36  38
ATOM     38  C   UNL A   1      45.516  25.915  26.462  1.00  0.00     0.060 A 
ATOM     39  C   UNL A   1      46.508  26.578  27.200  1.00  0.00     0.016 A 
ATOM     40  C   UNL A   1      44.188  26.337  26.515  1.00  0.00     0.016 A 
ATOM     41  C   UNL A   1      46.165  27.632  28.044  1.00  0.00     0.010 A 
ATOM     42  C   UNL A   1      43.844  27.389  27.368  1.00  0.00     0.010 A 
ATOM     43  C   UNL A   1      44.823  28.012  28.166  1.00  0.00    -0.014 A 
BRANCH  43  44
ATOM     44  C   UNL A   1      44.402  28.929  29.252  1.00  0.00     0.031 A 
ATOM     45  C   UNL A   1      44.120  28.345  30.609  1.00  0.00     0.074 A 
ATOM     46  C   UNL A   1      44.236  30.245  29.029  1.00  0.00     0.049 A 
ATOM     47  N   UNL A   1      43.604  28.915  31.666  1.00  0.00    -0.248 NA
ATOM     48  C   UNL A   1      44.460  26.923  30.797  1.00  0.00     0.031 C 
ATOM     49  C   UNL A   1      44.505  30.928  27.765  1.00  0.00     0.029 A 
ATOM     50  N   UNL A   1      43.757  31.233  29.853  1.00  0.00    -0.354 N 
ATOM     51  C   UNL A   1      43.510  27.915  32.626  1.00  0.00     0.074 A 
ATOM     52  C   UNL A   1      44.028  26.703  32.030  1.00  0.00     0.031 C 
ATOM     53  C   UNL A   1      44.143  32.217  27.883  1.00  0.00     0.029 A 
ATOM     54  C   UNL A   1      43.584  32.439  29.215  1.00  0.00     0.049 A 
ATOM     55  H   UNL A   1      43.560  31.092  30.807  1.00  0.00     0.167 HD
ATOM     56  C   UNL A   1      43.038  27.999  33.891  1.00  0.00     0.034 A 
ATOM     57  C   UNL A   1      43.001  33.577  29.646  1.00  0.00     0.034 A 
ATOM     58  C   UNL A   1      42.551  29.213  34.485  1.00  0.00     0.049 A 
ATOM     59  C   UNL A   1      42.459  33.640  31.051  1.00  0.00     0.074 A 
ATOM     60  C   UNL A   1      42.091  29.414  35.774  1.00  0.00     0.029 A 
ATOM     61  N   UNL A   1      42.452  30.429  33.828  1.00  0.00    -0.354 N 
ATOM     62  N   UNL A   1      42.462  32.713  31.979  1.00  0.00    -0.248 NA
ATOM     63  C   UNL A   1      41.856  34.911  31.481  1.00  0.00     0.031 C 
ATOM     64  C   UNL A   1      41.690  30.747  35.889  1.00  0.00     0.029 A 
ATOM     65  C   UNL A   1      41.932  31.384  34.682  1.00  0.00     0.049 A 
ATOM     66  H   UNL A   1      42.714  30.589  32.892  1.00  0.00     0.167 HD
ATOM     67  C   UNL A   1      41.913  33.303  33.113  1.00  0.00     0.074 A 
ATOM     68  C   UNL A   1      41.587  34.668  32.758  1.00  0.00     0.031 C 
ATOM     69  C   UNL A   1      41.690  32.761  34.334  1.00  0.00     0.034 A 
BRANCH  56  70
ATOM     70  C   UNL A   1      43.040  26.749  34.729  1.00  0.00     0.023 A 
ATOM     71  C   UNL A   1      41.863  25.985  34.847  1.00  0.00     0.012 A 
ATOM     72  C   UNL A   1      44.225  26.297  35.341  1.00  0.00     0.148 A 
ATOM     73  C   UNL A   1      41.858  24.802  35.586  1.00  0.00     0.002 A 
ATOM     74  C   UNL A   1      44.224  25.094  36.038  1.00  0.00     0.091 A 
ATOM     75  F   UNL A   1      45.329  27.051  35.233  1.00  0.00    -0.205 F 
ATOM     76  C   UNL A   1      43.039  24.352  36.170  1.00  0.00     0.022 A 
BRANCH  74  77
ATOM     77  S   UNL A   1      45.712  24.390  36.756  1.00  0.00     0.127 S 
ATOM     78  O   UNL A   1      45.270  23.037  37.087  1.00  0.00    -0.237 OA
ATOM     79  O   UNL A   1      46.656  24.465  35.640  1.00  0.00    -0.237 OA
ATOM     80  O   UNL A   1      46.049  25.233  37.894  1.00  0.00    -0.744 OA
ENDBRANCH  74  77
ENDBRANCH  56  70
BRANCH  57  81
ATOM     81  C   UNL A   1      42.912  34.758  28.741  1.00  0.00     0.023 A 
ATOM     82  C   UNL A   1      41.681  35.074  28.131  1.00  0.00     0.012 A 
ATOM     83  C   UNL A   1      44.032  35.575  28.491  1.00  0.00     0.148 A 
ATOM     84  C   UNL A   1      41.577  36.162  27.264  1.00  0.00     0.002 A 
ATOM     85  C   UNL A   1      43.906  36.690  27.670  1.00  0.00     0.091 A 
ATOM     86  F   UNL A   1      45.198  35.248  29.065  1.00  0.00    -0.205 F 
ATOM     87  C   UNL A   1      42.686  36.976  27.041  1.00  0.00     0.022 A 
BRANCH  85  88
ATOM     88  S   UNL A   1      45.247  37.863  27.431  1.00  0.00     0.127 S 
ATOM     89  O   UNL A   1      45.752  38.021  28.792  1.00  0.00    -0.237 OA
ATOM     90  O   UNL A   1      46.131  37.131  26.525  1.00  0.00    -0.237 OA
ATOM     91  O   UNL A   1      44.632  39.045  26.841  1.00  0.00    -0.744 OA
ENDBRANCH  85  88
ENDBRANCH  57  81
BRANCH  69  92
ATOM     92  C   UNL A   1      41.135  33.646  35.418  1.00  0.00     0.023 A 
ATOM     93  C   UNL A   1      39.748  33.692  35.652  1.00  0.00     0.012 A 
ATOM     94  C   UNL A   1      42.010  34.327  36.291  1.00  0.00     0.148 A 
ATOM     95  C   UNL A   1      39.238  34.414  36.730  1.00  0.00     0.002 A 
ATOM     96  C   UNL A   1      41.498  35.003  37.390  1.00  0.00     0.091 A 
ATOM     97  F   UNL A   1      43.325  34.279  36.038  1.00  0.00    -0.205 F 
ATOM     98  C   UNL A   1      40.112  35.056  37.606  1.00  0.00     0.022 A 
BRANCH  96  99
ATOM     99  S   UNL A   1      42.550  35.771  38.627  1.00  0.00     0.127 S 
ATOM    100  O   UNL A   1      43.383  36.649  37.806  1.00  0.00    -0.237 OA
ATOM    101  O   UNL A   1      41.577  36.465  39.471  1.00  0.00    -0.237 OA
ATOM    102  O   UNL A   1      43.258  34.683  39.288  1.00  0.00    -0.744 OA
ENDBRANCH  96  99
ENDBRANCH  69  92
ENDBRANCH  43  44
ENDBRANCH  36  38
ENDBRANCH  35  36
ENDBRANCH  34  35
ENDBRANCH  33  34
ENDBRANCH  32  33
ENDBRANCH  31  32
ENDBRANCH  30  31
ENDBRANCH   1  30
TORSDOF 26
ENDMDL
MODEL 3
REMARK VINA RESULT:      -8.8      4.900     10.588
REMARK SMILES CCCCCCNC(=O)Oc1cccc(-c2ccc([C@@H](C)C(=O)OCCOCCOC(=O)c3ccc(-c4c5nc(c(-c6cccc(S(=O)(=O)[O-])c6F)c6ccc([nH]6)c(-c6cccc(S(=O)(=O)[O-])c6F)c6nc(c(-c7cccc(S(=O)(=O)[O-])c7F)c7ccc4[nH]7)C=C6)C=C5)cc3)cc2F)c1
REMARK SMILES IDX 24 1 22 2 23 3 20 4 21 5 19 6 16 7 17 8 97 9 18 10 96 11
REMARK SMILES IDX 98 12 15 13 11 14 12 15 99 16 13 17 14 18 10 19 8 20 7 21
REMARK SMILES IDX 9 23 6 24 5 25 4 26 3 27 2 28 1 29 25 30 26 31 27 32 28 33
REMARK SMILES IDX 29 34 30 35 31 36 32 37 33 38 34 39 95 40 35 41 94 42 36 43
REMARK SMILES IDX 37 44 38 45 88 46 39 47 93 48 87 49 89 50 40 51 92 52 86 53
REMARK SMILES IDX 85 54 41 56 73 57 53 58 72 59 54 60 57 61 71 62 90 63 55 64
REMARK SMILES IDX 56 65 70 67 91 68 58 69 42 70 43 71 51 72 44 73 46 74 52 75
REMARK SMILES IDX 45 76 47 77 48 78 49 79 50 80 74 81 75 82 83 83 76 84 78 85
REMARK SMILES IDX 84 86 77 87 79 88 80 89 81 90 82 91 59 92 60 93 68 94 61 95
REMARK SMILES IDX 63 96 69 97 62 98 64 99 65 100 66 101 67 102
REMARK H PARENT 7 22 89 55 57 66
REMARK Flexibility Score: inf
ROOT
ATOM      1  O   UNL A   1      37.122  31.340  32.628  1.00  0.00    -0.463 OA
ENDROOT
BRANCH   1   2
ATOM      2  C   UNL A   1      36.846  30.656  31.489  1.00  0.00     0.313 C 
ATOM      3  O   UNL A   1      36.124  29.665  31.430  1.00  0.00    -0.252 OA
BRANCH   2   4
ATOM      4  C   UNL A   1      37.543  31.209  30.257  1.00  0.00     0.126 C 
ATOM      5  C   UNL A   1      36.542  32.004  29.424  1.00  0.00     0.025 C 
BRANCH   4   6
ATOM      6  C   UNL A   1      38.358  30.245  29.401  1.00  0.00    -0.031 A 
ATOM      7  C   UNL A   1      40.064  28.670  27.729  1.00  0.00     0.018 A 
ATOM      8  C   UNL A   1      38.749  28.987  27.345  1.00  0.00     0.012 A 
ATOM      9  C   UNL A   1      40.478  29.114  28.992  1.00  0.00     0.131 A 
ATOM     10  C   UNL A   1      37.911  29.763  28.164  1.00  0.00     0.005 A 
ATOM     11  C   UNL A   1      39.650  29.882  29.815  1.00  0.00     0.044 A 
ATOM     12  F   UNL A   1      41.720  28.851  29.431  1.00  0.00    -0.206 F 
BRANCH   7  13
ATOM     13  C   UNL A   1      40.982  27.964  26.815  1.00  0.00    -0.012 A 
ATOM     14  C   UNL A   1      41.906  25.921  25.874  1.00  0.00     0.133 A 
ATOM     15  C   UNL A   1      42.829  26.645  25.126  1.00  0.00     0.047 A 
ATOM     16  C   UNL A   1      40.998  26.562  26.722  1.00  0.00     0.056 A 
ATOM     17  C   UNL A   1      42.826  28.034  25.204  1.00  0.00     0.004 A 
ATOM     18  C   UNL A   1      41.911  28.685  26.038  1.00  0.00     0.009 A 
BRANCH  14  19
ATOM     19  O   UNL A   1      42.012  24.521  25.826  1.00  0.00    -0.410 OA
BRANCH  19  20
ATOM     20  C   UNL A   1      41.505  23.790  26.887  1.00  0.00     0.412 C 
ATOM     21  N   UNL A   1      42.462  23.125  27.597  1.00  0.00    -0.321 N 
ATOM     22  H   UNL A   1      42.148  22.578  28.353  1.00  0.00     0.167 HD
ATOM     23  O   UNL A   1      40.319  23.709  27.211  1.00  0.00    -0.224 OA
BRANCH  21  24
ATOM     24  C   UNL A   1      43.894  23.136  27.360  1.00  0.00     0.119 C 
BRANCH  24  25
ATOM     25  C   UNL A   1      44.601  24.203  28.198  1.00  0.00     0.021 C 
BRANCH  25  26
ATOM     26  C   UNL A   1      43.860  24.616  29.476  1.00  0.00     0.002 C 
BRANCH  26  27
ATOM     27  C   UNL A   1      44.750  24.944  30.680  1.00  0.00    -0.000 C 
BRANCH  27  28
ATOM     28  C   UNL A   1      44.274  26.109  31.552  1.00  0.00    -0.003 C 
ATOM     29  C   UNL A   1      44.001  27.381  30.764  1.00  0.00     0.004 C 
ENDBRANCH  27  28
ENDBRANCH  26  27
ENDBRANCH  25  26
ENDBRANCH  24  25
ENDBRANCH  21  24
ENDBRANCH  19  20
ENDBRANCH  14  19
ENDBRANCH   7  13
ENDBRANCH   4   6
ENDBRANCH   2   4
ENDBRANCH   1   2
BRANCH   1  30
ATOM     30  C   UNL A   1      38.397  31.068  33.235  1.00  0.00     0.261 C 
BRANCH  30  31
ATOM     31  C   UNL A   1      38.281  30.979  34.758  1.00  0.00     0.202 C 
BRANCH  31  32
ATOM     32  O   UNL A   1      37.461  31.961  35.390  1.00  0.00    -0.374 OA
BRANCH  32  33
ATOM     33  C   UNL A   1      37.970  33.294  35.460  1.00  0.00     0.202 C 
BRANCH  33  34
ATOM     34  C   UNL A   1      37.287  34.349  34.579  1.00  0.00     0.261 C 
BRANCH  34  35
ATOM     35  O   UNL A   1      38.167  34.880  33.576  1.00  0.00    -0.460 OA
BRANCH  35  36
ATOM     36  C   UNL A   1      37.801  34.614  32.297  1.00  0.00     0.338 C 
ATOM     37  O   UNL A   1      36.681  34.678  31.823  1.00  0.00    -0.246 OA
BRANCH  36  38
ATOM     38  C   UNL A   1      39.006  34.420  31.466  1.00  0.00     0.060 A 
ATOM     39  C   UNL A   1      40.214  34.154  32.128  1.00  0.00     0.016 A 
ATOM     40  C   UNL A   1      38.972  34.569  30.080  1.00  0.00     0.016 A 
ATOM     41  C   UNL A   1      41.407  34.096  31.410  1.00  0.00     0.010 A 
ATOM     42  C   UNL A   1      40.169  34.519  29.363  1.00  0.00     0.010 A 
ATOM     43  C   UNL A   1      41.395  34.324  30.029  1.00  0.00    -0.014 A 
BRANCH  43  44
ATOM     44  C   UNL A   1      42.665  34.544  29.297  1.00  0.00     0.031 A 
ATOM     45  C   UNL A   1      43.534  33.351  29.003  1.00  0.00     0.074 A 
ATOM     46  C   UNL A   1      43.058  35.778  28.937  1.00  0.00     0.049 A 
ATOM     47  N   UNL A   1      44.744  33.309  28.512  1.00  0.00    -0.248 NA
ATOM     48  C   UNL A   1      42.962  32.029  29.311  1.00  0.00     0.031 C 
ATOM     49  C   UNL A   1      42.289  37.004  29.143  1.00  0.00     0.029 A 
ATOM     50  N   UNL A   1      44.228  36.206  28.358  1.00  0.00    -0.354 N 
ATOM     51  C   UNL A   1      45.099  31.965  28.499  1.00  0.00     0.074 A 
ATOM     52  C   UNL A   1      43.974  31.223  29.024  1.00  0.00     0.031 C 
ATOM     53  C   UNL A   1      43.027  38.053  28.740  1.00  0.00     0.029 A 
ATOM     54  C   UNL A   1      44.331  37.575  28.284  1.00  0.00     0.049 A 
ATOM     55  H   UNL A   1      44.923  35.592  28.028  1.00  0.00     0.167 HD
ATOM     56  C   UNL A   1      46.255  31.400  28.082  1.00  0.00     0.034 A 
ATOM     57  C   UNL A   1      45.375  38.352  27.929  1.00  0.00     0.034 A 
ATOM     58  C   UNL A   1      47.357  32.141  27.534  1.00  0.00     0.049 A 
ATOM     59  C   UNL A   1      46.663  37.701  27.493  1.00  0.00     0.074 A 
ATOM     60  C   UNL A   1      48.557  31.659  27.043  1.00  0.00     0.029 A 
ATOM     61  N   UNL A   1      47.398  33.521  27.415  1.00  0.00    -0.354 N 
ATOM     62  N   UNL A   1      46.951  36.425  27.397  1.00  0.00    -0.248 NA
ATOM     63  C   UNL A   1      47.762  38.591  27.092  1.00  0.00     0.031 C 
ATOM     64  C   UNL A   1      49.335  32.750  26.649  1.00  0.00     0.029 A 
ATOM     65  C   UNL A   1      48.606  33.909  26.864  1.00  0.00     0.049 A 
ATOM     66  H   UNL A   1      46.675  34.133  27.682  1.00  0.00     0.167 HD
ATOM     67  C   UNL A   1      48.239  36.361  26.877  1.00  0.00     0.074 A 
ATOM     68  C   UNL A   1      48.679  37.725  26.678  1.00  0.00     0.031 C 
ATOM     69  C   UNL A   1      48.994  35.270  26.598  1.00  0.00     0.034 A 
BRANCH  56  70
ATOM     70  C   UNL A   1      46.386  29.904  28.184  1.00  0.00     0.023 A 
ATOM     71  C   UNL A   1      45.847  29.084  27.174  1.00  0.00     0.012 A 
ATOM     72  C   UNL A   1      47.103  29.318  29.245  1.00  0.00     0.148 A 
ATOM     73  C   UNL A   1      45.996  27.699  27.231  1.00  0.00     0.002 A 
ATOM     74  C   UNL A   1      47.286  27.940  29.272  1.00  0.00     0.091 A 
ATOM     75  F   UNL A   1      47.589  30.115  30.207  1.00  0.00    -0.205 F 
ATOM     76  C   UNL A   1      46.725  27.129  28.272  1.00  0.00     0.022 A 
BRANCH  74  77
ATOM     77  S   UNL A   1      48.277  27.120  30.527  1.00  0.00     0.127 S 
ATOM     78  O   UNL A   1      47.528  27.427  31.743  1.00  0.00    -0.237 OA
ATOM     79  O   UNL A   1      48.209  25.720  30.106  1.00  0.00    -0.237 OA
ATOM     80  O   UNL A   1      49.604  27.715  30.444  1.00  0.00    -0.744 OA
ENDBRANCH  74  77
ENDBRANCH  56  70
BRANCH  57  81
ATOM     81  C   UNL A   1      45.243  39.837  27.957  1.00  0.00     0.023 A 
ATOM     82  C   UNL A   1      45.450  40.530  29.166  1.00  0.00     0.012 A 
ATOM     83  C   UNL A   1      44.926  40.565  26.793  1.00  0.00     0.148 A 
ATOM     84  C   UNL A   1      45.312  41.917  29.222  1.00  0.00     0.002 A 
ATOM     85  C   UNL A   1      44.845  41.952  26.845  1.00  0.00     0.091 A 
ATOM     86  F   UNL A   1      44.715  39.887  25.657  1.00  0.00    -0.205 F 
ATOM     87  C   UNL A   1      45.020  42.629  28.061  1.00  0.00     0.022 A 
BRANCH  85  88
ATOM     88  S   UNL A   1      44.602  42.956  25.374  1.00  0.00     0.127 S 
ATOM     89  O   UNL A   1      44.769  44.307  25.903  1.00  0.00    -0.237 OA
ATOM     90  O   UNL A   1      45.686  42.493  24.509  1.00  0.00    -0.237 OA
ATOM     91  O   UNL A   1      43.267  42.625  24.891  1.00  0.00    -0.744 OA
ENDBRANCH  85  88
ENDBRANCH  57  81
BRANCH  69  92
ATOM     92  C   UNL A   1      50.348  35.479  25.975  1.00  0.00     0.023 A 
ATOM     93  C   UNL A   1      50.465  35.671  24.585  1.00  0.00     0.012 A 
ATOM     94  C   UNL A   1      51.488  35.619  26.794  1.00  0.00     0.148 A 
ATOM     95  C   UNL A   1      51.700  35.984  24.018  1.00  0.00     0.002 A 
ATOM     96  C   UNL A   1      52.704  35.979  26.227  1.00  0.00     0.091 A 
ATOM     97  F   UNL A   1      51.354  35.417  28.112  1.00  0.00    -0.205 F 
ATOM     98  C   UNL A   1      52.814  36.153  24.838  1.00  0.00     0.022 A 
BRANCH  96  99
ATOM     99  S   UNL A   1      54.166  36.319  27.213  1.00  0.00     0.127 S 
ATOM    100  O   UNL A   1      55.160  36.611  26.181  1.00  0.00    -0.237 OA
ATOM    101  O   UNL A   1      53.744  37.479  28.000  1.00  0.00    -0.237 OA
ATOM    102  O   UNL A   1      54.417  35.115  27.994  1.00  0.00    -0.744 OA
ENDBRANCH  96  99
ENDBRANCH  69  92
ENDBRANCH  43  44
ENDBRANCH  36  38
ENDBRANCH  35  36
ENDBRANCH  34  35
ENDBRANCH  33  34
ENDBRANCH  32  33
ENDBRANCH  31  32
ENDBRANCH  30  31
ENDBRANCH   1  30
TORSDOF 26
ENDMDL
