MODEL 1
REMARK VINA RESULT:     -10.4      0.000      0.000
REMARK SMILES O=C(COc1ccc(F)cc1)Nc1sccc1C(=O)OCCOCCOC(=O)c1ccc(-c2c3nc(c(-c4cccc(S(=O)(=O)[O-])c4F)c4ccc([nH]4)c(-c4cccc(S(=O)(=O)[O-])c4F)c4nc(c(-c5cccc(S(=O)(=O)[O-])c5F)c5ccc2[nH]5)C=C4)C=C3)cc1
REMARK SMILES IDX 22 1 21 2 20 3 18 4 19 5 17 6 13 7 14 8 15 9 16 10 12 11
REMARK SMILES IDX 1 12 2 13 3 15 4 16 5 17 6 18 11 19 7 20 10 21 8 22 9 23
REMARK SMILES IDX 23 24 24 25 25 26 26 27 27 28 28 29 29 30 30 31 91 32 31 33
REMARK SMILES IDX 90 34 32 35 33 36 34 37 84 38 35 39 89 40 83 41 85 42 36 43
REMARK SMILES IDX 88 44 82 45 81 46 37 48 69 49 49 50 68 51 50 52 53 53 67 54
REMARK SMILES IDX 86 55 51 56 52 57 66 59 87 60 54 61 38 62 39 63 47 64 40 65
REMARK SMILES IDX 42 66 48 67 41 68 43 69 44 70 45 71 46 72 70 73 71 74 79 75
REMARK SMILES IDX 72 76 74 77 80 78 73 79 75 80 76 81 77 82 78 83 55 84 56 85
REMARK SMILES IDX 64 86 57 87 59 88 65 89 58 90 60 91 61 92 62 93 63 94
REMARK H PARENT 12 14 85 47 53 58
REMARK Flexibility Score: inf
ROOT
ATOM      1  C   UNL A   1      37.273  21.306  25.686  1.00  0.00     0.202 C 
ENDROOT
BRANCH   1   2
ATOM      2  C   UNL A   1      36.153  21.781  24.758  1.00  0.00     0.261 C 
BRANCH   2   3
ATOM      3  O   UNL A   1      35.066  22.258  25.561  1.00  0.00    -0.460 OA
BRANCH   3   4
ATOM      4  C   UNL A   1      34.933  23.607  25.671  1.00  0.00     0.341 C 
ATOM      5  O   UNL A   1      35.854  24.413  25.584  1.00  0.00    -0.246 OA
BRANCH   4   6
ATOM      6  C   UNL A   1      33.533  24.018  25.626  1.00  0.00     0.094 A 
ATOM      7  C   UNL A   1      32.450  23.296  25.161  1.00  0.00     0.110 A 
ATOM      8  S   UNL A   1      31.030  24.242  25.040  1.00  0.00    -0.126 S 
ATOM      9  C   UNL A   1      31.785  25.588  25.761  1.00  0.00     0.068 A 
ATOM     10  C   UNL A   1      33.111  25.339  26.029  1.00  0.00     0.029 A 
BRANCH   7  11
ATOM     11  N   UNL A   1      32.201  21.993  24.796  1.00  0.00    -0.314 N 
ATOM     12  O   UNL A   1      32.669  22.107  22.515  1.00  0.00    -0.271 OA
ATOM     13  C   UNL A   1      32.368  21.477  23.523  1.00  0.00     0.262 C 
ATOM     14  H   UNL A   1      31.880  21.380  25.497  1.00  0.00     0.170 HD
BRANCH  13  15
ATOM     15  C   UNL A   1      32.202  19.957  23.509  1.00  0.00     0.329 C 
BRANCH  15  16
ATOM     16  O   UNL A   1      32.227  19.442  24.847  1.00  0.00    -0.484 OA
BRANCH  16  17
ATOM     17  C   UNL A   1      33.063  18.356  24.919  1.00  0.00     0.120 A 
ATOM     18  C   UNL A   1      32.558  17.113  25.306  1.00  0.00     0.049 A 
ATOM     19  C   UNL A   1      34.403  18.501  24.565  1.00  0.00     0.049 A 
ATOM     20  C   UNL A   1      33.418  16.019  25.395  1.00  0.00     0.043 A 
ATOM     21  C   UNL A   1      35.259  17.401  24.648  1.00  0.00     0.043 A 
ATOM     22  C   UNL A   1      34.761  16.173  25.068  1.00  0.00     0.123 A 
ATOM     23  F   UNL A   1      35.577  15.113  25.154  1.00  0.00    -0.207 F 
ENDBRANCH  16  17
ENDBRANCH  15  16
ENDBRANCH  13  15
ENDBRANCH   7  11
ENDBRANCH   4   6
ENDBRANCH   3   4
ENDBRANCH   2   3
ENDBRANCH   1   2
BRANCH   1  24
ATOM     24  O   UNL A   1      38.356  22.231  25.830  1.00  0.00    -0.374 OA
BRANCH  24  25
ATOM     25  C   UNL A   1      39.643  21.687  26.123  1.00  0.00     0.202 C 
BRANCH  25  26
ATOM     26  C   UNL A   1      39.738  20.158  26.106  1.00  0.00     0.261 C 
BRANCH  26  27
ATOM     27  O   UNL A   1      40.878  19.676  25.374  1.00  0.00    -0.460 OA
BRANCH  27  28
ATOM     28  C   UNL A   1      41.988  19.473  26.125  1.00  0.00     0.338 C 
ATOM     29  O   UNL A   1      42.444  18.402  26.491  1.00  0.00    -0.246 OA
BRANCH  28  30
ATOM     30  C   UNL A   1      42.689  20.749  26.363  1.00  0.00     0.060 A 
ATOM     31  C   UNL A   1      42.791  21.198  27.685  1.00  0.00     0.016 A 
ATOM     32  C   UNL A   1      43.139  21.544  25.307  1.00  0.00     0.016 A 
ATOM     33  C   UNL A   1      43.301  22.468  27.954  1.00  0.00     0.010 A 
ATOM     34  C   UNL A   1      43.640  22.822  25.578  1.00  0.00     0.010 A 
ATOM     35  C   UNL A   1      43.691  23.302  26.899  1.00  0.00    -0.014 A 
BRANCH  35  36
ATOM     36  C   UNL A   1      44.043  24.717  27.165  1.00  0.00     0.031 A 
ATOM     37  C   UNL A   1      45.472  25.162  27.012  1.00  0.00     0.074 A 
ATOM     38  C   UNL A   1      43.100  25.594  27.549  1.00  0.00     0.049 A 
ATOM     39  N   UNL A   1      45.998  26.337  27.239  1.00  0.00    -0.248 NA
ATOM     40  C   UNL A   1      46.434  24.152  26.540  1.00  0.00     0.031 C 
ATOM     41  C   UNL A   1      41.682  25.287  27.720  1.00  0.00     0.029 A 
ATOM     42  N   UNL A   1      43.202  26.921  27.888  1.00  0.00    -0.354 N 
ATOM     43  C   UNL A   1      47.353  26.206  26.959  1.00  0.00     0.074 A 
ATOM     44  C   UNL A   1      47.570  24.835  26.551  1.00  0.00     0.031 C 
ATOM     45  C   UNL A   1      41.049  26.387  28.162  1.00  0.00     0.029 A 
ATOM     46  C   UNL A   1      42.021  27.469  28.322  1.00  0.00     0.049 A 
ATOM     47  H   UNL A   1      44.044  27.429  27.826  1.00  0.00     0.167 HD
ATOM     48  C   UNL A   1      48.324  27.147  27.015  1.00  0.00     0.034 A 
ATOM     49  C   UNL A   1      41.755  28.698  28.810  1.00  0.00     0.034 A 
ATOM     50  C   UNL A   1      48.106  28.516  27.394  1.00  0.00     0.049 A 
ATOM     51  C   UNL A   1      42.859  29.717  28.895  1.00  0.00     0.074 A 
ATOM     52  C   UNL A   1      49.025  29.550  27.442  1.00  0.00     0.029 A 
ATOM     53  N   UNL A   1      46.890  29.043  27.798  1.00  0.00    -0.354 N 
ATOM     54  N   UNL A   1      44.111  29.609  28.523  1.00  0.00    -0.248 NA
ATOM     55  C   UNL A   1      42.509  31.038  29.442  1.00  0.00     0.031 C 
ATOM     56  C   UNL A   1      48.365  30.701  27.885  1.00  0.00     0.029 A 
ATOM     57  C   UNL A   1      47.034  30.384  28.105  1.00  0.00     0.049 A 
ATOM     58  H   UNL A   1      46.047  28.537  27.856  1.00  0.00     0.167 HD
ATOM     59  C   UNL A   1      44.693  30.848  28.769  1.00  0.00     0.074 A 
ATOM     60  C   UNL A   1      43.651  31.701  29.302  1.00  0.00     0.031 C 
ATOM     61  C   UNL A   1      45.979  31.238  28.588  1.00  0.00     0.034 A 
BRANCH  48  62
ATOM     62  C   UNL A   1      49.714  26.744  26.608  1.00  0.00     0.023 A 
ATOM     63  C   UNL A   1      50.475  25.935  27.476  1.00  0.00     0.012 A 
ATOM     64  C   UNL A   1      50.234  27.094  25.348  1.00  0.00     0.148 A 
ATOM     65  C   UNL A   1      51.741  25.490  27.101  1.00  0.00     0.002 A 
ATOM     66  C   UNL A   1      51.486  26.620  24.968  1.00  0.00     0.091 A 
ATOM     67  F   UNL A   1      49.504  27.887  24.552  1.00  0.00    -0.205 F 
ATOM     68  C   UNL A   1      52.242  25.824  25.844  1.00  0.00     0.022 A 
BRANCH  66  69
ATOM     69  S   UNL A   1      52.187  26.945  23.347  1.00  0.00     0.127 S 
ATOM     70  O   UNL A   1      52.706  28.302  23.517  1.00  0.00    -0.237 OA
ATOM     71  O   UNL A   1      53.215  25.909  23.239  1.00  0.00    -0.237 OA
ATOM     72  O   UNL A   1      51.088  26.808  22.402  1.00  0.00    -0.744 OA
ENDBRANCH  66  69
ENDBRANCH  48  62
BRANCH  49  73
ATOM     73  C   UNL A   1      40.367  29.036  29.226  1.00  0.00     0.023 A 
ATOM     74  C   UNL A   1      39.429  29.431  28.255  1.00  0.00     0.012 A 
ATOM     75  C   UNL A   1      39.962  28.922  30.570  1.00  0.00     0.148 A 
ATOM     76  C   UNL A   1      38.113  29.721  28.615  1.00  0.00     0.002 A 
ATOM     77  C   UNL A   1      38.639  29.167  30.916  1.00  0.00     0.091 A 
ATOM     78  F   UNL A   1      40.875  28.554  31.479  1.00  0.00    -0.205 F 
ATOM     79  C   UNL A   1      37.715  29.579  29.942  1.00  0.00     0.022 A 
BRANCH  77  80
ATOM     80  S   UNL A   1      38.011  28.898  32.576  1.00  0.00     0.127 S 
ATOM     81  O   UNL A   1      38.218  27.463  32.749  1.00  0.00    -0.237 OA
ATOM     82  O   UNL A   1      38.893  29.750  33.373  1.00  0.00    -0.237 OA
ATOM     83  O   UNL A   1      36.622  29.335  32.551  1.00  0.00    -0.744 OA
ENDBRANCH  77  80
ENDBRANCH  49  73
BRANCH  61  84
ATOM     84  C   UNL A   1      46.349  32.648  28.962  1.00  0.00     0.023 A 
ATOM     85  C   UNL A   1      46.933  32.896  30.219  1.00  0.00     0.012 A 
ATOM     86  C   UNL A   1      46.226  33.703  28.036  1.00  0.00     0.148 A 
ATOM     87  C   UNL A   1      47.374  34.175  30.556  1.00  0.00     0.002 A 
ATOM     88  C   UNL A   1      46.705  34.967  28.363  1.00  0.00     0.091 A 
ATOM     89  F   UNL A   1      45.647  33.452  26.852  1.00  0.00    -0.205 F 
ATOM     90  C   UNL A   1      47.274  35.207  29.624  1.00  0.00     0.022 A 
BRANCH  88  91
ATOM     91  S   UNL A   1      46.696  36.322  27.183  1.00  0.00     0.127 S 
ATOM     92  O   UNL A   1      46.651  37.486  28.065  1.00  0.00    -0.237 OA
ATOM     93  O   UNL A   1      47.966  36.140  26.480  1.00  0.00    -0.237 OA
ATOM     94  O   UNL A   1      45.518  36.111  26.352  1.00  0.00    -0.744 OA
ENDBRANCH  88  91
ENDBRANCH  61  84
ENDBRANCH  35  36
ENDBRANCH  28  30
ENDBRANCH  27  28
ENDBRANCH  26  27
ENDBRANCH  25  26
ENDBRANCH  24  25
ENDBRANCH   1  24
TORSDOF 21
ENDMDL
MODEL 2
REMARK VINA RESULT:     -10.3      1.654      7.680
REMARK SMILES O=C(COc1ccc(F)cc1)Nc1sccc1C(=O)OCCOCCOC(=O)c1ccc(-c2c3nc(c(-c4cccc(S(=O)(=O)[O-])c4F)c4ccc([nH]4)c(-c4cccc(S(=O)(=O)[O-])c4F)c4nc(c(-c5cccc(S(=O)(=O)[O-])c5F)c5ccc2[nH]5)C=C4)C=C3)cc1
REMARK SMILES IDX 22 1 21 2 20 3 18 4 19 5 17 6 13 7 14 8 15 9 16 10 12 11
REMARK SMILES IDX 1 12 2 13 3 15 4 16 5 17 6 18 11 19 7 20 10 21 8 22 9 23
REMARK SMILES IDX 23 24 24 25 25 26 26 27 27 28 28 29 29 30 30 31 91 32 31 33
REMARK SMILES IDX 90 34 32 35 33 36 34 37 84 38 35 39 89 40 83 41 85 42 36 43
REMARK SMILES IDX 88 44 82 45 81 46 37 48 69 49 49 50 68 51 50 52 53 53 67 54
REMARK SMILES IDX 86 55 51 56 52 57 66 59 87 60 54 61 38 62 39 63 47 64 40 65
REMARK SMILES IDX 42 66 48 67 41 68 43 69 44 70 45 71 46 72 70 73 71 74 79 75
REMARK SMILES IDX 72 76 74 77 80 78 73 79 75 80 76 81 77 82 78 83 55 84 56 85
REMARK SMILES IDX 64 86 57 87 59 88 65 89 58 90 60 91 61 92 62 93 63 94
REMARK H PARENT 12 14 85 47 53 58
REMARK Flexibility Score: inf
ROOT
ATOM      1  C   UNL A   1      36.492  22.694  24.134  1.00  0.00     0.202 C 
ENDROOT
BRANCH   1   2
ATOM      2  C   UNL A   1      35.745  24.029  24.146  1.00  0.00     0.261 C 
BRANCH   2   3
ATOM      3  O   UNL A   1      34.693  23.972  23.175  1.00  0.00    -0.460 OA
BRANCH   3   4
ATOM      4  C   UNL A   1      34.031  25.133  22.922  1.00  0.00     0.341 C 
ATOM      5  O   UNL A   1      33.813  25.588  21.803  1.00  0.00    -0.246 OA
BRANCH   4   6
ATOM      6  C   UNL A   1      33.362  25.645  24.114  1.00  0.00     0.094 A 
ATOM      7  C   UNL A   1      32.596  24.944  25.026  1.00  0.00     0.110 A 
ATOM      8  S   UNL A   1      31.779  25.969  26.125  1.00  0.00    -0.126 S 
ATOM      9  C   UNL A   1      32.559  27.356  25.517  1.00  0.00     0.068 A 
ATOM     10  C   UNL A   1      33.376  27.049  24.455  1.00  0.00     0.029 A 
BRANCH   7  11
ATOM     11  N   UNL A   1      32.340  23.623  25.307  1.00  0.00    -0.314 N 
ATOM     12  O   UNL A   1      31.232  22.994  23.355  1.00  0.00    -0.271 OA
ATOM     13  C   UNL A   1      31.723  22.730  24.447  1.00  0.00     0.262 C 
ATOM     14  H   UNL A   1      32.619  23.285  26.189  1.00  0.00     0.170 HD
BRANCH  13  15
ATOM     15  C   UNL A   1      31.780  21.301  24.987  1.00  0.00     0.329 C 
BRANCH  15  16
ATOM     16  O   UNL A   1      33.138  20.925  25.255  1.00  0.00    -0.484 OA
BRANCH  16  17
ATOM     17  C   UNL A   1      33.422  19.725  24.655  1.00  0.00     0.120 A 
ATOM     18  C   UNL A   1      32.482  19.129  23.810  1.00  0.00     0.049 A 
ATOM     19  C   UNL A   1      34.665  19.133  24.865  1.00  0.00     0.049 A 
ATOM     20  C   UNL A   1      32.771  17.900  23.218  1.00  0.00     0.043 A 
ATOM     21  C   UNL A   1      34.953  17.906  24.264  1.00  0.00     0.043 A 
ATOM     22  C   UNL A   1      34.002  17.298  23.452  1.00  0.00     0.123 A 
ATOM     23  F   UNL A   1      34.269  16.119  22.875  1.00  0.00    -0.207 F 
ENDBRANCH  16  17
ENDBRANCH  15  16
ENDBRANCH  13  15
ENDBRANCH   7  11
ENDBRANCH   4   6
ENDBRANCH   3   4
ENDBRANCH   2   3
ENDBRANCH   1   2
BRANCH   1  24
ATOM     24  O   UNL A   1      37.681  22.672  24.931  1.00  0.00    -0.374 OA
BRANCH  24  25
ATOM     25  C   UNL A   1      38.003  21.446  25.588  1.00  0.00     0.202 C 
BRANCH  25  26
ATOM     26  C   UNL A   1      39.453  21.309  26.066  1.00  0.00     0.261 C 
BRANCH  26  27
ATOM     27  O   UNL A   1      39.847  19.941  26.274  1.00  0.00    -0.460 OA
BRANCH  27  28
ATOM     28  C   UNL A   1      41.175  19.709  26.139  1.00  0.00     0.338 C 
ATOM     29  O   UNL A   1      41.707  18.677  25.764  1.00  0.00    -0.246 OA
BRANCH  28  30
ATOM     30  C   UNL A   1      41.942  20.942  26.395  1.00  0.00     0.060 A 
ATOM     31  C   UNL A   1      42.218  21.272  27.727  1.00  0.00     0.016 A 
ATOM     32  C   UNL A   1      42.289  21.815  25.361  1.00  0.00     0.016 A 
ATOM     33  C   UNL A   1      42.799  22.501  28.037  1.00  0.00     0.010 A 
ATOM     34  C   UNL A   1      42.862  23.052  25.674  1.00  0.00     0.010 A 
ATOM     35  C   UNL A   1      43.088  23.414  27.014  1.00  0.00    -0.014 A 
BRANCH  35  36
ATOM     36  C   UNL A   1      43.518  24.792  27.353  1.00  0.00     0.031 A 
ATOM     37  C   UNL A   1      42.515  25.761  27.915  1.00  0.00     0.074 A 
ATOM     38  C   UNL A   1      44.790  25.178  27.152  1.00  0.00     0.049 A 
ATOM     39  N   UNL A   1      42.672  27.019  28.233  1.00  0.00    -0.248 NA
ATOM     40  C   UNL A   1      41.156  25.245  28.151  1.00  0.00     0.031 C 
ATOM     41  C   UNL A   1      45.856  24.328  26.626  1.00  0.00     0.029 A 
ATOM     42  N   UNL A   1      45.393  26.396  27.347  1.00  0.00    -0.354 N 
ATOM     43  C   UNL A   1      41.433  27.453  28.687  1.00  0.00     0.074 A 
ATOM     44  C   UNL A   1      40.531  26.326  28.598  1.00  0.00     0.031 C 
ATOM     45  C   UNL A   1      46.978  25.059  26.510  1.00  0.00     0.029 A 
ATOM     46  C   UNL A   1      46.703  26.431  26.936  1.00  0.00     0.049 A 
ATOM     47  H   UNL A   1      44.929  27.169  27.742  1.00  0.00     0.167 HD
ATOM     48  C   UNL A   1      41.083  28.673  29.157  1.00  0.00     0.034 A 
ATOM     49  C   UNL A   1      47.577  27.457  26.892  1.00  0.00     0.034 A 
ATOM     50  C   UNL A   1      41.983  29.787  29.271  1.00  0.00     0.049 A 
ATOM     51  C   UNL A   1      47.154  28.815  27.388  1.00  0.00     0.074 A 
ATOM     52  C   UNL A   1      41.725  31.051  29.773  1.00  0.00     0.029 A 
ATOM     53  N   UNL A   1      43.311  29.778  28.875  1.00  0.00    -0.354 N 
ATOM     54  N   UNL A   1      46.011  29.179  27.916  1.00  0.00    -0.248 NA
ATOM     55  C   UNL A   1      48.149  29.896  27.308  1.00  0.00     0.031 C 
ATOM     56  C   UNL A   1      42.896  31.810  29.670  1.00  0.00     0.029 A 
ATOM     57  C   UNL A   1      43.884  31.014  29.111  1.00  0.00     0.049 A 
ATOM     58  H   UNL A   1      43.777  29.003  28.483  1.00  0.00     0.167 HD
ATOM     59  C   UNL A   1      46.154  30.522  28.250  1.00  0.00     0.074 A 
ATOM     60  C   UNL A   1      47.503  30.902  27.886  1.00  0.00     0.031 C 
ATOM     61  C   UNL A   1      45.243  31.368  28.791  1.00  0.00     0.034 A 
BRANCH  48  62
ATOM     62  C   UNL A   1      39.669  28.861  29.633  1.00  0.00     0.023 A 
ATOM     63  C   UNL A   1      39.329  28.471  30.944  1.00  0.00     0.012 A 
ATOM     64  C   UNL A   1      38.706  29.490  28.822  1.00  0.00     0.148 A 
ATOM     65  C   UNL A   1      38.044  28.693  31.438  1.00  0.00     0.002 A 
ATOM     66  C   UNL A   1      37.435  29.735  29.332  1.00  0.00     0.091 A 
ATOM     67  F   UNL A   1      39.044  29.826  27.569  1.00  0.00    -0.205 F 
ATOM     68  C   UNL A   1      37.102  29.333  30.636  1.00  0.00     0.022 A 
BRANCH  66  69
ATOM     69  S   UNL A   1      36.174  30.610  28.399  1.00  0.00     0.127 S 
ATOM     70  O   UNL A   1      35.040  30.564  29.321  1.00  0.00    -0.237 OA
ATOM     71  O   UNL A   1      36.772  31.935  28.234  1.00  0.00    -0.237 OA
ATOM     72  O   UNL A   1      36.006  29.864  27.160  1.00  0.00    -0.744 OA
ENDBRANCH  66  69
ENDBRANCH  48  62
BRANCH  49  73
ATOM     73  C   UNL A   1      48.955  27.224  26.384  1.00  0.00     0.023 A 
ATOM     74  C   UNL A   1      49.916  26.639  27.229  1.00  0.00     0.012 A 
ATOM     75  C   UNL A   1      49.304  27.535  25.055  1.00  0.00     0.148 A 
ATOM     76  C   UNL A   1      51.206  26.379  26.765  1.00  0.00     0.002 A 
ATOM     77  C   UNL A   1      50.576  27.232  24.585  1.00  0.00     0.091 A 
ATOM     78  F   UNL A   1      48.376  28.102  24.272  1.00  0.00    -0.205 F 
ATOM     79  C   UNL A   1      51.533  26.665  25.442  1.00  0.00     0.022 A 
BRANCH  77  80
ATOM     80  S   UNL A   1      51.048  27.458  22.868  1.00  0.00     0.127 S 
ATOM     81  O   UNL A   1      50.031  26.677  22.169  1.00  0.00    -0.237 OA
ATOM     82  O   UNL A   1      50.930  28.907  22.712  1.00  0.00    -0.237 OA
ATOM     83  O   UNL A   1      52.411  26.955  22.762  1.00  0.00    -0.744 OA
ENDBRANCH  77  80
ENDBRANCH  49  73
BRANCH  61  84
ATOM     84  C   UNL A   1      45.660  32.794  29.033  1.00  0.00     0.023 A 
ATOM     85  C   UNL A   1      46.388  33.111  30.196  1.00  0.00     0.012 A 
ATOM     86  C   UNL A   1      45.434  33.792  28.064  1.00  0.00     0.148 A 
ATOM     87  C   UNL A   1      46.869  34.404  30.400  1.00  0.00     0.002 A 
ATOM     88  C   UNL A   1      45.952  35.069  28.255  1.00  0.00     0.091 A 
ATOM     89  F   UNL A   1      44.720  33.477  26.973  1.00  0.00    -0.205 F 
ATOM     90  C   UNL A   1      46.665  35.378  29.425  1.00  0.00     0.022 A 
BRANCH  88  91
ATOM     91  S   UNL A   1      45.810  36.350  27.004  1.00  0.00     0.127 S 
ATOM     92  O   UNL A   1      44.369  36.382  26.769  1.00  0.00    -0.237 OA
ATOM     93  O   UNL A   1      46.340  37.528  27.693  1.00  0.00    -0.237 OA
ATOM     94  O   UNL A   1      46.625  35.897  25.884  1.00  0.00    -0.744 OA
ENDBRANCH  88  91
ENDBRANCH  61  84
ENDBRANCH  35  36
ENDBRANCH  28  30
ENDBRANCH  27  28
ENDBRANCH  26  27
ENDBRANCH  25  26
ENDBRANCH  24  25
ENDBRANCH   1  24
TORSDOF 21
ENDMDL
MODEL 3
REMARK VINA RESULT:     -10.1      5.211      8.470
REMARK SMILES O=C(COc1ccc(F)cc1)Nc1sccc1C(=O)OCCOCCOC(=O)c1ccc(-c2c3nc(c(-c4cccc(S(=O)(=O)[O-])c4F)c4ccc([nH]4)c(-c4cccc(S(=O)(=O)[O-])c4F)c4nc(c(-c5cccc(S(=O)(=O)[O-])c5F)c5ccc2[nH]5)C=C4)C=C3)cc1
REMARK SMILES IDX 22 1 21 2 20 3 18 4 19 5 17 6 13 7 14 8 15 9 16 10 12 11
REMARK SMILES IDX 1 12 2 13 3 15 4 16 5 17 6 18 11 19 7 20 10 21 8 22 9 23
REMARK SMILES IDX 23 24 24 25 25 26 26 27 27 28 28 29 29 30 30 31 91 32 31 33
REMARK SMILES IDX 90 34 32 35 33 36 34 37 84 38 35 39 89 40 83 41 85 42 36 43
REMARK SMILES IDX 88 44 82 45 81 46 37 48 69 49 49 50 68 51 50 52 53 53 67 54
REMARK SMILES IDX 86 55 51 56 52 57 66 59 87 60 54 61 38 62 39 63 47 64 40 65
REMARK SMILES IDX 42 66 48 67 41 68 43 69 44 70 45 71 46 72 70 73 71 74 79 75
REMARK SMILES IDX 72 76 74 77 80 78 73 79 75 80 76 81 77 82 78 83 55 84 56 85
REMARK SMILES IDX 64 86 57 87 59 88 65 89 58 90 60 91 61 92 62 93 63 94
REMARK H PARENT 12 14 85 47 53 58
REMARK Flexibility Score: inf
ROOT
ATOM      1  C   UNL A   1      33.170  27.541  25.262  1.00  0.00     0.202 C 
ENDROOT
BRANCH   1   2
ATOM      2  C   UNL A   1      33.812  26.736  24.131  1.00  0.00     0.261 C 
BRANCH   2   3
ATOM      3  O   UNL A   1      34.018  25.393  24.587  1.00  0.00    -0.460 OA
BRANCH   3   4
ATOM      4  C   UNL A   1      34.364  24.474  23.645  1.00  0.00     0.341 C 
ATOM      5  O   UNL A   1      34.118  24.571  22.446  1.00  0.00    -0.246 OA
BRANCH   4   6
ATOM      6  C   UNL A   1      35.304  23.490  24.170  1.00  0.00     0.094 A 
ATOM      7  C   UNL A   1      35.020  22.325  24.857  1.00  0.00     0.110 A 
ATOM      8  S   UNL A   1      36.416  21.596  25.525  1.00  0.00    -0.126 S 
ATOM      9  C   UNL A   1      37.447  22.724  24.772  1.00  0.00     0.068 A 
ATOM     10  C   UNL A   1      36.734  23.674  24.079  1.00  0.00     0.029 A 
BRANCH   7  11
ATOM     11  N   UNL A   1      33.901  21.570  25.122  1.00  0.00    -0.314 N 
ATOM     12  O   UNL A   1      32.946  21.489  22.997  1.00  0.00    -0.271 OA
ATOM     13  C   UNL A   1      32.970  21.167  24.179  1.00  0.00     0.262 C 
ATOM     14  H   UNL A   1      33.751  21.295  26.055  1.00  0.00     0.170 HD
BRANCH  13  15
ATOM     15  C   UNL A   1      31.969  20.173  24.770  1.00  0.00     0.329 C 
BRANCH  15  16
ATOM     16  O   UNL A   1      31.773  19.072  23.872  1.00  0.00    -0.484 OA
BRANCH  16  17
ATOM     17  C   UNL A   1      32.658  18.064  24.162  1.00  0.00     0.120 A 
ATOM     18  C   UNL A   1      32.719  17.543  25.457  1.00  0.00     0.049 A 
ATOM     19  C   UNL A   1      33.459  17.546  23.148  1.00  0.00     0.049 A 
ATOM     20  C   UNL A   1      33.634  16.532  25.749  1.00  0.00     0.043 A 
ATOM     21  C   UNL A   1      34.370  16.528  23.443  1.00  0.00     0.043 A 
ATOM     22  C   UNL A   1      34.453  16.036  24.740  1.00  0.00     0.123 A 
ATOM     23  F   UNL A   1      35.326  15.062  25.032  1.00  0.00    -0.207 F 
ENDBRANCH  16  17
ENDBRANCH  15  16
ENDBRANCH  13  15
ENDBRANCH   7  11
ENDBRANCH   4   6
ENDBRANCH   3   4
ENDBRANCH   2   3
ENDBRANCH   1   2
BRANCH   1  24
ATOM     24  O   UNL A   1      33.434  28.948  25.213  1.00  0.00    -0.374 OA
BRANCH  24  25
ATOM     25  C   UNL A   1      32.360  29.825  25.557  1.00  0.00     0.202 C 
BRANCH  25  26
ATOM     26  C   UNL A   1      32.624  30.766  26.737  1.00  0.00     0.261 C 
BRANCH  26  27
ATOM     27  O   UNL A   1      33.651  30.283  27.620  1.00  0.00    -0.460 OA
BRANCH  27  28
ATOM     28  C   UNL A   1      34.714  31.112  27.759  1.00  0.00     0.338 C 
ATOM     29  O   UNL A   1      34.708  32.332  27.713  1.00  0.00    -0.246 OA
BRANCH  28  30
ATOM     30  C   UNL A   1      35.924  30.344  28.107  1.00  0.00     0.060 A 
ATOM     31  C   UNL A   1      35.955  29.710  29.356  1.00  0.00     0.016 A 
ATOM     32  C   UNL A   1      37.048  30.336  27.279  1.00  0.00     0.016 A 
ATOM     33  C   UNL A   1      37.129  29.105  29.803  1.00  0.00     0.010 A 
ATOM     34  C   UNL A   1      38.229  29.738  27.734  1.00  0.00     0.010 A 
ATOM     35  C   UNL A   1      38.283  29.151  29.011  1.00  0.00    -0.014 A 
BRANCH  35  36
ATOM     36  C   UNL A   1      39.578  28.687  29.564  1.00  0.00     0.031 A 
ATOM     37  C   UNL A   1      40.279  27.521  28.921  1.00  0.00     0.074 A 
ATOM     38  C   UNL A   1      40.120  29.293  30.634  1.00  0.00     0.049 A 
ATOM     39  N   UNL A   1      41.392  26.931  29.274  1.00  0.00    -0.248 NA
ATOM     40  C   UNL A   1      39.645  26.945  27.724  1.00  0.00     0.031 C 
ATOM     41  C   UNL A   1      39.544  30.439  31.335  1.00  0.00     0.029 A 
ATOM     42  N   UNL A   1      41.268  29.012  31.332  1.00  0.00    -0.354 N 
ATOM     43  C   UNL A   1      41.583  25.904  28.358  1.00  0.00     0.074 A 
ATOM     44  C   UNL A   1      40.468  25.945  27.437  1.00  0.00     0.031 C 
ATOM     45  C   UNL A   1      40.326  30.745  32.384  1.00  0.00     0.029 A 
ATOM     46  C   UNL A   1      41.446  29.805  32.438  1.00  0.00     0.049 A 
ATOM     47  H   UNL A   1      41.902  28.307  31.064  1.00  0.00     0.167 HD
ATOM     48  C   UNL A   1      42.604  25.020  28.278  1.00  0.00     0.034 A 
ATOM     49  C   UNL A   1      42.395  29.768  33.396  1.00  0.00     0.034 A 
ATOM     50  C   UNL A   1      43.726  24.993  29.176  1.00  0.00     0.049 A 
ATOM     51  C   UNL A   1      43.503  28.753  33.304  1.00  0.00     0.074 A 
ATOM     52  C   UNL A   1      44.828  24.157  29.148  1.00  0.00     0.029 A 
ATOM     53  N   UNL A   1      43.889  25.833  30.267  1.00  0.00    -0.354 N 
ATOM     54  N   UNL A   1      43.727  27.860  32.372  1.00  0.00    -0.248 NA
ATOM     55  C   UNL A   1      44.504  28.757  34.383  1.00  0.00     0.031 C 
ATOM     56  C   UNL A   1      45.654  24.484  30.229  1.00  0.00     0.029 A 
ATOM     57  C   UNL A   1      45.067  25.530  30.925  1.00  0.00     0.049 A 
ATOM     58  H   UNL A   1      43.258  26.540  30.533  1.00  0.00     0.167 HD
ATOM     59  C   UNL A   1      44.902  27.212  32.737  1.00  0.00     0.074 A 
ATOM     60  C   UNL A   1      45.357  27.829  33.965  1.00  0.00     0.031 C 
ATOM     61  C   UNL A   1      45.536  26.184  32.119  1.00  0.00     0.034 A 
BRANCH  48  62
ATOM     62  C   UNL A   1      42.587  24.030  27.147  1.00  0.00     0.023 A 
ATOM     63  C   UNL A   1      43.315  24.315  25.975  1.00  0.00     0.012 A 
ATOM     64  C   UNL A   1      41.923  22.795  27.271  1.00  0.00     0.148 A 
ATOM     65  C   UNL A   1      43.373  23.388  24.935  1.00  0.00     0.002 A 
ATOM     66  C   UNL A   1      42.011  21.863  26.242  1.00  0.00     0.091 A 
ATOM     67  F   UNL A   1      41.214  22.558  28.384  1.00  0.00    -0.205 F 
ATOM     68  C   UNL A   1      42.731  22.160  25.073  1.00  0.00     0.022 A 
BRANCH  66  69
ATOM     69  S   UNL A   1      41.270  20.231  26.354  1.00  0.00     0.127 S 
ATOM     70  O   UNL A   1      41.540  19.880  27.748  1.00  0.00    -0.237 OA
ATOM     71  O   UNL A   1      39.864  20.507  26.057  1.00  0.00    -0.237 OA
ATOM     72  O   UNL A   1      41.951  19.415  25.359  1.00  0.00    -0.744 OA
ENDBRANCH  66  69
ENDBRANCH  48  62
BRANCH  49  73
ATOM     73  C   UNL A   1      42.349  30.753  34.511  1.00  0.00     0.023 A 
ATOM     74  C   UNL A   1      41.725  30.401  35.721  1.00  0.00     0.012 A 
ATOM     75  C   UNL A   1      42.960  32.016  34.392  1.00  0.00     0.148 A 
ATOM     76  C   UNL A   1      41.698  31.294  36.792  1.00  0.00     0.002 A 
ATOM     77  C   UNL A   1      42.970  32.883  35.477  1.00  0.00     0.091 A 
ATOM     78  F   UNL A   1      43.539  32.333  33.225  1.00  0.00    -0.205 F 
ATOM     79  C   UNL A   1      42.329  32.530  36.675  1.00  0.00     0.022 A 
BRANCH  77  80
ATOM     80  S   UNL A   1      43.857  34.444  35.454  1.00  0.00     0.127 S 
ATOM     81  O   UNL A   1      45.099  34.077  34.779  1.00  0.00    -0.237 OA
ATOM     82  O   UNL A   1      42.956  35.291  34.674  1.00  0.00    -0.237 OA
ATOM     83  O   UNL A   1      43.993  34.843  36.848  1.00  0.00    -0.744 OA
ENDBRANCH  77  80
ENDBRANCH  49  73
BRANCH  61  84
ATOM     84  C   UNL A   1      46.796  25.651  32.749  1.00  0.00     0.023 A 
ATOM     85  C   UNL A   1      48.022  26.289  32.481  1.00  0.00     0.012 A 
ATOM     86  C   UNL A   1      46.752  24.599  33.686  1.00  0.00     0.148 A 
ATOM     87  C   UNL A   1      49.189  25.878  33.124  1.00  0.00     0.002 A 
ATOM     88  C   UNL A   1      47.912  24.221  34.352  1.00  0.00     0.091 A 
ATOM     89  F   UNL A   1      45.579  23.989  33.911  1.00  0.00    -0.205 F 
ATOM     90  C   UNL A   1      49.134  24.855  34.069  1.00  0.00     0.022 A 
BRANCH  88  91
ATOM     91  S   UNL A   1      47.903  22.978  35.649  1.00  0.00     0.127 S 
ATOM     92  O   UNL A   1      48.925  23.487  36.560  1.00  0.00    -0.237 OA
ATOM     93  O   UNL A   1      46.534  23.063  36.162  1.00  0.00    -0.237 OA
ATOM     94  O   UNL A   1      48.215  21.718  34.987  1.00  0.00    -0.744 OA
ENDBRANCH  88  91
ENDBRANCH  61  84
ENDBRANCH  35  36
ENDBRANCH  28  30
ENDBRANCH  27  28
ENDBRANCH  26  27
ENDBRANCH  25  26
ENDBRANCH  24  25
ENDBRANCH   1  24
TORSDOF 21
ENDMDL
