MODEL 1
REMARK VINA RESULT:     -11.6      0.000      0.000
REMARK SMILES C[C@@H]1[C@H](C(=O)OCCOCCOC(=O)c2ccc(-c3c4nc(c(-c5cccc(S(=O)(=O)[O-])c5F)c5ccc([nH]5)c(-c5cccc(S(=O)(=O)[O-])c5F)c5nc(c(-c6cccc(S(=O)(=O)[O-])c6F)c6ccc3[nH]6)C=C5)C=C4)cc2)CC[N@@H+]1Cc1cnn(-c2ccccc2)c1
REMARK SMILES IDX 9 1 8 2 7 3 6 4 4 5 5 6 3 7 1 8 2 9 80 10 78 11 79 12 81 14
REMARK SMILES IDX 82 15 83 16 92 17 84 18 85 19 86 20 87 21 91 22 88 23 90 24
REMARK SMILES IDX 89 25 10 26 11 27 12 28 13 29 14 30 15 31 16 32 77 33 17 34
REMARK SMILES IDX 76 35 18 36 19 37 20 38 70 39 21 40 75 41 69 42 71 43 22 44
REMARK SMILES IDX 74 45 68 46 67 47 23 49 55 50 35 51 54 52 36 53 39 54 53 55
REMARK SMILES IDX 72 56 37 57 38 58 52 60 73 61 40 62 24 63 25 64 33 65 26 66
REMARK SMILES IDX 28 67 34 68 27 69 29 70 30 71 31 72 32 73 56 74 57 75 65 76
REMARK SMILES IDX 58 77 60 78 66 79 59 80 61 81 62 82 63 83 64 84 41 85 42 86
REMARK SMILES IDX 50 87 43 88 45 89 51 90 44 91 46 92 47 93 48 94 49 95
REMARK H PARENT 80 13 71 48 39 59
REMARK Flexibility Score: inf
ROOT
ATOM      1  O   UNL A   1      32.892  30.188  25.955  1.00  0.00    -0.374 OA
ENDROOT
BRANCH   1   2
ATOM      2  C   UNL A   1      32.708  29.350  24.811  1.00  0.00     0.202 C 
BRANCH   2   3
ATOM      3  C   UNL A   1      31.259  29.103  24.390  1.00  0.00     0.261 C 
BRANCH   3   4
ATOM      4  O   UNL A   1      30.759  27.917  25.033  1.00  0.00    -0.463 OA
BRANCH   4   5
ATOM      5  C   UNL A   1      30.162  27.005  24.238  1.00  0.00     0.315 C 
ATOM      6  O   UNL A   1      29.259  27.255  23.445  1.00  0.00    -0.252 OA
BRANCH   5   7
ATOM      7  C   UNL A   1      30.703  25.606  24.412  1.00  0.00     0.162 C 
ATOM      8  C   UNL A   1      31.928  25.540  22.087  1.00  0.00     0.076 C 
ATOM      9  C   UNL A   1      31.306  24.779  23.256  1.00  0.00     0.195 C 
ATOM     10  N   UNL A   1      32.184  23.813  23.954  1.00  0.00    -0.328 N 
ATOM     11  C   UNL A   1      31.757  25.541  25.498  1.00  0.00     0.083 C 
ATOM     12  C   UNL A   1      32.228  24.107  25.384  1.00  0.00     0.263 C 
ATOM     13  H   UNL A   1      31.697  22.932  23.786  1.00  0.00     0.348 HD
BRANCH  10  14
ATOM     14  C   UNL A   1      33.424  23.327  23.362  1.00  0.00     0.302 C 
BRANCH  14  15
ATOM     15  C   UNL A   1      33.929  22.052  23.946  1.00  0.00     0.045 A 
ATOM     16  C   UNL A   1      35.174  21.758  24.537  1.00  0.00     0.145 A 
ATOM     17  C   UNL A   1      33.241  20.859  24.060  1.00  0.00     0.124 A 
ATOM     18  N   UNL A   1      35.266  20.500  24.967  1.00  0.00    -0.176 NA
ATOM     19  N   UNL A   1      34.103  19.922  24.587  1.00  0.00    -0.240 N 
BRANCH  19  20
ATOM     20  C   UNL A   1      33.852  18.540  24.755  1.00  0.00     0.065 A 
ATOM     21  C   UNL A   1      34.851  17.618  24.433  1.00  0.00     0.028 A 
ATOM     22  C   UNL A   1      32.621  18.091  25.257  1.00  0.00     0.028 A 
ATOM     23  C   UNL A   1      34.642  16.262  24.673  1.00  0.00     0.002 A 
ATOM     24  C   UNL A   1      32.418  16.726  25.468  1.00  0.00     0.002 A 
ATOM     25  C   UNL A   1      33.428  15.814  25.185  1.00  0.00     0.000 A 
ENDBRANCH  19  20
ENDBRANCH  14  15
ENDBRANCH  10  14
ENDBRANCH   5   7
ENDBRANCH   4   5
ENDBRANCH   3   4
ENDBRANCH   2   3
ENDBRANCH   1   2
BRANCH   1  26
ATOM     26  C   UNL A   1      31.769  30.955  26.385  1.00  0.00     0.202 C 
BRANCH  26  27
ATOM     27  C   UNL A   1      32.051  32.395  26.855  1.00  0.00     0.261 C 
BRANCH  27  28
ATOM     28  O   UNL A   1      32.878  32.462  28.030  1.00  0.00    -0.460 OA
BRANCH  28  29
ATOM     29  C   UNL A   1      33.960  33.271  27.920  1.00  0.00     0.338 C 
ATOM     30  O   UNL A   1      33.953  34.477  27.708  1.00  0.00    -0.246 OA
BRANCH  29  31
ATOM     31  C   UNL A   1      35.189  32.533  28.281  1.00  0.00     0.060 A 
ATOM     32  C   UNL A   1      35.060  31.186  28.643  1.00  0.00     0.016 A 
ATOM     33  C   UNL A   1      36.440  33.150  28.316  1.00  0.00     0.016 A 
ATOM     34  C   UNL A   1      36.169  30.462  29.089  1.00  0.00     0.010 A 
ATOM     35  C   UNL A   1      37.546  32.423  28.773  1.00  0.00     0.010 A 
ATOM     36  C   UNL A   1      37.421  31.082  29.194  1.00  0.00    -0.014 A 
BRANCH  36  37
ATOM     37  C   UNL A   1      38.556  30.382  29.865  1.00  0.00     0.031 A 
ATOM     38  C   UNL A   1      38.927  30.769  31.277  1.00  0.00     0.074 A 
ATOM     39  C   UNL A   1      39.276  29.428  29.237  1.00  0.00     0.049 A 
ATOM     40  N   UNL A   1      39.912  30.342  32.025  1.00  0.00    -0.248 NA
ATOM     41  C   UNL A   1      38.086  31.790  31.925  1.00  0.00     0.031 C 
ATOM     42  C   UNL A   1      39.062  28.967  27.865  1.00  0.00     0.029 A 
ATOM     43  N   UNL A   1      40.371  28.709  29.660  1.00  0.00    -0.354 N 
ATOM     44  C   UNL A   1      39.827  31.058  33.214  1.00  0.00     0.074 A 
ATOM     45  C   UNL A   1      38.723  31.981  33.070  1.00  0.00     0.031 C 
ATOM     46  C   UNL A   1      40.016  28.073  27.547  1.00  0.00     0.029 A 
ATOM     47  C   UNL A   1      40.918  27.906  28.684  1.00  0.00     0.049 A 
ATOM     48  H   UNL A   1      40.729  28.763  30.575  1.00  0.00     0.167 HD
ATOM     49  C   UNL A   1      40.571  30.941  34.340  1.00  0.00     0.034 A 
ATOM     50  C   UNL A   1      42.033  27.144  28.692  1.00  0.00     0.034 A 
ATOM     51  C   UNL A   1      41.644  30.000  34.509  1.00  0.00     0.049 A 
ATOM     52  C   UNL A   1      42.865  27.053  29.947  1.00  0.00     0.074 A 
ATOM     53  C   UNL A   1      42.396  29.749  35.644  1.00  0.00     0.029 A 
ATOM     54  N   UNL A   1      42.129  29.165  33.518  1.00  0.00    -0.354 N 
ATOM     55  N   UNL A   1      42.682  27.636  31.105  1.00  0.00    -0.248 NA
ATOM     56  C   UNL A   1      44.037  26.164  29.904  1.00  0.00     0.031 C 
ATOM     57  C   UNL A   1      43.361  28.788  35.327  1.00  0.00     0.029 A 
ATOM     58  C   UNL A   1      43.181  28.408  34.007  1.00  0.00     0.049 A 
ATOM     59  H   UNL A   1      41.778  29.115  32.598  1.00  0.00     0.167 HD
ATOM     60  C   UNL A   1      43.677  27.142  31.943  1.00  0.00     0.074 A 
ATOM     61  C   UNL A   1      44.460  26.210  31.160  1.00  0.00     0.031 C 
ATOM     62  C   UNL A   1      43.921  27.437  33.244  1.00  0.00     0.034 A 
BRANCH  49  63
ATOM     63  C   UNL A   1      40.218  31.829  35.506  1.00  0.00     0.023 A 
ATOM     64  C   UNL A   1      40.908  33.044  35.693  1.00  0.00     0.012 A 
ATOM     65  C   UNL A   1      39.167  31.491  36.381  1.00  0.00     0.148 A 
ATOM     66  C   UNL A   1      40.589  33.888  36.756  1.00  0.00     0.002 A 
ATOM     67  C   UNL A   1      38.821  32.360  37.408  1.00  0.00     0.091 A 
ATOM     68  F   UNL A   1      38.532  30.324  36.198  1.00  0.00    -0.205 F 
ATOM     69  C   UNL A   1      39.540  33.551  37.607  1.00  0.00     0.022 A 
BRANCH  67  70
ATOM     70  S   UNL A   1      37.432  32.061  38.507  1.00  0.00     0.127 S 
ATOM     71  O   UNL A   1      37.136  30.655  38.231  1.00  0.00    -0.237 OA
ATOM     72  O   UNL A   1      38.022  32.312  39.822  1.00  0.00    -0.237 OA
ATOM     73  O   UNL A   1      36.395  33.005  38.114  1.00  0.00    -0.744 OA
ENDBRANCH  67  70
ENDBRANCH  49  63
BRANCH  50  74
ATOM     74  C   UNL A   1      42.432  26.373  27.478  1.00  0.00     0.023 A 
ATOM     75  C   UNL A   1      43.104  27.020  26.424  1.00  0.00     0.012 A 
ATOM     76  C   UNL A   1      42.119  25.007  27.354  1.00  0.00     0.148 A 
ATOM     77  C   UNL A   1      43.431  26.324  25.258  1.00  0.00     0.002 A 
ATOM     78  C   UNL A   1      42.499  24.304  26.216  1.00  0.00     0.091 A 
ATOM     79  F   UNL A   1      41.434  24.429  28.345  1.00  0.00    -0.205 F 
ATOM     80  C   UNL A   1      43.139  24.966  25.158  1.00  0.00     0.022 A 
BRANCH  78  81
ATOM     81  S   UNL A   1      42.249  22.535  26.037  1.00  0.00     0.127 S 
ATOM     82  O   UNL A   1      40.791  22.439  26.025  1.00  0.00    -0.237 OA
ATOM     83  O   UNL A   1      42.895  22.273  24.751  1.00  0.00    -0.237 OA
ATOM     84  O   UNL A   1      42.903  21.924  27.184  1.00  0.00    -0.744 OA
ENDBRANCH  78  81
ENDBRANCH  50  74
BRANCH  62  85
ATOM     85  C   UNL A   1      45.035  26.700  33.942  1.00  0.00     0.023 A 
ATOM     86  C   UNL A   1      46.355  27.192  33.894  1.00  0.00     0.012 A 
ATOM     87  C   UNL A   1      44.755  25.553  34.715  1.00  0.00     0.148 A 
ATOM     88  C   UNL A   1      47.382  26.536  34.573  1.00  0.00     0.002 A 
ATOM     89  C   UNL A   1      45.774  24.937  35.432  1.00  0.00     0.091 A 
ATOM     90  F   UNL A   1      43.498  25.089  34.736  1.00  0.00    -0.205 F 
ATOM     91  C   UNL A   1      47.089  25.417  35.352  1.00  0.00     0.022 A 
BRANCH  89  92
ATOM     92  S   UNL A   1      45.473  23.554  36.539  1.00  0.00     0.127 S 
ATOM     93  O   UNL A   1      46.832  23.198  36.947  1.00  0.00    -0.237 OA
ATOM     94  O   UNL A   1      44.663  24.171  37.590  1.00  0.00    -0.237 OA
ATOM     95  O   UNL A   1      44.775  22.548  35.749  1.00  0.00    -0.744 OA
ENDBRANCH  89  92
ENDBRANCH  62  85
ENDBRANCH  36  37
ENDBRANCH  29  31
ENDBRANCH  28  29
ENDBRANCH  27  28
ENDBRANCH  26  27
ENDBRANCH   1  26
TORSDOF 20
ENDMDL
MODEL 2
REMARK VINA RESULT:     -11.5      1.375      1.650
REMARK SMILES C[C@@H]1[C@H](C(=O)OCCOCCOC(=O)c2ccc(-c3c4nc(c(-c5cccc(S(=O)(=O)[O-])c5F)c5ccc([nH]5)c(-c5cccc(S(=O)(=O)[O-])c5F)c5nc(c(-c6cccc(S(=O)(=O)[O-])c6F)c6ccc3[nH]6)C=C5)C=C4)cc2)CC[N@@H+]1Cc1cnn(-c2ccccc2)c1
REMARK SMILES IDX 9 1 8 2 7 3 6 4 4 5 5 6 3 7 1 8 2 9 80 10 78 11 79 12 81 14
REMARK SMILES IDX 82 15 83 16 92 17 84 18 85 19 86 20 87 21 91 22 88 23 90 24
REMARK SMILES IDX 89 25 10 26 11 27 12 28 13 29 14 30 15 31 16 32 77 33 17 34
REMARK SMILES IDX 76 35 18 36 19 37 20 38 70 39 21 40 75 41 69 42 71 43 22 44
REMARK SMILES IDX 74 45 68 46 67 47 23 49 55 50 35 51 54 52 36 53 39 54 53 55
REMARK SMILES IDX 72 56 37 57 38 58 52 60 73 61 40 62 24 63 25 64 33 65 26 66
REMARK SMILES IDX 28 67 34 68 27 69 29 70 30 71 31 72 32 73 56 74 57 75 65 76
REMARK SMILES IDX 58 77 60 78 66 79 59 80 61 81 62 82 63 83 64 84 41 85 42 86
REMARK SMILES IDX 50 87 43 88 45 89 51 90 44 91 46 92 47 93 48 94 49 95
REMARK H PARENT 80 13 71 48 39 59
REMARK Flexibility Score: inf
ROOT
ATOM      1  O   UNL A   1      32.905  30.120  25.573  1.00  0.00    -0.374 OA
ENDROOT
BRANCH   1   2
ATOM      2  C   UNL A   1      32.721  28.954  24.766  1.00  0.00     0.202 C 
BRANCH   2   3
ATOM      3  C   UNL A   1      31.330  28.778  24.153  1.00  0.00     0.261 C 
BRANCH   3   4
ATOM      4  O   UNL A   1      30.596  27.782  24.886  1.00  0.00    -0.463 OA
BRANCH   4   5
ATOM      5  C   UNL A   1      29.857  26.920  24.159  1.00  0.00     0.315 C 
ATOM      6  O   UNL A   1      28.867  27.231  23.503  1.00  0.00    -0.252 OA
BRANCH   5   7
ATOM      7  C   UNL A   1      30.353  25.495  24.222  1.00  0.00     0.162 C 
ATOM      8  C   UNL A   1      31.777  25.646  22.019  1.00  0.00     0.076 C 
ATOM      9  C   UNL A   1      31.040  24.782  23.038  1.00  0.00     0.195 C 
ATOM     10  N   UNL A   1      31.832  23.719  23.698  1.00  0.00    -0.328 N 
ATOM     11  C   UNL A   1      31.304  25.282  25.381  1.00  0.00     0.083 C 
ATOM     12  C   UNL A   1      31.755  23.855  25.150  1.00  0.00     0.263 C 
ATOM     13  H   UNL A   1      31.346  22.877  23.392  1.00  0.00     0.348 HD
BRANCH  10  14
ATOM     14  C   UNL A   1      33.111  23.265  23.164  1.00  0.00     0.302 C 
BRANCH  14  15
ATOM     15  C   UNL A   1      33.663  22.052  23.833  1.00  0.00     0.045 A 
ATOM     16  C   UNL A   1      34.868  21.881  24.543  1.00  0.00     0.145 A 
ATOM     17  C   UNL A   1      33.067  20.809  23.925  1.00  0.00     0.124 A 
ATOM     18  N   UNL A   1      35.023  20.647  25.021  1.00  0.00    -0.176 NA
ATOM     19  N   UNL A   1      33.951  19.963  24.558  1.00  0.00    -0.240 N 
BRANCH  19  20
ATOM     20  C   UNL A   1      33.800  18.569  24.749  1.00  0.00     0.065 A 
ATOM     21  C   UNL A   1      32.645  18.083  25.367  1.00  0.00     0.028 A 
ATOM     22  C   UNL A   1      34.787  17.674  24.308  1.00  0.00     0.028 A 
ATOM     23  C   UNL A   1      32.451  16.709  25.484  1.00  0.00     0.002 A 
ATOM     24  C   UNL A   1      34.589  16.300  24.455  1.00  0.00     0.002 A 
ATOM     25  C   UNL A   1      33.421  15.818  25.033  1.00  0.00     0.000 A 
ENDBRANCH  19  20
ENDBRANCH  14  15
ENDBRANCH  10  14
ENDBRANCH   5   7
ENDBRANCH   4   5
ENDBRANCH   3   4
ENDBRANCH   2   3
ENDBRANCH   1   2
BRANCH   1  26
ATOM     26  C   UNL A   1      31.759  30.627  26.255  1.00  0.00     0.202 C 
BRANCH  26  27
ATOM     27  C   UNL A   1      31.722  32.143  26.519  1.00  0.00     0.261 C 
BRANCH  27  28
ATOM     28  O   UNL A   1      32.329  32.521  27.768  1.00  0.00    -0.460 OA
BRANCH  28  29
ATOM     29  C   UNL A   1      33.389  33.358  27.657  1.00  0.00     0.338 C 
ATOM     30  O   UNL A   1      33.351  34.555  27.405  1.00  0.00    -0.246 OA
BRANCH  29  31
ATOM     31  C   UNL A   1      34.630  32.670  28.070  1.00  0.00     0.060 A 
ATOM     32  C   UNL A   1      34.532  31.332  28.475  1.00  0.00     0.016 A 
ATOM     33  C   UNL A   1      35.861  33.325  28.114  1.00  0.00     0.016 A 
ATOM     34  C   UNL A   1      35.651  30.656  28.970  1.00  0.00     0.010 A 
ATOM     35  C   UNL A   1      36.977  32.646  28.619  1.00  0.00     0.010 A 
ATOM     36  C   UNL A   1      36.881  31.317  29.082  1.00  0.00    -0.014 A 
BRANCH  36  37
ATOM     37  C   UNL A   1      38.020  30.674  29.802  1.00  0.00     0.031 A 
ATOM     38  C   UNL A   1      38.342  31.114  31.211  1.00  0.00     0.074 A 
ATOM     39  C   UNL A   1      38.786  29.726  29.221  1.00  0.00     0.049 A 
ATOM     40  N   UNL A   1      39.321  30.741  31.995  1.00  0.00    -0.248 NA
ATOM     41  C   UNL A   1      37.453  32.126  31.806  1.00  0.00     0.031 C 
ATOM     42  C   UNL A   1      38.622  29.219  27.859  1.00  0.00     0.029 A 
ATOM     43  N   UNL A   1      39.891  29.055  29.693  1.00  0.00    -0.354 N 
ATOM     44  C   UNL A   1      39.183  31.489  33.160  1.00  0.00     0.074 A 
ATOM     45  C   UNL A   1      38.054  32.371  32.961  1.00  0.00     0.031 C 
ATOM     46  C   UNL A   1      39.612  28.347  27.592  1.00  0.00     0.029 A 
ATOM     47  C   UNL A   1      40.489  28.242  28.755  1.00  0.00     0.049 A 
ATOM     48  H   UNL A   1      40.224  29.147  30.615  1.00  0.00     0.167 HD
ATOM     49  C   UNL A   1      39.900  31.429  34.307  1.00  0.00     0.034 A 
ATOM     50  C   UNL A   1      41.626  27.517  28.814  1.00  0.00     0.034 A 
ATOM     51  C   UNL A   1      40.998  30.528  34.531  1.00  0.00     0.049 A 
ATOM     52  C   UNL A   1      42.429  27.489  30.092  1.00  0.00     0.074 A 
ATOM     53  C   UNL A   1      41.728  30.335  35.692  1.00  0.00     0.029 A 
ATOM     54  N   UNL A   1      41.534  29.680  33.578  1.00  0.00    -0.354 N 
ATOM     55  N   UNL A   1      42.197  28.100  31.227  1.00  0.00    -0.248 NA
ATOM     56  C   UNL A   1      43.628  26.638  30.105  1.00  0.00     0.031 C 
ATOM     57  C   UNL A   1      42.730  29.397  35.427  1.00  0.00     0.029 A 
ATOM     58  C   UNL A   1      42.596  28.973  34.116  1.00  0.00     0.049 A 
ATOM     59  H   UNL A   1      41.209  29.592  32.652  1.00  0.00     0.167 HD
ATOM     60  C   UNL A   1      43.185  27.663  32.104  1.00  0.00     0.074 A 
ATOM     61  C   UNL A   1      44.017  26.734  31.369  1.00  0.00     0.031 C 
ATOM     62  C   UNL A   1      43.386  28.004  33.401  1.00  0.00     0.034 A 
BRANCH  49  63
ATOM     63  C   UNL A   1      39.489  32.339  35.436  1.00  0.00     0.023 A 
ATOM     64  C   UNL A   1      38.649  31.849  36.458  1.00  0.00     0.012 A 
ATOM     65  C   UNL A   1      39.978  33.657  35.518  1.00  0.00     0.148 A 
ATOM     66  C   UNL A   1      38.267  32.669  37.519  1.00  0.00     0.002 A 
ATOM     67  C   UNL A   1      39.634  34.453  36.605  1.00  0.00     0.091 A 
ATOM     68  F   UNL A   1      40.763  34.112  34.530  1.00  0.00    -0.205 F 
ATOM     69  C   UNL A   1      38.767  33.966  37.598  1.00  0.00     0.022 A 
BRANCH  67  70
ATOM     70  S   UNL A   1      40.291  36.107  36.844  1.00  0.00     0.127 S 
ATOM     71  O   UNL A   1      39.524  36.564  38.003  1.00  0.00    -0.237 OA
ATOM     72  O   UNL A   1      41.704  35.838  37.116  1.00  0.00    -0.237 OA
ATOM     73  O   UNL A   1      40.035  36.826  35.604  1.00  0.00    -0.744 OA
ENDBRANCH  67  70
ENDBRANCH  49  63
BRANCH  50  74
ATOM     74  C   UNL A   1      42.081  26.724  27.635  1.00  0.00     0.023 A 
ATOM     75  C   UNL A   1      42.766  27.359  26.582  1.00  0.00     0.012 A 
ATOM     76  C   UNL A   1      41.808  25.347  27.540  1.00  0.00     0.148 A 
ATOM     77  C   UNL A   1      43.145  26.641  25.445  1.00  0.00     0.002 A 
ATOM     78  C   UNL A   1      42.239  24.624  26.434  1.00  0.00     0.091 A 
ATOM     79  F   UNL A   1      41.110  24.778  28.528  1.00  0.00    -0.205 F 
ATOM     80  C   UNL A   1      42.892  25.274  25.377  1.00  0.00     0.022 A 
BRANCH  78  81
ATOM     81  S   UNL A   1      42.041  22.844  26.298  1.00  0.00     0.127 S 
ATOM     82  O   UNL A   1      40.588  22.701  26.334  1.00  0.00    -0.237 OA
ATOM     83  O   UNL A   1      42.655  22.576  24.997  1.00  0.00    -0.237 OA
ATOM     84  O   UNL A   1      42.751  22.278  27.436  1.00  0.00    -0.744 OA
ENDBRANCH  78  81
ENDBRANCH  50  74
BRANCH  62  85
ATOM     85  C   UNL A   1      44.505  27.324  34.149  1.00  0.00     0.023 A 
ATOM     86  C   UNL A   1      45.799  27.882  34.156  1.00  0.00     0.012 A 
ATOM     87  C   UNL A   1      44.249  26.165  34.912  1.00  0.00     0.148 A 
ATOM     88  C   UNL A   1      46.828  27.278  34.880  1.00  0.00     0.002 A 
ATOM     89  C   UNL A   1      45.265  25.601  35.674  1.00  0.00     0.091 A 
ATOM     90  F   UNL A   1      43.017  25.639  34.880  1.00  0.00    -0.205 F 
ATOM     91  C   UNL A   1      46.557  26.147  35.649  1.00  0.00     0.022 A 
BRANCH  89  92
ATOM     92  S   UNL A   1      44.986  24.206  36.771  1.00  0.00     0.127 S 
ATOM     93  O   UNL A   1      44.985  23.084  35.832  1.00  0.00    -0.237 OA
ATOM     94  O   UNL A   1      46.154  24.265  37.649  1.00  0.00    -0.237 OA
ATOM     95  O   UNL A   1      43.715  24.462  37.436  1.00  0.00    -0.744 OA
ENDBRANCH  89  92
ENDBRANCH  62  85
ENDBRANCH  36  37
ENDBRANCH  29  31
ENDBRANCH  28  29
ENDBRANCH  27  28
ENDBRANCH  26  27
ENDBRANCH   1  26
TORSDOF 20
ENDMDL
MODEL 3
REMARK VINA RESULT:     -11.3      5.342     10.858
REMARK SMILES C[C@@H]1[C@H](C(=O)OCCOCCOC(=O)c2ccc(-c3c4nc(c(-c5cccc(S(=O)(=O)[O-])c5F)c5ccc([nH]5)c(-c5cccc(S(=O)(=O)[O-])c5F)c5nc(c(-c6cccc(S(=O)(=O)[O-])c6F)c6ccc3[nH]6)C=C5)C=C4)cc2)CC[N@@H+]1Cc1cnn(-c2ccccc2)c1
REMARK SMILES IDX 9 1 8 2 7 3 6 4 4 5 5 6 3 7 1 8 2 9 80 10 78 11 79 12 81 14
REMARK SMILES IDX 82 15 83 16 92 17 84 18 85 19 86 20 87 21 91 22 88 23 90 24
REMARK SMILES IDX 89 25 10 26 11 27 12 28 13 29 14 30 15 31 16 32 77 33 17 34
REMARK SMILES IDX 76 35 18 36 19 37 20 38 70 39 21 40 75 41 69 42 71 43 22 44
REMARK SMILES IDX 74 45 68 46 67 47 23 49 55 50 35 51 54 52 36 53 39 54 53 55
REMARK SMILES IDX 72 56 37 57 38 58 52 60 73 61 40 62 24 63 25 64 33 65 26 66
REMARK SMILES IDX 28 67 34 68 27 69 29 70 30 71 31 72 32 73 56 74 57 75 65 76
REMARK SMILES IDX 58 77 60 78 66 79 59 80 61 81 62 82 63 83 64 84 41 85 42 86
REMARK SMILES IDX 50 87 43 88 45 89 51 90 44 91 46 92 47 93 48 94 49 95
REMARK H PARENT 80 13 71 48 39 59
REMARK Flexibility Score: inf
ROOT
ATOM      1  O   UNL A   1      35.535  21.622  25.579  1.00  0.00    -0.374 OA
ENDROOT
BRANCH   1   2
ATOM      2  C   UNL A   1      34.282  21.347  26.213  1.00  0.00     0.202 C 
BRANCH   2   3
ATOM      3  C   UNL A   1      33.074  21.231  25.282  1.00  0.00     0.261 C 
BRANCH   3   4
ATOM      4  O   UNL A   1      33.462  21.554  23.935  1.00  0.00    -0.463 OA
BRANCH   4   5
ATOM      5  C   UNL A   1      32.562  22.229  23.192  1.00  0.00     0.315 C 
ATOM      6  O   UNL A   1      32.199  21.900  22.067  1.00  0.00    -0.252 OA
BRANCH   5   7
ATOM      7  C   UNL A   1      32.024  23.466  23.871  1.00  0.00     0.162 C 
ATOM      8  C   UNL A   1      33.683  25.123  22.684  1.00  0.00     0.076 C 
ATOM      9  C   UNL A   1      32.753  24.827  23.857  1.00  0.00     0.195 C 
ATOM     10  N   UNL A   1      31.661  25.798  24.094  1.00  0.00    -0.328 N 
ATOM     11  C   UNL A   1      30.620  23.797  23.408  1.00  0.00     0.083 C 
ATOM     12  C   UNL A   1      30.369  25.116  24.107  1.00  0.00     0.263 C 
ATOM     13  H   UNL A   1      31.890  26.146  25.024  1.00  0.00     0.348 HD
BRANCH  10  14
ATOM     14  C   UNL A   1      31.674  27.133  23.508  1.00  0.00     0.302 C 
BRANCH  14  15
ATOM     15  C   UNL A   1      31.993  28.226  24.471  1.00  0.00     0.045 A 
ATOM     16  C   UNL A   1      31.331  29.448  24.705  1.00  0.00     0.145 A 
ATOM     17  C   UNL A   1      33.025  28.250  25.390  1.00  0.00     0.124 A 
ATOM     18  N   UNL A   1      31.899  30.176  25.665  1.00  0.00    -0.176 NA
ATOM     19  N   UNL A   1      33.000  29.474  26.022  1.00  0.00    -0.240 N 
BRANCH  19  20
ATOM     20  C   UNL A   1      33.951  29.971  26.944  1.00  0.00     0.065 A 
ATOM     21  C   UNL A   1      33.730  31.206  27.558  1.00  0.00     0.028 A 
ATOM     22  C   UNL A   1      35.099  29.228  27.259  1.00  0.00     0.028 A 
ATOM     23  C   UNL A   1      34.620  31.664  28.527  1.00  0.00     0.002 A 
ATOM     24  C   UNL A   1      35.994  29.712  28.214  1.00  0.00     0.002 A 
ATOM     25  C   UNL A   1      35.752  30.923  28.853  1.00  0.00     0.000 A 
ENDBRANCH  19  20
ENDBRANCH  14  15
ENDBRANCH  10  14
ENDBRANCH   5   7
ENDBRANCH   4   5
ENDBRANCH   3   4
ENDBRANCH   2   3
ENDBRANCH   1   2
BRANCH   1  26
ATOM     26  C   UNL A   1      36.287  20.503  25.113  1.00  0.00     0.202 C 
BRANCH  26  27
ATOM     27  C   UNL A   1      37.800  20.717  24.916  1.00  0.00     0.261 C 
BRANCH  27  28
ATOM     28  O   UNL A   1      38.300  21.895  25.572  1.00  0.00    -0.460 OA
BRANCH  28  29
ATOM     29  C   UNL A   1      39.388  21.693  26.356  1.00  0.00     0.338 C 
ATOM     30  O   UNL A   1      39.981  20.636  26.524  1.00  0.00    -0.246 OA
BRANCH  29  31
ATOM     31  C   UNL A   1      39.903  22.984  26.859  1.00  0.00     0.060 A 
ATOM     32  C   UNL A   1      39.433  24.157  26.254  1.00  0.00     0.016 A 
ATOM     33  C   UNL A   1      40.864  23.055  27.868  1.00  0.00     0.016 A 
ATOM     34  C   UNL A   1      39.955  25.401  26.617  1.00  0.00     0.010 A 
ATOM     35  C   UNL A   1      41.390  24.304  28.221  1.00  0.00     0.010 A 
ATOM     36  C   UNL A   1      40.967  25.488  27.581  1.00  0.00    -0.014 A 
BRANCH  36  37
ATOM     37  C   UNL A   1      41.673  26.781  27.820  1.00  0.00     0.031 A 
ATOM     38  C   UNL A   1      43.114  26.923  27.386  1.00  0.00     0.074 A 
ATOM     39  C   UNL A   1      41.068  27.820  28.434  1.00  0.00     0.049 A 
ATOM     40  N   UNL A   1      43.936  27.927  27.551  1.00  0.00    -0.248 NA
ATOM     41  C   UNL A   1      43.711  25.771  26.691  1.00  0.00     0.031 C 
ATOM     42  C   UNL A   1      39.696  27.827  28.939  1.00  0.00     0.029 A 
ATOM     43  N   UNL A   1      41.554  29.060  28.782  1.00  0.00    -0.354 N 
ATOM     44  C   UNL A   1      45.150  27.519  27.009  1.00  0.00     0.074 A 
ATOM     45  C   UNL A   1      44.970  26.159  26.552  1.00  0.00     0.031 C 
ATOM     46  C   UNL A   1      39.462  28.995  29.564  1.00  0.00     0.029 A 
ATOM     47  C   UNL A   1      40.670  29.816  29.518  1.00  0.00     0.049 A 
ATOM     48  H   UNL A   1      42.451  29.377  28.528  1.00  0.00     0.167 HD
ATOM     49  C   UNL A   1      46.303  28.216  26.867  1.00  0.00     0.034 A 
ATOM     50  C   UNL A   1      40.820  31.019  30.112  1.00  0.00     0.034 A 
ATOM     51  C   UNL A   1      46.482  29.581  27.281  1.00  0.00     0.049 A 
ATOM     52  C   UNL A   1      42.123  31.765  29.969  1.00  0.00     0.074 A 
ATOM     53  C   UNL A   1      47.586  30.396  27.098  1.00  0.00     0.029 A 
ATOM     54  N   UNL A   1      45.543  30.330  27.969  1.00  0.00    -0.354 N 
ATOM     55  N   UNL A   1      43.211  31.413  29.330  1.00  0.00    -0.248 NA
ATOM     56  C   UNL A   1      42.202  33.093  30.596  1.00  0.00     0.031 C 
ATOM     57  C   UNL A   1      47.327  31.626  27.710  1.00  0.00     0.029 A 
ATOM     58  C   UNL A   1      46.046  31.593  28.234  1.00  0.00     0.049 A 
ATOM     59  H   UNL A   1      44.648  30.013  28.232  1.00  0.00     0.167 HD
ATOM     60  C   UNL A   1      44.080  32.496  29.430  1.00  0.00     0.074 A 
ATOM     61  C   UNL A   1      43.390  33.517  30.188  1.00  0.00     0.031 C 
ATOM     62  C   UNL A   1      45.336  32.629  28.937  1.00  0.00     0.034 A 
BRANCH  49  63
ATOM     63  C   UNL A   1      47.459  27.524  26.191  1.00  0.00     0.023 A 
ATOM     64  C   UNL A   1      47.650  27.679  24.802  1.00  0.00     0.012 A 
ATOM     65  C   UNL A   1      48.386  26.769  26.935  1.00  0.00     0.148 A 
ATOM     66  C   UNL A   1      48.720  27.059  24.158  1.00  0.00     0.002 A 
ATOM     67  C   UNL A   1      49.478  26.195  26.295  1.00  0.00     0.091 A 
ATOM     68  F   UNL A   1      48.180  26.618  28.252  1.00  0.00    -0.205 F 
ATOM     69  C   UNL A   1      49.639  26.327  24.905  1.00  0.00     0.022 A 
BRANCH  67  70
ATOM     70  S   UNL A   1      50.763  25.304  27.178  1.00  0.00     0.127 S 
ATOM     71  O   UNL A   1      50.002  24.211  27.783  1.00  0.00    -0.237 OA
ATOM     72  O   UNL A   1      51.655  24.896  26.091  1.00  0.00    -0.237 OA
ATOM     73  O   UNL A   1      51.342  26.255  28.116  1.00  0.00    -0.744 OA
ENDBRANCH  67  70
ENDBRANCH  49  63
BRANCH  50  74
ATOM     74  C   UNL A   1      39.698  31.627  30.887  1.00  0.00     0.023 A 
ATOM     75  C   UNL A   1      38.753  32.440  30.234  1.00  0.00     0.012 A 
ATOM     76  C   UNL A   1      39.586  31.427  32.275  1.00  0.00     0.148 A 
ATOM     77  C   UNL A   1      37.733  33.063  30.957  1.00  0.00     0.002 A 
ATOM     78  C   UNL A   1      38.534  32.002  32.981  1.00  0.00     0.091 A 
ATOM     79  F   UNL A   1      40.526  30.695  32.880  1.00  0.00    -0.205 F 
ATOM     80  C   UNL A   1      37.617  32.836  32.325  1.00  0.00     0.022 A 
BRANCH  78  81
ATOM     81  S   UNL A   1      38.250  31.691  34.726  1.00  0.00     0.127 S 
ATOM     82  O   UNL A   1      38.203  30.231  34.766  1.00  0.00    -0.237 OA
ATOM     83  O   UNL A   1      39.443  32.286  35.331  1.00  0.00    -0.237 OA
ATOM     84  O   UNL A   1      37.001  32.363  35.051  1.00  0.00    -0.744 OA
ENDBRANCH  78  81
ENDBRANCH  50  74
BRANCH  62  85
ATOM     85  C   UNL A   1      46.038  33.949  29.134  1.00  0.00     0.023 A 
ATOM     86  C   UNL A   1      46.847  34.165  30.268  1.00  0.00     0.012 A 
ATOM     87  C   UNL A   1      45.955  34.953  28.146  1.00  0.00     0.148 A 
ATOM     88  C   UNL A   1      47.532  35.369  30.433  1.00  0.00     0.002 A 
ATOM     89  C   UNL A   1      46.683  36.128  28.290  1.00  0.00     0.091 A 
ATOM     90  F   UNL A   1      45.169  34.738  27.082  1.00  0.00    -0.205 F 
ATOM     91  C   UNL A   1      47.460  36.344  29.439  1.00  0.00     0.022 A 
BRANCH  89  92
ATOM     92  S   UNL A   1      46.732  37.395  27.017  1.00  0.00     0.127 S 
ATOM     93  O   UNL A   1      47.786  38.278  27.517  1.00  0.00    -0.237 OA
ATOM     94  O   UNL A   1      47.095  36.624  25.828  1.00  0.00    -0.237 OA
ATOM     95  O   UNL A   1      45.398  37.978  26.977  1.00  0.00    -0.744 OA
ENDBRANCH  89  92
ENDBRANCH  62  85
ENDBRANCH  36  37
ENDBRANCH  29  31
ENDBRANCH  28  29
ENDBRANCH  27  28
ENDBRANCH  26  27
ENDBRANCH   1  26
TORSDOF 20
ENDMDL
