MODEL 1
REMARK VINA RESULT:     -11.5      0.000      0.000
REMARK SMILES C[C@@H](Sc1nc(-c2ccc3c(c2)OCO3)ccc1C#N)C(=O)OCCOCCOC(=O)c1ccc(-c2c3nc(c(-c4cccc(S(=O)(=O)[O-])c4F)c4ccc([nH]4)c(-c4cccc(S(=O)(=O)[O-])c4F)c4nc(c(-c5cccc(S(=O)(=O)[O-])c5F)c5ccc2[nH]5)C=C4)C=C3)cc1
REMARK SMILES IDX 26 1 25 2 24 3 23 4 21 5 22 6 2 7 1 8 3 9 4 10 5 11 18 12
REMARK SMILES IDX 6 13 17 14 16 15 19 16 20 17 7 18 8 19 12 20 9 21 11 22
REMARK SMILES IDX 10 23 13 24 15 25 14 26 27 27 28 28 29 29 30 30 31 31 32 32
REMARK SMILES IDX 33 33 94 34 34 35 93 36 35 37 36 38 37 39 87 40 38 41 92 42
REMARK SMILES IDX 86 43 88 44 39 45 91 46 85 47 84 48 40 50 72 51 52 52 71 53
REMARK SMILES IDX 53 54 56 55 70 56 89 57 54 58 55 59 69 61 90 62 57 63 41 64
REMARK SMILES IDX 42 65 50 66 43 67 45 68 51 69 44 70 46 71 47 72 48 73 49 74
REMARK SMILES IDX 73 75 74 76 82 77 75 78 77 79 83 80 76 81 78 82 79 83 80 84
REMARK SMILES IDX 81 85 58 86 59 87 67 88 60 89 62 90 68 91 61 92 63 93 64 94
REMARK SMILES IDX 65 95 66 96
REMARK H PARENT 88 49 56 60
REMARK Flexibility Score: inf
ROOT
ATOM      1  O   UNL A   1      31.752  28.634  25.661  1.00  0.00    -0.374 OA
ENDROOT
BRANCH   1   2
ATOM      2  C   UNL A   1      31.567  27.773  26.782  1.00  0.00     0.202 C 
BRANCH   2   3
ATOM      3  C   UNL A   1      30.876  26.423  26.564  1.00  0.00     0.261 C 
BRANCH   3   4
ATOM      4  O   UNL A   1      31.677  25.325  27.019  1.00  0.00    -0.462 OA
BRANCH   4   5
ATOM      5  C   UNL A   1      31.234  24.079  26.685  1.00  0.00     0.319 C 
ATOM      6  O   UNL A   1      30.237  23.541  27.155  1.00  0.00    -0.251 OA
BRANCH   5   7
ATOM      7  C   UNL A   1      32.122  23.412  25.639  1.00  0.00     0.160 C 
ATOM      8  C   UNL A   1      32.634  22.034  26.058  1.00  0.00     0.032 C 
BRANCH   7   9
ATOM      9  S   UNL A   1      31.133  23.316  24.112  1.00  0.00    -0.090 SA
BRANCH   9  10
ATOM     10  C   UNL A   1      31.564  24.847  23.295  1.00  0.00     0.115 A 
ATOM     11  N   UNL A   1      30.638  25.848  23.305  1.00  0.00    -0.240 NA
ATOM     12  C   UNL A   1      32.844  25.011  22.768  1.00  0.00     0.084 A 
ATOM     13  C   UNL A   1      30.997  27.061  22.816  1.00  0.00     0.072 A 
ATOM     14  C   UNL A   1      33.207  26.274  22.302  1.00  0.00     0.024 A 
ATOM     15  C   UNL A   1      32.282  27.310  22.339  1.00  0.00     0.030 A 
BRANCH  12  16
ATOM     16  C   UNL A   1      33.782  23.933  22.654  1.00  0.00     0.102 C 
ATOM     17  N   UNL A   1      34.548  23.064  22.639  1.00  0.00    -0.192 NA
ENDBRANCH  12  16
BRANCH  13  18
ATOM     18  C   UNL A   1      29.975  28.122  22.806  1.00  0.00     0.004 A 
ATOM     19  C   UNL A   1      28.644  27.834  23.213  1.00  0.00     0.014 A 
ATOM     20  C   UNL A   1      30.264  29.414  22.331  1.00  0.00     0.061 A 
ATOM     21  C   UNL A   1      27.620  28.782  23.115  1.00  0.00     0.051 A 
ATOM     22  C   UNL A   1      29.230  30.328  22.231  1.00  0.00     0.166 A 
ATOM     23  C   UNL A   1      27.945  30.017  22.605  1.00  0.00     0.165 A 
ATOM     24  O   UNL A   1      29.329  31.594  21.741  1.00  0.00    -0.454 OA
ATOM     25  O   UNL A   1      27.076  31.041  22.399  1.00  0.00    -0.454 OA
ATOM     26  C   UNL A   1      27.954  32.025  21.810  1.00  0.00     0.468 C 
ENDBRANCH  13  18
ENDBRANCH   9  10
ENDBRANCH   7   9
ENDBRANCH   5   7
ENDBRANCH   4   5
ENDBRANCH   3   4
ENDBRANCH   2   3
ENDBRANCH   1   2
BRANCH   1  27
ATOM     27  C   UNL A   1      31.396  30.007  25.790  1.00  0.00     0.202 C 
BRANCH  27  28
ATOM     28  C   UNL A   1      32.494  31.043  26.075  1.00  0.00     0.261 C 
BRANCH  28  29
ATOM     29  O   UNL A   1      32.502  31.525  27.429  1.00  0.00    -0.460 OA
BRANCH  29  30
ATOM     30  C   UNL A   1      33.393  32.524  27.647  1.00  0.00     0.338 C 
ATOM     31  O   UNL A   1      33.144  33.714  27.765  1.00  0.00    -0.246 OA
BRANCH  30  32
ATOM     32  C   UNL A   1      34.734  31.982  27.927  1.00  0.00     0.060 A 
ATOM     33  C   UNL A   1      34.822  30.609  28.192  1.00  0.00     0.016 A 
ATOM     34  C   UNL A   1      35.851  32.807  28.060  1.00  0.00     0.016 A 
ATOM     35  C   UNL A   1      36.010  30.068  28.672  1.00  0.00     0.010 A 
ATOM     36  C   UNL A   1      37.044  32.260  28.542  1.00  0.00     0.010 A 
ATOM     37  C   UNL A   1      37.112  30.901  28.902  1.00  0.00    -0.014 A 
BRANCH  37  38
ATOM     38  C   UNL A   1      38.271  30.367  29.659  1.00  0.00     0.031 A 
ATOM     39  C   UNL A   1      38.467  30.776  31.095  1.00  0.00     0.074 A 
ATOM     40  C   UNL A   1      39.115  29.492  29.085  1.00  0.00     0.049 A 
ATOM     41  N   UNL A   1      39.403  30.422  31.937  1.00  0.00    -0.248 NA
ATOM     42  C   UNL A   1      37.479  31.711  31.658  1.00  0.00     0.031 C 
ATOM     43  C   UNL A   1      39.018  29.003  27.711  1.00  0.00     0.029 A 
ATOM     44  N   UNL A   1      40.229  28.868  29.588  1.00  0.00    -0.354 N 
ATOM     45  C   UNL A   1      39.143  31.117  33.112  1.00  0.00     0.074 A 
ATOM     46  C   UNL A   1      37.967  31.926  32.870  1.00  0.00     0.031 C 
ATOM     47  C   UNL A   1      40.038  28.162  27.474  1.00  0.00     0.029 A 
ATOM     48  C   UNL A   1      40.879  28.084  28.666  1.00  0.00     0.049 A 
ATOM     49  H   UNL A   1      40.534  28.973  30.518  1.00  0.00     0.167 HD
ATOM     50  C   UNL A   1      39.814  31.079  34.289  1.00  0.00     0.034 A 
ATOM     51  C   UNL A   1      42.035  27.399  28.765  1.00  0.00     0.034 A 
ATOM     52  C   UNL A   1      40.976  30.266  34.526  1.00  0.00     0.049 A 
ATOM     53  C   UNL A   1      42.786  27.409  30.069  1.00  0.00     0.074 A 
ATOM     54  C   UNL A   1      41.700  30.120  35.696  1.00  0.00     0.029 A 
ATOM     55  N   UNL A   1      41.603  29.481  33.570  1.00  0.00    -0.354 N 
ATOM     56  N   UNL A   1      42.472  27.993  31.201  1.00  0.00    -0.248 NA
ATOM     57  C   UNL A   1      44.036  26.637  30.120  1.00  0.00     0.031 C 
ATOM     58  C   UNL A   1      42.797  29.295  35.433  1.00  0.00     0.029 A 
ATOM     59  C   UNL A   1      42.718  28.868  34.116  1.00  0.00     0.049 A 
ATOM     60  H   UNL A   1      41.299  29.374  32.639  1.00  0.00     0.167 HD
ATOM     61  C   UNL A   1      43.458  27.620  32.109  1.00  0.00     0.074 A 
ATOM     62  C   UNL A   1      44.370  26.747  31.398  1.00  0.00     0.031 C 
ATOM     63  C   UNL A   1      43.598  27.971  33.412  1.00  0.00     0.034 A 
BRANCH  50  64
ATOM     64  C   UNL A   1      39.314  31.957  35.410  1.00  0.00     0.023 A 
ATOM     65  C   UNL A   1      38.390  31.455  36.349  1.00  0.00     0.012 A 
ATOM     66  C   UNL A   1      39.797  33.273  35.555  1.00  0.00     0.148 A 
ATOM     67  C   UNL A   1      37.921  32.261  37.386  1.00  0.00     0.002 A 
ATOM     68  C   UNL A   1      39.367  34.053  36.622  1.00  0.00     0.091 A 
ATOM     69  F   UNL A   1      40.662  33.741  34.644  1.00  0.00    -0.205 F 
ATOM     70  C   UNL A   1      38.416  33.555  37.528  1.00  0.00     0.022 A 
BRANCH  68  71
ATOM     71  S   UNL A   1      40.007  35.700  36.938  1.00  0.00     0.127 S 
ATOM     72  O   UNL A   1      41.434  35.434  37.108  1.00  0.00    -0.237 OA
ATOM     73  O   UNL A   1      39.660  36.405  35.703  1.00  0.00    -0.237 OA
ATOM     74  O   UNL A   1      39.317  36.181  38.127  1.00  0.00    -0.744 OA
ENDBRANCH  68  71
ENDBRANCH  50  64
BRANCH  51  75
ATOM     75  C   UNL A   1      42.549  26.626  27.599  1.00  0.00     0.023 A 
ATOM     76  C   UNL A   1      43.365  27.261  26.644  1.00  0.00     0.012 A 
ATOM     77  C   UNL A   1      42.229  25.263  27.434  1.00  0.00     0.148 A 
ATOM     78  C   UNL A   1      43.822  26.566  25.525  1.00  0.00     0.002 A 
ATOM     79  C   UNL A   1      42.735  24.562  26.348  1.00  0.00     0.091 A 
ATOM     80  F   UNL A   1      41.443  24.681  28.351  1.00  0.00    -0.205 F 
ATOM     81  C   UNL A   1      43.515  25.216  25.381  1.00  0.00     0.022 A 
BRANCH  79  82
ATOM     82  S   UNL A   1      42.490  22.795  26.142  1.00  0.00     0.127 S 
ATOM     83  O   UNL A   1      43.242  22.255  27.272  1.00  0.00    -0.237 OA
ATOM     84  O   UNL A   1      41.035  22.681  26.257  1.00  0.00    -0.237 OA
ATOM     85  O   UNL A   1      43.019  22.473  24.823  1.00  0.00    -0.744 OA
ENDBRANCH  79  82
ENDBRANCH  51  75
BRANCH  63  86
ATOM     86  C   UNL A   1      44.743  27.360  34.182  1.00  0.00     0.023 A 
ATOM     87  C   UNL A   1      46.002  27.994  34.218  1.00  0.00     0.012 A 
ATOM     88  C   UNL A   1      44.550  26.171  34.914  1.00  0.00     0.148 A 
ATOM     89  C   UNL A   1      47.060  27.428  34.929  1.00  0.00     0.002 A 
ATOM     90  C   UNL A   1      45.591  25.646  35.669  1.00  0.00     0.091 A 
ATOM     91  F   UNL A   1      43.351  25.574  34.857  1.00  0.00    -0.205 F 
ATOM     92  C   UNL A   1      46.852  26.263  35.662  1.00  0.00     0.022 A 
BRANCH  90  93
ATOM     93  S   UNL A   1      45.387  24.207  36.723  1.00  0.00     0.127 S 
ATOM     94  O   UNL A   1      44.264  24.612  37.566  1.00  0.00    -0.237 OA
ATOM     95  O   UNL A   1      45.075  23.157  35.753  1.00  0.00    -0.237 OA
ATOM     96  O   UNL A   1      46.655  24.031  37.418  1.00  0.00    -0.744 OA
ENDBRANCH  90  93
ENDBRANCH  63  86
ENDBRANCH  37  38
ENDBRANCH  30  32
ENDBRANCH  29  30
ENDBRANCH  28  29
ENDBRANCH  27  28
ENDBRANCH   1  27
TORSDOF 21
ENDMDL
MODEL 2
REMARK VINA RESULT:     -11.3      4.607      7.875
REMARK SMILES C[C@@H](Sc1nc(-c2ccc3c(c2)OCO3)ccc1C#N)C(=O)OCCOCCOC(=O)c1ccc(-c2c3nc(c(-c4cccc(S(=O)(=O)[O-])c4F)c4ccc([nH]4)c(-c4cccc(S(=O)(=O)[O-])c4F)c4nc(c(-c5cccc(S(=O)(=O)[O-])c5F)c5ccc2[nH]5)C=C4)C=C3)cc1
REMARK SMILES IDX 26 1 25 2 24 3 23 4 21 5 22 6 2 7 1 8 3 9 4 10 5 11 18 12
REMARK SMILES IDX 6 13 17 14 16 15 19 16 20 17 7 18 8 19 12 20 9 21 11 22
REMARK SMILES IDX 10 23 13 24 15 25 14 26 27 27 28 28 29 29 30 30 31 31 32 32
REMARK SMILES IDX 33 33 94 34 34 35 93 36 35 37 36 38 37 39 87 40 38 41 92 42
REMARK SMILES IDX 86 43 88 44 39 45 91 46 85 47 84 48 40 50 72 51 52 52 71 53
REMARK SMILES IDX 53 54 56 55 70 56 89 57 54 58 55 59 69 61 90 62 57 63 41 64
REMARK SMILES IDX 42 65 50 66 43 67 45 68 51 69 44 70 46 71 47 72 48 73 49 74
REMARK SMILES IDX 73 75 74 76 82 77 75 78 77 79 83 80 76 81 78 82 79 83 80 84
REMARK SMILES IDX 81 85 58 86 59 87 67 88 60 89 62 90 68 91 61 92 63 93 64 94
REMARK SMILES IDX 65 95 66 96
REMARK H PARENT 88 49 56 60
REMARK Flexibility Score: inf
ROOT
ATOM      1  O   UNL A   1      35.156  36.172  33.043  1.00  0.00    -0.374 OA
ENDROOT
BRANCH   1   2
ATOM      2  C   UNL A   1      33.739  36.206  33.193  1.00  0.00     0.202 C 
BRANCH   2   3
ATOM      3  C   UNL A   1      32.877  36.509  31.964  1.00  0.00     0.261 C 
BRANCH   3   4
ATOM      4  O   UNL A   1      32.593  35.331  31.197  1.00  0.00    -0.462 OA
BRANCH   4   5
ATOM      5  C   UNL A   1      33.053  35.324  29.913  1.00  0.00     0.319 C 
ATOM      6  O   UNL A   1      32.518  35.906  28.975  1.00  0.00    -0.251 OA
BRANCH   5   7
ATOM      7  C   UNL A   1      34.331  34.506  29.763  1.00  0.00     0.160 C 
ATOM      8  C   UNL A   1      34.330  33.210  30.573  1.00  0.00     0.032 C 
BRANCH   7   9
ATOM      9  S   UNL A   1      34.520  34.174  27.981  1.00  0.00    -0.090 SA
BRANCH   9  10
ATOM     10  C   UNL A   1      35.113  32.488  27.979  1.00  0.00     0.115 A 
ATOM     11  N   UNL A   1      34.226  31.508  27.645  1.00  0.00    -0.240 NA
ATOM     12  C   UNL A   1      36.463  32.231  28.215  1.00  0.00     0.084 A 
ATOM     13  C   UNL A   1      34.689  30.242  27.499  1.00  0.00     0.072 A 
ATOM     14  C   UNL A   1      36.929  30.931  28.026  1.00  0.00     0.024 A 
ATOM     15  C   UNL A   1      36.039  29.931  27.653  1.00  0.00     0.030 A 
BRANCH  12  16
ATOM     16  C   UNL A   1      37.377  33.236  28.674  1.00  0.00     0.102 C 
ATOM     17  N   UNL A   1      38.085  34.039  29.115  1.00  0.00    -0.192 NA
ENDBRANCH  12  16
BRANCH  13  18
ATOM     18  C   UNL A   1      33.711  29.191  27.168  1.00  0.00     0.004 A 
ATOM     19  C   UNL A   1      32.374  29.287  27.640  1.00  0.00     0.014 A 
ATOM     20  C   UNL A   1      34.085  28.043  26.447  1.00  0.00     0.061 A 
ATOM     21  C   UNL A   1      31.445  28.260  27.441  1.00  0.00     0.051 A 
ATOM     22  C   UNL A   1      33.152  27.036  26.278  1.00  0.00     0.166 A 
ATOM     23  C   UNL A   1      31.872  27.140  26.768  1.00  0.00     0.165 A 
ATOM     24  O   UNL A   1      33.368  25.843  25.659  1.00  0.00    -0.454 OA
ATOM     25  O   UNL A   1      31.123  26.032  26.521  1.00  0.00    -0.454 OA
ATOM     26  C   UNL A   1      32.093  25.196  25.854  1.00  0.00     0.468 C 
ENDBRANCH  13  18
ENDBRANCH   9  10
ENDBRANCH   7   9
ENDBRANCH   5   7
ENDBRANCH   4   5
ENDBRANCH   3   4
ENDBRANCH   2   3
ENDBRANCH   1   2
BRANCH   1  27
ATOM     27  C   UNL A   1      35.847  34.965  33.350  1.00  0.00     0.202 C 
BRANCH  27  28
ATOM     28  C   UNL A   1      35.152  33.903  34.215  1.00  0.00     0.261 C 
BRANCH  28  29
ATOM     29  O   UNL A   1      35.553  32.556  33.919  1.00  0.00    -0.460 OA
BRANCH  29  30
ATOM     30  C   UNL A   1      36.770  32.226  34.419  1.00  0.00     0.338 C 
ATOM     31  O   UNL A   1      37.166  32.407  35.560  1.00  0.00    -0.246 OA
BRANCH  30  32
ATOM     32  C   UNL A   1      37.535  31.420  33.451  1.00  0.00     0.060 A 
ATOM     33  C   UNL A   1      38.471  30.518  33.974  1.00  0.00     0.016 A 
ATOM     34  C   UNL A   1      37.441  31.633  32.076  1.00  0.00     0.016 A 
ATOM     35  C   UNL A   1      39.375  29.886  33.128  1.00  0.00     0.010 A 
ATOM     36  C   UNL A   1      38.351  30.993  31.228  1.00  0.00     0.010 A 
ATOM     37  C   UNL A   1      39.356  30.161  31.756  1.00  0.00    -0.014 A 
BRANCH  37  38
ATOM     38  C   UNL A   1      40.484  29.694  30.913  1.00  0.00     0.031 A 
ATOM     39  C   UNL A   1      41.773  30.474  30.904  1.00  0.00     0.074 A 
ATOM     40  C   UNL A   1      40.375  28.562  30.195  1.00  0.00     0.049 A 
ATOM     41  N   UNL A   1      42.880  30.237  30.249  1.00  0.00    -0.248 NA
ATOM     42  C   UNL A   1      41.820  31.683  31.743  1.00  0.00     0.031 C 
ATOM     43  C   UNL A   1      39.190  27.710  30.139  1.00  0.00     0.029 A 
ATOM     44  N   UNL A   1      41.277  27.942  29.367  1.00  0.00    -0.354 N 
ATOM     45  C   UNL A   1      43.740  31.283  30.563  1.00  0.00     0.074 A 
ATOM     46  C   UNL A   1      43.020  32.166  31.457  1.00  0.00     0.031 C 
ATOM     47  C   UNL A   1      39.431  26.680  29.310  1.00  0.00     0.029 A 
ATOM     48  C   UNL A   1      40.773  26.823  28.750  1.00  0.00     0.049 A 
ATOM     49  H   UNL A   1      42.196  28.267  29.229  1.00  0.00     0.167 HD
ATOM     50  C   UNL A   1      45.015  31.488  30.153  1.00  0.00     0.034 A 
ATOM     51  C   UNL A   1      41.322  26.019  27.819  1.00  0.00     0.034 A 
ATOM     52  C   UNL A   1      45.728  30.602  29.272  1.00  0.00     0.049 A 
ATOM     53  C   UNL A   1      42.724  26.293  27.346  1.00  0.00     0.074 A 
ATOM     54  C   UNL A   1      47.038  30.694  28.835  1.00  0.00     0.029 A 
ATOM     55  N   UNL A   1      45.186  29.477  28.670  1.00  0.00    -0.354 N 
ATOM     56  N   UNL A   1      43.559  27.230  27.728  1.00  0.00    -0.248 NA
ATOM     57  C   UNL A   1      43.274  25.377  26.337  1.00  0.00     0.031 C 
ATOM     58  C   UNL A   1      47.269  29.660  27.924  1.00  0.00     0.029 A 
ATOM     59  C   UNL A   1      46.126  28.880  27.847  1.00  0.00     0.049 A 
ATOM     60  H   UNL A   1      44.267  29.149  28.808  1.00  0.00     0.167 HD
ATOM     61  C   UNL A   1      44.745  26.988  27.042  1.00  0.00     0.074 A 
ATOM     62  C   UNL A   1      44.524  25.806  26.234  1.00  0.00     0.031 C 
ATOM     63  C   UNL A   1      45.910  27.682  27.076  1.00  0.00     0.034 A 
BRANCH  50  64
ATOM     64  C   UNL A   1      45.719  32.728  30.644  1.00  0.00     0.023 A 
ATOM     65  C   UNL A   1      46.609  32.658  31.735  1.00  0.00     0.012 A 
ATOM     66  C   UNL A   1      45.528  33.963  29.991  1.00  0.00     0.148 A 
ATOM     67  C   UNL A   1      47.261  33.801  32.197  1.00  0.00     0.002 A 
ATOM     68  C   UNL A   1      46.223  35.086  30.422  1.00  0.00     0.091 A 
ATOM     69  F   UNL A   1      44.666  34.017  28.966  1.00  0.00    -0.205 F 
ATOM     70  C   UNL A   1      47.076  35.011  31.535  1.00  0.00     0.022 A 
BRANCH  68  71
ATOM     71  S   UNL A   1      46.116  36.672  29.585  1.00  0.00     0.127 S 
ATOM     72  O   UNL A   1      44.684  36.953  29.670  1.00  0.00    -0.237 OA
ATOM     73  O   UNL A   1      46.956  37.521  30.430  1.00  0.00    -0.237 OA
ATOM     74  O   UNL A   1      46.629  36.454  28.239  1.00  0.00    -0.744 OA
ENDBRANCH  68  71
ENDBRANCH  50  64
BRANCH  51  75
ATOM     75  C   UNL A   1      40.553  24.860  27.283  1.00  0.00     0.023 A 
ATOM     76  C   UNL A   1      39.344  25.083  26.597  1.00  0.00     0.012 A 
ATOM     77  C   UNL A   1      41.016  23.541  27.454  1.00  0.00     0.148 A 
ATOM     78  C   UNL A   1      38.588  24.010  26.123  1.00  0.00     0.002 A 
ATOM     79  C   UNL A   1      40.288  22.481  26.929  1.00  0.00     0.091 A 
ATOM     80  F   UNL A   1      42.165  23.352  28.118  1.00  0.00    -0.205 F 
ATOM     81  C   UNL A   1      39.064  22.711  26.281  1.00  0.00     0.022 A 
BRANCH  79  82
ATOM     82  S   UNL A   1      40.878  20.786  26.981  1.00  0.00     0.127 S 
ATOM     83  O   UNL A   1      39.842  20.086  26.226  1.00  0.00    -0.237 OA
ATOM     84  O   UNL A   1      42.169  20.899  26.300  1.00  0.00    -0.237 OA
ATOM     85  O   UNL A   1      40.968  20.441  28.394  1.00  0.00    -0.744 OA
ENDBRANCH  79  82
ENDBRANCH  51  75
BRANCH  63  86
ATOM     86  C   UNL A   1      47.065  27.148  26.266  1.00  0.00     0.023 A 
ATOM     87  C   UNL A   1      47.087  27.294  24.864  1.00  0.00     0.012 A 
ATOM     88  C   UNL A   1      48.161  26.540  26.911  1.00  0.00     0.148 A 
ATOM     89  C   UNL A   1      48.155  26.800  24.116  1.00  0.00     0.002 A 
ATOM     90  C   UNL A   1      49.250  26.105  26.166  1.00  0.00     0.091 A 
ATOM     91  F   UNL A   1      48.118  26.396  28.244  1.00  0.00    -0.205 F 
ATOM     92  C   UNL A   1      49.239  26.217  24.766  1.00  0.00     0.022 A 
BRANCH  90  93
ATOM     93  S   UNL A   1      50.732  25.434  26.924  1.00  0.00     0.127 S 
ATOM     94  O   UNL A   1      50.208  24.256  27.611  1.00  0.00    -0.237 OA
ATOM     95  O   UNL A   1      51.567  25.141  25.759  1.00  0.00    -0.237 OA
ATOM     96  O   UNL A   1      51.253  26.481  27.793  1.00  0.00    -0.744 OA
ENDBRANCH  90  93
ENDBRANCH  63  86
ENDBRANCH  37  38
ENDBRANCH  30  32
ENDBRANCH  29  30
ENDBRANCH  28  29
ENDBRANCH  27  28
ENDBRANCH   1  27
TORSDOF 21
ENDMDL
MODEL 3
REMARK VINA RESULT:     -11.3      4.702     10.370
REMARK SMILES C[C@@H](Sc1nc(-c2ccc3c(c2)OCO3)ccc1C#N)C(=O)OCCOCCOC(=O)c1ccc(-c2c3nc(c(-c4cccc(S(=O)(=O)[O-])c4F)c4ccc([nH]4)c(-c4cccc(S(=O)(=O)[O-])c4F)c4nc(c(-c5cccc(S(=O)(=O)[O-])c5F)c5ccc2[nH]5)C=C4)C=C3)cc1
REMARK SMILES IDX 26 1 25 2 24 3 23 4 21 5 22 6 2 7 1 8 3 9 4 10 5 11 18 12
REMARK SMILES IDX 6 13 17 14 16 15 19 16 20 17 7 18 8 19 12 20 9 21 11 22
REMARK SMILES IDX 10 23 13 24 15 25 14 26 27 27 28 28 29 29 30 30 31 31 32 32
REMARK SMILES IDX 33 33 94 34 34 35 93 36 35 37 36 38 37 39 87 40 38 41 92 42
REMARK SMILES IDX 86 43 88 44 39 45 91 46 85 47 84 48 40 50 72 51 52 52 71 53
REMARK SMILES IDX 53 54 56 55 70 56 89 57 54 58 55 59 69 61 90 62 57 63 41 64
REMARK SMILES IDX 42 65 50 66 43 67 45 68 51 69 44 70 46 71 47 72 48 73 49 74
REMARK SMILES IDX 73 75 74 76 82 77 75 78 77 79 83 80 76 81 78 82 79 83 80 84
REMARK SMILES IDX 81 85 58 86 59 87 67 88 60 89 62 90 68 91 61 92 63 93 64 94
REMARK SMILES IDX 65 95 66 96
REMARK H PARENT 88 49 56 60
REMARK Flexibility Score: inf
ROOT
ATOM      1  O   UNL A   1      35.445  35.974  33.172  1.00  0.00    -0.374 OA
ENDROOT
BRANCH   1   2
ATOM      2  C   UNL A   1      34.022  35.986  33.260  1.00  0.00     0.202 C 
BRANCH   2   3
ATOM      3  C   UNL A   1      33.215  36.457  32.046  1.00  0.00     0.261 C 
BRANCH   3   4
ATOM      4  O   UNL A   1      32.703  35.362  31.277  1.00  0.00    -0.462 OA
BRANCH   4   5
ATOM      5  C   UNL A   1      33.096  35.307  29.973  1.00  0.00     0.319 C 
ATOM      6  O   UNL A   1      32.532  35.883  29.047  1.00  0.00    -0.251 OA
BRANCH   5   7
ATOM      7  C   UNL A   1      34.336  34.441  29.779  1.00  0.00     0.160 C 
ATOM      8  C   UNL A   1      34.307  33.138  30.576  1.00  0.00     0.032 C 
BRANCH   7   9
ATOM      9  S   UNL A   1      34.464  34.122  27.990  1.00  0.00    -0.090 SA
BRANCH   9  10
ATOM     10  C   UNL A   1      35.065  32.438  27.955  1.00  0.00     0.115 A 
ATOM     11  N   UNL A   1      34.175  31.459  27.625  1.00  0.00    -0.240 NA
ATOM     12  C   UNL A   1      36.419  32.185  28.164  1.00  0.00     0.084 A 
ATOM     13  C   UNL A   1      34.642  30.197  27.455  1.00  0.00     0.072 A 
ATOM     14  C   UNL A   1      36.887  30.890  27.951  1.00  0.00     0.024 A 
ATOM     15  C   UNL A   1      35.995  29.891  27.581  1.00  0.00     0.030 A 
BRANCH  12  16
ATOM     16  C   UNL A   1      37.336  33.188  28.619  1.00  0.00     0.102 C 
ATOM     17  N   UNL A   1      38.071  33.969  29.058  1.00  0.00    -0.192 NA
ENDBRANCH  12  16
BRANCH  13  18
ATOM     18  C   UNL A   1      33.663  29.145  27.128  1.00  0.00     0.004 A 
ATOM     19  C   UNL A   1      32.327  29.242  27.605  1.00  0.00     0.014 A 
ATOM     20  C   UNL A   1      34.034  27.997  26.406  1.00  0.00     0.061 A 
ATOM     21  C   UNL A   1      31.398  28.214  27.411  1.00  0.00     0.051 A 
ATOM     22  C   UNL A   1      33.100  26.990  26.240  1.00  0.00     0.166 A 
ATOM     23  C   UNL A   1      31.822  27.094  26.736  1.00  0.00     0.165 A 
ATOM     24  O   UNL A   1      33.314  25.797  25.621  1.00  0.00    -0.454 OA
ATOM     25  O   UNL A   1      31.073  25.986  26.492  1.00  0.00    -0.454 OA
ATOM     26  C   UNL A   1      32.040  25.150  25.821  1.00  0.00     0.468 C 
ENDBRANCH  13  18
ENDBRANCH   9  10
ENDBRANCH   7   9
ENDBRANCH   5   7
ENDBRANCH   4   5
ENDBRANCH   3   4
ENDBRANCH   2   3
ENDBRANCH   1   2
BRANCH   1  27
ATOM     27  C   UNL A   1      36.113  34.718  33.103  1.00  0.00     0.202 C 
BRANCH  27  28
ATOM     28  C   UNL A   1      35.643  33.568  34.006  1.00  0.00     0.261 C 
BRANCH  28  29
ATOM     29  O   UNL A   1      36.025  32.265  33.537  1.00  0.00    -0.460 OA
BRANCH  29  30
ATOM     30  C   UNL A   1      37.183  31.808  34.073  1.00  0.00     0.338 C 
ATOM     31  O   UNL A   1      37.505  31.836  35.251  1.00  0.00    -0.246 OA
BRANCH  30  32
ATOM     32  C   UNL A   1      37.973  31.070  33.072  1.00  0.00     0.060 A 
ATOM     33  C   UNL A   1      38.907  30.144  33.554  1.00  0.00     0.016 A 
ATOM     34  C   UNL A   1      37.901  31.367  31.711  1.00  0.00     0.016 A 
ATOM     35  C   UNL A   1      39.832  29.573  32.687  1.00  0.00     0.010 A 
ATOM     36  C   UNL A   1      38.831  30.789  30.841  1.00  0.00     0.010 A 
ATOM     37  C   UNL A   1      39.834  29.934  31.334  1.00  0.00    -0.014 A 
BRANCH  37  38
ATOM     38  C   UNL A   1      40.981  29.529  30.485  1.00  0.00     0.031 A 
ATOM     39  C   UNL A   1      40.855  28.311  29.606  1.00  0.00     0.074 A 
ATOM     40  C   UNL A   1      42.107  30.262  30.464  1.00  0.00     0.049 A 
ATOM     41  N   UNL A   1      41.728  27.789  28.784  1.00  0.00    -0.248 NA
ATOM     42  C   UNL A   1      39.577  27.583  29.664  1.00  0.00     0.031 C 
ATOM     43  C   UNL A   1      42.340  31.472  31.250  1.00  0.00     0.029 A 
ATOM     44  N   UNL A   1      43.271  30.088  29.758  1.00  0.00    -0.354 N 
ATOM     45  C   UNL A   1      41.124  26.654  28.257  1.00  0.00     0.074 A 
ATOM     46  C   UNL A   1      39.814  26.553  28.864  1.00  0.00     0.031 C 
ATOM     47  C   UNL A   1      43.578  31.927  30.993  1.00  0.00     0.029 A 
ATOM     48  C   UNL A   1      44.235  31.021  30.055  1.00  0.00     0.049 A 
ATOM     49  H   UNL A   1      43.403  29.365  29.103  1.00  0.00     0.167 HD
ATOM     50  C   UNL A   1      41.610  25.778  27.344  1.00  0.00     0.034 A 
ATOM     51  C   UNL A   1      45.511  31.119  29.635  1.00  0.00     0.034 A 
ATOM     52  C   UNL A   1      42.910  25.888  26.737  1.00  0.00     0.049 A 
ATOM     53  C   UNL A   1      46.043  30.108  28.655  1.00  0.00     0.074 A 
ATOM     54  C   UNL A   1      43.477  25.081  25.767  1.00  0.00     0.029 A 
ATOM     55  N   UNL A   1      43.856  26.848  27.059  1.00  0.00    -0.354 N 
ATOM     56  N   UNL A   1      45.425  29.097  28.091  1.00  0.00    -0.248 NA
ATOM     57  C   UNL A   1      47.439  30.271  28.226  1.00  0.00     0.031 C 
ATOM     58  C   UNL A   1      44.787  25.516  25.546  1.00  0.00     0.029 A 
ATOM     59  C   UNL A   1      45.012  26.640  26.326  1.00  0.00     0.049 A 
ATOM     60  H   UNL A   1      43.726  27.573  27.713  1.00  0.00     0.167 HD
ATOM     61  C   UNL A   1      46.341  28.534  27.208  1.00  0.00     0.074 A 
ATOM     62  C   UNL A   1      47.550  29.328  27.302  1.00  0.00     0.031 C 
ATOM     63  C   UNL A   1      46.197  27.457  26.397  1.00  0.00     0.034 A 
BRANCH  50  64
ATOM     64  C   UNL A   1      40.735  24.612  26.955  1.00  0.00     0.023 A 
ATOM     65  C   UNL A   1      39.433  24.832  26.463  1.00  0.00     0.012 A 
ATOM     66  C   UNL A   1      41.226  23.293  27.039  1.00  0.00     0.148 A 
ATOM     67  C   UNL A   1      38.616  23.759  26.105  1.00  0.00     0.002 A 
ATOM     68  C   UNL A   1      40.427  22.233  26.628  1.00  0.00     0.091 A 
ATOM     69  F   UNL A   1      42.460  23.099  27.524  1.00  0.00    -0.205 F 
ATOM     70  C   UNL A   1      39.117  22.462  26.178  1.00  0.00     0.022 A 
BRANCH  68  71
ATOM     71  S   UNL A   1      41.009  20.534  26.606  1.00  0.00     0.127 S 
ATOM     72  O   UNL A   1      42.185  20.637  25.744  1.00  0.00    -0.237 OA
ATOM     73  O   UNL A   1      41.308  20.295  28.019  1.00  0.00    -0.237 OA
ATOM     74  O   UNL A   1      39.912  19.738  26.073  1.00  0.00    -0.744 OA
ENDBRANCH  68  71
ENDBRANCH  50  64
BRANCH  51  75
ATOM     75  C   UNL A   1      46.376  32.230  30.123  1.00  0.00     0.023 A 
ATOM     76  C   UNL A   1      47.076  32.088  31.336  1.00  0.00     0.012 A 
ATOM     77  C   UNL A   1      46.504  33.426  29.390  1.00  0.00     0.148 A 
ATOM     78  C   UNL A   1      47.859  33.132  31.831  1.00  0.00     0.002 A 
ATOM     79  C   UNL A   1      47.331  34.439  29.859  1.00  0.00     0.091 A 
ATOM     80  F   UNL A   1      45.822  33.542  28.242  1.00  0.00    -0.205 F 
ATOM     81  C   UNL A   1      47.993  34.302  31.089  1.00  0.00     0.022 A 
BRANCH  79  82
ATOM     82  S   UNL A   1      47.656  35.932  28.917  1.00  0.00     0.127 S 
ATOM     83  O   UNL A   1      48.207  36.816  29.941  1.00  0.00    -0.237 OA
ATOM     84  O   UNL A   1      48.624  35.455  27.928  1.00  0.00    -0.237 OA
ATOM     85  O   UNL A   1      46.373  36.338  28.361  1.00  0.00    -0.744 OA
ENDBRANCH  79  82
ENDBRANCH  51  75
BRANCH  63  86
ATOM     86  C   UNL A   1      47.350  27.105  25.489  1.00  0.00     0.023 A 
ATOM     87  C   UNL A   1      48.361  26.224  25.923  1.00  0.00     0.012 A 
ATOM     88  C   UNL A   1      47.401  27.619  24.177  1.00  0.00     0.148 A 
ATOM     89  C   UNL A   1      49.427  25.900  25.084  1.00  0.00     0.002 A 
ATOM     90  C   UNL A   1      48.433  27.243  23.327  1.00  0.00     0.091 A 
ATOM     91  F   UNL A   1      46.439  28.467  23.786  1.00  0.00    -0.205 F 
ATOM     92  C   UNL A   1      49.457  26.400  23.785  1.00  0.00     0.022 A 
BRANCH  90  93
ATOM     93  S   UNL A   1      48.500  27.756  21.607  1.00  0.00     0.127 S 
ATOM     94  O   UNL A   1      49.320  28.962  21.688  1.00  0.00    -0.237 OA
ATOM     95  O   UNL A   1      49.156  26.613  20.971  1.00  0.00    -0.237 OA
ATOM     96  O   UNL A   1      47.119  27.968  21.193  1.00  0.00    -0.744 OA
ENDBRANCH  90  93
ENDBRANCH  63  86
ENDBRANCH  37  38
ENDBRANCH  30  32
ENDBRANCH  29  30
ENDBRANCH  28  29
ENDBRANCH  27  28
ENDBRANCH   1  27
TORSDOF 21
ENDMDL
