MODEL 1
REMARK VINA RESULT:      -9.7      0.000      0.000
REMARK SMILES CC(C)C[C@H](NC(=O)[C@H](C)NC(=O)[C@@H](NC(=O)CNC(=O)OCc1ccccc1)C(C)C)C(=O)OCCOCCOC(=O)c1ccc(-c2c3nc(c(-c4cccc(S(=O)(=O)[O-])c4F)c4ccc([nH]4)c(-c4cccc(S(=O)(=O)[O-])c4F)c4nc(c(-c5cccc(S(=O)(=O)[O-])c5F)c5ccc2[nH]5)C=C4)C=C3)cc1
REMARK SMILES IDX 33 1 34 2 5 3 4 4 2 5 1 6 3 7 6 8 7 9 8 11 9 12 10 13 11 14
REMARK SMILES IDX 12 15 13 17 14 18 15 19 16 20 17 22 18 23 19 24 20 25 21 27
REMARK SMILES IDX 22 28 23 29 24 30 25 31 29 32 26 33 28 34 27 35 30 36 31 37
REMARK SMILES IDX 32 38 35 39 36 40 37 41 38 42 39 43 40 44 41 45 42 46 43 47
REMARK SMILES IDX 44 48 45 49 106 50 46 51 105 52 47 53 48 54 49 55 99 56
REMARK SMILES IDX 50 57 104 58 98 59 100 60 51 61 103 62 97 63 96 64 52 66
REMARK SMILES IDX 84 67 64 68 83 69 65 70 68 71 82 72 101 73 66 74 67 75 81 77
REMARK SMILES IDX 102 78 69 79 53 80 54 81 62 82 55 83 57 84 63 85 56 86 58 87
REMARK SMILES IDX 59 88 60 89 61 90 85 91 86 92 94 93 87 94 89 95 95 96 88 97
REMARK SMILES IDX 90 98 91 99 92 100 93 101 70 102 71 103 79 104 72 105 74 106
REMARK SMILES IDX 80 107 73 108 75 109 76 110 77 111 78 112
REMARK H PARENT 6 10 11 16 15 21 19 26 100 65 68 76
REMARK Flexibility Score: inf
ROOT
ATOM      1  C   UNL A   1      33.932  21.069  25.928  1.00  0.00     0.328 C 
ATOM      2  O   UNL A   1      33.714  20.921  27.126  1.00  0.00    -0.250 OA
ENDROOT
BRANCH   1   3
ATOM      3  C   UNL A   1      33.591  19.994  24.853  1.00  0.00     0.192 C 
BRANCH   3   4
ATOM      4  C   UNL A   1      34.746  18.994  24.513  1.00  0.00     0.040 C 
BRANCH   4   5
ATOM      5  C   UNL A   1      34.263  17.572  24.200  1.00  0.00    -0.015 C 
ATOM      6  C   UNL A   1      34.965  16.593  25.076  1.00  0.00     0.007 C 
ATOM      7  C   UNL A   1      32.811  17.217  24.283  1.00  0.00     0.007 C 
ENDBRANCH   4   5
ENDBRANCH   3   4
BRANCH   3   8
ATOM      8  N   UNL A   1      32.879  20.405  23.629  1.00  0.00    -0.341 N 
ATOM      9  C   UNL A   1      32.370  21.660  23.398  1.00  0.00     0.242 C 
ATOM     10  H   UNL A   1      32.759  19.729  22.923  1.00  0.00     0.164 HD
ATOM     11  O   UNL A   1      32.903  22.290  22.473  1.00  0.00    -0.273 OA
BRANCH   9  12
ATOM     12  C   UNL A   1      31.051  22.147  24.082  1.00  0.00     0.168 C 
ATOM     13  C   UNL A   1      30.923  23.412  23.165  1.00  0.00     0.041 C 
BRANCH  12  14
ATOM     14  N   UNL A   1      30.847  22.588  25.537  1.00  0.00    -0.343 N 
ATOM     15  C   UNL A   1      31.196  23.467  26.534  1.00  0.00     0.243 C 
ATOM     16  H   UNL A   1      30.176  21.979  25.923  1.00  0.00     0.164 HD
ATOM     17  O   UNL A   1      30.829  23.013  27.637  1.00  0.00    -0.273 OA
BRANCH  15  18
ATOM     18  C   UNL A   1      31.846  24.993  26.606  1.00  0.00     0.174 C 
BRANCH  18  19
ATOM     19  N   UNL A   1      33.293  25.143  26.324  1.00  0.00    -0.343 N 
ATOM     20  C   UNL A   1      33.998  25.725  25.305  1.00  0.00     0.240 C 
ATOM     21  H   UNL A   1      33.867  24.741  27.015  1.00  0.00     0.164 HD
ATOM     22  O   UNL A   1      34.793  26.608  25.673  1.00  0.00    -0.273 OA
BRANCH  20  23
ATOM     23  C   UNL A   1      33.911  25.414  23.778  1.00  0.00     0.219 C 
BRANCH  23  24
ATOM     24  N   UNL A   1      34.109  26.465  22.808  1.00  0.00    -0.312 N 
ATOM     25  C   UNL A   1      33.287  27.221  22.020  1.00  0.00     0.407 C 
ATOM     26  H   UNL A   1      35.060  26.691  22.685  1.00  0.00     0.167 HD
ATOM     27  O   UNL A   1      33.786  28.202  21.510  1.00  0.00    -0.225 OA
BRANCH  25  28
ATOM     28  O   UNL A   1      32.028  26.763  21.821  1.00  0.00    -0.445 OA
BRANCH  28  29
ATOM     29  C   UNL A   1      30.902  26.997  22.760  1.00  0.00     0.270 C 
BRANCH  29  30
ATOM     30  C   UNL A   1      29.972  28.213  22.686  1.00  0.00    -0.011 A 
ATOM     31  C   UNL A   1      28.655  28.159  23.190  1.00  0.00     0.007 A 
ATOM     32  C   UNL A   1      30.362  29.390  22.041  1.00  0.00     0.007 A 
ATOM     33  C   UNL A   1      27.707  29.127  22.825  1.00  0.00     0.000 A 
ATOM     34  C   UNL A   1      29.410  30.331  21.637  1.00  0.00     0.000 A 
ATOM     35  C   UNL A   1      28.073  30.176  21.989  1.00  0.00     0.000 A 
ENDBRANCH  29  30
ENDBRANCH  28  29
ENDBRANCH  25  28
ENDBRANCH  23  24
ENDBRANCH  20  23
ENDBRANCH  18  19
BRANCH  18  36
ATOM     36  C   UNL A   1      30.965  26.207  26.120  1.00  0.00     0.015 C 
ATOM     37  C   UNL A   1      29.464  25.944  26.005  1.00  0.00     0.010 C 
ATOM     38  C   UNL A   1      31.139  27.495  26.961  1.00  0.00     0.010 C 
ENDBRANCH  18  36
ENDBRANCH  15  18
ENDBRANCH  12  14
ENDBRANCH   9  12
ENDBRANCH   3   8
ENDBRANCH   1   3
BRANCH   1  39
ATOM     39  O   UNL A   1      34.429  22.211  25.377  1.00  0.00    -0.462 OA
BRANCH  39  40
ATOM     40  C   UNL A   1      35.749  22.643  25.754  1.00  0.00     0.261 C 
BRANCH  40  41
ATOM     41  C   UNL A   1      36.745  22.784  24.599  1.00  0.00     0.202 C 
BRANCH  41  42
ATOM     42  O   UNL A   1      37.427  21.614  24.181  1.00  0.00    -0.374 OA
BRANCH  42  43
ATOM     43  C   UNL A   1      38.002  20.804  25.201  1.00  0.00     0.202 C 
BRANCH  43  44
ATOM     44  C   UNL A   1      39.204  21.359  25.989  1.00  0.00     0.261 C 
BRANCH  44  45
ATOM     45  O   UNL A   1      40.083  20.370  26.572  1.00  0.00    -0.460 OA
BRANCH  45  46
ATOM     46  C   UNL A   1      41.355  20.321  26.086  1.00  0.00     0.338 C 
ATOM     47  O   UNL A   1      41.823  19.463  25.358  1.00  0.00    -0.246 OA
BRANCH  46  48
ATOM     48  C   UNL A   1      42.166  21.441  26.626  1.00  0.00     0.060 A 
ATOM     49  C   UNL A   1      42.467  21.547  27.981  1.00  0.00     0.016 A 
ATOM     50  C   UNL A   1      42.533  22.480  25.771  1.00  0.00     0.016 A 
ATOM     51  C   UNL A   1      43.051  22.734  28.465  1.00  0.00     0.010 A 
ATOM     52  C   UNL A   1      43.317  23.539  26.218  1.00  0.00     0.010 A 
ATOM     53  C   UNL A   1      43.438  23.766  27.588  1.00  0.00    -0.014 A 
BRANCH  53  54
ATOM     54  C   UNL A   1      43.714  25.164  28.051  1.00  0.00     0.031 A 
ATOM     55  C   UNL A   1      45.160  25.613  28.245  1.00  0.00     0.074 A 
ATOM     56  C   UNL A   1      42.722  26.036  28.319  1.00  0.00     0.049 A 
ATOM     57  N   UNL A   1      45.630  26.772  28.636  1.00  0.00    -0.248 NA
ATOM     58  C   UNL A   1      46.221  24.613  28.013  1.00  0.00     0.031 C 
ATOM     59  C   UNL A   1      41.291  25.739  28.271  1.00  0.00     0.029 A 
ATOM     60  N   UNL A   1      42.775  27.355  28.699  1.00  0.00    -0.354 N 
ATOM     61  C   UNL A   1      47.010  26.610  28.752  1.00  0.00     0.074 A 
ATOM     62  C   UNL A   1      47.297  25.227  28.470  1.00  0.00     0.031 C 
ATOM     63  C   UNL A   1      40.602  26.852  28.576  1.00  0.00     0.029 A 
ATOM     64  C   UNL A   1      41.539  27.936  28.869  1.00  0.00     0.049 A 
ATOM     65  H   UNL A   1      43.620  27.842  28.838  1.00  0.00     0.167 HD
ATOM     66  C   UNL A   1      47.974  27.527  29.008  1.00  0.00     0.034 A 
ATOM     67  C   UNL A   1      41.202  29.195  29.212  1.00  0.00     0.034 A 
ATOM     68  C   UNL A   1      47.711  28.922  29.208  1.00  0.00     0.049 A 
ATOM     69  C   UNL A   1      42.288  30.218  29.443  1.00  0.00     0.074 A 
ATOM     70  C   UNL A   1      48.618  29.954  29.360  1.00  0.00     0.029 A 
ATOM     71  N   UNL A   1      46.447  29.478  29.288  1.00  0.00    -0.354 N 
ATOM     72  N   UNL A   1      43.589  30.078  29.372  1.00  0.00    -0.248 NA
ATOM     73  C   UNL A   1      41.852  31.588  29.759  1.00  0.00     0.031 C 
ATOM     74  C   UNL A   1      47.898  31.133  29.576  1.00  0.00     0.029 A 
ATOM     75  C   UNL A   1      46.546  30.839  29.507  1.00  0.00     0.049 A 
ATOM     76  H   UNL A   1      45.603  28.978  29.203  1.00  0.00     0.167 HD
ATOM     77  C   UNL A   1      44.124  31.346  29.586  1.00  0.00     0.074 A 
ATOM     78  C   UNL A   1      43.005  32.244  29.772  1.00  0.00     0.031 C 
ATOM     79  C   UNL A   1      45.424  31.732  29.633  1.00  0.00     0.034 A 
BRANCH  66  80
ATOM     80  C   UNL A   1      49.408  27.052  29.032  1.00  0.00     0.023 A 
ATOM     81  C   UNL A   1      50.006  26.668  30.252  1.00  0.00     0.012 A 
ATOM     82  C   UNL A   1      50.156  26.958  27.842  1.00  0.00     0.148 A 
ATOM     83  C   UNL A   1      51.337  26.254  30.296  1.00  0.00     0.002 A 
ATOM     84  C   UNL A   1      51.465  26.489  27.885  1.00  0.00     0.091 A 
ATOM     85  F   UNL A   1      49.583  27.342  26.694  1.00  0.00    -0.205 F 
ATOM     86  C   UNL A   1      52.062  26.156  29.112  1.00  0.00     0.022 A 
BRANCH  84  87
ATOM     87  S   UNL A   1      52.454  26.236  26.408  1.00  0.00     0.127 S 
ATOM     88  O   UNL A   1      51.615  25.311  25.647  1.00  0.00    -0.237 OA
ATOM     89  O   UNL A   1      52.529  27.589  25.856  1.00  0.00    -0.237 OA
ATOM     90  O   UNL A   1      53.726  25.693  26.864  1.00  0.00    -0.744 OA
ENDBRANCH  84  87
ENDBRANCH  66  80
BRANCH  67  91
ATOM     91  C   UNL A   1      39.765  29.598  29.272  1.00  0.00     0.023 A 
ATOM     92  C   UNL A   1      39.020  29.674  28.078  1.00  0.00     0.012 A 
ATOM     93  C   UNL A   1      39.134  29.901  30.494  1.00  0.00     0.148 A 
ATOM     94  C   UNL A   1      37.686  30.083  28.095  1.00  0.00     0.002 A 
ATOM     95  C   UNL A   1      37.789  30.253  30.509  1.00  0.00     0.091 A 
ATOM     96  F   UNL A   1      39.861  29.833  31.618  1.00  0.00    -0.205 F 
ATOM     97  C   UNL A   1      37.069  30.364  29.309  1.00  0.00     0.022 A 
BRANCH  95  98
ATOM     98  S   UNL A   1      36.872  30.512  32.032  1.00  0.00     0.127 S 
ATOM     99  O   UNL A   1      36.783  29.155  32.563  1.00  0.00    -0.237 OA
ATOM    100  O   UNL A   1      37.768  31.405  32.771  1.00  0.00    -0.237 OA
ATOM    101  O   UNL A   1      35.610  31.119  31.637  1.00  0.00    -0.744 OA
ENDBRANCH  95  98
ENDBRANCH  67  91
BRANCH  79 102
ATOM    102  C   UNL A   1      45.722  33.196  29.830  1.00  0.00     0.023 A 
ATOM    103  C   UNL A   1      45.995  33.698  31.117  1.00  0.00     0.012 A 
ATOM    104  C   UNL A   1      45.803  34.060  28.719  1.00  0.00     0.148 A 
ATOM    105  C   UNL A   1      46.302  35.047  31.301  1.00  0.00     0.002 A 
ATOM    106  C   UNL A   1      46.165  35.388  28.903  1.00  0.00     0.091 A 
ATOM    107  F   UNL A   1      45.528  33.566  27.503  1.00  0.00    -0.205 F 
ATOM    108  C   UNL A   1      46.398  35.888  30.194  1.00  0.00     0.022 A 
BRANCH 106 109
ATOM    109  S   UNL A   1      46.416  36.516  27.528  1.00  0.00     0.127 S 
ATOM    110  O   UNL A   1      47.738  36.115  27.051  1.00  0.00    -0.237 OA
ATOM    111  O   UNL A   1      45.312  36.165  26.633  1.00  0.00    -0.237 OA
ATOM    112  O   UNL A   1      46.334  37.858  28.088  1.00  0.00    -0.744 OA
ENDBRANCH 106 109
ENDBRANCH  79 102
ENDBRANCH  53  54
ENDBRANCH  46  48
ENDBRANCH  45  46
ENDBRANCH  44  45
ENDBRANCH  43  44
ENDBRANCH  42  43
ENDBRANCH  41  42
ENDBRANCH  40  41
ENDBRANCH  39  40
ENDBRANCH   1  39
TORSDOF 30
ENDMDL
MODEL 2
REMARK VINA RESULT:      -8.6      2.298      2.875
REMARK SMILES CC(C)C[C@H](NC(=O)[C@H](C)NC(=O)[C@@H](NC(=O)CNC(=O)OCc1ccccc1)C(C)C)C(=O)OCCOCCOC(=O)c1ccc(-c2c3nc(c(-c4cccc(S(=O)(=O)[O-])c4F)c4ccc([nH]4)c(-c4cccc(S(=O)(=O)[O-])c4F)c4nc(c(-c5cccc(S(=O)(=O)[O-])c5F)c5ccc2[nH]5)C=C4)C=C3)cc1
REMARK SMILES IDX 33 1 34 2 5 3 4 4 2 5 1 6 3 7 6 8 7 9 8 11 9 12 10 13 11 14
REMARK SMILES IDX 12 15 13 17 14 18 15 19 16 20 17 22 18 23 19 24 20 25 21 27
REMARK SMILES IDX 22 28 23 29 24 30 25 31 29 32 26 33 28 34 27 35 30 36 31 37
REMARK SMILES IDX 32 38 35 39 36 40 37 41 38 42 39 43 40 44 41 45 42 46 43 47
REMARK SMILES IDX 44 48 45 49 106 50 46 51 105 52 47 53 48 54 49 55 99 56
REMARK SMILES IDX 50 57 104 58 98 59 100 60 51 61 103 62 97 63 96 64 52 66
REMARK SMILES IDX 84 67 64 68 83 69 65 70 68 71 82 72 101 73 66 74 67 75 81 77
REMARK SMILES IDX 102 78 69 79 53 80 54 81 62 82 55 83 57 84 63 85 56 86 58 87
REMARK SMILES IDX 59 88 60 89 61 90 85 91 86 92 94 93 87 94 89 95 95 96 88 97
REMARK SMILES IDX 90 98 91 99 92 100 93 101 70 102 71 103 79 104 72 105 74 106
REMARK SMILES IDX 80 107 73 108 75 109 76 110 77 111 78 112
REMARK H PARENT 6 10 11 16 15 21 19 26 100 65 68 76
REMARK Flexibility Score: inf
ROOT
ATOM      1  C   UNL A   1      33.809  21.582  26.416  1.00  0.00     0.328 C 
ATOM      2  O   UNL A   1      33.619  21.213  27.570  1.00  0.00    -0.250 OA
ENDROOT
BRANCH   1   3
ATOM      3  C   UNL A   1      33.279  20.812  25.170  1.00  0.00     0.192 C 
BRANCH   3   4
ATOM      4  C   UNL A   1      33.079  19.273  25.367  1.00  0.00     0.040 C 
BRANCH   4   5
ATOM      5  C   UNL A   1      33.544  18.430  24.173  1.00  0.00    -0.015 C 
ATOM      6  C   UNL A   1      34.347  17.270  24.653  1.00  0.00     0.007 C 
ATOM      7  C   UNL A   1      32.558  17.861  23.201  1.00  0.00     0.007 C 
ENDBRANCH   4   5
ENDBRANCH   3   4
BRANCH   3   8
ATOM      8  N   UNL A   1      33.866  21.098  23.847  1.00  0.00    -0.341 N 
ATOM      9  C   UNL A   1      33.763  22.296  23.183  1.00  0.00     0.242 C 
ATOM     10  H   UNL A   1      34.371  20.376  23.408  1.00  0.00     0.164 HD
ATOM     11  O   UNL A   1      34.827  22.911  23.024  1.00  0.00    -0.273 OA
BRANCH   9  12
ATOM     12  C   UNL A   1      32.444  22.720  22.459  1.00  0.00     0.168 C 
ATOM     13  C   UNL A   1      33.182  23.146  21.143  1.00  0.00     0.041 C 
BRANCH  12  14
ATOM     14  N   UNL A   1      31.471  23.842  22.847  1.00  0.00    -0.343 N 
ATOM     15  C   UNL A   1      31.269  24.993  23.569  1.00  0.00     0.243 C 
ATOM     16  H   UNL A   1      30.627  23.657  22.373  1.00  0.00     0.164 HD
ATOM     17  O   UNL A   1      30.045  25.221  23.657  1.00  0.00    -0.273 OA
BRANCH  15  18
ATOM     18  C   UNL A   1      32.233  26.182  24.213  1.00  0.00     0.174 C 
BRANCH  18  19
ATOM     19  N   UNL A   1      32.181  27.527  23.593  1.00  0.00    -0.343 N 
ATOM     20  C   UNL A   1      32.300  28.797  24.089  1.00  0.00     0.240 C 
ATOM     21  H   UNL A   1      32.030  27.501  22.621  1.00  0.00     0.164 HD
ATOM     22  O   UNL A   1      33.206  29.467  23.565  1.00  0.00    -0.273 OA
BRANCH  20  23
ATOM     23  C   UNL A   1      31.449  29.473  25.210  1.00  0.00     0.219 C 
BRANCH  23  24
ATOM     24  N   UNL A   1      31.906  30.692  25.836  1.00  0.00    -0.312 N 
ATOM     25  C   UNL A   1      31.312  31.859  26.225  1.00  0.00     0.407 C 
ATOM     26  H   UNL A   1      32.871  30.678  26.030  1.00  0.00     0.167 HD
ATOM     27  O   UNL A   1      31.959  32.570  26.964  1.00  0.00    -0.225 OA
BRANCH  25  28
ATOM     28  O   UNL A   1      30.102  32.147  25.688  1.00  0.00    -0.445 OA
BRANCH  28  29
ATOM     29  C   UNL A   1      29.909  32.673  24.313  1.00  0.00     0.270 C 
BRANCH  29  30
ATOM     30  C   UNL A   1      29.038  31.986  23.254  1.00  0.00    -0.011 A 
ATOM     31  C   UNL A   1      28.809  30.594  23.287  1.00  0.00     0.007 A 
ATOM     32  C   UNL A   1      28.512  32.696  22.172  1.00  0.00     0.007 A 
ATOM     33  C   UNL A   1      28.314  29.922  22.158  1.00  0.00     0.000 A 
ATOM     34  C   UNL A   1      28.062  32.025  21.030  1.00  0.00     0.000 A 
ATOM     35  C   UNL A   1      28.008  30.635  21.005  1.00  0.00     0.000 A 
ENDBRANCH  29  30
ENDBRANCH  28  29
ENDBRANCH  25  28
ENDBRANCH  23  24
ENDBRANCH  20  23
ENDBRANCH  18  19
BRANCH  18  36
ATOM     36  C   UNL A   1      32.460  26.200  25.773  1.00  0.00     0.015 C 
ATOM     37  C   UNL A   1      33.643  27.031  26.269  1.00  0.00     0.010 C 
ATOM     38  C   UNL A   1      31.221  26.637  26.591  1.00  0.00     0.010 C 
ENDBRANCH  18  36
ENDBRANCH  15  18
ENDBRANCH  12  14
ENDBRANCH   9  12
ENDBRANCH   3   8
ENDBRANCH   1   3
BRANCH   1  39
ATOM     39  O   UNL A   1      34.438  22.742  26.078  1.00  0.00    -0.462 OA
BRANCH  39  40
ATOM     40  C   UNL A   1      35.833  22.891  26.400  1.00  0.00     0.261 C 
BRANCH  40  41
ATOM     41  C   UNL A   1      36.678  23.595  25.336  1.00  0.00     0.202 C 
BRANCH  41  42
ATOM     42  O   UNL A   1      37.743  22.858  24.758  1.00  0.00    -0.374 OA
BRANCH  42  43
ATOM     43  C   UNL A   1      38.121  21.651  25.412  1.00  0.00     0.202 C 
BRANCH  43  44
ATOM     44  C   UNL A   1      39.325  21.683  26.373  1.00  0.00     0.261 C 
BRANCH  44  45
ATOM     45  O   UNL A   1      40.064  20.447  26.494  1.00  0.00    -0.460 OA
BRANCH  45  46
ATOM     46  C   UNL A   1      41.355  20.461  26.055  1.00  0.00     0.338 C 
ATOM     47  O   UNL A   1      41.912  19.595  25.406  1.00  0.00    -0.246 OA
BRANCH  46  48
ATOM     48  C   UNL A   1      42.060  21.674  26.543  1.00  0.00     0.060 A 
ATOM     49  C   UNL A   1      42.463  21.809  27.869  1.00  0.00     0.016 A 
ATOM     50  C   UNL A   1      42.214  22.757  25.678  1.00  0.00     0.016 A 
ATOM     51  C   UNL A   1      42.931  23.058  28.320  1.00  0.00     0.010 A 
ATOM     52  C   UNL A   1      42.892  23.906  26.074  1.00  0.00     0.010 A 
ATOM     53  C   UNL A   1      43.103  24.137  27.432  1.00  0.00    -0.014 A 
BRANCH  53  54
ATOM     54  C   UNL A   1      43.237  25.556  27.893  1.00  0.00     0.031 A 
ATOM     55  C   UNL A   1      44.620  26.205  27.918  1.00  0.00     0.074 A 
ATOM     56  C   UNL A   1      42.176  26.276  28.306  1.00  0.00     0.049 A 
ATOM     57  N   UNL A   1      44.968  27.415  28.278  1.00  0.00    -0.248 NA
ATOM     58  C   UNL A   1      45.772  25.368  27.529  1.00  0.00     0.031 C 
ATOM     59  C   UNL A   1      40.806  25.780  28.429  1.00  0.00     0.029 A 
ATOM     60  N   UNL A   1      42.092  27.587  28.711  1.00  0.00    -0.354 N 
ATOM     61  C   UNL A   1      46.361  27.450  28.217  1.00  0.00     0.074 A 
ATOM     62  C   UNL A   1      46.801  26.125  27.865  1.00  0.00     0.031 C 
ATOM     63  C   UNL A   1      40.012  26.781  28.848  1.00  0.00     0.029 A 
ATOM     64  C   UNL A   1      40.818  27.984  29.049  1.00  0.00     0.049 A 
ATOM     65  H   UNL A   1      42.871  28.187  28.757  1.00  0.00     0.167 HD
ATOM     66  C   UNL A   1      47.212  28.492  28.375  1.00  0.00     0.034 A 
ATOM     67  C   UNL A   1      40.354  29.180  29.465  1.00  0.00     0.034 A 
ATOM     68  C   UNL A   1      46.785  29.834  28.643  1.00  0.00     0.049 A 
ATOM     69  C   UNL A   1      41.308  30.344  29.586  1.00  0.00     0.074 A 
ATOM     70  C   UNL A   1      47.550  30.983  28.708  1.00  0.00     0.029 A 
ATOM     71  N   UNL A   1      45.475  30.204  28.894  1.00  0.00    -0.354 N 
ATOM     72  N   UNL A   1      42.596  30.391  29.350  1.00  0.00    -0.248 NA
ATOM     73  C   UNL A   1      40.728  31.636  29.990  1.00  0.00     0.031 C 
ATOM     74  C   UNL A   1      46.705  32.046  29.044  1.00  0.00     0.029 A 
ATOM     75  C   UNL A   1      45.409  31.564  29.135  1.00  0.00     0.049 A 
ATOM     76  H   UNL A   1      44.705  29.590  28.902  1.00  0.00     0.167 HD
ATOM     77  C   UNL A   1      42.971  31.720  29.529  1.00  0.00     0.074 A 
ATOM     78  C   UNL A   1      41.770  32.448  29.876  1.00  0.00     0.031 C 
ATOM     79  C   UNL A   1      44.199  32.287  29.423  1.00  0.00     0.034 A 
BRANCH  66  80
ATOM     80  C   UNL A   1      48.690  28.226  28.207  1.00  0.00     0.023 A 
ATOM     81  C   UNL A   1      49.490  27.942  29.335  1.00  0.00     0.012 A 
ATOM     82  C   UNL A   1      49.282  28.228  26.929  1.00  0.00     0.148 A 
ATOM     83  C   UNL A   1      50.861  27.722  29.202  1.00  0.00     0.002 A 
ATOM     84  C   UNL A   1      50.638  27.949  26.797  1.00  0.00     0.091 A 
ATOM     85  F   UNL A   1      48.516  28.516  25.869  1.00  0.00    -0.205 F 
ATOM     86  C   UNL A   1      51.432  27.716  27.933  1.00  0.00     0.022 A 
BRANCH  84  87
ATOM     87  S   UNL A   1      51.452  27.826  25.202  1.00  0.00     0.127 S 
ATOM     88  O   UNL A   1      50.669  26.776  24.551  1.00  0.00    -0.237 OA
ATOM     89  O   UNL A   1      51.252  29.167  24.652  1.00  0.00    -0.237 OA
ATOM     90  O   UNL A   1      52.840  27.485  25.483  1.00  0.00    -0.744 OA
ENDBRANCH  84  87
ENDBRANCH  66  80
BRANCH  67  91
ATOM     91  C   UNL A   1      38.895  29.374  29.715  1.00  0.00     0.023 A 
ATOM     92  C   UNL A   1      38.383  29.164  31.011  1.00  0.00     0.012 A 
ATOM     93  C   UNL A   1      38.016  29.765  28.686  1.00  0.00     0.148 A 
ATOM     94  C   UNL A   1      37.019  29.301  31.271  1.00  0.00     0.002 A 
ATOM     95  C   UNL A   1      36.667  29.955  28.964  1.00  0.00     0.091 A 
ATOM     96  F   UNL A   1      38.519  29.950  27.458  1.00  0.00    -0.205 F 
ATOM     97  C   UNL A   1      36.163  29.703  30.251  1.00  0.00     0.022 A 
BRANCH  95  98
ATOM     98  S   UNL A   1      35.507  30.592  27.750  1.00  0.00     0.127 S 
ATOM     99  O   UNL A   1      35.792  29.748  26.592  1.00  0.00    -0.237 OA
ATOM    100  O   UNL A   1      34.221  30.331  28.400  1.00  0.00    -0.237 OA
ATOM    101  O   UNL A   1      35.829  32.003  27.595  1.00  0.00    -0.744 OA
ENDBRANCH  95  98
ENDBRANCH  67  91
BRANCH  79 102
ATOM    102  C   UNL A   1      44.312  33.777  29.621  1.00  0.00     0.023 A 
ATOM    103  C   UNL A   1      44.153  34.653  28.530  1.00  0.00     0.012 A 
ATOM    104  C   UNL A   1      44.501  34.309  30.913  1.00  0.00     0.148 A 
ATOM    105  C   UNL A   1      44.225  36.034  28.715  1.00  0.00     0.002 A 
ATOM    106  C   UNL A   1      44.515  35.685  31.098  1.00  0.00     0.091 A 
ATOM    107  F   UNL A   1      44.662  33.458  31.938  1.00  0.00    -0.205 F 
ATOM    108  C   UNL A   1      44.395  36.549  29.998  1.00  0.00     0.022 A 
BRANCH 106 109
ATOM    109  S   UNL A   1      44.621  36.436  32.726  1.00  0.00     0.127 S 
ATOM    110  O   UNL A   1      45.956  37.030  32.693  1.00  0.00    -0.237 OA
ATOM    111  O   UNL A   1      43.523  37.403  32.693  1.00  0.00    -0.237 OA
ATOM    112  O   UNL A   1      44.443  35.352  33.682  1.00  0.00    -0.744 OA
ENDBRANCH 106 109
ENDBRANCH  79 102
ENDBRANCH  53  54
ENDBRANCH  46  48
ENDBRANCH  45  46
ENDBRANCH  44  45
ENDBRANCH  43  44
ENDBRANCH  42  43
ENDBRANCH  41  42
ENDBRANCH  40  41
ENDBRANCH  39  40
ENDBRANCH   1  39
TORSDOF 30
ENDMDL
MODEL 3
REMARK VINA RESULT:      -8.1      2.476      8.092
REMARK SMILES CC(C)C[C@H](NC(=O)[C@H](C)NC(=O)[C@@H](NC(=O)CNC(=O)OCc1ccccc1)C(C)C)C(=O)OCCOCCOC(=O)c1ccc(-c2c3nc(c(-c4cccc(S(=O)(=O)[O-])c4F)c4ccc([nH]4)c(-c4cccc(S(=O)(=O)[O-])c4F)c4nc(c(-c5cccc(S(=O)(=O)[O-])c5F)c5ccc2[nH]5)C=C4)C=C3)cc1
REMARK SMILES IDX 33 1 34 2 5 3 4 4 2 5 1 6 3 7 6 8 7 9 8 11 9 12 10 13 11 14
REMARK SMILES IDX 12 15 13 17 14 18 15 19 16 20 17 22 18 23 19 24 20 25 21 27
REMARK SMILES IDX 22 28 23 29 24 30 25 31 29 32 26 33 28 34 27 35 30 36 31 37
REMARK SMILES IDX 32 38 35 39 36 40 37 41 38 42 39 43 40 44 41 45 42 46 43 47
REMARK SMILES IDX 44 48 45 49 106 50 46 51 105 52 47 53 48 54 49 55 99 56
REMARK SMILES IDX 50 57 104 58 98 59 100 60 51 61 103 62 97 63 96 64 52 66
REMARK SMILES IDX 84 67 64 68 83 69 65 70 68 71 82 72 101 73 66 74 67 75 81 77
REMARK SMILES IDX 102 78 69 79 53 80 54 81 62 82 55 83 57 84 63 85 56 86 58 87
REMARK SMILES IDX 59 88 60 89 61 90 85 91 86 92 94 93 87 94 89 95 95 96 88 97
REMARK SMILES IDX 90 98 91 99 92 100 93 101 70 102 71 103 79 104 72 105 74 106
REMARK SMILES IDX 80 107 73 108 75 109 76 110 77 111 78 112
REMARK H PARENT 6 10 11 16 15 21 19 26 100 65 68 76
REMARK Flexibility Score: inf
ROOT
ATOM      1  C   UNL A   1      33.859  21.943  26.814  1.00  0.00     0.328 C 
ATOM      2  O   UNL A   1      33.657  21.488  27.934  1.00  0.00    -0.250 OA
ENDROOT
BRANCH   1   3
ATOM      3  C   UNL A   1      33.367  21.255  25.505  1.00  0.00     0.192 C 
BRANCH   3   4
ATOM      4  C   UNL A   1      32.456  20.000  25.708  1.00  0.00     0.040 C 
BRANCH   4   5
ATOM      5  C   UNL A   1      32.881  18.784  24.875  1.00  0.00    -0.015 C 
ATOM      6  C   UNL A   1      32.657  17.533  25.651  1.00  0.00     0.007 C 
ATOM      7  C   UNL A   1      32.287  18.531  23.524  1.00  0.00     0.007 C 
ENDBRANCH   4   5
ENDBRANCH   3   4
BRANCH   3   8
ATOM      8  N   UNL A   1      34.327  21.033  24.407  1.00  0.00    -0.341 N 
ATOM      9  C   UNL A   1      35.291  21.927  24.012  1.00  0.00     0.242 C 
ATOM     10  H   UNL A   1      34.272  20.178  23.922  1.00  0.00     0.164 HD
ATOM     11  O   UNL A   1      36.463  21.562  24.189  1.00  0.00    -0.273 OA
BRANCH   9  12
ATOM     12  C   UNL A   1      34.937  23.194  23.168  1.00  0.00     0.168 C 
ATOM     13  C   UNL A   1      36.300  23.187  22.394  1.00  0.00     0.041 C 
BRANCH  12  14
ATOM     14  N   UNL A   1      34.678  24.623  23.668  1.00  0.00    -0.343 N 
ATOM     15  C   UNL A   1      33.787  25.500  24.235  1.00  0.00     0.243 C 
ATOM     16  H   UNL A   1      35.510  25.127  23.517  1.00  0.00     0.164 HD
ATOM     17  O   UNL A   1      34.186  26.670  24.062  1.00  0.00    -0.273 OA
BRANCH  15  18
ATOM     18  C   UNL A   1      32.426  25.376  25.178  1.00  0.00     0.174 C 
BRANCH  18  19
ATOM     19  N   UNL A   1      32.431  26.055  26.495  1.00  0.00    -0.343 N 
ATOM     20  C   UNL A   1      32.387  27.369  26.877  1.00  0.00     0.240 C 
ATOM     21  H   UNL A   1      32.476  25.430  27.254  1.00  0.00     0.164 HD
ATOM     22  O   UNL A   1      31.440  27.650  27.632  1.00  0.00    -0.273 OA
BRANCH  20  23
ATOM     23  C   UNL A   1      33.365  28.518  26.476  1.00  0.00     0.219 C 
BRANCH  23  24
ATOM     24  N   UNL A   1      33.249  29.820  27.089  1.00  0.00    -0.312 N 
ATOM     25  C   UNL A   1      34.131  30.796  27.460  1.00  0.00     0.407 C 
ATOM     26  H   UNL A   1      32.315  30.064  27.283  1.00  0.00     0.167 HD
ATOM     27  O   UNL A   1      33.654  31.883  27.711  1.00  0.00    -0.225 OA
BRANCH  25  28
ATOM     28  O   UNL A   1      35.431  30.437  27.591  1.00  0.00    -0.445 OA
BRANCH  28  29
ATOM     29  C   UNL A   1      36.141  30.351  28.892  1.00  0.00     0.270 C 
BRANCH  29  30
ATOM     30  C   UNL A   1      37.152  29.252  29.237  1.00  0.00    -0.011 A 
ATOM     31  C   UNL A   1      37.308  28.792  30.562  1.00  0.00     0.007 A 
ATOM     32  C   UNL A   1      38.016  28.728  28.272  1.00  0.00     0.007 A 
ATOM     33  C   UNL A   1      38.442  28.054  30.936  1.00  0.00     0.000 A 
ATOM     34  C   UNL A   1      39.170  28.033  28.649  1.00  0.00     0.000 A 
ATOM     35  C   UNL A   1      39.408  27.737  29.987  1.00  0.00     0.000 A 
ENDBRANCH  29  30
ENDBRANCH  28  29
ENDBRANCH  25  28
ENDBRANCH  23  24
ENDBRANCH  20  23
ENDBRANCH  18  19
BRANCH  18  36
ATOM     36  C   UNL A   1      31.019  25.362  24.466  1.00  0.00     0.015 C 
ATOM     37  C   UNL A   1      29.818  25.708  25.346  1.00  0.00     0.010 C 
ATOM     38  C   UNL A   1      30.935  26.260  23.208  1.00  0.00     0.010 C 
ENDBRANCH  18  36
ENDBRANCH  15  18
ENDBRANCH  12  14
ENDBRANCH   9  12
ENDBRANCH   3   8
ENDBRANCH   1   3
BRANCH   1  39
ATOM     39  O   UNL A   1      34.472  23.136  26.572  1.00  0.00    -0.462 OA
BRANCH  39  40
ATOM     40  C   UNL A   1      35.852  23.292  26.945  1.00  0.00     0.261 C 
BRANCH  40  41
ATOM     41  C   UNL A   1      36.592  24.436  26.248  1.00  0.00     0.202 C 
BRANCH  41  42
ATOM     42  O   UNL A   1      37.914  24.181  25.801  1.00  0.00    -0.374 OA
BRANCH  42  43
ATOM     43  C   UNL A   1      38.514  22.962  26.229  1.00  0.00     0.202 C 
BRANCH  43  44
ATOM     44  C   UNL A   1      39.682  23.032  27.232  1.00  0.00     0.261 C 
BRANCH  44  45
ATOM     45  O   UNL A   1      40.411  21.799  27.432  1.00  0.00    -0.460 OA
BRANCH  45  46
ATOM     46  C   UNL A   1      41.342  21.481  26.490  1.00  0.00     0.338 C 
ATOM     47  O   UNL A   1      41.287  20.559  25.695  1.00  0.00    -0.246 OA
BRANCH  46  48
ATOM     48  C   UNL A   1      42.520  22.380  26.592  1.00  0.00     0.060 A 
ATOM     49  C   UNL A   1      43.384  22.342  27.682  1.00  0.00     0.016 A 
ATOM     50  C   UNL A   1      42.695  23.373  25.628  1.00  0.00     0.016 A 
ATOM     51  C   UNL A   1      44.351  23.355  27.828  1.00  0.00     0.010 A 
ATOM     52  C   UNL A   1      43.795  24.223  25.659  1.00  0.00     0.010 A 
ATOM     53  C   UNL A   1      44.532  24.338  26.836  1.00  0.00    -0.014 A 
BRANCH  53  54
ATOM     54  C   UNL A   1      45.263  25.621  27.088  1.00  0.00     0.031 A 
ATOM     55  C   UNL A   1      44.614  26.689  27.966  1.00  0.00     0.074 A 
ATOM     56  C   UNL A   1      46.473  25.872  26.550  1.00  0.00     0.049 A 
ATOM     57  N   UNL A   1      45.064  27.869  28.317  1.00  0.00    -0.248 NA
ATOM     58  C   UNL A   1      43.259  26.416  28.481  1.00  0.00     0.031 C 
ATOM     59  C   UNL A   1      47.189  24.998  25.622  1.00  0.00     0.029 A 
ATOM     60  N   UNL A   1      47.310  26.951  26.703  1.00  0.00    -0.354 N 
ATOM     61  C   UNL A   1      44.031  28.480  29.026  1.00  0.00     0.074 A 
ATOM     62  C   UNL A   1      42.905  27.582  28.990  1.00  0.00     0.031 C 
ATOM     63  C   UNL A   1      48.371  25.560  25.313  1.00  0.00     0.029 A 
ATOM     64  C   UNL A   1      48.488  26.846  25.999  1.00  0.00     0.049 A 
ATOM     65  H   UNL A   1      47.088  27.728  27.265  1.00  0.00     0.167 HD
ATOM     66  C   UNL A   1      44.017  29.652  29.705  1.00  0.00     0.034 A 
ATOM     67  C   UNL A   1      49.541  27.685  25.923  1.00  0.00     0.034 A 
ATOM     68  C   UNL A   1      45.155  30.517  29.820  1.00  0.00     0.049 A 
ATOM     69  C   UNL A   1      49.532  28.962  26.727  1.00  0.00     0.074 A 
ATOM     70  C   UNL A   1      45.287  31.668  30.575  1.00  0.00     0.029 A 
ATOM     71  N   UNL A   1      46.354  30.327  29.157  1.00  0.00    -0.354 N 
ATOM     72  N   UNL A   1      48.610  29.432  27.532  1.00  0.00    -0.248 NA
ATOM     73  C   UNL A   1      50.735  29.806  26.644  1.00  0.00     0.031 C 
ATOM     74  C   UNL A   1      46.557  32.199  30.333  1.00  0.00     0.029 A 
ATOM     75  C   UNL A   1      47.230  31.350  29.469  1.00  0.00     0.049 A 
ATOM     76  H   UNL A   1      46.553  29.576  28.552  1.00  0.00     0.167 HD
ATOM     77  C   UNL A   1      49.138  30.595  28.085  1.00  0.00     0.074 A 
ATOM     78  C   UNL A   1      50.468  30.749  27.537  1.00  0.00     0.031 C 
ATOM     79  C   UNL A   1      48.572  31.462  28.961  1.00  0.00     0.034 A 
BRANCH  66  80
ATOM     80  C   UNL A   1      42.743  30.038  30.420  1.00  0.00     0.023 A 
ATOM     81  C   UNL A   1      41.793  30.863  29.779  1.00  0.00     0.012 A 
ATOM     82  C   UNL A   1      42.471  29.559  31.717  1.00  0.00     0.148 A 
ATOM     83  C   UNL A   1      40.626  31.251  30.435  1.00  0.00     0.002 A 
ATOM     84  C   UNL A   1      41.277  29.902  32.342  1.00  0.00     0.091 A 
ATOM     85  F   UNL A   1      43.388  28.791  32.320  1.00  0.00    -0.205 F 
ATOM     86  C   UNL A   1      40.364  30.763  31.712  1.00  0.00     0.022 A 
BRANCH  84  87
ATOM     87  S   UNL A   1      40.802  29.252  33.947  1.00  0.00     0.127 S 
ATOM     88  O   UNL A   1      41.821  29.838  34.816  1.00  0.00    -0.237 OA
ATOM     89  O   UNL A   1      39.460  29.810  34.117  1.00  0.00    -0.237 OA
ATOM     90  O   UNL A   1      40.846  27.801  33.822  1.00  0.00    -0.744 OA
ENDBRANCH  84  87
ENDBRANCH  66  80
BRANCH  67  91
ATOM     91  C   UNL A   1      50.745  27.308  25.123  1.00  0.00     0.023 A 
ATOM     92  C   UNL A   1      50.889  27.814  23.815  1.00  0.00     0.012 A 
ATOM     93  C   UNL A   1      51.742  26.462  25.645  1.00  0.00     0.148 A 
ATOM     94  C   UNL A   1      51.982  27.452  23.027  1.00  0.00     0.002 A 
ATOM     95  C   UNL A   1      52.857  26.152  24.874  1.00  0.00     0.091 A 
ATOM     96  F   UNL A   1      51.583  25.983  26.886  1.00  0.00    -0.205 F 
ATOM     97  C   UNL A   1      52.969  26.629  23.558  1.00  0.00     0.022 A 
BRANCH  95  98
ATOM     98  S   UNL A   1      54.242  25.202  25.513  1.00  0.00     0.127 S 
ATOM     99  O   UNL A   1      53.680  23.855  25.571  1.00  0.00    -0.237 OA
ATOM    100  O   UNL A   1      55.249  25.405  24.469  1.00  0.00    -0.237 OA
ATOM    101  O   UNL A   1      54.576  25.800  26.796  1.00  0.00    -0.744 OA
ENDBRANCH  95  98
ENDBRANCH  67  91
BRANCH  79 102
ATOM    102  C   UNL A   1      49.400  32.627  29.441  1.00  0.00     0.023 A 
ATOM    103  C   UNL A   1      50.201  32.502  30.592  1.00  0.00     0.012 A 
ATOM    104  C   UNL A   1      49.438  33.824  28.698  1.00  0.00     0.148 A 
ATOM    105  C   UNL A   1      50.994  33.567  31.022  1.00  0.00     0.002 A 
ATOM    106  C   UNL A   1      50.272  34.859  29.100  1.00  0.00     0.091 A 
ATOM    107  F   UNL A   1      48.659  33.928  27.611  1.00  0.00    -0.205 F 
ATOM    108  C   UNL A   1      51.037  34.740  30.270  1.00  0.00     0.022 A 
BRANCH 106 109
ATOM    109  S   UNL A   1      50.472  36.362  28.137  1.00  0.00     0.127 S 
ATOM    110  O   UNL A   1      49.107  36.885  28.112  1.00  0.00    -0.237 OA
ATOM    111  O   UNL A   1      51.406  37.134  28.957  1.00  0.00    -0.237 OA
ATOM    112  O   UNL A   1      51.005  35.945  26.846  1.00  0.00    -0.744 OA
ENDBRANCH 106 109
ENDBRANCH  79 102
ENDBRANCH  53  54
ENDBRANCH  46  48
ENDBRANCH  45  46
ENDBRANCH  44  45
ENDBRANCH  43  44
ENDBRANCH  42  43
ENDBRANCH  41  42
ENDBRANCH  40  41
ENDBRANCH  39  40
ENDBRANCH   1  39
TORSDOF 30
ENDMDL
