MODEL 1
REMARK VINA RESULT:     -11.2      0.000      0.000
REMARK SMILES O=C(OCCOCCOC(=O)[C@H]1CC=CC[C@@H]1C(=O)NC1CCCCC1)c1ccc(-c2c3nc(c(-c4cccc(S(=O)(=O)[O-])c4F)c4ccc([nH]4)c(-c4cccc(S(=O)(=O)[O-])c4F)c4nc(c(-c5cccc(S(=O)(=O)[O-])c5F)c5ccc2[nH]5)C=C4)C=C3)cc1
REMARK SMILES IDX 5 1 4 2 3 3 2 4 1 5 27 6 28 7 89 8 29 9 88 10 30 11 31 12
REMARK SMILES IDX 32 13 82 14 33 15 87 16 81 17 83 18 34 19 86 20 80 21 79 22
REMARK SMILES IDX 35 24 67 25 47 26 66 27 48 28 51 29 65 30 84 31 49 32 50 33
REMARK SMILES IDX 64 35 85 36 52 37 36 38 37 39 45 40 38 41 40 42 46 43 39 44
REMARK SMILES IDX 41 45 42 46 43 47 44 48 68 49 69 50 77 51 70 52 72 53 78 54
REMARK SMILES IDX 71 55 73 56 74 57 75 58 76 59 53 60 54 61 62 62 55 63 57 64
REMARK SMILES IDX 63 65 56 66 58 67 59 68 60 69 61 70 6 71 7 72 8 73 9 74
REMARK SMILES IDX 10 75 11 76 12 77 13 78 17 79 14 80 16 81 15 82 18 83 19 84
REMARK SMILES IDX 20 85 21 87 22 88 26 89 23 90 25 91 24 92
REMARK H PARENT 83 23 51 34 20 86
REMARK Flexibility Score: inf
ROOT
ATOM      1  C   UNL A   1      38.031  19.341  25.012  1.00  0.00     0.202 C 
ENDROOT
BRANCH   1   2
ATOM      2  C   UNL A   1      39.113  20.106  25.776  1.00  0.00     0.261 C 
BRANCH   2   3
ATOM      3  O   UNL A   1      40.302  19.312  25.899  1.00  0.00    -0.460 OA
BRANCH   3   4
ATOM      4  C   UNL A   1      41.520  19.717  26.336  1.00  0.00     0.338 C 
ATOM      5  O   UNL A   1      42.378  18.856  26.530  1.00  0.00    -0.246 OA
BRANCH   4   6
ATOM      6  C   UNL A   1      41.899  21.150  26.558  1.00  0.00     0.060 A 
ATOM      7  C   UNL A   1      41.996  22.131  25.567  1.00  0.00     0.016 A 
ATOM      8  C   UNL A   1      42.079  21.550  27.893  1.00  0.00     0.016 A 
ATOM      9  C   UNL A   1      42.257  23.453  25.869  1.00  0.00     0.010 A 
ATOM     10  C   UNL A   1      42.339  22.885  28.212  1.00  0.00     0.010 A 
ATOM     11  C   UNL A   1      42.423  23.834  27.191  1.00  0.00    -0.014 A 
BRANCH  11  12
ATOM     12  C   UNL A   1      42.777  25.236  27.433  1.00  0.00     0.031 A 
ATOM     13  C   UNL A   1      44.088  25.725  26.918  1.00  0.00     0.074 A 
ATOM     14  C   UNL A   1      41.857  26.053  27.977  1.00  0.00     0.049 A 
ATOM     15  N   UNL A   1      44.622  26.907  27.029  1.00  0.00    -0.248 NA
ATOM     16  C   UNL A   1      44.901  24.760  26.154  1.00  0.00     0.031 C 
ATOM     17  C   UNL A   1      40.505  25.651  28.378  1.00  0.00     0.029 A 
ATOM     18  N   UNL A   1      41.911  27.385  28.275  1.00  0.00    -0.354 N 
ATOM     19  C   UNL A   1      45.858  26.814  26.407  1.00  0.00     0.074 A 
ATOM     20  C   UNL A   1      45.981  25.476  25.879  1.00  0.00     0.031 C 
ATOM     21  C   UNL A   1      39.866  26.715  28.890  1.00  0.00     0.029 A 
ATOM     22  C   UNL A   1      40.784  27.846  28.912  1.00  0.00     0.049 A 
ATOM     23  H   UNL A   1      42.682  27.958  28.054  1.00  0.00     0.167 HD
ATOM     24  C   UNL A   1      46.807  27.769  26.315  1.00  0.00     0.034 A 
ATOM     25  C   UNL A   1      40.559  29.037  29.497  1.00  0.00     0.034 A 
ATOM     26  C   UNL A   1      46.639  29.089  26.851  1.00  0.00     0.049 A 
ATOM     27  C   UNL A   1      41.665  30.056  29.433  1.00  0.00     0.074 A 
ATOM     28  C   UNL A   1      47.531  30.141  26.847  1.00  0.00     0.029 A 
ATOM     29  N   UNL A   1      45.494  29.526  27.506  1.00  0.00    -0.354 N 
ATOM     30  N   UNL A   1      42.822  29.979  28.816  1.00  0.00    -0.248 NA
ATOM     31  C   UNL A   1      41.441  31.324  30.136  1.00  0.00     0.031 C 
ATOM     32  C   UNL A   1      46.941  31.205  27.537  1.00  0.00     0.029 A 
ATOM     33  C   UNL A   1      45.666  30.827  27.935  1.00  0.00     0.049 A 
ATOM     34  H   UNL A   1      44.682  28.987  27.645  1.00  0.00     0.167 HD
ATOM     35  C   UNL A   1      43.458  31.190  29.042  1.00  0.00     0.074 A 
ATOM     36  C   UNL A   1      42.539  31.998  29.822  1.00  0.00     0.031 C 
ATOM     37  C   UNL A   1      44.695  31.599  28.669  1.00  0.00     0.034 A 
BRANCH  24  38
ATOM     38  C   UNL A   1      48.114  27.393  25.680  1.00  0.00     0.023 A 
ATOM     39  C   UNL A   1      49.169  26.884  26.462  1.00  0.00     0.012 A 
ATOM     40  C   UNL A   1      48.284  27.534  24.289  1.00  0.00     0.148 A 
ATOM     41  C   UNL A   1      50.384  26.540  25.868  1.00  0.00     0.002 A 
ATOM     42  C   UNL A   1      49.481  27.152  23.700  1.00  0.00     0.091 A 
ATOM     43  F   UNL A   1      47.274  28.051  23.574  1.00  0.00    -0.205 F 
ATOM     44  C   UNL A   1      50.535  26.665  24.488  1.00  0.00     0.022 A 
BRANCH  42  45
ATOM     45  S   UNL A   1      49.754  27.223  21.927  1.00  0.00     0.127 S 
ATOM     46  O   UNL A   1      48.699  26.340  21.430  1.00  0.00    -0.237 OA
ATOM     47  O   UNL A   1      49.544  28.643  21.646  1.00  0.00    -0.237 OA
ATOM     48  O   UNL A   1      51.111  26.746  21.705  1.00  0.00    -0.744 OA
ENDBRANCH  42  45
ENDBRANCH  24  38
BRANCH  25  49
ATOM     49  C   UNL A   1      39.284  29.307  30.224  1.00  0.00     0.023 A 
ATOM     50  C   UNL A   1      39.032  28.681  31.459  1.00  0.00     0.012 A 
ATOM     51  C   UNL A   1      38.308  30.170  29.686  1.00  0.00     0.148 A 
ATOM     52  C   UNL A   1      37.817  28.877  32.122  1.00  0.00     0.002 A 
ATOM     53  C   UNL A   1      37.127  30.408  30.379  1.00  0.00     0.091 A 
ATOM     54  F   UNL A   1      38.545  30.741  28.496  1.00  0.00    -0.205 F 
ATOM     55  C   UNL A   1      36.870  29.747  31.588  1.00  0.00     0.022 A 
BRANCH  53  56
ATOM     56  S   UNL A   1      35.916  31.611  29.818  1.00  0.00     0.127 S 
ATOM     57  O   UNL A   1      35.245  30.883  28.746  1.00  0.00    -0.237 OA
ATOM     58  O   UNL A   1      35.110  31.820  31.021  1.00  0.00    -0.237 OA
ATOM     59  O   UNL A   1      36.691  32.778  29.412  1.00  0.00    -0.744 OA
ENDBRANCH  53  56
ENDBRANCH  25  49
BRANCH  37  60
ATOM     60  C   UNL A   1      45.107  32.984  29.080  1.00  0.00     0.023 A 
ATOM     61  C   UNL A   1      45.758  33.182  30.313  1.00  0.00     0.012 A 
ATOM     62  C   UNL A   1      44.933  34.067  28.198  1.00  0.00     0.148 A 
ATOM     63  C   UNL A   1      46.204  34.450  30.676  1.00  0.00     0.002 A 
ATOM     64  C   UNL A   1      45.433  35.315  28.542  1.00  0.00     0.091 A 
ATOM     65  F   UNL A   1      44.295  33.852  27.038  1.00  0.00    -0.205 F 
ATOM     66  C   UNL A   1      46.057  35.511  29.786  1.00  0.00     0.022 A 
BRANCH  64  67
ATOM     67  S   UNL A   1      45.387  36.708  27.411  1.00  0.00     0.127 S 
ATOM     68  O   UNL A   1      46.308  37.643  28.056  1.00  0.00    -0.237 OA
ATOM     69  O   UNL A   1      45.888  36.115  26.171  1.00  0.00    -0.237 OA
ATOM     70  O   UNL A   1      43.997  37.137  27.357  1.00  0.00    -0.744 OA
ENDBRANCH  64  67
ENDBRANCH  37  60
ENDBRANCH  11  12
ENDBRANCH   4   6
ENDBRANCH   3   4
ENDBRANCH   2   3
ENDBRANCH   1   2
BRANCH   1  71
ATOM     71  O   UNL A   1      36.843  20.107  24.809  1.00  0.00    -0.374 OA
BRANCH  71  72
ATOM     72  C   UNL A   1      36.968  21.529  24.902  1.00  0.00     0.202 C 
BRANCH  72  73
ATOM     73  C   UNL A   1      35.887  22.089  25.821  1.00  0.00     0.261 C 
BRANCH  73  74
ATOM     74  O   UNL A   1      34.683  21.348  25.580  1.00  0.00    -0.463 OA
BRANCH  74  75
ATOM     75  C   UNL A   1      33.558  22.009  25.950  1.00  0.00     0.310 C 
ATOM     76  O   UNL A   1      33.483  22.772  26.909  1.00  0.00    -0.252 OA
BRANCH  75  77
ATOM     77  C   UNL A   1      32.366  21.729  25.037  1.00  0.00     0.115 C 
ATOM     78  C   UNL A   1      31.275  22.800  25.054  1.00  0.00     0.043 C 
ATOM     79  C   UNL A   1      32.999  21.528  23.660  1.00  0.00     0.096 C 
ATOM     80  C   UNL A   1      31.656  24.032  24.293  1.00  0.00    -0.030 C 
ATOM     81  C   UNL A   1      33.481  22.846  23.056  1.00  0.00     0.041 C 
ATOM     82  C   UNL A   1      32.669  24.054  23.419  1.00  0.00    -0.030 C 
BRANCH  79  83
ATOM     83  C   UNL A   1      32.287  20.581  22.721  1.00  0.00     0.224 C 
ATOM     84  O   UNL A   1      31.615  20.991  21.774  1.00  0.00    -0.275 OA
ATOM     85  N   UNL A   1      32.324  19.229  22.964  1.00  0.00    -0.353 N 
ATOM     86  H   UNL A   1      31.655  18.730  22.441  1.00  0.00     0.163 HD
BRANCH  85  87
ATOM     87  C   UNL A   1      33.145  18.349  23.838  1.00  0.00     0.082 C 
ATOM     88  C   UNL A   1      32.389  18.056  25.147  1.00  0.00     0.025 C 
ATOM     89  C   UNL A   1      33.890  17.174  23.163  1.00  0.00     0.025 C 
ATOM     90  C   UNL A   1      32.846  16.828  25.921  1.00  0.00     0.002 C 
ATOM     91  C   UNL A   1      34.285  16.022  24.077  1.00  0.00     0.002 C 
ATOM     92  C   UNL A   1      33.146  15.650  25.011  1.00  0.00     0.000 C 
ENDBRANCH  85  87
ENDBRANCH  79  83
ENDBRANCH  75  77
ENDBRANCH  74  75
ENDBRANCH  73  74
ENDBRANCH  72  73
ENDBRANCH  71  72
ENDBRANCH   1  71
TORSDOF 19
ENDMDL
MODEL 2
REMARK VINA RESULT:     -11.2      1.825      3.525
REMARK SMILES O=C(OCCOCCOC(=O)[C@H]1CC=CC[C@@H]1C(=O)NC1CCCCC1)c1ccc(-c2c3nc(c(-c4cccc(S(=O)(=O)[O-])c4F)c4ccc([nH]4)c(-c4cccc(S(=O)(=O)[O-])c4F)c4nc(c(-c5cccc(S(=O)(=O)[O-])c5F)c5ccc2[nH]5)C=C4)C=C3)cc1
REMARK SMILES IDX 5 1 4 2 3 3 2 4 1 5 27 6 28 7 89 8 29 9 88 10 30 11 31 12
REMARK SMILES IDX 32 13 82 14 33 15 87 16 81 17 83 18 34 19 86 20 80 21 79 22
REMARK SMILES IDX 35 24 67 25 47 26 66 27 48 28 51 29 65 30 84 31 49 32 50 33
REMARK SMILES IDX 64 35 85 36 52 37 36 38 37 39 45 40 38 41 40 42 46 43 39 44
REMARK SMILES IDX 41 45 42 46 43 47 44 48 68 49 69 50 77 51 70 52 72 53 78 54
REMARK SMILES IDX 71 55 73 56 74 57 75 58 76 59 53 60 54 61 62 62 55 63 57 64
REMARK SMILES IDX 63 65 56 66 58 67 59 68 60 69 61 70 6 71 7 72 8 73 9 74
REMARK SMILES IDX 10 75 11 76 12 77 13 78 17 79 14 80 16 81 15 82 18 83 19 84
REMARK SMILES IDX 20 85 21 87 22 88 26 89 23 90 25 91 24 92
REMARK H PARENT 83 23 51 34 20 86
REMARK Flexibility Score: inf
ROOT
ATOM      1  C   UNL A   1      38.390  21.140  25.595  1.00  0.00     0.202 C 
ENDROOT
BRANCH   1   2
ATOM      2  C   UNL A   1      38.839  19.696  25.362  1.00  0.00     0.261 C 
BRANCH   2   3
ATOM      3  O   UNL A   1      39.925  19.357  26.237  1.00  0.00    -0.460 OA
BRANCH   3   4
ATOM      4  C   UNL A   1      41.204  19.798  26.168  1.00  0.00     0.338 C 
ATOM      5  O   UNL A   1      42.076  18.991  25.847  1.00  0.00    -0.246 OA
BRANCH   4   6
ATOM      6  C   UNL A   1      41.618  21.217  26.417  1.00  0.00     0.060 A 
ATOM      7  C   UNL A   1      42.110  22.104  25.456  1.00  0.00     0.016 A 
ATOM      8  C   UNL A   1      41.400  21.713  27.714  1.00  0.00     0.016 A 
ATOM      9  C   UNL A   1      42.377  23.427  25.750  1.00  0.00     0.010 A 
ATOM     10  C   UNL A   1      41.662  23.050  28.024  1.00  0.00     0.010 A 
ATOM     11  C   UNL A   1      42.148  23.905  27.031  1.00  0.00    -0.014 A 
BRANCH  11  12
ATOM     12  C   UNL A   1      42.529  25.296  27.294  1.00  0.00     0.031 A 
ATOM     13  C   UNL A   1      43.830  25.779  26.748  1.00  0.00     0.074 A 
ATOM     14  C   UNL A   1      41.638  26.112  27.884  1.00  0.00     0.049 A 
ATOM     15  N   UNL A   1      44.383  26.951  26.869  1.00  0.00    -0.248 NA
ATOM     16  C   UNL A   1      44.604  24.822  25.937  1.00  0.00     0.031 C 
ATOM     17  C   UNL A   1      40.294  25.719  28.319  1.00  0.00     0.029 A 
ATOM     18  N   UNL A   1      41.720  27.436  28.210  1.00  0.00    -0.354 N 
ATOM     19  C   UNL A   1      45.598  26.856  26.206  1.00  0.00     0.074 A 
ATOM     20  C   UNL A   1      45.686  25.529  25.644  1.00  0.00     0.031 C 
ATOM     21  C   UNL A   1      39.686  26.779  28.875  1.00  0.00     0.029 A 
ATOM     22  C   UNL A   1      40.620  27.897  28.894  1.00  0.00     0.049 A 
ATOM     23  H   UNL A   1      42.492  28.004  27.979  1.00  0.00     0.167 HD
ATOM     24  C   UNL A   1      46.557  27.801  26.105  1.00  0.00     0.034 A 
ATOM     25  C   UNL A   1      40.430  29.077  29.512  1.00  0.00     0.034 A 
ATOM     26  C   UNL A   1      46.423  29.110  26.676  1.00  0.00     0.049 A 
ATOM     27  C   UNL A   1      41.547  30.083  29.435  1.00  0.00     0.074 A 
ATOM     28  C   UNL A   1      47.330  30.150  26.667  1.00  0.00     0.029 A 
ATOM     29  N   UNL A   1      45.307  29.547  27.377  1.00  0.00    -0.354 N 
ATOM     30  N   UNL A   1      42.683  30.005  28.781  1.00  0.00    -0.248 NA
ATOM     31  C   UNL A   1      41.363  31.337  30.174  1.00  0.00     0.031 C 
ATOM     32  C   UNL A   1      46.776  31.206  27.399  1.00  0.00     0.029 A 
ATOM     33  C   UNL A   1      45.509  30.835  27.829  1.00  0.00     0.049 A 
ATOM     34  H   UNL A   1      44.492  29.016  27.530  1.00  0.00     0.167 HD
ATOM     35  C   UNL A   1      43.343  31.202  29.014  1.00  0.00     0.074 A 
ATOM     36  C   UNL A   1      42.460  32.004  29.841  1.00  0.00     0.031 C 
ATOM     37  C   UNL A   1      44.573  31.603  28.611  1.00  0.00     0.034 A 
BRANCH  24  38
ATOM     38  C   UNL A   1      47.838  27.422  25.421  1.00  0.00     0.023 A 
ATOM     39  C   UNL A   1      48.892  26.838  26.149  1.00  0.00     0.012 A 
ATOM     40  C   UNL A   1      47.983  27.637  24.036  1.00  0.00     0.148 A 
ATOM     41  C   UNL A   1      50.083  26.492  25.509  1.00  0.00     0.002 A 
ATOM     42  C   UNL A   1      49.155  27.254  23.400  1.00  0.00     0.091 A 
ATOM     43  F   UNL A   1      46.975  28.224  23.375  1.00  0.00    -0.205 F 
ATOM     44  C   UNL A   1      50.210  26.691  24.136  1.00  0.00     0.022 A 
BRANCH  42  45
ATOM     45  S   UNL A   1      49.393  27.417  21.628  1.00  0.00     0.127 S 
ATOM     46  O   UNL A   1      49.393  28.870  21.462  1.00  0.00    -0.237 OA
ATOM     47  O   UNL A   1      50.697  26.781  21.440  1.00  0.00    -0.237 OA
ATOM     48  O   UNL A   1      48.276  26.726  21.002  1.00  0.00    -0.744 OA
ENDBRANCH  42  45
ENDBRANCH  24  38
BRANCH  25  49
ATOM     49  C   UNL A   1      39.182  29.347  30.284  1.00  0.00     0.023 A 
ATOM     50  C   UNL A   1      38.956  28.689  31.509  1.00  0.00     0.012 A 
ATOM     51  C   UNL A   1      38.206  30.242  29.802  1.00  0.00     0.148 A 
ATOM     52  C   UNL A   1      37.766  28.885  32.213  1.00  0.00     0.002 A 
ATOM     53  C   UNL A   1      37.051  30.480  30.538  1.00  0.00     0.091 A 
ATOM     54  F   UNL A   1      38.418  30.844  28.623  1.00  0.00    -0.205 F 
ATOM     55  C   UNL A   1      36.818  29.787  31.734  1.00  0.00     0.022 A 
BRANCH  53  56
ATOM     56  S   UNL A   1      35.845  31.719  30.049  1.00  0.00     0.127 S 
ATOM     57  O   UNL A   1      35.029  31.835  31.252  1.00  0.00    -0.237 OA
ATOM     58  O   UNL A   1      36.693  32.877  29.764  1.00  0.00    -0.237 OA
ATOM     59  O   UNL A   1      35.180  31.167  28.874  1.00  0.00    -0.744 OA
ENDBRANCH  53  56
ENDBRANCH  25  49
BRANCH  37  60
ATOM     60  C   UNL A   1      45.017  32.973  29.039  1.00  0.00     0.023 A 
ATOM     61  C   UNL A   1      45.719  33.132  30.250  1.00  0.00     0.012 A 
ATOM     62  C   UNL A   1      44.820  34.080  28.194  1.00  0.00     0.148 A 
ATOM     63  C   UNL A   1      46.194  34.385  30.627  1.00  0.00     0.002 A 
ATOM     64  C   UNL A   1      45.347  35.313  28.548  1.00  0.00     0.091 A 
ATOM     65  F   UNL A   1      44.133  33.901  27.056  1.00  0.00    -0.205 F 
ATOM     66  C   UNL A   1      46.023  35.471  29.770  1.00  0.00     0.022 A 
BRANCH  64  67
ATOM     67  S   UNL A   1      45.272  36.735  27.456  1.00  0.00     0.127 S 
ATOM     68  O   UNL A   1      45.930  37.763  28.261  1.00  0.00    -0.237 OA
ATOM     69  O   UNL A   1      46.043  36.277  26.300  1.00  0.00    -0.237 OA
ATOM     70  O   UNL A   1      43.858  36.962  27.188  1.00  0.00    -0.744 OA
ENDBRANCH  64  67
ENDBRANCH  37  60
ENDBRANCH  11  12
ENDBRANCH   4   6
ENDBRANCH   3   4
ENDBRANCH   2   3
ENDBRANCH   1   2
BRANCH   1  71
ATOM     71  O   UNL A   1      37.334  21.544  24.723  1.00  0.00    -0.374 OA
BRANCH  71  72
ATOM     72  C   UNL A   1      36.001  21.218  25.126  1.00  0.00     0.202 C 
BRANCH  72  73
ATOM     73  C   UNL A   1      35.382  22.390  25.880  1.00  0.00     0.261 C 
BRANCH  73  74
ATOM     74  O   UNL A   1      34.173  22.755  25.202  1.00  0.00    -0.463 OA
BRANCH  74  75
ATOM     75  C   UNL A   1      34.201  24.007  24.680  1.00  0.00     0.310 C 
ATOM     76  O   UNL A   1      34.471  25.020  25.319  1.00  0.00    -0.252 OA
BRANCH  75  77
ATOM     77  C   UNL A   1      33.878  24.046  23.189  1.00  0.00     0.115 C 
ATOM     78  C   UNL A   1      33.227  22.777  22.637  1.00  0.00     0.043 C 
ATOM     79  C   UNL A   1      33.006  25.293  23.036  1.00  0.00     0.096 C 
ATOM     80  C   UNL A   1      31.784  22.650  23.017  1.00  0.00    -0.030 C 
ATOM     81  C   UNL A   1      31.601  25.078  23.598  1.00  0.00     0.041 C 
ATOM     82  C   UNL A   1      31.067  23.682  23.477  1.00  0.00    -0.030 C 
BRANCH  79  83
ATOM     83  C   UNL A   1      33.095  26.021  21.714  1.00  0.00     0.224 C 
ATOM     84  O   UNL A   1      33.214  25.416  20.648  1.00  0.00    -0.275 OA
ATOM     85  N   UNL A   1      33.117  27.395  21.696  1.00  0.00    -0.353 N 
ATOM     86  H   UNL A   1      33.401  27.760  20.827  1.00  0.00     0.163 HD
BRANCH  85  87
ATOM     87  C   UNL A   1      32.807  28.455  22.692  1.00  0.00     0.082 C 
ATOM     88  C   UNL A   1      31.284  28.571  22.881  1.00  0.00     0.025 C 
ATOM     89  C   UNL A   1      33.692  28.520  23.959  1.00  0.00     0.025 C 
ATOM     90  C   UNL A   1      30.819  29.236  24.168  1.00  0.00     0.002 C 
ATOM     91  C   UNL A   1      33.083  29.226  25.163  1.00  0.00     0.002 C 
ATOM     92  C   UNL A   1      31.638  28.806  25.370  1.00  0.00     0.000 C 
ENDBRANCH  85  87
ENDBRANCH  79  83
ENDBRANCH  75  77
ENDBRANCH  74  75
ENDBRANCH  73  74
ENDBRANCH  72  73
ENDBRANCH  71  72
ENDBRANCH   1  71
TORSDOF 19
ENDMDL
MODEL 3
REMARK VINA RESULT:     -11.2      1.802      7.983
REMARK SMILES O=C(OCCOCCOC(=O)[C@H]1CC=CC[C@@H]1C(=O)NC1CCCCC1)c1ccc(-c2c3nc(c(-c4cccc(S(=O)(=O)[O-])c4F)c4ccc([nH]4)c(-c4cccc(S(=O)(=O)[O-])c4F)c4nc(c(-c5cccc(S(=O)(=O)[O-])c5F)c5ccc2[nH]5)C=C4)C=C3)cc1
REMARK SMILES IDX 5 1 4 2 3 3 2 4 1 5 27 6 28 7 89 8 29 9 88 10 30 11 31 12
REMARK SMILES IDX 32 13 82 14 33 15 87 16 81 17 83 18 34 19 86 20 80 21 79 22
REMARK SMILES IDX 35 24 67 25 47 26 66 27 48 28 51 29 65 30 84 31 49 32 50 33
REMARK SMILES IDX 64 35 85 36 52 37 36 38 37 39 45 40 38 41 40 42 46 43 39 44
REMARK SMILES IDX 41 45 42 46 43 47 44 48 68 49 69 50 77 51 70 52 72 53 78 54
REMARK SMILES IDX 71 55 73 56 74 57 75 58 76 59 53 60 54 61 62 62 55 63 57 64
REMARK SMILES IDX 63 65 56 66 58 67 59 68 60 69 61 70 6 71 7 72 8 73 9 74
REMARK SMILES IDX 10 75 11 76 12 77 13 78 17 79 14 80 16 81 15 82 18 83 19 84
REMARK SMILES IDX 20 85 21 87 22 88 26 89 23 90 25 91 24 92
REMARK H PARENT 83 23 51 34 20 86
REMARK Flexibility Score: inf
ROOT
ATOM      1  C   UNL A   1      38.049  19.591  25.024  1.00  0.00     0.202 C 
ENDROOT
BRANCH   1   2
ATOM      2  C   UNL A   1      39.250  20.172  25.771  1.00  0.00     0.261 C 
BRANCH   2   3
ATOM      3  O   UNL A   1      40.344  19.244  25.770  1.00  0.00    -0.460 OA
BRANCH   3   4
ATOM      4  C   UNL A   1      41.651  19.512  26.010  1.00  0.00     0.338 C 
ATOM      5  O   UNL A   1      42.457  18.588  25.907  1.00  0.00    -0.246 OA
BRANCH   4   6
ATOM      6  C   UNL A   1      42.179  20.871  26.354  1.00  0.00     0.060 A 
ATOM      7  C   UNL A   1      42.520  21.315  27.636  1.00  0.00     0.016 A 
ATOM      8  C   UNL A   1      42.438  21.734  25.275  1.00  0.00     0.016 A 
ATOM      9  C   UNL A   1      43.093  22.552  27.854  1.00  0.00     0.010 A 
ATOM     10  C   UNL A   1      43.021  22.986  25.482  1.00  0.00     0.010 A 
ATOM     11  C   UNL A   1      43.350  23.388  26.778  1.00  0.00    -0.014 A 
BRANCH  11  12
ATOM     12  C   UNL A   1      43.885  24.716  27.089  1.00  0.00     0.031 A 
ATOM     13  C   UNL A   1      42.959  25.719  27.690  1.00  0.00     0.074 A 
ATOM     14  C   UNL A   1      45.205  24.932  26.957  1.00  0.00     0.049 A 
ATOM     15  N   UNL A   1      43.196  26.954  28.026  1.00  0.00    -0.248 NA
ATOM     16  C   UNL A   1      41.584  25.266  27.973  1.00  0.00     0.031 C 
ATOM     17  C   UNL A   1      46.180  23.938  26.498  1.00  0.00     0.029 A 
ATOM     18  N   UNL A   1      45.957  26.046  27.205  1.00  0.00    -0.354 N 
ATOM     19  C   UNL A   1      41.989  27.447  28.500  1.00  0.00     0.074 A 
ATOM     20  C   UNL A   1      41.029  26.368  28.453  1.00  0.00     0.031 C 
ATOM     21  C   UNL A   1      47.401  24.497  26.477  1.00  0.00     0.029 A 
ATOM     22  C   UNL A   1      47.279  25.898  26.856  1.00  0.00     0.049 A 
ATOM     23  H   UNL A   1      45.588  26.873  27.594  1.00  0.00     0.167 HD
ATOM     24  C   UNL A   1      41.717  28.702  28.913  1.00  0.00     0.034 A 
ATOM     25  C   UNL A   1      48.256  26.821  26.799  1.00  0.00     0.034 A 
ATOM     26  C   UNL A   1      42.705  29.742  28.948  1.00  0.00     0.049 A 
ATOM     27  C   UNL A   1      47.901  28.227  27.204  1.00  0.00     0.074 A 
ATOM     28  C   UNL A   1      42.554  31.062  29.321  1.00  0.00     0.029 A 
ATOM     29  N   UNL A   1      44.032  29.571  28.575  1.00  0.00    -0.354 N 
ATOM     30  N   UNL A   1      46.767  28.685  27.682  1.00  0.00    -0.248 NA
ATOM     31  C   UNL A   1      48.951  29.243  27.068  1.00  0.00     0.031 C 
ATOM     32  C   UNL A   1      43.784  31.701  29.136  1.00  0.00     0.029 A 
ATOM     33  C   UNL A   1      44.709  30.769  28.684  1.00  0.00     0.049 A 
ATOM     34  H   UNL A   1      44.430  28.723  28.275  1.00  0.00     0.167 HD
ATOM     35  C   UNL A   1      46.970  30.037  27.919  1.00  0.00     0.074 A 
ATOM     36  C   UNL A   1      48.350  30.314  27.566  1.00  0.00     0.031 C 
ATOM     37  C   UNL A   1      46.099  30.976  28.362  1.00  0.00     0.034 A 
BRANCH  24  38
ATOM     38  C   UNL A   1      40.298  29.021  29.284  1.00  0.00     0.023 A 
ATOM     39  C   UNL A   1      39.374  29.423  28.299  1.00  0.00     0.012 A 
ATOM     40  C   UNL A   1      39.880  28.905  30.624  1.00  0.00     0.148 A 
ATOM     41  C   UNL A   1      38.057  29.723  28.649  1.00  0.00     0.002 A 
ATOM     42  C   UNL A   1      38.559  29.167  30.957  1.00  0.00     0.091 A 
ATOM     43  F   UNL A   1      40.789  28.552  31.544  1.00  0.00    -0.205 F 
ATOM     44  C   UNL A   1      37.648  29.585  29.974  1.00  0.00     0.022 A 
BRANCH  42  45
ATOM     45  S   UNL A   1      37.922  28.965  32.624  1.00  0.00     0.127 S 
ATOM     46  O   UNL A   1      38.827  29.821  33.391  1.00  0.00    -0.237 OA
ATOM     47  O   UNL A   1      36.560  29.482  32.491  1.00  0.00    -0.237 OA
ATOM     48  O   UNL A   1      38.015  27.545  32.926  1.00  0.00    -0.744 OA
ENDBRANCH  42  45
ENDBRANCH  24  38
BRANCH  25  49
ATOM     49  C   UNL A   1      49.618  26.468  26.300  1.00  0.00     0.023 A 
ATOM     50  C   UNL A   1      50.465  25.658  27.080  1.00  0.00     0.012 A 
ATOM     51  C   UNL A   1      50.086  26.947  25.060  1.00  0.00     0.148 A 
ATOM     52  C   UNL A   1      51.764  25.369  26.655  1.00  0.00     0.002 A 
ATOM     53  C   UNL A   1      51.357  26.606  24.614  1.00  0.00     0.091 A 
ATOM     54  F   UNL A   1      49.282  27.740  24.336  1.00  0.00    -0.205 F 
ATOM     55  C   UNL A   1      52.206  25.834  25.419  1.00  0.00     0.022 A 
BRANCH  53  56
ATOM     56  S   UNL A   1      51.950  27.062  22.981  1.00  0.00     0.127 S 
ATOM     57  O   UNL A   1      52.287  28.469  23.165  1.00  0.00    -0.237 OA
ATOM     58  O   UNL A   1      53.097  26.170  22.810  1.00  0.00    -0.237 OA
ATOM     59  O   UNL A   1      50.841  26.781  22.075  1.00  0.00    -0.744 OA
ENDBRANCH  53  56
ENDBRANCH  25  49
BRANCH  37  60
ATOM     60  C   UNL A   1      46.623  32.376  28.509  1.00  0.00     0.023 A 
ATOM     61  C   UNL A   1      47.202  32.780  29.728  1.00  0.00     0.012 A 
ATOM     62  C   UNL A   1      46.627  33.252  27.408  1.00  0.00     0.148 A 
ATOM     63  C   UNL A   1      47.752  34.052  29.857  1.00  0.00     0.002 A 
ATOM     64  C   UNL A   1      47.229  34.496  27.527  1.00  0.00     0.091 A 
ATOM     65  F   UNL A   1      46.053  32.847  26.265  1.00  0.00    -0.205 F 
ATOM     66  C   UNL A   1      47.780  34.903  28.754  1.00  0.00     0.022 A 
BRANCH  64  67
ATOM     67  S   UNL A   1      47.409  35.608  26.130  1.00  0.00     0.127 S 
ATOM     68  O   UNL A   1      47.962  34.717  25.111  1.00  0.00    -0.237 OA
ATOM     69  O   UNL A   1      46.029  36.029  25.890  1.00  0.00    -0.237 OA
ATOM     70  O   UNL A   1      48.297  36.674  26.576  1.00  0.00    -0.744 OA
ENDBRANCH  64  67
ENDBRANCH  37  60
ENDBRANCH  11  12
ENDBRANCH   4   6
ENDBRANCH   3   4
ENDBRANCH   2   3
ENDBRANCH   1   2
BRANCH   1  71
ATOM     71  O   UNL A   1      37.074  20.576  24.680  1.00  0.00    -0.374 OA
BRANCH  71  72
ATOM     72  C   UNL A   1      37.284  21.897  25.188  1.00  0.00     0.202 C 
BRANCH  72  73
ATOM     73  C   UNL A   1      36.958  22.928  24.112  1.00  0.00     0.261 C 
BRANCH  73  74
ATOM     74  O   UNL A   1      35.739  22.523  23.476  1.00  0.00    -0.463 OA
BRANCH  74  75
ATOM     75  C   UNL A   1      34.742  23.438  23.584  1.00  0.00     0.310 C 
ATOM     76  O   UNL A   1      34.455  24.258  22.717  1.00  0.00    -0.252 OA
BRANCH  75  77
ATOM     77  C   UNL A   1      33.979  23.345  24.903  1.00  0.00     0.115 C 
ATOM     78  C   UNL A   1      32.911  24.421  25.107  1.00  0.00     0.043 C 
ATOM     79  C   UNL A   1      33.417  21.923  24.901  1.00  0.00     0.096 C 
ATOM     80  C   UNL A   1      31.677  24.178  24.295  1.00  0.00    -0.030 C 
ATOM     81  C   UNL A   1      32.255  21.771  23.920  1.00  0.00     0.041 C 
ATOM     82  C   UNL A   1      31.403  22.991  23.739  1.00  0.00    -0.030 C 
BRANCH  79  83
ATOM     83  C   UNL A   1      33.246  21.264  26.251  1.00  0.00     0.224 C 
ATOM     84  O   UNL A   1      33.182  21.921  27.290  1.00  0.00    -0.275 OA
ATOM     85  N   UNL A   1      33.235  19.892  26.339  1.00  0.00    -0.353 N 
ATOM     86  H   UNL A   1      33.347  19.569  27.262  1.00  0.00     0.163 HD
BRANCH  85  87
ATOM     87  C   UNL A   1      33.090  18.786  25.356  1.00  0.00     0.082 C 
ATOM     88  C   UNL A   1      34.361  18.680  24.493  1.00  0.00     0.025 C 
ATOM     89  C   UNL A   1      32.453  17.469  25.857  1.00  0.00     0.025 C 
ATOM     90  C   UNL A   1      34.583  17.348  23.791  1.00  0.00     0.002 C 
ATOM     91  C   UNL A   1      32.767  16.223  25.039  1.00  0.00     0.002 C 
ATOM     92  C   UNL A   1      34.242  16.164  24.677  1.00  0.00     0.000 C 
ENDBRANCH  85  87
ENDBRANCH  79  83
ENDBRANCH  75  77
ENDBRANCH  74  75
ENDBRANCH  73  74
ENDBRANCH  72  73
ENDBRANCH  71  72
ENDBRANCH   1  71
TORSDOF 19
ENDMDL
