MODEL 1
REMARK VINA RESULT:     -11.5      0.000      0.000
REMARK SMILES Nc1oc2ccc(F)cc2c(=O)c1[C@@H]1[NH2+][C@H](C(=O)OCCOCCOC(=O)c2ccc(-c3c4nc(c(-c5cccc(S(=O)(=O)[O-])c5F)c5ccc([nH]5)c(-c5cccc(S(=O)(=O)[O-])c5F)c5nc(c(-c6cccc(S(=O)(=O)[O-])c6F)c6ccc3[nH]6)C=C5)C=C4)cc2)CS1
REMARK SMILES IDX 23 1 22 2 21 3 20 4 19 5 17 6 18 7 16 8 14 9 15 10 92 11
REMARK SMILES IDX 91 14 13 15 2 16 3 17 4 18 11 19 5 20 10 21 12 22 6 23 9 24
REMARK SMILES IDX 7 25 8 26 1 27 24 30 25 31 26 32 27 33 28 34 29 35 90 36
REMARK SMILES IDX 30 37 89 38 31 39 32 40 33 41 83 42 34 43 88 44 82 45 84 46
REMARK SMILES IDX 35 47 87 48 81 49 80 50 36 52 68 53 48 54 67 55 49 56 52 57
REMARK SMILES IDX 66 58 85 59 50 60 51 61 65 63 86 64 53 65 37 66 38 67 46 68
REMARK SMILES IDX 39 69 41 70 47 71 40 72 42 73 43 74 44 75 45 76 69 77 70 78
REMARK SMILES IDX 78 79 71 80 73 81 79 82 72 83 74 84 75 85 76 86 77 87 54 88
REMARK SMILES IDX 55 89 63 90 56 91 58 92 64 93 57 94 59 95 60 96 61 97 62 98
REMARK H PARENT 15 12 15 13 1 28 1 29 84 51 52 62
REMARK Flexibility Score: inf
ROOT
ATOM      1  C   UNL A   1      31.597  28.727  24.001  1.00  0.00     0.202 C 
ENDROOT
BRANCH   1   2
ATOM      2  O   UNL A   1      30.340  28.092  23.764  1.00  0.00    -0.374 OA
BRANCH   2   3
ATOM      3  C   UNL A   1      30.351  26.848  23.059  1.00  0.00     0.202 C 
BRANCH   3   4
ATOM      4  C   UNL A   1      29.849  25.629  23.832  1.00  0.00     0.261 C 
BRANCH   4   5
ATOM      5  O   UNL A   1      30.965  24.903  24.359  1.00  0.00    -0.459 OA
BRANCH   5   6
ATOM      6  C   UNL A   1      31.186  25.014  25.690  1.00  0.00     0.365 C 
ATOM      7  O   UNL A   1      30.312  24.972  26.550  1.00  0.00    -0.245 OA
BRANCH   6   8
ATOM      8  C   UNL A   1      32.672  25.110  26.056  1.00  0.00     0.304 C 
ATOM      9  C   UNL A   1      34.061  23.279  25.290  1.00  0.00     0.283 C 
ATOM     10  N   UNL A   1      33.328  23.831  26.435  1.00  0.00    -0.319 N 
ATOM     11  S   UNL A   1      34.582  24.657  24.234  1.00  0.00    -0.087 SA
ATOM     12  H   UNL A   1      33.980  24.000  27.202  1.00  0.00     0.348 HD
ATOM     13  H   UNL A   1      32.614  23.164  26.727  1.00  0.00     0.348 HD
ATOM     14  C   UNL A   1      33.439  25.845  24.968  1.00  0.00     0.153 C 
BRANCH   9  15
ATOM     15  C   UNL A   1      33.362  22.167  24.552  1.00  0.00     0.128 A 
ATOM     16  C   UNL A   1      32.744  22.200  23.349  1.00  0.00     0.205 A 
ATOM     17  O   UNL A   1      32.133  21.098  22.777  1.00  0.00    -0.440 OA
ATOM     18  C   UNL A   1      32.523  19.860  23.192  1.00  0.00     0.140 A 
ATOM     19  C   UNL A   1      33.450  20.834  25.231  1.00  0.00     0.205 A 
ATOM     20  C   UNL A   1      32.272  18.790  22.339  1.00  0.00     0.051 A 
ATOM     21  C   UNL A   1      33.146  19.653  24.412  1.00  0.00     0.068 A 
ATOM     22  O   UNL A   1      33.839  20.701  26.387  1.00  0.00    -0.288 OA
ATOM     23  C   UNL A   1      32.624  17.498  22.723  1.00  0.00     0.043 A 
ATOM     24  C   UNL A   1      33.503  18.363  24.810  1.00  0.00     0.055 A 
ATOM     25  C   UNL A   1      33.234  17.296  23.956  1.00  0.00     0.124 A 
ATOM     26  F   UNL A   1      33.554  16.054  24.339  1.00  0.00    -0.207 F 
BRANCH  16  27
ATOM     27  N   UNL A   1      32.649  23.290  22.532  1.00  0.00    -0.369 N 
ATOM     28  H   UNL A   1      33.318  24.009  22.592  1.00  0.00     0.159 HD
ATOM     29  H   UNL A   1      31.910  23.357  21.885  1.00  0.00     0.159 HD
ENDBRANCH  16  27
ENDBRANCH   9  15
ENDBRANCH   6   8
ENDBRANCH   5   6
ENDBRANCH   4   5
ENDBRANCH   3   4
ENDBRANCH   2   3
ENDBRANCH   1   2
BRANCH   1  30
ATOM     30  C   UNL A   1      31.923  29.174  25.433  1.00  0.00     0.261 C 
BRANCH  30  31
ATOM     31  O   UNL A   1      33.086  30.005  25.558  1.00  0.00    -0.460 OA
BRANCH  31  32
ATOM     32  C   UNL A   1      33.051  30.881  26.592  1.00  0.00     0.338 C 
ATOM     33  O   UNL A   1      32.131  31.634  26.893  1.00  0.00    -0.246 OA
BRANCH  32  34
ATOM     34  C   UNL A   1      34.256  30.711  27.422  1.00  0.00     0.060 A 
ATOM     35  C   UNL A   1      34.571  29.467  27.955  1.00  0.00     0.016 A 
ATOM     36  C   UNL A   1      35.119  31.800  27.612  1.00  0.00     0.016 A 
ATOM     37  C   UNL A   1      35.756  29.323  28.679  1.00  0.00     0.010 A 
ATOM     38  C   UNL A   1      36.308  31.644  28.340  1.00  0.00     0.010 A 
ATOM     39  C   UNL A   1      36.644  30.402  28.889  1.00  0.00    -0.014 A 
BRANCH  39  40
ATOM     40  C   UNL A   1      37.937  30.150  29.596  1.00  0.00     0.031 A 
ATOM     41  C   UNL A   1      38.275  30.761  30.933  1.00  0.00     0.074 A 
ATOM     42  C   UNL A   1      38.799  29.259  29.064  1.00  0.00     0.049 A 
ATOM     43  N   UNL A   1      39.173  30.359  31.800  1.00  0.00    -0.248 NA
ATOM     44  C   UNL A   1      37.498  31.924  31.385  1.00  0.00     0.031 C 
ATOM     45  C   UNL A   1      38.642  28.618  27.756  1.00  0.00     0.029 A 
ATOM     46  N   UNL A   1      39.964  28.725  29.558  1.00  0.00    -0.354 N 
ATOM     47  C   UNL A   1      39.022  31.166  32.920  1.00  0.00     0.074 A 
ATOM     48  C   UNL A   1      37.976  32.116  32.612  1.00  0.00     0.031 C 
ATOM     49  C   UNL A   1      39.649  27.754  27.567  1.00  0.00     0.029 A 
ATOM     50  C   UNL A   1      40.549  27.811  28.715  1.00  0.00     0.049 A 
ATOM     51  H   UNL A   1      40.344  28.974  30.431  1.00  0.00     0.167 HD
ATOM     52  C   UNL A   1      39.672  31.101  34.105  1.00  0.00     0.034 A 
ATOM     53  C   UNL A   1      41.688  27.099  28.831  1.00  0.00     0.034 A 
ATOM     54  C   UNL A   1      40.805  30.256  34.380  1.00  0.00     0.049 A 
ATOM     55  C   UNL A   1      42.511  27.200  30.079  1.00  0.00     0.074 A 
ATOM     56  C   UNL A   1      41.534  30.162  35.553  1.00  0.00     0.029 A 
ATOM     57  N   UNL A   1      41.424  29.431  33.458  1.00  0.00    -0.354 N 
ATOM     58  N   UNL A   1      42.231  27.826  31.194  1.00  0.00    -0.248 NA
ATOM     59  C   UNL A   1      43.798  26.488  30.094  1.00  0.00     0.031 C 
ATOM     60  C   UNL A   1      42.632  29.329  35.321  1.00  0.00     0.029 A 
ATOM     61  C   UNL A   1      42.561  28.874  34.015  1.00  0.00     0.049 A 
ATOM     62  H   UNL A   1      41.102  29.265  32.542  1.00  0.00     0.167 HD
ATOM     63  C   UNL A   1      43.298  27.577  32.048  1.00  0.00     0.074 A 
ATOM     64  C   UNL A   1      44.226  26.730  31.328  1.00  0.00     0.031 C 
ATOM     65  C   UNL A   1      43.484  28.020  33.313  1.00  0.00     0.034 A 
BRANCH  52  66
ATOM     66  C   UNL A   1      39.176  31.952  35.241  1.00  0.00     0.023 A 
ATOM     67  C   UNL A   1      38.312  31.371  36.190  1.00  0.00     0.012 A 
ATOM     68  C   UNL A   1      39.685  33.244  35.460  1.00  0.00     0.148 A 
ATOM     69  C   UNL A   1      37.968  32.063  37.351  1.00  0.00     0.002 A 
ATOM     70  C   UNL A   1      39.348  33.922  36.625  1.00  0.00     0.091 A 
ATOM     71  F   UNL A   1      40.503  33.768  34.537  1.00  0.00    -0.205 F 
ATOM     72  C   UNL A   1      38.493  33.333  37.572  1.00  0.00     0.022 A 
BRANCH  70  73
ATOM     73  S   UNL A   1      39.993  35.551  37.021  1.00  0.00     0.127 S 
ATOM     74  O   UNL A   1      39.282  35.850  38.264  1.00  0.00    -0.237 OA
ATOM     75  O   UNL A   1      41.422  35.284  37.183  1.00  0.00    -0.237 OA
ATOM     76  O   UNL A   1      39.649  36.406  35.894  1.00  0.00    -0.744 OA
ENDBRANCH  70  73
ENDBRANCH  52  66
BRANCH  53  77
ATOM     77  C   UNL A   1      42.108  26.234  27.697  1.00  0.00     0.023 A 
ATOM     78  C   UNL A   1      43.029  26.709  26.747  1.00  0.00     0.012 A 
ATOM     79  C   UNL A   1      41.652  24.904  27.619  1.00  0.00     0.148 A 
ATOM     80  C   UNL A   1      43.496  25.865  25.739  1.00  0.00     0.002 A 
ATOM     81  C   UNL A   1      42.157  24.056  26.644  1.00  0.00     0.091 A 
ATOM     82  F   UNL A   1      40.760  24.487  28.529  1.00  0.00    -0.205 F 
ATOM     83  C   UNL A   1      43.074  24.537  25.696  1.00  0.00     0.022 A 
BRANCH  81  84
ATOM     84  S   UNL A   1      41.760  22.307  26.592  1.00  0.00     0.127 S 
ATOM     85  O   UNL A   1      40.301  22.336  26.514  1.00  0.00    -0.237 OA
ATOM     86  O   UNL A   1      42.435  21.884  25.366  1.00  0.00    -0.237 OA
ATOM     87  O   UNL A   1      42.310  21.736  27.813  1.00  0.00    -0.744 OA
ENDBRANCH  81  84
ENDBRANCH  53  77
BRANCH  65  88
ATOM     88  C   UNL A   1      44.746  27.628  34.030  1.00  0.00     0.023 A 
ATOM     89  C   UNL A   1      45.850  28.502  34.017  1.00  0.00     0.012 A 
ATOM     90  C   UNL A   1      44.794  26.460  34.817  1.00  0.00     0.148 A 
ATOM     91  C   UNL A   1      46.986  28.217  34.774  1.00  0.00     0.002 A 
ATOM     92  C   UNL A   1      45.915  26.201  35.597  1.00  0.00     0.091 A 
ATOM     93  F   UNL A   1      43.733  25.641  34.806  1.00  0.00    -0.205 F 
ATOM     94  C   UNL A   1      47.014  27.076  35.572  1.00  0.00     0.022 A 
BRANCH  92  95
ATOM     95  S   UNL A   1      46.016  24.798  36.714  1.00  0.00     0.127 S 
ATOM     96  O   UNL A   1      47.454  24.722  36.969  1.00  0.00    -0.237 OA
ATOM     97  O   UNL A   1      45.217  25.252  37.851  1.00  0.00    -0.237 OA
ATOM     98  O   UNL A   1      45.456  23.663  35.991  1.00  0.00    -0.744 OA
ENDBRANCH  92  95
ENDBRANCH  65  88
ENDBRANCH  39  40
ENDBRANCH  32  34
ENDBRANCH  31  32
ENDBRANCH  30  31
ENDBRANCH   1  30
TORSDOF 19
ENDMDL
MODEL 2
REMARK VINA RESULT:     -11.4      2.397      4.164
REMARK SMILES Nc1oc2ccc(F)cc2c(=O)c1[C@@H]1[NH2+][C@H](C(=O)OCCOCCOC(=O)c2ccc(-c3c4nc(c(-c5cccc(S(=O)(=O)[O-])c5F)c5ccc([nH]5)c(-c5cccc(S(=O)(=O)[O-])c5F)c5nc(c(-c6cccc(S(=O)(=O)[O-])c6F)c6ccc3[nH]6)C=C5)C=C4)cc2)CS1
REMARK SMILES IDX 23 1 22 2 21 3 20 4 19 5 17 6 18 7 16 8 14 9 15 10 92 11
REMARK SMILES IDX 91 14 13 15 2 16 3 17 4 18 11 19 5 20 10 21 12 22 6 23 9 24
REMARK SMILES IDX 7 25 8 26 1 27 24 30 25 31 26 32 27 33 28 34 29 35 90 36
REMARK SMILES IDX 30 37 89 38 31 39 32 40 33 41 83 42 34 43 88 44 82 45 84 46
REMARK SMILES IDX 35 47 87 48 81 49 80 50 36 52 68 53 48 54 67 55 49 56 52 57
REMARK SMILES IDX 66 58 85 59 50 60 51 61 65 63 86 64 53 65 37 66 38 67 46 68
REMARK SMILES IDX 39 69 41 70 47 71 40 72 42 73 43 74 44 75 45 76 69 77 70 78
REMARK SMILES IDX 78 79 71 80 73 81 79 82 72 83 74 84 75 85 76 86 77 87 54 88
REMARK SMILES IDX 55 89 63 90 56 91 58 92 64 93 57 94 59 95 60 96 61 97 62 98
REMARK H PARENT 15 12 15 13 1 28 1 29 84 51 52 62
REMARK Flexibility Score: inf
ROOT
ATOM      1  C   UNL A   1      31.402  30.251  25.512  1.00  0.00     0.202 C 
ENDROOT
BRANCH   1   2
ATOM      2  O   UNL A   1      32.108  29.027  25.309  1.00  0.00    -0.374 OA
BRANCH   2   3
ATOM      3  C   UNL A   1      31.809  27.940  26.188  1.00  0.00     0.202 C 
BRANCH   3   4
ATOM      4  C   UNL A   1      32.804  26.779  26.189  1.00  0.00     0.261 C 
BRANCH   4   5
ATOM      5  O   UNL A   1      32.110  25.553  26.447  1.00  0.00    -0.459 OA
BRANCH   5   6
ATOM      6  C   UNL A   1      32.774  24.410  26.158  1.00  0.00     0.365 C 
ATOM      7  O   UNL A   1      33.927  24.165  26.500  1.00  0.00    -0.245 OA
BRANCH   6   8
ATOM      8  C   UNL A   1      31.915  23.373  25.423  1.00  0.00     0.304 C 
ATOM      9  C   UNL A   1      30.653  24.208  23.532  1.00  0.00     0.283 C 
ATOM     10  N   UNL A   1      30.588  23.850  24.953  1.00  0.00    -0.319 N 
ATOM     11  S   UNL A   1      31.938  23.196  22.751  1.00  0.00    -0.087 SA
ATOM     12  H   UNL A   1      29.898  23.110  25.082  1.00  0.00     0.348 HD
ATOM     13  H   UNL A   1      30.319  24.673  25.492  1.00  0.00     0.348 HD
ATOM     14  C   UNL A   1      32.715  22.717  24.308  1.00  0.00     0.153 C 
BRANCH   9  15
ATOM     15  C   UNL A   1      30.770  25.683  23.242  1.00  0.00     0.128 A 
ATOM     16  C   UNL A   1      31.742  26.345  22.574  1.00  0.00     0.205 A 
ATOM     17  O   UNL A   1      31.732  27.714  22.376  1.00  0.00    -0.440 OA
ATOM     18  C   UNL A   1      30.537  28.365  22.454  1.00  0.00     0.140 A 
ATOM     19  C   UNL A   1      29.594  26.490  23.701  1.00  0.00     0.205 A 
ATOM     20  C   UNL A   1      30.441  29.603  21.826  1.00  0.00     0.051 A 
ATOM     21  C   UNL A   1      29.449  27.833  23.126  1.00  0.00     0.068 A 
ATOM     22  O   UNL A   1      28.731  26.042  24.450  1.00  0.00    -0.288 OA
ATOM     23  C   UNL A   1      29.252  30.327  21.895  1.00  0.00     0.043 A 
ATOM     24  C   UNL A   1      28.252  28.549  23.205  1.00  0.00     0.055 A 
ATOM     25  C   UNL A   1      28.169  29.793  22.586  1.00  0.00     0.124 A 
ATOM     26  F   UNL A   1      27.033  30.495  22.674  1.00  0.00    -0.207 F 
BRANCH  16  27
ATOM     27  N   UNL A   1      32.839  25.776  21.993  1.00  0.00    -0.369 N 
ATOM     28  H   UNL A   1      33.608  25.513  22.548  1.00  0.00     0.159 HD
ATOM     29  H   UNL A   1      32.861  25.630  21.020  1.00  0.00     0.159 HD
ENDBRANCH  16  27
ENDBRANCH   9  15
ENDBRANCH   6   8
ENDBRANCH   5   6
ENDBRANCH   4   5
ENDBRANCH   3   4
ENDBRANCH   2   3
ENDBRANCH   1   2
BRANCH   1  30
ATOM     30  C   UNL A   1      31.887  31.189  26.628  1.00  0.00     0.261 C 
BRANCH  30  31
ATOM     31  O   UNL A   1      33.293  31.129  26.901  1.00  0.00    -0.460 OA
BRANCH  31  32
ATOM     32  C   UNL A   1      33.796  32.214  27.539  1.00  0.00     0.338 C 
ATOM     33  O   UNL A   1      33.281  33.323  27.632  1.00  0.00    -0.246 OA
BRANCH  32  34
ATOM     34  C   UNL A   1      35.031  31.838  28.250  1.00  0.00     0.060 A 
ATOM     35  C   UNL A   1      35.092  30.650  28.968  1.00  0.00     0.016 A 
ATOM     36  C   UNL A   1      36.164  32.656  28.141  1.00  0.00     0.016 A 
ATOM     37  C   UNL A   1      36.297  30.288  29.574  1.00  0.00     0.010 A 
ATOM     38  C   UNL A   1      37.370  32.282  28.751  1.00  0.00     0.010 A 
ATOM     39  C   UNL A   1      37.455  31.092  29.482  1.00  0.00    -0.014 A 
BRANCH  39  40
ATOM     40  C   UNL A   1      38.732  30.595  30.079  1.00  0.00     0.031 A 
ATOM     41  C   UNL A   1      39.228  31.028  31.436  1.00  0.00     0.074 A 
ATOM     42  C   UNL A   1      39.424  29.643  29.419  1.00  0.00     0.049 A 
ATOM     43  N   UNL A   1      40.102  30.424  32.206  1.00  0.00    -0.248 NA
ATOM     44  C   UNL A   1      38.656  32.244  32.033  1.00  0.00     0.031 C 
ATOM     45  C   UNL A   1      39.105  29.153  28.076  1.00  0.00     0.029 A 
ATOM     46  N   UNL A   1      40.522  28.905  29.790  1.00  0.00    -0.354 N 
ATOM     47  C   UNL A   1      40.131  31.139  33.396  1.00  0.00     0.074 A 
ATOM     48  C   UNL A   1      39.222  32.252  33.237  1.00  0.00     0.031 C 
ATOM     49  C   UNL A   1      39.961  28.175  27.751  1.00  0.00     0.029 A 
ATOM     50  C   UNL A   1      40.920  27.998  28.837  1.00  0.00     0.049 A 
ATOM     51  H   UNL A   1      40.980  29.017  30.654  1.00  0.00     0.167 HD
ATOM     52  C   UNL A   1      40.827  30.874  34.527  1.00  0.00     0.034 A 
ATOM     53  C   UNL A   1      41.946  27.123  28.819  1.00  0.00     0.034 A 
ATOM     54  C   UNL A   1      41.835  29.855  34.655  1.00  0.00     0.049 A 
ATOM     55  C   UNL A   1      42.840  26.992  30.014  1.00  0.00     0.074 A 
ATOM     56  C   UNL A   1      42.603  29.551  35.766  1.00  0.00     0.029 A 
ATOM     57  N   UNL A   1      42.276  29.037  33.630  1.00  0.00    -0.354 N 
ATOM     58  N   UNL A   1      42.715  27.548  31.193  1.00  0.00    -0.248 NA
ATOM     59  C   UNL A   1      44.006  26.106  29.886  1.00  0.00     0.031 C 
ATOM     60  C   UNL A   1      43.553  28.595  35.394  1.00  0.00     0.029 A 
ATOM     61  C   UNL A   1      43.347  28.276  34.063  1.00  0.00     0.049 A 
ATOM     62  H   UNL A   1      41.885  29.003  32.726  1.00  0.00     0.167 HD
ATOM     63  C   UNL A   1      43.778  27.072  31.951  1.00  0.00     0.074 A 
ATOM     64  C   UNL A   1      44.530  26.171  31.104  1.00  0.00     0.031 C 
ATOM     65  C   UNL A   1      44.095  27.367  33.234  1.00  0.00     0.034 A 
BRANCH  52  66
ATOM     66  C   UNL A   1      40.523  31.680  35.759  1.00  0.00     0.023 A 
ATOM     67  C   UNL A   1      41.426  32.693  36.141  1.00  0.00     0.012 A 
ATOM     68  C   UNL A   1      39.293  31.554  36.427  1.00  0.00     0.148 A 
ATOM     69  C   UNL A   1      41.101  33.579  37.168  1.00  0.00     0.002 A 
ATOM     70  C   UNL A   1      38.972  32.448  37.441  1.00  0.00     0.091 A 
ATOM     71  F   UNL A   1      38.458  30.579  36.041  1.00  0.00    -0.205 F 
ATOM     72  C   UNL A   1      39.872  33.462  37.810  1.00  0.00     0.022 A 
BRANCH  70  73
ATOM     73  S   UNL A   1      37.403  32.404  38.314  1.00  0.00     0.127 S 
ATOM     74  O   UNL A   1      37.194  30.965  38.465  1.00  0.00    -0.237 OA
ATOM     75  O   UNL A   1      37.722  33.109  39.555  1.00  0.00    -0.237 OA
ATOM     76  O   UNL A   1      36.443  33.078  37.451  1.00  0.00    -0.744 OA
ENDBRANCH  70  73
ENDBRANCH  52  66
BRANCH  53  77
ATOM     77  C   UNL A   1      42.172  26.315  27.592  1.00  0.00     0.023 A 
ATOM     78  C   UNL A   1      42.850  26.870  26.492  1.00  0.00     0.012 A 
ATOM     79  C   UNL A   1      41.787  24.960  27.560  1.00  0.00     0.148 A 
ATOM     80  C   UNL A   1      43.147  26.082  25.380  1.00  0.00     0.002 A 
ATOM     81  C   UNL A   1      42.129  24.170  26.472  1.00  0.00     0.091 A 
ATOM     82  F   UNL A   1      41.128  24.466  28.617  1.00  0.00    -0.205 F 
ATOM     83  C   UNL A   1      42.802  24.731  25.376  1.00  0.00     0.022 A 
BRANCH  81  84
ATOM     84  S   UNL A   1      41.831  22.401  26.438  1.00  0.00     0.127 S 
ATOM     85  O   UNL A   1      42.461  21.970  27.685  1.00  0.00    -0.237 OA
ATOM     86  O   UNL A   1      40.370  22.344  26.433  1.00  0.00    -0.237 OA
ATOM     87  O   UNL A   1      42.460  21.914  25.219  1.00  0.00    -0.744 OA
ENDBRANCH  81  84
ENDBRANCH  53  77
BRANCH  65  88
ATOM     88  C   UNL A   1      45.321  26.735  33.831  1.00  0.00     0.023 A 
ATOM     89  C   UNL A   1      46.532  27.454  33.847  1.00  0.00     0.012 A 
ATOM     90  C   UNL A   1      45.243  25.490  34.486  1.00  0.00     0.148 A 
ATOM     91  C   UNL A   1      47.650  26.939  34.502  1.00  0.00     0.002 A 
ATOM     92  C   UNL A   1      46.352  25.000  35.167  1.00  0.00     0.091 A 
ATOM     93  F   UNL A   1      44.081  24.822  34.449  1.00  0.00    -0.205 F 
ATOM     94  C   UNL A   1      47.557  25.722  35.172  1.00  0.00     0.022 A 
BRANCH  92  95
ATOM     95  S   UNL A   1      46.308  23.479  36.123  1.00  0.00     0.127 S 
ATOM     96  O   UNL A   1      45.238  23.759  37.079  1.00  0.00    -0.237 OA
ATOM     97  O   UNL A   1      45.974  22.486  35.104  1.00  0.00    -0.237 OA
ATOM     98  O   UNL A   1      47.634  23.330  36.707  1.00  0.00    -0.744 OA
ENDBRANCH  92  95
ENDBRANCH  65  88
ENDBRANCH  39  40
ENDBRANCH  32  34
ENDBRANCH  31  32
ENDBRANCH  30  31
ENDBRANCH   1  30
TORSDOF 19
ENDMDL
MODEL 3
REMARK VINA RESULT:     -11.3      1.941      2.637
REMARK SMILES Nc1oc2ccc(F)cc2c(=O)c1[C@@H]1[NH2+][C@H](C(=O)OCCOCCOC(=O)c2ccc(-c3c4nc(c(-c5cccc(S(=O)(=O)[O-])c5F)c5ccc([nH]5)c(-c5cccc(S(=O)(=O)[O-])c5F)c5nc(c(-c6cccc(S(=O)(=O)[O-])c6F)c6ccc3[nH]6)C=C5)C=C4)cc2)CS1
REMARK SMILES IDX 23 1 22 2 21 3 20 4 19 5 17 6 18 7 16 8 14 9 15 10 92 11
REMARK SMILES IDX 91 14 13 15 2 16 3 17 4 18 11 19 5 20 10 21 12 22 6 23 9 24
REMARK SMILES IDX 7 25 8 26 1 27 24 30 25 31 26 32 27 33 28 34 29 35 90 36
REMARK SMILES IDX 30 37 89 38 31 39 32 40 33 41 83 42 34 43 88 44 82 45 84 46
REMARK SMILES IDX 35 47 87 48 81 49 80 50 36 52 68 53 48 54 67 55 49 56 52 57
REMARK SMILES IDX 66 58 85 59 50 60 51 61 65 63 86 64 53 65 37 66 38 67 46 68
REMARK SMILES IDX 39 69 41 70 47 71 40 72 42 73 43 74 44 75 45 76 69 77 70 78
REMARK SMILES IDX 78 79 71 80 73 81 79 82 72 83 74 84 75 85 76 86 77 87 54 88
REMARK SMILES IDX 55 89 63 90 56 91 58 92 64 93 57 94 59 95 60 96 61 97 62 98
REMARK H PARENT 15 12 15 13 1 28 1 29 84 51 52 62
REMARK Flexibility Score: inf
ROOT
ATOM      1  C   UNL A   1      31.892  29.894  25.197  1.00  0.00     0.202 C 
ENDROOT
BRANCH   1   2
ATOM      2  O   UNL A   1      30.630  29.546  24.628  1.00  0.00    -0.374 OA
BRANCH   2   3
ATOM      3  C   UNL A   1      30.540  29.496  23.202  1.00  0.00     0.202 C 
BRANCH   3   4
ATOM      4  C   UNL A   1      29.701  28.360  22.618  1.00  0.00     0.261 C 
BRANCH   4   5
ATOM      5  O   UNL A   1      30.564  27.356  22.075  1.00  0.00    -0.459 OA
BRANCH   5   6
ATOM      6  C   UNL A   1      31.136  26.506  22.959  1.00  0.00     0.365 C 
ATOM      7  O   UNL A   1      32.326  26.505  23.259  1.00  0.00    -0.245 OA
BRANCH   6   8
ATOM      8  C   UNL A   1      30.132  25.572  23.646  1.00  0.00     0.304 C 
ATOM      9  C   UNL A   1      31.097  23.761  24.933  1.00  0.00     0.283 C 
ATOM     10  N   UNL A   1      30.490  24.129  23.649  1.00  0.00    -0.319 N 
ATOM     11  S   UNL A   1      30.431  24.861  26.211  1.00  0.00    -0.087 SA
ATOM     12  H   UNL A   1      29.647  23.573  23.504  1.00  0.00     0.348 HD
ATOM     13  H   UNL A   1      31.159  23.950  22.901  1.00  0.00     0.348 HD
ATOM     14  C   UNL A   1      29.803  26.083  25.040  1.00  0.00     0.153 C 
BRANCH   9  15
ATOM     15  C   UNL A   1      32.600  23.659  24.931  1.00  0.00     0.128 A 
ATOM     16  C   UNL A   1      33.515  24.552  25.372  1.00  0.00     0.205 A 
ATOM     17  O   UNL A   1      34.880  24.337  25.311  1.00  0.00    -0.440 OA
ATOM     18  C   UNL A   1      35.324  23.051  25.224  1.00  0.00     0.140 A 
ATOM     19  C   UNL A   1      33.122  22.343  24.440  1.00  0.00     0.205 A 
ATOM     20  C   UNL A   1      36.634  22.798  25.616  1.00  0.00     0.051 A 
ATOM     21  C   UNL A   1      34.517  22.022  24.765  1.00  0.00     0.068 A 
ATOM     22  O   UNL A   1      32.415  21.518  23.869  1.00  0.00    -0.288 OA
ATOM     23  C   UNL A   1      37.150  21.507  25.522  1.00  0.00     0.043 A 
ATOM     24  C   UNL A   1      35.023  20.723  24.665  1.00  0.00     0.055 A 
ATOM     25  C   UNL A   1      36.340  20.482  25.046  1.00  0.00     0.124 A 
ATOM     26  F   UNL A   1      36.838  19.245  24.933  1.00  0.00    -0.207 F 
BRANCH  16  27
ATOM     27  N   UNL A   1      33.237  25.760  25.945  1.00  0.00    -0.369 N 
ATOM     28  H   UNL A   1      32.373  25.904  26.394  1.00  0.00     0.159 HD
ATOM     29  H   UNL A   1      33.900  26.487  25.908  1.00  0.00     0.159 HD
ENDBRANCH  16  27
ENDBRANCH   9  15
ENDBRANCH   6   8
ENDBRANCH   5   6
ENDBRANCH   4   5
ENDBRANCH   3   4
ENDBRANCH   2   3
ENDBRANCH   1   2
BRANCH   1  30
ATOM     30  C   UNL A   1      31.901  30.791  26.444  1.00  0.00     0.261 C 
BRANCH  30  31
ATOM     31  O   UNL A   1      32.993  30.563  27.346  1.00  0.00    -0.460 OA
BRANCH  31  32
ATOM     32  C   UNL A   1      33.759  31.652  27.600  1.00  0.00     0.338 C 
ATOM     33  O   UNL A   1      33.404  32.825  27.591  1.00  0.00    -0.246 OA
BRANCH  32  34
ATOM     34  C   UNL A   1      35.099  31.219  28.036  1.00  0.00     0.060 A 
ATOM     35  C   UNL A   1      36.115  32.152  28.206  1.00  0.00     0.016 A 
ATOM     36  C   UNL A   1      35.320  29.869  28.342  1.00  0.00     0.016 A 
ATOM     37  C   UNL A   1      37.354  31.721  28.686  1.00  0.00     0.010 A 
ATOM     38  C   UNL A   1      36.567  29.447  28.826  1.00  0.00     0.010 A 
ATOM     39  C   UNL A   1      37.606  30.366  29.002  1.00  0.00    -0.014 A 
BRANCH  39  40
ATOM     40  C   UNL A   1      38.926  29.995  29.598  1.00  0.00     0.031 A 
ATOM     41  C   UNL A   1      39.422  30.552  30.909  1.00  0.00     0.074 A 
ATOM     42  C   UNL A   1      39.666  29.046  28.986  1.00  0.00     0.049 A 
ATOM     43  N   UNL A   1      40.350  30.061  31.695  1.00  0.00    -0.248 NA
ATOM     44  C   UNL A   1      38.783  31.767  31.437  1.00  0.00     0.031 C 
ATOM     45  C   UNL A   1      39.350  28.444  27.689  1.00  0.00     0.029 A 
ATOM     46  N   UNL A   1      40.818  28.409  29.377  1.00  0.00    -0.354 N 
ATOM     47  C   UNL A   1      40.358  30.857  32.832  1.00  0.00     0.074 A 
ATOM     48  C   UNL A   1      39.373  31.896  32.622  1.00  0.00     0.031 C 
ATOM     49  C   UNL A   1      40.262  27.503  27.408  1.00  0.00     0.029 A 
ATOM     50  C   UNL A   1      41.254  27.464  28.479  1.00  0.00     0.049 A 
ATOM     51  H   UNL A   1      41.286  28.610  30.219  1.00  0.00     0.167 HD
ATOM     52  C   UNL A   1      41.094  30.718  33.960  1.00  0.00     0.034 A 
ATOM     53  C   UNL A   1      42.335  26.659  28.493  1.00  0.00     0.034 A 
ATOM     54  C   UNL A   1      42.170  29.778  34.131  1.00  0.00     0.049 A 
ATOM     55  C   UNL A   1      43.261  26.669  29.670  1.00  0.00     0.074 A 
ATOM     56  C   UNL A   1      42.981  29.602  35.240  1.00  0.00     0.029 A 
ATOM     57  N   UNL A   1      42.642  28.921  33.152  1.00  0.00    -0.354 N 
ATOM     58  N   UNL A   1      43.126  27.296  30.812  1.00  0.00    -0.248 NA
ATOM     59  C   UNL A   1      44.481  25.853  29.572  1.00  0.00     0.031 C 
ATOM     60  C   UNL A   1      43.983  28.686  34.908  1.00  0.00     0.029 A 
ATOM     61  C   UNL A   1      43.770  28.262  33.608  1.00  0.00     0.049 A 
ATOM     62  H   UNL A   1      42.234  28.799  32.264  1.00  0.00     0.167 HD
ATOM     63  C   UNL A   1      44.234  26.944  31.573  1.00  0.00     0.074 A 
ATOM     64  C   UNL A   1      45.026  26.037  30.769  1.00  0.00     0.031 C 
ATOM     65  C   UNL A   1      44.558  27.348  32.823  1.00  0.00     0.034 A 
BRANCH  52  66
ATOM     66  C   UNL A   1      40.764  31.586  35.142  1.00  0.00     0.023 A 
ATOM     67  C   UNL A   1      41.506  32.769  35.336  1.00  0.00     0.012 A 
ATOM     68  C   UNL A   1      39.639  31.328  35.945  1.00  0.00     0.148 A 
ATOM     69  C   UNL A   1      41.124  33.691  36.310  1.00  0.00     0.002 A 
ATOM     70  C   UNL A   1      39.258  32.257  36.904  1.00  0.00     0.091 A 
ATOM     71  F   UNL A   1      38.957  30.194  35.735  1.00  0.00    -0.205 F 
ATOM     72  C   UNL A   1      39.996  33.440  37.087  1.00  0.00     0.022 A 
BRANCH  70  73
ATOM     73  S   UNL A   1      37.804  32.045  37.938  1.00  0.00     0.127 S 
ATOM     74  O   UNL A   1      36.873  32.993  37.328  1.00  0.00    -0.237 OA
ATOM     75  O   UNL A   1      37.474  30.637  37.718  1.00  0.00    -0.237 OA
ATOM     76  O   UNL A   1      38.221  32.377  39.292  1.00  0.00    -0.744 OA
ENDBRANCH  70  73
ENDBRANCH  52  66
BRANCH  53  77
ATOM     77  C   UNL A   1      42.587  25.784  27.318  1.00  0.00     0.023 A 
ATOM     78  C   UNL A   1      43.361  26.250  26.240  1.00  0.00     0.012 A 
ATOM     79  C   UNL A   1      42.127  24.452  27.320  1.00  0.00     0.148 A 
ATOM     80  C   UNL A   1      43.679  25.396  25.184  1.00  0.00     0.002 A 
ATOM     81  C   UNL A   1      42.489  23.595  26.291  1.00  0.00     0.091 A 
ATOM     82  F   UNL A   1      41.378  24.044  28.354  1.00  0.00    -0.205 F 
ATOM     83  C   UNL A   1      43.257  24.067  25.216  1.00  0.00     0.022 A 
BRANCH  81  84
ATOM     84  S   UNL A   1      42.091  21.845  26.314  1.00  0.00     0.127 S 
ATOM     85  O   UNL A   1      40.677  21.857  25.945  1.00  0.00    -0.237 OA
ATOM     86  O   UNL A   1      42.992  21.321  25.289  1.00  0.00    -0.237 OA
ATOM     87  O   UNL A   1      42.381  21.388  27.666  1.00  0.00    -0.744 OA
ENDBRANCH  81  84
ENDBRANCH  53  77
BRANCH  65  88
ATOM     88  C   UNL A   1      45.836  26.839  33.429  1.00  0.00     0.023 A 
ATOM     89  C   UNL A   1      46.998  27.632  33.361  1.00  0.00     0.012 A 
ATOM     90  C   UNL A   1      45.855  25.642  34.173  1.00  0.00     0.148 A 
ATOM     91  C   UNL A   1      48.162  27.239  34.020  1.00  0.00     0.002 A 
ATOM     92  C   UNL A   1      47.008  25.275  34.857  1.00  0.00     0.091 A 
ATOM     93  F   UNL A   1      44.738  24.902  34.215  1.00  0.00    -0.205 F 
ATOM     94  C   UNL A   1      48.164  26.069  34.777  1.00  0.00     0.022 A 
BRANCH  92  95
ATOM     95  S   UNL A   1      47.086  23.827  35.918  1.00  0.00     0.127 S 
ATOM     96  O   UNL A   1      47.987  24.282  36.976  1.00  0.00    -0.237 OA
ATOM     97  O   UNL A   1      45.691  23.672  36.329  1.00  0.00    -0.237 OA
ATOM     98  O   UNL A   1      47.601  22.745  35.090  1.00  0.00    -0.744 OA
ENDBRANCH  92  95
ENDBRANCH  65  88
ENDBRANCH  39  40
ENDBRANCH  32  34
ENDBRANCH  31  32
ENDBRANCH  30  31
ENDBRANCH   1  30
TORSDOF 19
ENDMDL
