MODEL 1
REMARK VINA RESULT:     -10.9      0.000      0.000
REMARK SMILES N#C/C(=C/c1ccc(-c2cc(C(=O)OCCOCCOC(=O)c3ccc(-c4c5nc(c(-c6cccc(S(=O)(=O)[O-])c6F)c6ccc([nH]6)c(-c6cccc(S(=O)(=O)[O-])c6F)c6nc(c(-c7cccc(S(=O)(=O)[O-])c7F)c7ccc4[nH]7)C=C6)C=C5)cc3)ccc2Cl)o1)C(=O)NCCc1c[nH]c2ccccc12
REMARK SMILES IDX 15 1 14 2 12 3 13 4 11 5 9 6 10 7 88 8 87 9 89 10 86 11 8 12
REMARK SMILES IDX 5 13 6 14 90 15 7 16 4 17 3 18 2 19 1 20 91 21 92 22 93 23
REMARK SMILES IDX 94 25 95 26 96 27 97 28 104 29 98 30 99 31 103 32 100 34
REMARK SMILES IDX 102 35 101 36 16 37 17 38 18 39 19 40 20 41 21 42 22 43
REMARK SMILES IDX 23 44 24 45 85 46 25 47 84 48 26 49 27 50 28 51 78 52 29 53
REMARK SMILES IDX 83 54 77 55 79 56 30 57 82 58 76 59 75 60 31 62 63 63 43 64
REMARK SMILES IDX 62 65 44 66 47 67 61 68 80 69 45 70 46 71 60 73 81 74 48 75
REMARK SMILES IDX 32 76 33 77 41 78 34 79 36 80 42 81 35 82 37 83 38 84 39 85
REMARK SMILES IDX 40 86 64 87 65 88 73 89 66 90 68 91 74 92 67 93 69 94 70 95
REMARK SMILES IDX 71 96 72 97 49 98 50 99 58 100 51 101 53 102 59 103 52 104
REMARK SMILES IDX 54 105 55 106 56 107 57 108
REMARK H PARENT 93 24 98 33 79 61 47 72
REMARK Flexibility Score: inf
ROOT
ATOM      1  C   UNL A   1      33.308  21.676  26.085  1.00  0.00     0.261 C 
ENDROOT
BRANCH   1   2
ATOM      2  O   UNL A   1      33.942  22.664  26.932  1.00  0.00    -0.460 OA
BRANCH   2   3
ATOM      3  C   UNL A   1      34.820  23.522  26.334  1.00  0.00     0.338 C 
ATOM      4  O   UNL A   1      36.011  23.615  26.593  1.00  0.00    -0.246 OA
BRANCH   3   5
ATOM      5  C   UNL A   1      34.199  24.179  25.120  1.00  0.00     0.060 A 
ATOM      6  C   UNL A   1      32.226  25.260  24.006  1.00  0.00     0.037 A 
ATOM      7  C   UNL A   1      32.898  24.801  25.176  1.00  0.00     0.029 A 
ATOM      8  C   UNL A   1      32.926  25.045  22.790  1.00  0.00     0.052 A 
ATOM      9  C   UNL A   1      34.240  24.539  22.753  1.00  0.00     0.022 A 
ATOM     10  Cl  UNL A   1      32.212  25.312  21.228  1.00  0.00    -0.084 Cl
ATOM     11  C   UNL A   1      34.892  24.138  23.912  1.00  0.00     0.017 A 
BRANCH   6  12
ATOM     12  C   UNL A   1      30.790  25.717  23.962  1.00  0.00     0.136 A 
ATOM     13  C   UNL A   1      28.975  27.107  23.619  1.00  0.00     0.129 A 
ATOM     14  C   UNL A   1      28.540  25.936  24.241  1.00  0.00     0.051 A 
ATOM     15  O   UNL A   1      30.366  26.886  23.326  1.00  0.00    -0.457 OA
ATOM     16  C   UNL A   1      29.676  25.144  24.549  1.00  0.00     0.051 A 
BRANCH  13  17
ATOM     17  C   UNL A   1      28.241  28.367  23.450  1.00  0.00     0.072 C 
ATOM     18  C   UNL A   1      28.679  29.582  22.949  1.00  0.00     0.120 C 
BRANCH  18  19
ATOM     19  C   UNL A   1      27.729  30.746  23.175  1.00  0.00     0.105 C 
ATOM     20  N   UNL A   1      26.940  31.712  23.363  1.00  0.00    -0.192 NA
ENDBRANCH  18  19
BRANCH  18  21
ATOM     21  C   UNL A   1      29.973  29.936  22.403  1.00  0.00     0.262 C 
ATOM     22  O   UNL A   1      30.055  30.286  21.228  1.00  0.00    -0.268 OA
ATOM     23  N   UNL A   1      31.018  30.123  23.233  1.00  0.00    -0.351 N 
ATOM     24  H   UNL A   1      31.543  30.931  23.031  1.00  0.00     0.163 HD
BRANCH  23  25
ATOM     25  C   UNL A   1      31.541  29.344  24.404  1.00  0.00     0.121 C 
BRANCH  25  26
ATOM     26  C   UNL A   1      33.077  29.082  24.642  1.00  0.00     0.059 C 
BRANCH  26  27
ATOM     27  C   UNL A   1      33.615  28.771  26.137  1.00  0.00    -0.021 A 
ATOM     28  C   UNL A   1      32.582  28.827  27.080  1.00  0.00     0.087 A 
ATOM     29  C   UNL A   1      34.627  29.504  26.978  1.00  0.00     0.003 A 
ATOM     30  N   UNL A   1      32.600  30.247  27.127  1.00  0.00    -0.361 N 
ATOM     31  C   UNL A   1      33.902  30.623  27.358  1.00  0.00     0.046 A 
ATOM     32  C   UNL A   1      35.692  29.330  27.903  1.00  0.00     0.010 A 
ATOM     33  H   UNL A   1      31.828  30.847  27.017  1.00  0.00     0.166 HD
ATOM     34  C   UNL A   1      34.412  31.844  27.751  1.00  0.00     0.026 A 
ATOM     35  C   UNL A   1      36.171  30.490  28.602  1.00  0.00     0.001 A 
ATOM     36  C   UNL A   1      35.617  31.757  28.400  1.00  0.00     0.002 A 
ENDBRANCH  26  27
ENDBRANCH  25  26
ENDBRANCH  23  25
ENDBRANCH  18  21
ENDBRANCH  13  17
ENDBRANCH   6  12
ENDBRANCH   3   5
ENDBRANCH   2   3
ENDBRANCH   1   2
BRANCH   1  37
ATOM     37  C   UNL A   1      34.277  20.867  25.205  1.00  0.00     0.202 C 
BRANCH  37  38
ATOM     38  O   UNL A   1      35.505  20.341  25.687  1.00  0.00    -0.374 OA
BRANCH  38  39
ATOM     39  C   UNL A   1      36.592  20.293  24.773  1.00  0.00     0.202 C 
BRANCH  39  40
ATOM     40  C   UNL A   1      37.772  21.279  24.797  1.00  0.00     0.261 C 
BRANCH  40  41
ATOM     41  O   UNL A   1      38.074  21.858  26.078  1.00  0.00    -0.460 OA
BRANCH  41  42
ATOM     42  C   UNL A   1      39.400  21.796  26.413  1.00  0.00     0.338 C 
ATOM     43  O   UNL A   1      40.152  20.886  26.207  1.00  0.00    -0.246 OA
BRANCH  42  44
ATOM     44  C   UNL A   1      39.858  23.129  26.890  1.00  0.00     0.060 A 
ATOM     45  C   UNL A   1      39.460  24.303  26.222  1.00  0.00     0.016 A 
ATOM     46  C   UNL A   1      40.827  23.173  27.881  1.00  0.00     0.016 A 
ATOM     47  C   UNL A   1      40.122  25.500  26.473  1.00  0.00     0.010 A 
ATOM     48  C   UNL A   1      41.477  24.375  28.140  1.00  0.00     0.010 A 
ATOM     49  C   UNL A   1      41.160  25.536  27.413  1.00  0.00    -0.014 A 
BRANCH  49  50
ATOM     50  C   UNL A   1      41.925  26.782  27.637  1.00  0.00     0.031 A 
ATOM     51  C   UNL A   1      43.341  26.904  27.167  1.00  0.00     0.074 A 
ATOM     52  C   UNL A   1      41.343  27.806  28.287  1.00  0.00     0.049 A 
ATOM     53  N   UNL A   1      44.154  27.916  27.304  1.00  0.00    -0.248 NA
ATOM     54  C   UNL A   1      43.922  25.750  26.462  1.00  0.00     0.031 C 
ATOM     55  C   UNL A   1      39.971  27.796  28.789  1.00  0.00     0.029 A 
ATOM     56  N   UNL A   1      41.827  29.037  28.648  1.00  0.00    -0.354 N 
ATOM     57  C   UNL A   1      45.353  27.518  26.733  1.00  0.00     0.074 A 
ATOM     58  C   UNL A   1      45.168  26.158  26.271  1.00  0.00     0.031 C 
ATOM     59  C   UNL A   1      39.712  28.973  29.373  1.00  0.00     0.029 A 
ATOM     60  C   UNL A   1      40.919  29.792  29.351  1.00  0.00     0.049 A 
ATOM     61  H   UNL A   1      42.734  29.349  28.426  1.00  0.00     0.167 HD
ATOM     62  C   UNL A   1      46.496  28.229  26.609  1.00  0.00     0.034 A 
ATOM     63  C   UNL A   1      41.043  30.990  29.953  1.00  0.00     0.034 A 
ATOM     64  C   UNL A   1      46.676  29.563  27.109  1.00  0.00     0.049 A 
ATOM     65  C   UNL A   1      42.349  31.716  29.881  1.00  0.00     0.074 A 
ATOM     66  C   UNL A   1      47.798  30.363  26.999  1.00  0.00     0.029 A 
ATOM     67  N   UNL A   1      45.752  30.267  27.863  1.00  0.00    -0.354 N 
ATOM     68  N   UNL A   1      43.448  31.350  29.275  1.00  0.00    -0.248 NA
ATOM     69  C   UNL A   1      42.431  33.020  30.553  1.00  0.00     0.031 C 
ATOM     70  C   UNL A   1      47.595  31.503  27.773  1.00  0.00     0.029 A 
ATOM     71  C   UNL A   1      46.300  31.472  28.261  1.00  0.00     0.049 A 
ATOM     72  H   UNL A   1      44.844  29.957  28.081  1.00  0.00     0.167 HD
ATOM     73  C   UNL A   1      44.345  32.392  29.457  1.00  0.00     0.074 A 
ATOM     74  C   UNL A   1      43.653  33.411  30.220  1.00  0.00     0.031 C 
ATOM     75  C   UNL A   1      45.622  32.488  29.019  1.00  0.00     0.034 A 
BRANCH  62  76
ATOM     76  C   UNL A   1      47.675  27.545  25.978  1.00  0.00     0.023 A 
ATOM     77  C   UNL A   1      47.875  27.576  24.585  1.00  0.00     0.012 A 
ATOM     78  C   UNL A   1      48.597  26.862  26.795  1.00  0.00     0.148 A 
ATOM     79  C   UNL A   1      48.918  26.853  24.008  1.00  0.00     0.002 A 
ATOM     80  C   UNL A   1      49.670  26.203  26.224  1.00  0.00     0.091 A 
ATOM     81  F   UNL A   1      48.400  26.865  28.121  1.00  0.00    -0.205 F 
ATOM     82  C   UNL A   1      49.820  26.174  24.828  1.00  0.00     0.022 A 
BRANCH  80  83
ATOM     83  S   UNL A   1      50.884  25.330  27.213  1.00  0.00     0.127 S 
ATOM     84  O   UNL A   1      51.265  26.362  28.177  1.00  0.00    -0.237 OA
ATOM     85  O   UNL A   1      50.094  24.234  27.770  1.00  0.00    -0.237 OA
ATOM     86  O   UNL A   1      51.942  24.923  26.300  1.00  0.00    -0.744 OA
ENDBRANCH  80  83
ENDBRANCH  62  76
BRANCH  63  87
ATOM     87  C   UNL A   1      39.901  31.545  30.723  1.00  0.00     0.023 A 
ATOM     88  C   UNL A   1      38.969  32.403  30.114  1.00  0.00     0.012 A 
ATOM     89  C   UNL A   1      39.748  31.202  32.080  1.00  0.00     0.148 A 
ATOM     90  C   UNL A   1      37.917  32.937  30.858  1.00  0.00     0.002 A 
ATOM     91  C   UNL A   1      38.669  31.687  32.798  1.00  0.00     0.091 A 
ATOM     92  F   UNL A   1      40.653  30.380  32.630  1.00  0.00    -0.205 F 
ATOM     93  C   UNL A   1      37.757  32.566  32.194  1.00  0.00     0.022 A 
BRANCH  91  94
ATOM     94  S   UNL A   1      38.380  31.216  34.504  1.00  0.00     0.127 S 
ATOM     95  O   UNL A   1      38.212  29.769  34.385  1.00  0.00    -0.237 OA
ATOM     96  O   UNL A   1      39.620  31.647  35.146  1.00  0.00    -0.237 OA
ATOM     97  O   UNL A   1      37.192  31.946  34.926  1.00  0.00    -0.744 OA
ENDBRANCH  91  94
ENDBRANCH  63  87
BRANCH  75  98
ATOM     98  C   UNL A   1      46.356  33.774  29.275  1.00  0.00     0.023 A 
ATOM     99  C   UNL A   1      47.240  33.902  30.362  1.00  0.00     0.012 A 
ATOM    100  C   UNL A   1      46.179  34.861  28.395  1.00  0.00     0.148 A 
ATOM    101  C   UNL A   1      47.868  35.120  30.618  1.00  0.00     0.002 A 
ATOM    102  C   UNL A   1      46.860  36.047  28.613  1.00  0.00     0.091 A 
ATOM    103  F   UNL A   1      45.351  34.710  27.351  1.00  0.00    -0.205 F 
ATOM    104  C   UNL A   1      47.687  36.187  29.738  1.00  0.00     0.022 A 
BRANCH 102 105
ATOM    105  S   UNL A   1      46.703  37.453  27.510  1.00  0.00     0.127 S 
ATOM    106  O   UNL A   1      46.877  38.571  28.438  1.00  0.00    -0.237 OA
ATOM    107  O   UNL A   1      47.816  37.245  26.585  1.00  0.00    -0.237 OA
ATOM    108  O   UNL A   1      45.380  37.358  26.908  1.00  0.00    -0.744 OA
ENDBRANCH 102 105
ENDBRANCH  75  98
ENDBRANCH  49  50
ENDBRANCH  42  44
ENDBRANCH  41  42
ENDBRANCH  40  41
ENDBRANCH  39  40
ENDBRANCH  38  39
ENDBRANCH  37  38
ENDBRANCH   1  37
TORSDOF 24
ENDMDL
MODEL 2
REMARK VINA RESULT:     -10.4      5.483     12.599
REMARK SMILES N#C/C(=C/c1ccc(-c2cc(C(=O)OCCOCCOC(=O)c3ccc(-c4c5nc(c(-c6cccc(S(=O)(=O)[O-])c6F)c6ccc([nH]6)c(-c6cccc(S(=O)(=O)[O-])c6F)c6nc(c(-c7cccc(S(=O)(=O)[O-])c7F)c7ccc4[nH]7)C=C6)C=C5)cc3)ccc2Cl)o1)C(=O)NCCc1c[nH]c2ccccc12
REMARK SMILES IDX 15 1 14 2 12 3 13 4 11 5 9 6 10 7 88 8 87 9 89 10 86 11 8 12
REMARK SMILES IDX 5 13 6 14 90 15 7 16 4 17 3 18 2 19 1 20 91 21 92 22 93 23
REMARK SMILES IDX 94 25 95 26 96 27 97 28 104 29 98 30 99 31 103 32 100 34
REMARK SMILES IDX 102 35 101 36 16 37 17 38 18 39 19 40 20 41 21 42 22 43
REMARK SMILES IDX 23 44 24 45 85 46 25 47 84 48 26 49 27 50 28 51 78 52 29 53
REMARK SMILES IDX 83 54 77 55 79 56 30 57 82 58 76 59 75 60 31 62 63 63 43 64
REMARK SMILES IDX 62 65 44 66 47 67 61 68 80 69 45 70 46 71 60 73 81 74 48 75
REMARK SMILES IDX 32 76 33 77 41 78 34 79 36 80 42 81 35 82 37 83 38 84 39 85
REMARK SMILES IDX 40 86 64 87 65 88 73 89 66 90 68 91 74 92 67 93 69 94 70 95
REMARK SMILES IDX 71 96 72 97 49 98 50 99 58 100 51 101 53 102 59 103 52 104
REMARK SMILES IDX 54 105 55 106 56 107 57 108
REMARK H PARENT 93 24 98 33 79 61 47 72
REMARK Flexibility Score: inf
ROOT
ATOM      1  C   UNL A   1      36.689  34.452  31.774  1.00  0.00     0.261 C 
ENDROOT
BRANCH   1   2
ATOM      2  O   UNL A   1      37.985  33.850  31.544  1.00  0.00    -0.460 OA
BRANCH   2   3
ATOM      3  C   UNL A   1      38.551  34.047  30.317  1.00  0.00     0.338 C 
ATOM      4  O   UNL A   1      37.942  34.157  29.262  1.00  0.00    -0.246 OA
BRANCH   3   5
ATOM      5  C   UNL A   1      40.024  34.373  30.442  1.00  0.00     0.060 A 
ATOM      6  C   UNL A   1      42.291  34.612  29.392  1.00  0.00     0.037 A 
ATOM      7  C   UNL A   1      40.876  34.487  29.283  1.00  0.00     0.029 A 
ATOM      8  C   UNL A   1      42.793  34.601  30.720  1.00  0.00     0.052 A 
ATOM      9  C   UNL A   1      41.949  34.601  31.848  1.00  0.00     0.022 A 
ATOM     10  Cl  UNL A   1      44.489  34.513  31.089  1.00  0.00    -0.084 Cl
ATOM     11  C   UNL A   1      40.568  34.523  31.715  1.00  0.00     0.017 A 
BRANCH   6  12
ATOM     12  C   UNL A   1      43.255  34.518  28.236  1.00  0.00     0.136 A 
ATOM     13  C   UNL A   1      45.026  33.763  26.956  1.00  0.00     0.129 A 
ATOM     14  C   UNL A   1      44.495  34.911  26.367  1.00  0.00     0.051 A 
ATOM     15  O   UNL A   1      44.142  33.455  28.049  1.00  0.00    -0.457 OA
ATOM     16  C   UNL A   1      43.487  35.429  27.221  1.00  0.00     0.051 A 
BRANCH  13  17
ATOM     17  C   UNL A   1      46.300  33.099  26.656  1.00  0.00     0.072 C 
ATOM     18  C   UNL A   1      47.037  32.217  27.427  1.00  0.00     0.120 C 
BRANCH  18  19
ATOM     19  C   UNL A   1      48.442  31.941  26.918  1.00  0.00     0.105 C 
ATOM     20  N   UNL A   1      49.608  31.713  26.495  1.00  0.00    -0.192 NA
ENDBRANCH  18  19
BRANCH  18  21
ATOM     21  C   UNL A   1      46.731  31.659  28.729  1.00  0.00     0.262 C 
ATOM     22  O   UNL A   1      47.358  32.046  29.712  1.00  0.00    -0.268 OA
ATOM     23  N   UNL A   1      45.613  30.926  28.893  1.00  0.00    -0.351 N 
ATOM     24  H   UNL A   1      45.101  31.162  29.701  1.00  0.00     0.163 HD
BRANCH  23  25
ATOM     25  C   UNL A   1      44.992  29.820  28.091  1.00  0.00     0.121 C 
BRANCH  25  26
ATOM     26  C   UNL A   1      45.731  28.460  27.790  1.00  0.00     0.059 C 
BRANCH  26  27
ATOM     27  C   UNL A   1      47.326  28.458  27.512  1.00  0.00    -0.021 A 
ATOM     28  C   UNL A   1      47.612  28.495  26.143  1.00  0.00     0.087 A 
ATOM     29  C   UNL A   1      48.371  27.431  27.858  1.00  0.00     0.003 A 
ATOM     30  N   UNL A   1      47.356  27.107  25.975  1.00  0.00    -0.361 N 
ATOM     31  C   UNL A   1      48.102  26.446  26.922  1.00  0.00     0.046 A 
ATOM     32  C   UNL A   1      49.709  27.262  28.307  1.00  0.00     0.010 A 
ATOM     33  H   UNL A   1      46.759  26.698  25.308  1.00  0.00     0.166 HD
ATOM     34  C   UNL A   1      48.420  25.106  27.016  1.00  0.00     0.026 A 
ATOM     35  C   UNL A   1      50.285  25.949  28.226  1.00  0.00     0.001 A 
ATOM     36  C   UNL A   1      49.572  24.859  27.717  1.00  0.00     0.002 A 
ENDBRANCH  26  27
ENDBRANCH  25  26
ENDBRANCH  23  25
ENDBRANCH  18  21
ENDBRANCH  13  17
ENDBRANCH   6  12
ENDBRANCH   3   5
ENDBRANCH   2   3
ENDBRANCH   1   2
BRANCH   1  37
ATOM     37  C   UNL A   1      35.491  33.530  31.484  1.00  0.00     0.202 C 
BRANCH  37  38
ATOM     38  O   UNL A   1      34.421  33.897  30.625  1.00  0.00    -0.374 OA
BRANCH  38  39
ATOM     39  C   UNL A   1      34.618  33.710  29.231  1.00  0.00     0.202 C 
BRANCH  39  40
ATOM     40  C   UNL A   1      33.892  32.637  28.402  1.00  0.00     0.261 C 
BRANCH  40  41
ATOM     41  O   UNL A   1      34.720  31.877  27.505  1.00  0.00    -0.460 OA
BRANCH  41  42
ATOM     42  C   UNL A   1      34.857  30.562  27.860  1.00  0.00     0.338 C 
ATOM     43  O   UNL A   1      34.146  29.653  27.538  1.00  0.00    -0.246 OA
BRANCH  42  44
ATOM     44  C   UNL A   1      36.165  30.363  28.542  1.00  0.00     0.060 A 
ATOM     45  C   UNL A   1      37.343  30.912  28.005  1.00  0.00     0.016 A 
ATOM     46  C   UNL A   1      36.219  29.473  29.605  1.00  0.00     0.016 A 
ATOM     47  C   UNL A   1      38.582  30.477  28.463  1.00  0.00     0.010 A 
ATOM     48  C   UNL A   1      37.460  29.050  30.070  1.00  0.00     0.010 A 
ATOM     49  C   UNL A   1      38.647  29.515  29.479  1.00  0.00    -0.014 A 
BRANCH  49  50
ATOM     50  C   UNL A   1      39.954  28.984  29.925  1.00  0.00     0.031 A 
ATOM     51  C   UNL A   1      40.706  29.641  31.040  1.00  0.00     0.074 A 
ATOM     52  C   UNL A   1      40.478  27.911  29.303  1.00  0.00     0.049 A 
ATOM     53  N   UNL A   1      41.870  29.315  31.533  1.00  0.00    -0.248 NA
ATOM     54  C   UNL A   1      40.083  30.810  31.680  1.00  0.00     0.031 C 
ATOM     55  C   UNL A   1      39.833  27.194  28.206  1.00  0.00     0.029 A 
ATOM     56  N   UNL A   1      41.663  27.249  29.492  1.00  0.00    -0.354 N 
ATOM     57  C   UNL A   1      42.139  30.251  32.519  1.00  0.00     0.074 A 
ATOM     58  C   UNL A   1      41.025  31.176  32.536  1.00  0.00     0.031 C 
ATOM     59  C   UNL A   1      40.618  26.176  27.831  1.00  0.00     0.029 A 
ATOM     60  C   UNL A   1      41.850  26.211  28.610  1.00  0.00     0.049 A 
ATOM     61  H   UNL A   1      42.315  27.491  30.188  1.00  0.00     0.167 HD
ATOM     62  C   UNL A   1      43.218  30.323  33.332  1.00  0.00     0.034 A 
ATOM     63  C   UNL A   1      42.906  25.400  28.411  1.00  0.00     0.034 A 
ATOM     64  C   UNL A   1      44.332  29.420  33.275  1.00  0.00     0.049 A 
ATOM     65  C   UNL A   1      44.125  25.560  29.263  1.00  0.00     0.074 A 
ATOM     66  C   UNL A   1      45.454  29.410  34.084  1.00  0.00     0.029 A 
ATOM     67  N   UNL A   1      44.508  28.421  32.332  1.00  0.00    -0.354 N 
ATOM     68  N   UNL A   1      44.330  26.408  30.237  1.00  0.00    -0.248 NA
ATOM     69  C   UNL A   1      45.249  24.648  29.006  1.00  0.00     0.031 C 
ATOM     70  C   UNL A   1      46.352  28.480  33.568  1.00  0.00     0.029 A 
ATOM     71  C   UNL A   1      45.740  27.822  32.515  1.00  0.00     0.049 A 
ATOM     72  H   UNL A   1      43.854  28.175  31.638  1.00  0.00     0.167 HD
ATOM     73  C   UNL A   1      45.588  26.112  30.738  1.00  0.00     0.074 A 
ATOM     74  C   UNL A   1      46.093  24.995  29.967  1.00  0.00     0.031 C 
ATOM     75  C   UNL A   1      46.250  26.714  31.754  1.00  0.00     0.034 A 
BRANCH  62  76
ATOM     76  C   UNL A   1      43.283  31.470  34.299  1.00  0.00     0.023 A 
ATOM     77  C   UNL A   1      44.042  32.621  34.013  1.00  0.00     0.012 A 
ATOM     78  C   UNL A   1      42.571  31.392  35.512  1.00  0.00     0.148 A 
ATOM     79  C   UNL A   1      44.170  33.631  34.965  1.00  0.00     0.002 A 
ATOM     80  C   UNL A   1      42.646  32.429  36.424  1.00  0.00     0.091 A 
ATOM     81  F   UNL A   1      41.837  30.297  35.753  1.00  0.00    -0.205 F 
ATOM     82  C   UNL A   1      43.466  33.539  36.166  1.00  0.00     0.022 A 
BRANCH  80  83
ATOM     83  S   UNL A   1      41.751  32.395  37.977  1.00  0.00     0.127 S 
ATOM     84  O   UNL A   1      42.520  31.403  38.729  1.00  0.00    -0.237 OA
ATOM     85  O   UNL A   1      41.901  33.771  38.447  1.00  0.00    -0.237 OA
ATOM     86  O   UNL A   1      40.387  32.000  37.656  1.00  0.00    -0.744 OA
ENDBRANCH  80  83
ENDBRANCH  62  76
BRANCH  63  87
ATOM     87  C   UNL A   1      42.864  24.397  27.317  1.00  0.00     0.023 A 
ATOM     88  C   UNL A   1      43.440  24.672  26.064  1.00  0.00     0.012 A 
ATOM     89  C   UNL A   1      42.244  23.153  27.540  1.00  0.00     0.148 A 
ATOM     90  C   UNL A   1      43.370  23.729  25.039  1.00  0.00     0.002 A 
ATOM     91  C   UNL A   1      42.230  22.198  26.538  1.00  0.00     0.091 A 
ATOM     92  F   UNL A   1      41.706  22.922  28.746  1.00  0.00    -0.205 F 
ATOM     93  C   UNL A   1      42.780  22.487  25.280  1.00  0.00     0.022 A 
BRANCH  91  94
ATOM     94  S   UNL A   1      41.528  20.568  26.796  1.00  0.00     0.127 S 
ATOM     95  O   UNL A   1      40.132  20.890  27.083  1.00  0.00    -0.237 OA
ATOM     96  O   UNL A   1      41.766  19.933  25.501  1.00  0.00    -0.237 OA
ATOM     97  O   UNL A   1      42.271  19.982  27.904  1.00  0.00    -0.744 OA
ENDBRANCH  91  94
ENDBRANCH  63  87
BRANCH  75  98
ATOM     98  C   UNL A   1      47.576  26.137  32.165  1.00  0.00     0.023 A 
ATOM     99  C   UNL A   1      48.771  26.557  31.552  1.00  0.00     0.012 A 
ATOM    100  C   UNL A   1      47.626  25.183  33.201  1.00  0.00     0.148 A 
ATOM    101  C   UNL A   1      49.985  25.970  31.906  1.00  0.00     0.002 A 
ATOM    102  C   UNL A   1      48.843  24.654  33.597  1.00  0.00     0.091 A 
ATOM    103  F   UNL A   1      46.478  24.816  33.788  1.00  0.00    -0.205 F 
ATOM    104  C   UNL A   1      50.022  25.029  32.934  1.00  0.00     0.022 A 
BRANCH 102 105
ATOM    105  S   UNL A   1      48.976  23.463  34.932  1.00  0.00     0.127 S 
ATOM    106  O   UNL A   1      48.438  24.226  36.058  1.00  0.00    -0.237 OA
ATOM    107  O   UNL A   1      48.117  22.377  34.462  1.00  0.00    -0.237 OA
ATOM    108  O   UNL A   1      50.388  23.124  35.041  1.00  0.00    -0.744 OA
ENDBRANCH 102 105
ENDBRANCH  75  98
ENDBRANCH  49  50
ENDBRANCH  42  44
ENDBRANCH  41  42
ENDBRANCH  40  41
ENDBRANCH  39  40
ENDBRANCH  38  39
ENDBRANCH  37  38
ENDBRANCH   1  37
TORSDOF 24
ENDMDL
MODEL 3
REMARK VINA RESULT:     -10.1      5.474     10.935
REMARK SMILES N#C/C(=C/c1ccc(-c2cc(C(=O)OCCOCCOC(=O)c3ccc(-c4c5nc(c(-c6cccc(S(=O)(=O)[O-])c6F)c6ccc([nH]6)c(-c6cccc(S(=O)(=O)[O-])c6F)c6nc(c(-c7cccc(S(=O)(=O)[O-])c7F)c7ccc4[nH]7)C=C6)C=C5)cc3)ccc2Cl)o1)C(=O)NCCc1c[nH]c2ccccc12
REMARK SMILES IDX 15 1 14 2 12 3 13 4 11 5 9 6 10 7 88 8 87 9 89 10 86 11 8 12
REMARK SMILES IDX 5 13 6 14 90 15 7 16 4 17 3 18 2 19 1 20 91 21 92 22 93 23
REMARK SMILES IDX 94 25 95 26 96 27 97 28 104 29 98 30 99 31 103 32 100 34
REMARK SMILES IDX 102 35 101 36 16 37 17 38 18 39 19 40 20 41 21 42 22 43
REMARK SMILES IDX 23 44 24 45 85 46 25 47 84 48 26 49 27 50 28 51 78 52 29 53
REMARK SMILES IDX 83 54 77 55 79 56 30 57 82 58 76 59 75 60 31 62 63 63 43 64
REMARK SMILES IDX 62 65 44 66 47 67 61 68 80 69 45 70 46 71 60 73 81 74 48 75
REMARK SMILES IDX 32 76 33 77 41 78 34 79 36 80 42 81 35 82 37 83 38 84 39 85
REMARK SMILES IDX 40 86 64 87 65 88 73 89 66 90 68 91 74 92 67 93 69 94 70 95
REMARK SMILES IDX 71 96 72 97 49 98 50 99 58 100 51 101 53 102 59 103 52 104
REMARK SMILES IDX 54 105 55 106 56 107 57 108
REMARK H PARENT 93 24 98 33 79 61 47 72
REMARK Flexibility Score: inf
ROOT
ATOM      1  C   UNL A   1      35.731  30.062  27.428  1.00  0.00     0.261 C 
ENDROOT
BRANCH   1   2
ATOM      2  O   UNL A   1      34.434  29.419  27.437  1.00  0.00    -0.460 OA
BRANCH   2   3
ATOM      3  C   UNL A   1      33.353  30.201  27.148  1.00  0.00     0.338 C 
ATOM      4  O   UNL A   1      33.182  31.349  27.532  1.00  0.00    -0.246 OA
BRANCH   3   5
ATOM      5  C   UNL A   1      32.493  29.567  26.074  1.00  0.00     0.060 A 
ATOM      6  C   UNL A   1      32.124  27.756  24.377  1.00  0.00     0.037 A 
ATOM      7  C   UNL A   1      32.814  28.279  25.508  1.00  0.00     0.029 A 
ATOM      8  C   UNL A   1      31.114  28.602  23.846  1.00  0.00     0.052 A 
ATOM      9  C   UNL A   1      30.732  29.807  24.469  1.00  0.00     0.022 A 
ATOM     10  Cl  UNL A   1      30.302  28.278  22.344  1.00  0.00    -0.084 Cl
ATOM     11  C   UNL A   1      31.393  30.275  25.598  1.00  0.00     0.017 A 
BRANCH   6  12
ATOM     12  C   UNL A   1      32.541  26.530  23.606  1.00  0.00     0.136 A 
ATOM     13  C   UNL A   1      32.555  24.334  22.880  1.00  0.00     0.129 A 
ATOM     14  C   UNL A   1      33.655  25.000  22.338  1.00  0.00     0.051 A 
ATOM     15  O   UNL A   1      31.793  25.351  23.557  1.00  0.00    -0.457 OA
ATOM     16  C   UNL A   1      33.699  26.309  22.881  1.00  0.00     0.051 A 
BRANCH  13  17
ATOM     17  C   UNL A   1      32.301  22.889  22.918  1.00  0.00     0.072 C 
ATOM     18  C   UNL A   1      32.252  22.031  24.003  1.00  0.00     0.120 C 
BRANCH  18  19
ATOM     19  C   UNL A   1      32.239  20.553  23.649  1.00  0.00     0.105 C 
ATOM     20  N   UNL A   1      32.227  19.326  23.356  1.00  0.00    -0.192 NA
ENDBRANCH  18  19
BRANCH  18  21
ATOM     21  C   UNL A   1      32.389  22.328  25.415  1.00  0.00     0.262 C 
ATOM     22  O   UNL A   1      31.380  22.416  26.111  1.00  0.00    -0.268 OA
ATOM     23  N   UNL A   1      33.601  22.255  25.996  1.00  0.00    -0.351 N 
ATOM     24  H   UNL A   1      33.597  21.780  26.859  1.00  0.00     0.163 HD
BRANCH  23  25
ATOM     25  C   UNL A   1      34.958  22.754  25.592  1.00  0.00     0.121 C 
BRANCH  25  26
ATOM     26  C   UNL A   1      36.050  23.208  26.634  1.00  0.00     0.059 C 
BRANCH  26  27
ATOM     27  C   UNL A   1      37.383  23.969  26.117  1.00  0.00    -0.021 A 
ATOM     28  C   UNL A   1      37.835  23.448  24.898  1.00  0.00     0.087 A 
ATOM     29  C   UNL A   1      38.745  24.079  26.749  1.00  0.00     0.003 A 
ATOM     30  N   UNL A   1      38.446  22.325  25.518  1.00  0.00    -0.361 N 
ATOM     31  C   UNL A   1      39.254  22.811  26.519  1.00  0.00     0.046 A 
ATOM     32  C   UNL A   1      39.838  24.961  26.973  1.00  0.00     0.010 A 
ATOM     33  H   UNL A   1      38.316  21.380  25.277  1.00  0.00     0.166 HD
ATOM     34  C   UNL A   1      40.252  22.179  27.231  1.00  0.00     0.026 A 
ATOM     35  C   UNL A   1      41.060  24.401  27.478  1.00  0.00     0.001 A 
ATOM     36  C   UNL A   1      41.196  23.035  27.739  1.00  0.00     0.002 A 
ENDBRANCH  26  27
ENDBRANCH  25  26
ENDBRANCH  23  25
ENDBRANCH  18  21
ENDBRANCH  13  17
ENDBRANCH   6  12
ENDBRANCH   3   5
ENDBRANCH   2   3
ENDBRANCH   1   2
BRANCH   1  37
ATOM     37  C   UNL A   1      36.817  29.329  28.235  1.00  0.00     0.202 C 
BRANCH  37  38
ATOM     38  O   UNL A   1      38.133  29.837  28.402  1.00  0.00    -0.374 OA
BRANCH  38  39
ATOM     39  C   UNL A   1      39.199  28.899  28.348  1.00  0.00     0.202 C 
BRANCH  39  40
ATOM     40  C   UNL A   1      39.967  28.551  27.062  1.00  0.00     0.261 C 
BRANCH  40  41
ATOM     41  O   UNL A   1      41.089  29.396  26.758  1.00  0.00    -0.460 OA
BRANCH  41  42
ATOM     42  C   UNL A   1      41.910  28.895  25.784  1.00  0.00     0.338 C 
ATOM     43  O   UNL A   1      41.733  28.943  24.600  1.00  0.00    -0.246 OA
BRANCH  42  44
ATOM     44  C   UNL A   1      43.198  28.459  26.390  1.00  0.00     0.060 A 
ATOM     45  C   UNL A   1      43.681  27.154  26.183  1.00  0.00     0.016 A 
ATOM     46  C   UNL A   1      43.806  29.302  27.309  1.00  0.00     0.016 A 
ATOM     47  C   UNL A   1      44.705  26.660  26.983  1.00  0.00     0.010 A 
ATOM     48  C   UNL A   1      44.840  28.808  28.098  1.00  0.00     0.010 A 
ATOM     49  C   UNL A   1      45.270  27.476  27.971  1.00  0.00    -0.014 A 
BRANCH  49  50
ATOM     50  C   UNL A   1      46.305  26.941  28.882  1.00  0.00     0.031 A 
ATOM     51  C   UNL A   1      45.931  26.373  30.216  1.00  0.00     0.074 A 
ATOM     52  C   UNL A   1      47.598  26.987  28.512  1.00  0.00     0.049 A 
ATOM     53  N   UNL A   1      46.717  25.886  31.137  1.00  0.00    -0.248 NA
ATOM     54  C   UNL A   1      44.502  26.350  30.564  1.00  0.00     0.031 C 
ATOM     55  C   UNL A   1      48.076  27.519  27.238  1.00  0.00     0.029 A 
ATOM     56  N   UNL A   1      48.738  26.598  29.166  1.00  0.00    -0.354 N 
ATOM     57  C   UNL A   1      45.890  25.527  32.189  1.00  0.00     0.074 A 
ATOM     58  C   UNL A   1      44.539  25.876  31.801  1.00  0.00     0.031 C 
ATOM     59  C   UNL A   1      49.409  27.403  27.190  1.00  0.00     0.029 A 
ATOM     60  C   UNL A   1      49.886  26.857  28.455  1.00  0.00     0.049 A 
ATOM     61  H   UNL A   1      48.736  26.175  30.054  1.00  0.00     0.167 HD
ATOM     62  C   UNL A   1      46.234  24.956  33.366  1.00  0.00     0.034 A 
ATOM     63  C   UNL A   1      51.183  26.716  28.788  1.00  0.00     0.034 A 
ATOM     64  C   UNL A   1      47.583  24.652  33.751  1.00  0.00     0.049 A 
ATOM     65  C   UNL A   1      51.539  26.168  30.133  1.00  0.00     0.074 A 
ATOM     66  C   UNL A   1      48.012  24.047  34.918  1.00  0.00     0.029 A 
ATOM     67  N   UNL A   1      48.717  24.982  33.028  1.00  0.00    -0.354 N 
ATOM     68  N   UNL A   1      50.737  25.769  31.086  1.00  0.00    -0.248 NA
ATOM     69  C   UNL A   1      52.969  26.032  30.447  1.00  0.00     0.031 C 
ATOM     70  C   UNL A   1      49.403  24.107  34.951  1.00  0.00     0.029 A 
ATOM     71  C   UNL A   1      49.844  24.633  33.748  1.00  0.00     0.049 A 
ATOM     72  H   UNL A   1      48.720  25.400  32.137  1.00  0.00     0.167 HD
ATOM     73  C   UNL A   1      51.558  25.299  32.099  1.00  0.00     0.074 A 
ATOM     74  C   UNL A   1      52.923  25.451  31.637  1.00  0.00     0.031 C 
ATOM     75  C   UNL A   1      51.201  24.781  33.298  1.00  0.00     0.034 A 
BRANCH  62  76
ATOM     76  C   UNL A   1      45.138  24.700  34.360  1.00  0.00     0.023 A 
ATOM     77  C   UNL A   1      44.465  23.463  34.400  1.00  0.00     0.012 A 
ATOM     78  C   UNL A   1      44.780  25.713  35.270  1.00  0.00     0.148 A 
ATOM     79  C   UNL A   1      43.386  23.279  35.262  1.00  0.00     0.002 A 
ATOM     80  C   UNL A   1      43.752  25.500  36.171  1.00  0.00     0.091 A 
ATOM     81  F   UNL A   1      45.449  26.874  35.230  1.00  0.00    -0.205 F 
ATOM     82  C   UNL A   1      43.035  24.293  36.153  1.00  0.00     0.022 A 
BRANCH  80  83
ATOM     83  S   UNL A   1      43.261  26.747  37.363  1.00  0.00     0.127 S 
ATOM     84  O   UNL A   1      44.318  26.617  38.366  1.00  0.00    -0.237 OA
ATOM     85  O   UNL A   1      43.319  27.971  36.566  1.00  0.00    -0.237 OA
ATOM     86  O   UNL A   1      41.930  26.374  37.821  1.00  0.00    -0.744 OA
ENDBRANCH  80  83
ENDBRANCH  62  76
BRANCH  63  87
ATOM     87  C   UNL A   1      52.236  27.155  27.838  1.00  0.00     0.023 A 
ATOM     88  C   UNL A   1      52.786  28.447  27.917  1.00  0.00     0.012 A 
ATOM     89  C   UNL A   1      52.693  26.264  26.848  1.00  0.00     0.148 A 
ATOM     90  C   UNL A   1      53.756  28.853  27.002  1.00  0.00     0.002 A 
ATOM     91  C   UNL A   1      53.698  26.652  25.980  1.00  0.00     0.091 A 
ATOM     92  F   UNL A   1      52.149  25.040  26.801  1.00  0.00    -0.205 F 
ATOM     93  C   UNL A   1      54.224  27.951  26.044  1.00  0.00     0.022 A 
BRANCH  91  94
ATOM     94  S   UNL A   1      54.375  25.530  24.756  1.00  0.00     0.127 S 
ATOM     95  O   UNL A   1      53.386  25.630  23.685  1.00  0.00    -0.237 OA
ATOM     96  O   UNL A   1      55.668  26.149  24.467  1.00  0.00    -0.237 OA
ATOM     97  O   UNL A   1      54.457  24.229  25.406  1.00  0.00    -0.744 OA
ENDBRANCH  91  94
ENDBRANCH  63  87
BRANCH  75  98
ATOM     98  C   UNL A   1      52.293  24.255  34.188  1.00  0.00     0.023 A 
ATOM     99  C   UNL A   1      52.996  25.109  35.057  1.00  0.00     0.012 A 
ATOM    100  C   UNL A   1      52.597  22.878  34.173  1.00  0.00     0.148 A 
ATOM    101  C   UNL A   1      54.044  24.614  35.832  1.00  0.00     0.002 A 
ATOM    102  C   UNL A   1      53.591  22.380  34.997  1.00  0.00     0.091 A 
ATOM    103  F   UNL A   1      51.897  22.078  33.355  1.00  0.00    -0.205 F 
ATOM    104  C   UNL A   1      54.333  23.250  35.811  1.00  0.00     0.022 A 
BRANCH 102 105
ATOM    105  S   UNL A   1      54.000  20.634  35.048  1.00  0.00     0.127 S 
ATOM    106  O   UNL A   1      52.897  20.100  35.848  1.00  0.00    -0.237 OA
ATOM    107  O   UNL A   1      53.966  20.267  33.634  1.00  0.00    -0.237 OA
ATOM    108  O   UNL A   1      55.312  20.537  35.674  1.00  0.00    -0.744 OA
ENDBRANCH 102 105
ENDBRANCH  75  98
ENDBRANCH  49  50
ENDBRANCH  42  44
ENDBRANCH  41  42
ENDBRANCH  40  41
ENDBRANCH  39  40
ENDBRANCH  38  39
ENDBRANCH  37  38
ENDBRANCH   1  37
TORSDOF 24
ENDMDL
