MODEL 1
REMARK VINA RESULT:     -12.4      0.000      0.000
REMARK SMILES CC1(C)S[C@@H](c2cccc3c2sc2ccccc23)[NH2+][C@@H]1C(=O)OCCOCCOC(=O)c1ccc(-c2c3nc(c(-c4cccc(S(=O)(=O)[O-])c4F)c4ccc([nH]4)c(-c4cccc(S(=O)(=O)[O-])c4F)c4nc(c(-c5cccc(S(=O)(=O)[O-])c5F)c5ccc2[nH]5)C=C4)C=C3)cc1
REMARK SMILES IDX 27 1 26 2 25 3 24 4 23 5 21 6 22 7 20 8 1 9 2 10 3 11 4 12
REMARK SMILES IDX 5 13 19 14 6 17 7 18 11 19 8 20 10 21 12 22 9 23 18 24 13 25
REMARK SMILES IDX 17 26 14 27 16 28 15 29 28 30 29 31 30 32 31 33 32 34 33 35
REMARK SMILES IDX 94 36 34 37 93 38 35 39 36 40 37 41 87 42 38 43 92 44 86 45
REMARK SMILES IDX 88 46 39 47 91 48 85 49 84 50 40 52 72 53 52 54 71 55 53 56
REMARK SMILES IDX 56 57 70 58 89 59 54 60 55 61 69 63 90 64 57 65 41 66 42 67
REMARK SMILES IDX 50 68 43 69 45 70 51 71 44 72 46 73 47 74 48 75 49 76 73 77
REMARK SMILES IDX 74 78 82 79 75 80 77 81 83 82 76 83 78 84 79 85 80 86 81 87
REMARK SMILES IDX 58 88 59 89 67 90 60 91 62 92 68 93 61 94 63 95 64 96 65 97
REMARK SMILES IDX 66 98
REMARK H PARENT 19 15 19 16 88 51 56 62
REMARK Flexibility Score: inf
ROOT
ATOM      1  C   UNL A   1      32.397  31.597  26.541  1.00  0.00     0.202 C 
ENDROOT
BRANCH   1   2
ATOM      2  O   UNL A   1      32.407  30.362  27.253  1.00  0.00    -0.374 OA
BRANCH   2   3
ATOM      3  C   UNL A   1      31.748  29.236  26.677  1.00  0.00     0.202 C 
BRANCH   3   4
ATOM      4  C   UNL A   1      31.966  27.860  27.316  1.00  0.00     0.261 C 
BRANCH   4   5
ATOM      5  O   UNL A   1      30.922  26.934  27.000  1.00  0.00    -0.459 OA
BRANCH   5   6
ATOM      6  C   UNL A   1      31.343  25.740  26.484  1.00  0.00     0.366 C 
ATOM      7  O   UNL A   1      30.779  24.669  26.660  1.00  0.00    -0.245 OA
BRANCH   6   8
ATOM      8  C   UNL A   1      32.624  25.949  25.641  1.00  0.00     0.310 C 
ATOM      9  C   UNL A   1      33.632  26.566  23.380  1.00  0.00     0.030 C 
ATOM     10  C   UNL A   1      32.423  25.940  24.105  1.00  0.00     0.079 C 
ATOM     11  C   UNL A   1      31.159  26.646  23.603  1.00  0.00     0.030 C 
ATOM     12  S   UNL A   1      32.422  24.160  23.699  1.00  0.00    -0.081 SA
ATOM     13  C   UNL A   1      33.132  23.667  25.315  1.00  0.00     0.276 C 
ATOM     14  N   UNL A   1      33.606  24.889  25.980  1.00  0.00    -0.319 N 
ATOM     15  H   UNL A   1      34.532  25.142  25.636  1.00  0.00     0.348 HD
ATOM     16  H   UNL A   1      33.682  24.759  26.988  1.00  0.00     0.348 HD
BRANCH  13  17
ATOM     17  C   UNL A   1      34.235  22.634  25.224  1.00  0.00     0.038 A 
ATOM     18  C   UNL A   1      35.592  22.996  25.389  1.00  0.00     0.012 A 
ATOM     19  C   UNL A   1      33.964  21.248  25.030  1.00  0.00     0.046 A 
ATOM     20  C   UNL A   1      36.617  22.070  25.283  1.00  0.00     0.001 A 
ATOM     21  C   UNL A   1      34.979  20.297  24.894  1.00  0.00     0.001 A 
ATOM     22  S   UNL A   1      32.416  20.487  24.944  1.00  0.00    -0.135 S 
ATOM     23  C   UNL A   1      36.322  20.738  25.013  1.00  0.00     0.010 A 
ATOM     24  C   UNL A   1      34.461  18.964  24.637  1.00  0.00     0.000 A 
ATOM     25  C   UNL A   1      33.070  18.928  24.691  1.00  0.00     0.036 A 
ATOM     26  C   UNL A   1      35.145  17.745  24.381  1.00  0.00     0.010 A 
ATOM     27  C   UNL A   1      32.355  17.723  24.547  1.00  0.00     0.019 A 
ATOM     28  C   UNL A   1      34.438  16.551  24.212  1.00  0.00     0.001 A 
ATOM     29  C   UNL A   1      33.056  16.540  24.311  1.00  0.00     0.002 A 
ENDBRANCH  13  17
ENDBRANCH   6   8
ENDBRANCH   5   6
ENDBRANCH   4   5
ENDBRANCH   3   4
ENDBRANCH   2   3
ENDBRANCH   1   2
BRANCH   1  30
ATOM     30  C   UNL A   1      32.106  32.900  27.298  1.00  0.00     0.261 C 
BRANCH  30  31
ATOM     31  O   UNL A   1      33.248  33.765  27.412  1.00  0.00    -0.460 OA
BRANCH  31  32
ATOM     32  C   UNL A   1      33.719  33.908  28.673  1.00  0.00     0.338 C 
ATOM     33  O   UNL A   1      33.174  34.501  29.602  1.00  0.00    -0.246 OA
BRANCH  32  34
ATOM     34  C   UNL A   1      34.925  33.091  28.875  1.00  0.00     0.060 A 
ATOM     35  C   UNL A   1      34.762  31.824  29.449  1.00  0.00     0.016 A 
ATOM     36  C   UNL A   1      36.199  33.603  28.623  1.00  0.00     0.016 A 
ATOM     37  C   UNL A   1      35.879  31.080  29.819  1.00  0.00     0.010 A 
ATOM     38  C   UNL A   1      37.319  32.859  29.007  1.00  0.00     0.010 A 
ATOM     39  C   UNL A   1      37.162  31.613  29.643  1.00  0.00    -0.014 A 
BRANCH  39  40
ATOM     40  C   UNL A   1      38.320  30.929  30.264  1.00  0.00     0.031 A 
ATOM     41  C   UNL A   1      38.690  31.265  31.683  1.00  0.00     0.074 A 
ATOM     42  C   UNL A   1      39.018  30.007  29.578  1.00  0.00     0.049 A 
ATOM     43  N   UNL A   1      39.649  30.777  32.424  1.00  0.00    -0.248 NA
ATOM     44  C   UNL A   1      37.869  32.285  32.355  1.00  0.00     0.031 C 
ATOM     45  C   UNL A   1      38.750  29.600  28.199  1.00  0.00     0.029 A 
ATOM     46  N   UNL A   1      40.108  29.259  29.946  1.00  0.00    -0.354 N 
ATOM     47  C   UNL A   1      39.564  31.445  33.640  1.00  0.00     0.074 A 
ATOM     48  C   UNL A   1      38.468  32.382  33.534  1.00  0.00     0.031 C 
ATOM     49  C   UNL A   1      39.669  28.695  27.827  1.00  0.00     0.029 A 
ATOM     50  C   UNL A   1      40.597  28.468  28.933  1.00  0.00     0.049 A 
ATOM     51  H   UNL A   1      40.500  29.286  30.848  1.00  0.00     0.167 HD
ATOM     52  C   UNL A   1      40.319  31.279  34.752  1.00  0.00     0.034 A 
ATOM     53  C   UNL A   1      41.679  27.665  28.902  1.00  0.00     0.034 A 
ATOM     54  C   UNL A   1      41.396  30.332  34.860  1.00  0.00     0.049 A 
ATOM     55  C   UNL A   1      42.509  27.507  30.151  1.00  0.00     0.074 A 
ATOM     56  C   UNL A   1      42.192  30.056  35.957  1.00  0.00     0.029 A 
ATOM     57  N   UNL A   1      41.835  29.514  33.831  1.00  0.00    -0.354 N 
ATOM     58  N   UNL A   1      42.336  28.048  31.333  1.00  0.00    -0.248 NA
ATOM     59  C   UNL A   1      43.662  26.597  30.072  1.00  0.00     0.031 C 
ATOM     60  C   UNL A   1      43.126  29.083  35.585  1.00  0.00     0.029 A 
ATOM     61  C   UNL A   1      42.897  28.738  34.263  1.00  0.00     0.049 A 
ATOM     62  H   UNL A   1      41.448  29.488  32.927  1.00  0.00     0.167 HD
ATOM     63  C   UNL A   1      43.334  27.521  32.146  1.00  0.00     0.074 A 
ATOM     64  C   UNL A   1      44.094  26.600  31.327  1.00  0.00     0.031 C 
ATOM     65  C   UNL A   1      43.607  27.785  33.449  1.00  0.00     0.034 A 
BRANCH  52  66
ATOM     66  C   UNL A   1      39.984  32.121  35.954  1.00  0.00     0.023 A 
ATOM     67  C   UNL A   1      40.730  33.288  36.215  1.00  0.00     0.012 A 
ATOM     68  C   UNL A   1      38.906  31.787  36.797  1.00  0.00     0.148 A 
ATOM     69  C   UNL A   1      40.426  34.096  37.310  1.00  0.00     0.002 A 
ATOM     70  C   UNL A   1      38.583  32.618  37.864  1.00  0.00     0.091 A 
ATOM     71  F   UNL A   1      38.225  30.659  36.548  1.00  0.00    -0.205 F 
ATOM     72  C   UNL A   1      39.348  33.767  38.128  1.00  0.00     0.022 A 
BRANCH  70  73
ATOM     73  S   UNL A   1      37.171  32.316  38.931  1.00  0.00     0.127 S 
ATOM     74  O   UNL A   1      37.551  33.049  40.138  1.00  0.00    -0.237 OA
ATOM     75  O   UNL A   1      36.075  32.919  38.173  1.00  0.00    -0.237 OA
ATOM     76  O   UNL A   1      37.082  30.870  39.078  1.00  0.00    -0.744 OA
ENDBRANCH  70  73
ENDBRANCH  52  66
BRANCH  53  77
ATOM     77  C   UNL A   1      42.009  26.912  27.659  1.00  0.00     0.023 A 
ATOM     78  C   UNL A   1      42.556  27.598  26.557  1.00  0.00     0.012 A 
ATOM     79  C   UNL A   1      41.810  25.521  27.571  1.00  0.00     0.148 A 
ATOM     80  C   UNL A   1      42.870  26.917  25.380  1.00  0.00     0.002 A 
ATOM     81  C   UNL A   1      42.178  24.839  26.416  1.00  0.00     0.091 A 
ATOM     82  F   UNL A   1      41.273  24.889  28.624  1.00  0.00    -0.205 F 
ATOM     83  C   UNL A   1      42.693  25.538  25.313  1.00  0.00     0.022 A 
BRANCH  81  84
ATOM     84  S   UNL A   1      42.099  23.049  26.285  1.00  0.00     0.127 S 
ATOM     85  O   UNL A   1      42.939  22.628  27.404  1.00  0.00    -0.237 OA
ATOM     86  O   UNL A   1      40.668  22.791  26.459  1.00  0.00    -0.237 OA
ATOM     87  O   UNL A   1      42.608  22.728  24.959  1.00  0.00    -0.744 OA
ENDBRANCH  81  84
ENDBRANCH  53  77
BRANCH  65  88
ATOM     88  C   UNL A   1      44.759  27.050  34.085  1.00  0.00     0.023 A 
ATOM     89  C   UNL A   1      46.073  27.524  33.908  1.00  0.00     0.012 A 
ATOM     90  C   UNL A   1      44.533  25.937  34.918  1.00  0.00     0.148 A 
ATOM     91  C   UNL A   1      47.148  26.884  34.523  1.00  0.00     0.002 A 
ATOM     92  C   UNL A   1      45.604  25.332  35.566  1.00  0.00     0.091 A 
ATOM     93  F   UNL A   1      43.277  25.486  35.060  1.00  0.00    -0.205 F 
ATOM     94  C   UNL A   1      46.912  25.795  35.360  1.00  0.00     0.022 A 
BRANCH  92  95
ATOM     95  S   UNL A   1      45.378  23.986  36.736  1.00  0.00     0.127 S 
ATOM     96  O   UNL A   1      44.376  24.543  37.642  1.00  0.00    -0.237 OA
ATOM     97  O   UNL A   1      44.892  22.904  35.880  1.00  0.00    -0.237 OA
ATOM     98  O   UNL A   1      46.691  23.745  37.321  1.00  0.00    -0.744 OA
ENDBRANCH  92  95
ENDBRANCH  65  88
ENDBRANCH  39  40
ENDBRANCH  32  34
ENDBRANCH  31  32
ENDBRANCH  30  31
ENDBRANCH   1  30
TORSDOF 18
ENDMDL
MODEL 2
REMARK VINA RESULT:     -12.4      5.129     10.764
REMARK SMILES CC1(C)S[C@@H](c2cccc3c2sc2ccccc23)[NH2+][C@@H]1C(=O)OCCOCCOC(=O)c1ccc(-c2c3nc(c(-c4cccc(S(=O)(=O)[O-])c4F)c4ccc([nH]4)c(-c4cccc(S(=O)(=O)[O-])c4F)c4nc(c(-c5cccc(S(=O)(=O)[O-])c5F)c5ccc2[nH]5)C=C4)C=C3)cc1
REMARK SMILES IDX 27 1 26 2 25 3 24 4 23 5 21 6 22 7 20 8 1 9 2 10 3 11 4 12
REMARK SMILES IDX 5 13 19 14 6 17 7 18 11 19 8 20 10 21 12 22 9 23 18 24 13 25
REMARK SMILES IDX 17 26 14 27 16 28 15 29 28 30 29 31 30 32 31 33 32 34 33 35
REMARK SMILES IDX 94 36 34 37 93 38 35 39 36 40 37 41 87 42 38 43 92 44 86 45
REMARK SMILES IDX 88 46 39 47 91 48 85 49 84 50 40 52 72 53 52 54 71 55 53 56
REMARK SMILES IDX 56 57 70 58 89 59 54 60 55 61 69 63 90 64 57 65 41 66 42 67
REMARK SMILES IDX 50 68 43 69 45 70 51 71 44 72 46 73 47 74 48 75 49 76 73 77
REMARK SMILES IDX 74 78 82 79 75 80 77 81 83 82 76 83 78 84 79 85 80 86 81 87
REMARK SMILES IDX 58 88 59 89 67 90 60 91 62 92 68 93 61 94 63 95 64 96 65 97
REMARK SMILES IDX 66 98
REMARK H PARENT 19 15 19 16 88 51 56 62
REMARK Flexibility Score: inf
ROOT
ATOM      1  C   UNL A   1      36.432  19.671  24.785  1.00  0.00     0.202 C 
ENDROOT
BRANCH   1   2
ATOM      2  O   UNL A   1      35.095  20.145  24.939  1.00  0.00    -0.374 OA
BRANCH   2   3
ATOM      3  C   UNL A   1      34.019  19.249  24.670  1.00  0.00     0.202 C 
BRANCH   3   4
ATOM      4  C   UNL A   1      32.587  19.738  24.916  1.00  0.00     0.261 C 
BRANCH   4   5
ATOM      5  O   UNL A   1      32.244  20.868  24.108  1.00  0.00    -0.459 OA
BRANCH   5   6
ATOM      6  C   UNL A   1      32.105  22.046  24.789  1.00  0.00     0.366 C 
ATOM      7  O   UNL A   1      31.094  22.388  25.387  1.00  0.00    -0.245 OA
BRANCH   6   8
ATOM      8  C   UNL A   1      33.413  22.868  24.699  1.00  0.00     0.310 C 
ATOM      9  C   UNL A   1      35.411  23.869  25.931  1.00  0.00     0.030 C 
ATOM     10  C   UNL A   1      33.930  23.450  26.039  1.00  0.00     0.079 C 
ATOM     11  C   UNL A   1      33.792  22.528  27.254  1.00  0.00     0.030 C 
ATOM     12  S   UNL A   1      32.955  24.983  26.226  1.00  0.00    -0.081 SA
ATOM     13  C   UNL A   1      32.407  24.991  24.477  1.00  0.00     0.276 C 
ATOM     14  N   UNL A   1      33.213  23.996  23.756  1.00  0.00    -0.319 N 
ATOM     15  H   UNL A   1      34.112  24.397  23.488  1.00  0.00     0.348 HD
ATOM     16  H   UNL A   1      32.751  23.690  22.901  1.00  0.00     0.348 HD
BRANCH  13  17
ATOM     17  C   UNL A   1      32.483  26.346  23.804  1.00  0.00     0.038 A 
ATOM     18  C   UNL A   1      33.720  26.881  23.376  1.00  0.00     0.012 A 
ATOM     19  C   UNL A   1      31.320  27.117  23.515  1.00  0.00     0.046 A 
ATOM     20  C   UNL A   1      33.814  28.129  22.783  1.00  0.00     0.001 A 
ATOM     21  C   UNL A   1      31.388  28.389  22.940  1.00  0.00     0.001 A 
ATOM     22  S   UNL A   1      29.674  26.666  23.778  1.00  0.00    -0.135 S 
ATOM     23  C   UNL A   1      32.667  28.891  22.587  1.00  0.00     0.010 A 
ATOM     24  C   UNL A   1      30.081  29.008  22.803  1.00  0.00     0.000 A 
ATOM     25  C   UNL A   1      29.055  28.144  23.180  1.00  0.00     0.036 A 
ATOM     26  C   UNL A   1      29.718  30.298  22.333  1.00  0.00     0.010 A 
ATOM     27  C   UNL A   1      27.699  28.507  23.058  1.00  0.00     0.019 A 
ATOM     28  C   UNL A   1      28.375  30.672  22.233  1.00  0.00     0.001 A 
ATOM     29  C   UNL A   1      27.376  29.776  22.578  1.00  0.00     0.002 A 
ENDBRANCH  13  17
ENDBRANCH   6   8
ENDBRANCH   5   6
ENDBRANCH   4   5
ENDBRANCH   3   4
ENDBRANCH   2   3
ENDBRANCH   1   2
BRANCH   1  30
ATOM     30  C   UNL A   1      37.578  20.683  24.657  1.00  0.00     0.261 C 
BRANCH  30  31
ATOM     31  O   UNL A   1      37.899  21.346  25.891  1.00  0.00    -0.460 OA
BRANCH  31  32
ATOM     32  C   UNL A   1      39.204  21.279  26.241  1.00  0.00     0.338 C 
ATOM     33  O   UNL A   1      40.000  20.385  25.958  1.00  0.00    -0.246 OA
BRANCH  32  34
ATOM     34  C   UNL A   1      39.639  22.532  26.875  1.00  0.00     0.060 A 
ATOM     35  C   UNL A   1      39.020  23.719  26.462  1.00  0.00     0.016 A 
ATOM     36  C   UNL A   1      40.715  22.560  27.764  1.00  0.00     0.016 A 
ATOM     37  C   UNL A   1      39.507  24.947  26.901  1.00  0.00     0.010 A 
ATOM     38  C   UNL A   1      41.210  23.796  28.194  1.00  0.00     0.010 A 
ATOM     39  C   UNL A   1      40.632  24.994  27.733  1.00  0.00    -0.014 A 
BRANCH  39  40
ATOM     40  C   UNL A   1      41.289  26.297  27.988  1.00  0.00     0.031 A 
ATOM     41  C   UNL A   1      42.701  26.508  27.513  1.00  0.00     0.074 A 
ATOM     42  C   UNL A   1      40.626  27.285  28.615  1.00  0.00     0.049 A 
ATOM     43  N   UNL A   1      43.456  27.569  27.613  1.00  0.00    -0.248 NA
ATOM     44  C   UNL A   1      43.346  25.371  26.835  1.00  0.00     0.031 C 
ATOM     45  C   UNL A   1      39.256  27.195  29.117  1.00  0.00     0.029 A 
ATOM     46  N   UNL A   1      41.028  28.553  28.951  1.00  0.00    -0.354 N 
ATOM     47  C   UNL A   1      44.672  27.224  27.034  1.00  0.00     0.074 A 
ATOM     48  C   UNL A   1      44.559  25.851  26.595  1.00  0.00     0.031 C 
ATOM     49  C   UNL A   1      38.939  28.351  29.723  1.00  0.00     0.029 A 
ATOM     50  C   UNL A   1      40.085  29.255  29.664  1.00  0.00     0.049 A 
ATOM     51  H   UNL A   1      41.905  28.924  28.705  1.00  0.00     0.167 HD
ATOM     52  C   UNL A   1      45.777  27.988  26.865  1.00  0.00     0.034 A 
ATOM     53  C   UNL A   1      40.149  30.483  30.217  1.00  0.00     0.034 A 
ATOM     54  C   UNL A   1      45.879  29.360  27.284  1.00  0.00     0.049 A 
ATOM     55  C   UNL A   1      41.396  31.309  30.023  1.00  0.00     0.074 A 
ATOM     56  C   UNL A   1      46.938  30.234  27.119  1.00  0.00     0.029 A 
ATOM     57  N   UNL A   1      44.889  30.055  27.961  1.00  0.00    -0.354 N 
ATOM     58  N   UNL A   1      42.488  31.014  29.360  1.00  0.00    -0.248 NA
ATOM     59  C   UNL A   1      41.403  32.652  30.622  1.00  0.00     0.031 C 
ATOM     60  C   UNL A   1      46.596  31.453  27.713  1.00  0.00     0.029 A 
ATOM     61  C   UNL A   1      45.315  31.345  28.231  1.00  0.00     0.049 A 
ATOM     62  H   UNL A   1      44.012  29.686  28.213  1.00  0.00     0.167 HD
ATOM     63  C   UNL A   1      43.297  32.143  29.432  1.00  0.00     0.074 A 
ATOM     64  C   UNL A   1      42.558  33.136  30.185  1.00  0.00     0.031 C 
ATOM     65  C   UNL A   1      44.544  32.338  28.933  1.00  0.00     0.034 A 
BRANCH  52  66
ATOM     66  C   UNL A   1      46.956  27.365  26.167  1.00  0.00     0.023 A 
ATOM     67  C   UNL A   1      47.051  27.439  24.763  1.00  0.00     0.012 A 
ATOM     68  C   UNL A   1      47.991  26.750  26.899  1.00  0.00     0.148 A 
ATOM     69  C   UNL A   1      48.144  26.888  24.095  1.00  0.00     0.002 A 
ATOM     70  C   UNL A   1      49.096  26.237  26.229  1.00  0.00     0.091 A 
ATOM     71  F   UNL A   1      47.870  26.665  28.231  1.00  0.00    -0.205 F 
ATOM     72  C   UNL A   1      49.170  26.297  24.827  1.00  0.00     0.022 A 
BRANCH  70  73
ATOM     73  S   UNL A   1      50.500  25.520  27.089  1.00  0.00     0.127 S 
ATOM     74  O   UNL A   1      49.899  24.333  27.697  1.00  0.00    -0.237 OA
ATOM     75  O   UNL A   1      51.425  25.238  25.991  1.00  0.00    -0.237 OA
ATOM     76  O   UNL A   1      50.961  26.537  28.023  1.00  0.00    -0.744 OA
ENDBRANCH  70  73
ENDBRANCH  52  66
BRANCH  53  77
ATOM     77  C   UNL A   1      38.978  31.022  30.964  1.00  0.00     0.023 A 
ATOM     78  C   UNL A   1      38.929  30.892  32.366  1.00  0.00     0.012 A 
ATOM     79  C   UNL A   1      37.927  31.685  30.301  1.00  0.00     0.148 A 
ATOM     80  C   UNL A   1      37.842  31.385  33.089  1.00  0.00     0.002 A 
ATOM     81  C   UNL A   1      36.874  32.223  31.032  1.00  0.00     0.091 A 
ATOM     82  F   UNL A   1      37.984  31.783  28.965  1.00  0.00    -0.205 F 
ATOM     83  C   UNL A   1      36.822  32.060  32.425  1.00  0.00     0.022 A 
BRANCH  81  84
ATOM     84  S   UNL A   1      35.580  33.213  30.275  1.00  0.00     0.127 S 
ATOM     85  O   UNL A   1      36.346  34.074  29.377  1.00  0.00    -0.237 OA
ATOM     86  O   UNL A   1      34.767  32.196  29.606  1.00  0.00    -0.237 OA
ATOM     87  O   UNL A   1      34.906  33.888  31.375  1.00  0.00    -0.744 OA
ENDBRANCH  81  84
ENDBRANCH  53  77
BRANCH  65  88
ATOM     88  C   UNL A   1      45.185  33.683  29.158  1.00  0.00     0.023 A 
ATOM     89  C   UNL A   1      45.945  33.909  30.322  1.00  0.00     0.012 A 
ATOM     90  C   UNL A   1      45.098  34.697  28.183  1.00  0.00     0.148 A 
ATOM     91  C   UNL A   1      46.582  35.133  30.529  1.00  0.00     0.002 A 
ATOM     92  C   UNL A   1      45.774  35.896  28.373  1.00  0.00     0.091 A 
ATOM     93  F   UNL A   1      44.354  34.472  27.089  1.00  0.00    -0.205 F 
ATOM     94  C   UNL A   1      46.505  36.121  29.550  1.00  0.00     0.022 A 
BRANCH  92  95
ATOM     95  S   UNL A   1      45.807  37.185  27.120  1.00  0.00     0.127 S 
ATOM     96  O   UNL A   1      44.392  37.535  27.015  1.00  0.00    -0.237 OA
ATOM     97  O   UNL A   1      46.644  38.210  27.747  1.00  0.00    -0.237 OA
ATOM     98  O   UNL A   1      46.395  36.573  25.937  1.00  0.00    -0.744 OA
ENDBRANCH  92  95
ENDBRANCH  65  88
ENDBRANCH  39  40
ENDBRANCH  32  34
ENDBRANCH  31  32
ENDBRANCH  30  31
ENDBRANCH   1  30
TORSDOF 18
ENDMDL
MODEL 3
REMARK VINA RESULT:     -12.3      5.094     11.093
REMARK SMILES CC1(C)S[C@@H](c2cccc3c2sc2ccccc23)[NH2+][C@@H]1C(=O)OCCOCCOC(=O)c1ccc(-c2c3nc(c(-c4cccc(S(=O)(=O)[O-])c4F)c4ccc([nH]4)c(-c4cccc(S(=O)(=O)[O-])c4F)c4nc(c(-c5cccc(S(=O)(=O)[O-])c5F)c5ccc2[nH]5)C=C4)C=C3)cc1
REMARK SMILES IDX 27 1 26 2 25 3 24 4 23 5 21 6 22 7 20 8 1 9 2 10 3 11 4 12
REMARK SMILES IDX 5 13 19 14 6 17 7 18 11 19 8 20 10 21 12 22 9 23 18 24 13 25
REMARK SMILES IDX 17 26 14 27 16 28 15 29 28 30 29 31 30 32 31 33 32 34 33 35
REMARK SMILES IDX 94 36 34 37 93 38 35 39 36 40 37 41 87 42 38 43 92 44 86 45
REMARK SMILES IDX 88 46 39 47 91 48 85 49 84 50 40 52 72 53 52 54 71 55 53 56
REMARK SMILES IDX 56 57 70 58 89 59 54 60 55 61 69 63 90 64 57 65 41 66 42 67
REMARK SMILES IDX 50 68 43 69 45 70 51 71 44 72 46 73 47 74 48 75 49 76 73 77
REMARK SMILES IDX 74 78 82 79 75 80 77 81 83 82 76 83 78 84 79 85 80 86 81 87
REMARK SMILES IDX 58 88 59 89 67 90 60 91 62 92 68 93 61 94 63 95 64 96 65 97
REMARK SMILES IDX 66 98
REMARK H PARENT 19 15 19 16 88 51 56 62
REMARK Flexibility Score: inf
ROOT
ATOM      1  C   UNL A   1      37.440  20.499  25.049  1.00  0.00     0.202 C 
ENDROOT
BRANCH   1   2
ATOM      2  O   UNL A   1      37.568  21.643  24.206  1.00  0.00    -0.374 OA
BRANCH   2   3
ATOM      3  C   UNL A   1      36.843  22.823  24.543  1.00  0.00     0.202 C 
BRANCH   3   4
ATOM      4  C   UNL A   1      35.329  22.712  24.756  1.00  0.00     0.261 C 
BRANCH   4   5
ATOM      5  O   UNL A   1      34.589  22.866  23.541  1.00  0.00    -0.459 OA
BRANCH   5   6
ATOM      6  C   UNL A   1      33.723  23.924  23.521  1.00  0.00     0.366 C 
ATOM      7  O   UNL A   1      33.303  24.460  22.504  1.00  0.00    -0.245 OA
BRANCH   6   8
ATOM      8  C   UNL A   1      33.349  24.331  24.967  1.00  0.00     0.310 C 
ATOM      9  C   UNL A   1      31.848  23.931  26.990  1.00  0.00     0.030 C 
ATOM     10  C   UNL A   1      31.955  23.861  25.453  1.00  0.00     0.079 C 
ATOM     11  C   UNL A   1      31.547  22.450  25.020  1.00  0.00     0.030 C 
ATOM     12  S   UNL A   1      30.833  25.136  24.783  1.00  0.00    -0.081 SA
ATOM     13  C   UNL A   1      32.190  26.313  24.420  1.00  0.00     0.276 C 
ATOM     14  N   UNL A   1      33.401  25.809  25.083  1.00  0.00    -0.319 N 
ATOM     15  H   UNL A   1      33.407  26.086  26.065  1.00  0.00     0.348 HD
ATOM     16  H   UNL A   1      34.245  26.187  24.657  1.00  0.00     0.348 HD
BRANCH  13  17
ATOM     17  C   UNL A   1      31.902  27.743  24.825  1.00  0.00     0.038 A 
ATOM     18  C   UNL A   1      32.597  28.355  25.893  1.00  0.00     0.012 A 
ATOM     19  C   UNL A   1      30.971  28.560  24.119  1.00  0.00     0.046 A 
ATOM     20  C   UNL A   1      32.330  29.653  26.296  1.00  0.00     0.001 A 
ATOM     21  C   UNL A   1      30.664  29.863  24.519  1.00  0.00     0.001 A 
ATOM     22  S   UNL A   1      30.087  28.147  22.694  1.00  0.00    -0.135 S 
ATOM     23  C   UNL A   1      31.357  30.396  25.636  1.00  0.00     0.010 A 
ATOM     24  C   UNL A   1      29.639  30.472  23.689  1.00  0.00     0.000 A 
ATOM     25  C   UNL A   1      29.277  29.651  22.623  1.00  0.00     0.036 A 
ATOM     26  C   UNL A   1      29.006  31.740  23.790  1.00  0.00     0.010 A 
ATOM     27  C   UNL A   1      28.354  30.070  21.645  1.00  0.00     0.019 A 
ATOM     28  C   UNL A   1      28.070  32.150  22.836  1.00  0.00     0.001 A 
ATOM     29  C   UNL A   1      27.761  31.327  21.765  1.00  0.00     0.002 A 
ENDBRANCH  13  17
ENDBRANCH   6   8
ENDBRANCH   5   6
ENDBRANCH   4   5
ENDBRANCH   3   4
ENDBRANCH   2   3
ENDBRANCH   1   2
BRANCH   1  30
ATOM     30  C   UNL A   1      38.704  19.813  25.582  1.00  0.00     0.261 C 
BRANCH  30  31
ATOM     31  O   UNL A   1      39.883  20.629  25.490  1.00  0.00    -0.460 OA
BRANCH  31  32
ATOM     32  C   UNL A   1      40.668  20.607  26.592  1.00  0.00     0.338 C 
ATOM     33  O   UNL A   1      41.320  19.654  27.015  1.00  0.00    -0.246 OA
BRANCH  32  34
ATOM     34  C   UNL A   1      40.807  21.956  27.160  1.00  0.00     0.060 A 
ATOM     35  C   UNL A   1      40.220  23.019  26.461  1.00  0.00     0.016 A 
ATOM     36  C   UNL A   1      41.600  22.192  28.284  1.00  0.00     0.016 A 
ATOM     37  C   UNL A   1      40.463  24.331  26.858  1.00  0.00     0.010 A 
ATOM     38  C   UNL A   1      41.852  23.511  28.674  1.00  0.00     0.010 A 
ATOM     39  C   UNL A   1      41.317  24.585  27.938  1.00  0.00    -0.014 A 
BRANCH  39  40
ATOM     40  C   UNL A   1      41.766  25.974  28.193  1.00  0.00     0.031 A 
ATOM     41  C   UNL A   1      43.160  26.375  27.795  1.00  0.00     0.074 A 
ATOM     42  C   UNL A   1      40.933  26.870  28.751  1.00  0.00     0.049 A 
ATOM     43  N   UNL A   1      43.750  27.536  27.907  1.00  0.00    -0.248 NA
ATOM     44  C   UNL A   1      44.000  25.328  27.188  1.00  0.00     0.031 C 
ATOM     45  C   UNL A   1      39.561  26.595  29.176  1.00  0.00     0.029 A 
ATOM     46  N   UNL A   1      41.130  28.189  29.074  1.00  0.00    -0.354 N 
ATOM     47  C   UNL A   1      45.036  27.356  27.410  1.00  0.00     0.074 A 
ATOM     48  C   UNL A   1      45.145  25.972  27.005  1.00  0.00     0.031 C 
ATOM     49  C   UNL A   1      39.047  27.706  29.729  1.00  0.00     0.029 A 
ATOM     50  C   UNL A   1      40.055  28.764  29.711  1.00  0.00     0.049 A 
ATOM     51  H   UNL A   1      41.959  28.676  28.868  1.00  0.00     0.167 HD
ATOM     52  C   UNL A   1      46.030  28.267  27.283  1.00  0.00     0.034 A 
ATOM     53  C   UNL A   1      39.911  29.999  30.230  1.00  0.00     0.034 A 
ATOM     54  C   UNL A   1      45.910  29.647  27.667  1.00  0.00     0.049 A 
ATOM     55  C   UNL A   1      41.037  30.990  30.085  1.00  0.00     0.074 A 
ATOM     56  C   UNL A   1      46.844  30.661  27.538  1.00  0.00     0.029 A 
ATOM     57  N   UNL A   1      44.792  30.207  28.266  1.00  0.00    -0.354 N 
ATOM     58  N   UNL A   1      42.199  30.842  29.495  1.00  0.00    -0.248 NA
ATOM     59  C   UNL A   1      40.818  32.332  30.644  1.00  0.00     0.031 C 
ATOM     60  C   UNL A   1      46.296  31.830  28.076  1.00  0.00     0.029 A 
ATOM     61  C   UNL A   1      45.014  31.550  28.522  1.00  0.00     0.049 A 
ATOM     62  H   UNL A   1      43.963  29.722  28.477  1.00  0.00     0.167 HD
ATOM     63  C   UNL A   1      42.834  32.076  29.581  1.00  0.00     0.074 A 
ATOM     64  C   UNL A   1      41.917  32.968  30.261  1.00  0.00     0.031 C 
ATOM     65  C   UNL A   1      44.069  32.436  29.150  1.00  0.00     0.034 A 
BRANCH  52  66
ATOM     66  C   UNL A   1      47.326  27.804  26.672  1.00  0.00     0.023 A 
ATOM     67  C   UNL A   1      48.362  27.344  27.509  1.00  0.00     0.012 A 
ATOM     68  C   UNL A   1      47.502  27.779  25.275  1.00  0.00     0.148 A 
ATOM     69  C   UNL A   1      49.564  26.890  26.967  1.00  0.00     0.002 A 
ATOM     70  C   UNL A   1      48.688  27.289  24.740  1.00  0.00     0.091 A 
ATOM     71  F   UNL A   1      46.515  28.246  24.497  1.00  0.00    -0.205 F 
ATOM     72  C   UNL A   1      49.723  26.853  25.584  1.00  0.00     0.022 A 
BRANCH  70  73
ATOM     73  S   UNL A   1      48.960  27.136  22.971  1.00  0.00     0.127 S 
ATOM     74  O   UNL A   1      50.419  27.093  22.900  1.00  0.00    -0.237 OA
ATOM     75  O   UNL A   1      48.297  25.869  22.664  1.00  0.00    -0.237 OA
ATOM     76  O   UNL A   1      48.337  28.307  22.368  1.00  0.00    -0.744 OA
ENDBRANCH  70  73
ENDBRANCH  52  66
BRANCH  53  77
ATOM     77  C   UNL A   1      38.631  30.380  30.893  1.00  0.00     0.023 A 
ATOM     78  C   UNL A   1      38.427  30.054  32.248  1.00  0.00     0.012 A 
ATOM     79  C   UNL A   1      37.629  31.085  30.199  1.00  0.00     0.148 A 
ATOM     80  C   UNL A   1      37.237  30.396  32.891  1.00  0.00     0.002 A 
ATOM     81  C   UNL A   1      36.468  31.473  30.860  1.00  0.00     0.091 A 
ATOM     82  F   UNL A   1      37.834  31.371  28.906  1.00  0.00    -0.205 F 
ATOM     83  C   UNL A   1      36.263  31.115  32.202  1.00  0.00     0.022 A 
BRANCH  81  84
ATOM     84  S   UNL A   1      35.216  32.504  30.089  1.00  0.00     0.127 S 
ATOM     85  O   UNL A   1      34.282  32.719  31.192  1.00  0.00    -0.237 OA
ATOM     86  O   UNL A   1      35.988  33.685  29.699  1.00  0.00    -0.237 OA
ATOM     87  O   UNL A   1      34.703  31.729  28.969  1.00  0.00    -0.744 OA
ENDBRANCH  81  84
ENDBRANCH  53  77
BRANCH  65  88
ATOM     88  C   UNL A   1      44.498  33.864  29.372  1.00  0.00     0.023 A 
ATOM     89  C   UNL A   1      45.101  34.230  30.591  1.00  0.00     0.012 A 
ATOM     90  C   UNL A   1      44.373  34.824  28.348  1.00  0.00     0.148 A 
ATOM     91  C   UNL A   1      45.545  35.536  30.800  1.00  0.00     0.002 A 
ATOM     92  C   UNL A   1      44.859  36.111  28.545  1.00  0.00     0.091 A 
ATOM     93  F   UNL A   1      43.778  34.463  27.201  1.00  0.00    -0.205 F 
ATOM     94  C   UNL A   1      45.434  36.472  29.774  1.00  0.00     0.022 A 
BRANCH  92  95
ATOM     95  S   UNL A   1      44.844  37.351  27.244  1.00  0.00     0.127 S 
ATOM     96  O   UNL A   1      45.429  38.504  27.925  1.00  0.00    -0.237 OA
ATOM     97  O   UNL A   1      45.700  36.745  26.224  1.00  0.00    -0.237 OA
ATOM     98  O   UNL A   1      43.449  37.494  26.850  1.00  0.00    -0.744 OA
ENDBRANCH  92  95
ENDBRANCH  65  88
ENDBRANCH  39  40
ENDBRANCH  32  34
ENDBRANCH  31  32
ENDBRANCH  30  31
ENDBRANCH   1  30
TORSDOF 18
ENDMDL
