MODEL 1
REMARK VINA RESULT:     -11.8      0.000      0.000
REMARK SMILES O=C(C[NH+]1CCN(c2nccc(N3CCCCC3)n2)CC1)OCCOCCOC(=O)c1ccc(-c2c3nc(c(-c4cccc(S(=O)(=O)[O-])c4F)c4ccc([nH]4)c(-c4cccc(S(=O)(=O)[O-])c4F)c4nc(c(-c5cccc(S(=O)(=O)[O-])c5F)c5ccc2[nH]5)C=C4)C=C3)cc1
REMARK SMILES IDX 25 1 24 2 23 3 22 4 2 5 1 6 3 7 4 8 5 9 21 10 6 12 20 13
REMARK SMILES IDX 7 14 8 15 9 16 19 17 10 18 12 19 11 20 13 21 14 22 18 23
REMARK SMILES IDX 15 24 17 25 16 26 26 27 27 28 28 29 29 30 30 31 31 32 32 33
REMARK SMILES IDX 93 34 33 35 92 36 34 37 35 38 36 39 86 40 37 41 91 42 85 43
REMARK SMILES IDX 87 44 38 45 90 46 84 47 83 48 39 50 71 51 51 52 70 53 52 54
REMARK SMILES IDX 55 55 69 56 88 57 53 58 54 59 68 61 89 62 56 63 40 64 41 65
REMARK SMILES IDX 49 66 42 67 44 68 50 69 43 70 45 71 46 72 47 73 48 74 72 75
REMARK SMILES IDX 73 76 81 77 74 78 76 79 82 80 75 81 77 82 78 83 79 84 80 85
REMARK SMILES IDX 57 86 58 87 66 88 59 89 61 90 67 91 60 92 62 93 63 94 64 95
REMARK SMILES IDX 65 96
REMARK H PARENT 4 11 87 49 55 60
REMARK Flexibility Score: inf
ROOT
ATOM      1  O   UNL A   1      31.532  30.246  26.317  1.00  0.00    -0.374 OA
ENDROOT
BRANCH   1   2
ATOM      2  C   UNL A   1      32.307  29.673  25.276  1.00  0.00     0.202 C 
BRANCH   2   3
ATOM      3  C   UNL A   1      31.777  28.438  24.583  1.00  0.00     0.261 C 
BRANCH   3   4
ATOM      4  O   UNL A   1      32.595  27.270  24.606  1.00  0.00    -0.459 OA
BRANCH   4   5
ATOM      5  C   UNL A   1      32.405  26.353  25.596  1.00  0.00     0.361 C 
ATOM      6  O   UNL A   1      33.361  25.747  26.073  1.00  0.00    -0.245 OA
BRANCH   5   7
ATOM      7  C   UNL A   1      30.961  26.033  25.984  1.00  0.00     0.386 C 
BRANCH   7   8
ATOM      8  N   UNL A   1      30.390  24.745  25.553  1.00  0.00    -0.323 N 
ATOM      9  C   UNL A   1      30.678  24.202  24.220  1.00  0.00     0.284 C 
ATOM     10  C   UNL A   1      30.453  23.687  26.573  1.00  0.00     0.284 C 
ATOM     11  H   UNL A   1      29.431  25.072  25.434  1.00  0.00     0.348 HD
ATOM     12  C   UNL A   1      31.904  23.271  24.048  1.00  0.00     0.181 C 
ATOM     13  C   UNL A   1      31.704  22.784  26.571  1.00  0.00     0.181 C 
ATOM     14  N   UNL A   1      32.206  22.485  25.236  1.00  0.00    -0.329 N 
BRANCH  14  15
ATOM     15  C   UNL A   1      33.310  21.662  25.197  1.00  0.00     0.227 A 
ATOM     16  N   UNL A   1      34.540  22.163  25.370  1.00  0.00    -0.221 NA
ATOM     17  N   UNL A   1      33.070  20.376  24.940  1.00  0.00    -0.196 NA
ATOM     18  C   UNL A   1      35.564  21.291  25.263  1.00  0.00     0.119 A 
ATOM     19  C   UNL A   1      34.106  19.546  24.755  1.00  0.00     0.134 A 
ATOM     20  C   UNL A   1      35.401  19.960  24.963  1.00  0.00     0.067 A 
BRANCH  19  21
ATOM     21  N   UNL A   1      33.844  18.314  24.179  1.00  0.00    -0.356 N 
ATOM     22  C   UNL A   1      32.462  17.852  24.305  1.00  0.00     0.118 C 
ATOM     23  C   UNL A   1      34.896  17.309  24.126  1.00  0.00     0.118 C 
ATOM     24  C   UNL A   1      32.310  16.895  25.483  1.00  0.00     0.022 C 
ATOM     25  C   UNL A   1      34.739  16.296  25.266  1.00  0.00     0.022 C 
ATOM     26  C   UNL A   1      33.311  15.751  25.357  1.00  0.00     0.004 C 
ENDBRANCH  19  21
ENDBRANCH  14  15
ENDBRANCH   7   8
ENDBRANCH   5   7
ENDBRANCH   4   5
ENDBRANCH   3   4
ENDBRANCH   2   3
ENDBRANCH   1   2
BRANCH   1  27
ATOM     27  C   UNL A   1      31.056  31.572  26.080  1.00  0.00     0.202 C 
BRANCH  27  28
ATOM     28  C   UNL A   1      31.807  32.741  26.751  1.00  0.00     0.261 C 
BRANCH  28  29
ATOM     29  O   UNL A   1      32.793  32.333  27.719  1.00  0.00    -0.460 OA
BRANCH  29  30
ATOM     30  C   UNL A   1      33.739  33.275  28.000  1.00  0.00     0.338 C 
ATOM     31  O   UNL A   1      33.540  34.427  28.334  1.00  0.00    -0.246 OA
BRANCH  30  32
ATOM     32  C   UNL A   1      35.076  32.634  28.109  1.00  0.00     0.060 A 
ATOM     33  C   UNL A   1      35.129  31.230  28.067  1.00  0.00     0.016 A 
ATOM     34  C   UNL A   1      36.242  33.377  28.295  1.00  0.00     0.016 A 
ATOM     35  C   UNL A   1      36.326  30.562  28.312  1.00  0.00     0.010 A 
ATOM     36  C   UNL A   1      37.440  32.706  28.563  1.00  0.00     0.010 A 
ATOM     37  C   UNL A   1      37.468  31.299  28.642  1.00  0.00    -0.014 A 
BRANCH  37  38
ATOM     38  C   UNL A   1      38.554  30.621  29.392  1.00  0.00     0.031 A 
ATOM     39  C   UNL A   1      38.699  30.967  30.855  1.00  0.00     0.074 A 
ATOM     40  C   UNL A   1      39.365  29.709  28.828  1.00  0.00     0.049 A 
ATOM     41  N   UNL A   1      39.564  30.534  31.732  1.00  0.00    -0.248 NA
ATOM     42  C   UNL A   1      37.731  31.938  31.396  1.00  0.00     0.031 C 
ATOM     43  C   UNL A   1      39.309  29.267  27.437  1.00  0.00     0.029 A 
ATOM     44  N   UNL A   1      40.413  29.004  29.368  1.00  0.00    -0.354 N 
ATOM     45  C   UNL A   1      39.272  31.209  32.912  1.00  0.00     0.074 A 
ATOM     46  C   UNL A   1      38.154  32.082  32.641  1.00  0.00     0.031 C 
ATOM     47  C   UNL A   1      40.301  28.381  27.225  1.00  0.00     0.029 A 
ATOM     48  C   UNL A   1      41.074  28.216  28.455  1.00  0.00     0.049 A 
ATOM     49  H   UNL A   1      40.666  29.058  30.317  1.00  0.00     0.167 HD
ATOM     50  C   UNL A   1      39.872  31.108  34.121  1.00  0.00     0.034 A 
ATOM     51  C   UNL A   1      42.188  27.470  28.599  1.00  0.00     0.034 A 
ATOM     52  C   UNL A   1      40.978  30.235  34.395  1.00  0.00     0.049 A 
ATOM     53  C   UNL A   1      42.860  27.398  29.950  1.00  0.00     0.074 A 
ATOM     54  C   UNL A   1      41.638  30.033  35.594  1.00  0.00     0.029 A 
ATOM     55  N   UNL A   1      41.599  29.431  33.453  1.00  0.00    -0.354 N 
ATOM     56  N   UNL A   1      42.513  27.964  31.080  1.00  0.00    -0.248 NA
ATOM     57  C   UNL A   1      44.060  26.553  30.050  1.00  0.00     0.031 C 
ATOM     58  C   UNL A   1      42.685  29.135  35.366  1.00  0.00     0.029 A 
ATOM     59  C   UNL A   1      42.642  28.739  34.039  1.00  0.00     0.049 A 
ATOM     60  H   UNL A   1      41.337  29.364  32.507  1.00  0.00     0.167 HD
ATOM     61  C   UNL A   1      43.415  27.502  32.035  1.00  0.00     0.074 A 
ATOM     62  C   UNL A   1      44.318  26.601  31.350  1.00  0.00     0.031 C 
ATOM     63  C   UNL A   1      43.494  27.799  33.357  1.00  0.00     0.034 A 
BRANCH  50  64
ATOM     64  C   UNL A   1      39.347  31.978  35.233  1.00  0.00     0.023 A 
ATOM     65  C   UNL A   1      38.366  31.483  36.116  1.00  0.00     0.012 A 
ATOM     66  C   UNL A   1      39.850  33.280  35.416  1.00  0.00     0.148 A 
ATOM     67  C   UNL A   1      37.864  32.285  37.140  1.00  0.00     0.002 A 
ATOM     68  C   UNL A   1      39.384  34.054  36.471  1.00  0.00     0.091 A 
ATOM     69  F   UNL A   1      40.762  33.741  34.550  1.00  0.00    -0.205 F 
ATOM     70  C   UNL A   1      38.381  33.565  37.325  1.00  0.00     0.022 A 
BRANCH  68  71
ATOM     71  S   UNL A   1      40.045  35.682  36.841  1.00  0.00     0.127 S 
ATOM     72  O   UNL A   1      41.478  35.404  36.934  1.00  0.00    -0.237 OA
ATOM     73  O   UNL A   1      39.648  36.448  35.661  1.00  0.00    -0.237 OA
ATOM     74  O   UNL A   1      39.410  36.103  38.082  1.00  0.00    -0.744 OA
ENDBRANCH  68  71
ENDBRANCH  50  64
BRANCH  51  75
ATOM     75  C   UNL A   1      42.734  26.697  27.445  1.00  0.00     0.023 A 
ATOM     76  C   UNL A   1      43.585  27.334  26.520  1.00  0.00     0.012 A 
ATOM     77  C   UNL A   1      42.400  25.344  27.250  1.00  0.00     0.148 A 
ATOM     78  C   UNL A   1      44.061  26.649  25.401  1.00  0.00     0.002 A 
ATOM     79  C   UNL A   1      42.921  24.651  26.164  1.00  0.00     0.091 A 
ATOM     80  F   UNL A   1      41.575  24.760  28.131  1.00  0.00    -0.205 F 
ATOM     81  C   UNL A   1      43.737  25.306  25.227  1.00  0.00     0.022 A 
BRANCH  79  82
ATOM     82  S   UNL A   1      42.654  22.892  25.918  1.00  0.00     0.127 S 
ATOM     83  O   UNL A   1      43.150  22.701  24.558  1.00  0.00    -0.237 OA
ATOM     84  O   UNL A   1      43.492  22.314  26.969  1.00  0.00    -0.237 OA
ATOM     85  O   UNL A   1      41.224  22.681  26.103  1.00  0.00    -0.744 OA
ENDBRANCH  79  82
ENDBRANCH  51  75
BRANCH  63  86
ATOM     86  C   UNL A   1      44.539  27.084  34.178  1.00  0.00     0.023 A 
ATOM     87  C   UNL A   1      45.699  27.759  34.605  1.00  0.00     0.012 A 
ATOM     88  C   UNL A   1      44.328  25.751  34.583  1.00  0.00     0.148 A 
ATOM     89  C   UNL A   1      46.654  27.103  35.381  1.00  0.00     0.002 A 
ATOM     90  C   UNL A   1      45.255  25.122  35.404  1.00  0.00     0.091 A 
ATOM     91  F   UNL A   1      43.225  25.118  34.155  1.00  0.00    -0.205 F 
ATOM     92  C   UNL A   1      46.427  25.790  35.790  1.00  0.00     0.022 A 
BRANCH  90  93
ATOM     93  S   UNL A   1      44.989  23.473  36.064  1.00  0.00     0.127 S 
ATOM     94  O   UNL A   1      46.138  22.747  35.525  1.00  0.00    -0.237 OA
ATOM     95  O   UNL A   1      45.038  23.703  37.509  1.00  0.00    -0.237 OA
ATOM     96  O   UNL A   1      43.688  23.047  35.566  1.00  0.00    -0.744 OA
ENDBRANCH  90  93
ENDBRANCH  63  86
ENDBRANCH  37  38
ENDBRANCH  30  32
ENDBRANCH  29  30
ENDBRANCH  28  29
ENDBRANCH  27  28
ENDBRANCH   1  27
TORSDOF 20
ENDMDL
MODEL 2
REMARK VINA RESULT:     -11.3      1.850      2.660
REMARK SMILES O=C(C[NH+]1CCN(c2nccc(N3CCCCC3)n2)CC1)OCCOCCOC(=O)c1ccc(-c2c3nc(c(-c4cccc(S(=O)(=O)[O-])c4F)c4ccc([nH]4)c(-c4cccc(S(=O)(=O)[O-])c4F)c4nc(c(-c5cccc(S(=O)(=O)[O-])c5F)c5ccc2[nH]5)C=C4)C=C3)cc1
REMARK SMILES IDX 25 1 24 2 23 3 22 4 2 5 1 6 3 7 4 8 5 9 21 10 6 12 20 13
REMARK SMILES IDX 7 14 8 15 9 16 19 17 10 18 12 19 11 20 13 21 14 22 18 23
REMARK SMILES IDX 15 24 17 25 16 26 26 27 27 28 28 29 29 30 30 31 31 32 32 33
REMARK SMILES IDX 93 34 33 35 92 36 34 37 35 38 36 39 86 40 37 41 91 42 85 43
REMARK SMILES IDX 87 44 38 45 90 46 84 47 83 48 39 50 71 51 51 52 70 53 52 54
REMARK SMILES IDX 55 55 69 56 88 57 53 58 54 59 68 61 89 62 56 63 40 64 41 65
REMARK SMILES IDX 49 66 42 67 44 68 50 69 43 70 45 71 46 72 47 73 48 74 72 75
REMARK SMILES IDX 73 76 81 77 74 78 76 79 82 80 75 81 77 82 78 83 79 84 80 85
REMARK SMILES IDX 57 86 58 87 66 88 59 89 61 90 67 91 60 92 62 93 63 94 64 95
REMARK SMILES IDX 65 96
REMARK H PARENT 4 11 87 49 55 60
REMARK Flexibility Score: inf
ROOT
ATOM      1  O   UNL A   1      31.602  30.095  27.312  1.00  0.00    -0.374 OA
ENDROOT
BRANCH   1   2
ATOM      2  C   UNL A   1      32.096  28.780  27.124  1.00  0.00     0.202 C 
BRANCH   2   3
ATOM      3  C   UNL A   1      33.136  28.549  26.050  1.00  0.00     0.261 C 
BRANCH   3   4
ATOM      4  O   UNL A   1      32.816  27.624  25.014  1.00  0.00    -0.459 OA
BRANCH   4   5
ATOM      5  C   UNL A   1      32.242  28.090  23.869  1.00  0.00     0.361 C 
ATOM      6  O   UNL A   1      31.245  28.807  23.922  1.00  0.00    -0.245 OA
BRANCH   5   7
ATOM      7  C   UNL A   1      32.811  27.582  22.545  1.00  0.00     0.386 C 
BRANCH   7   8
ATOM      8  N   UNL A   1      32.043  26.576  21.792  1.00  0.00    -0.323 N 
ATOM      9  C   UNL A   1      32.715  25.639  20.884  1.00  0.00     0.284 C 
ATOM     10  C   UNL A   1      31.015  25.886  22.586  1.00  0.00     0.284 C 
ATOM     11  H   UNL A   1      31.612  27.222  21.131  1.00  0.00     0.348 HD
ATOM     12  C   UNL A   1      33.199  24.279  21.447  1.00  0.00     0.181 C 
ATOM     13  C   UNL A   1      31.435  24.584  23.300  1.00  0.00     0.181 C 
ATOM     14  N   UNL A   1      32.372  23.774  22.532  1.00  0.00    -0.329 N 
BRANCH  14  15
ATOM     15  C   UNL A   1      32.750  22.592  23.131  1.00  0.00     0.227 A 
ATOM     16  N   UNL A   1      31.986  21.497  23.021  1.00  0.00    -0.221 NA
ATOM     17  N   UNL A   1      33.877  22.634  23.842  1.00  0.00    -0.196 NA
ATOM     18  C   UNL A   1      32.409  20.401  23.684  1.00  0.00     0.119 A 
ATOM     19  C   UNL A   1      34.232  21.559  24.559  1.00  0.00     0.134 A 
ATOM     20  C   UNL A   1      33.538  20.374  24.467  1.00  0.00     0.067 A 
BRANCH  19  21
ATOM     21  N   UNL A   1      35.209  21.729  25.527  1.00  0.00    -0.356 N 
ATOM     22  C   UNL A   1      35.102  22.962  26.304  1.00  0.00     0.118 C 
ATOM     23  C   UNL A   1      36.537  21.171  25.311  1.00  0.00     0.118 C 
ATOM     24  C   UNL A   1      36.023  24.043  25.745  1.00  0.00     0.022 C 
ATOM     25  C   UNL A   1      37.503  22.248  24.801  1.00  0.00     0.022 C 
ATOM     26  C   UNL A   1      37.451  23.516  25.656  1.00  0.00     0.004 C 
ENDBRANCH  19  21
ENDBRANCH  14  15
ENDBRANCH   7   8
ENDBRANCH   5   7
ENDBRANCH   4   5
ENDBRANCH   3   4
ENDBRANCH   2   3
ENDBRANCH   1   2
BRANCH   1  27
ATOM     27  C   UNL A   1      32.144  31.093  26.445  1.00  0.00     0.202 C 
BRANCH  27  28
ATOM     28  C   UNL A   1      32.073  32.565  26.903  1.00  0.00     0.261 C 
BRANCH  28  29
ATOM     29  O   UNL A   1      32.562  32.794  28.239  1.00  0.00    -0.460 OA
BRANCH  29  30
ATOM     30  C   UNL A   1      33.642  33.622  28.317  1.00  0.00     0.338 C 
ATOM     31  O   UNL A   1      33.624  34.818  28.539  1.00  0.00    -0.246 OA
BRANCH  30  32
ATOM     32  C   UNL A   1      34.894  32.823  28.361  1.00  0.00     0.060 A 
ATOM     33  C   UNL A   1      34.780  31.454  28.660  1.00  0.00     0.016 A 
ATOM     34  C   UNL A   1      36.149  33.398  28.163  1.00  0.00     0.016 A 
ATOM     35  C   UNL A   1      35.920  30.680  28.863  1.00  0.00     0.010 A 
ATOM     36  C   UNL A   1      37.294  32.625  28.388  1.00  0.00     0.010 A 
ATOM     37  C   UNL A   1      37.179  31.285  28.807  1.00  0.00    -0.014 A 
BRANCH  37  38
ATOM     38  C   UNL A   1      38.309  30.631  29.514  1.00  0.00     0.031 A 
ATOM     39  C   UNL A   1      38.547  31.033  30.950  1.00  0.00     0.074 A 
ATOM     40  C   UNL A   1      39.079  29.693  28.936  1.00  0.00     0.049 A 
ATOM     41  N   UNL A   1      39.465  30.630  31.787  1.00  0.00    -0.248 NA
ATOM     42  C   UNL A   1      37.618  32.030  31.513  1.00  0.00     0.031 C 
ATOM     43  C   UNL A   1      38.935  29.197  27.570  1.00  0.00     0.029 A 
ATOM     44  N   UNL A   1      40.157  29.004  29.436  1.00  0.00    -0.354 N 
ATOM     45  C   UNL A   1      39.250  31.352  32.956  1.00  0.00     0.074 A 
ATOM     46  C   UNL A   1      38.120  32.220  32.722  1.00  0.00     0.031 C 
ATOM     47  C   UNL A   1      39.908  28.299  27.331  1.00  0.00     0.029 A 
ATOM     48  C   UNL A   1      40.757  28.177  28.516  1.00  0.00     0.049 A 
ATOM     49  H   UNL A   1      40.470  29.094  30.364  1.00  0.00     0.167 HD
ATOM     50  C   UNL A   1      39.925  31.296  34.127  1.00  0.00     0.034 A 
ATOM     51  C   UNL A   1      41.875  27.431  28.618  1.00  0.00     0.034 A 
ATOM     52  C   UNL A   1      41.043  30.428  34.365  1.00  0.00     0.049 A 
ATOM     53  C   UNL A   1      42.631  27.409  29.925  1.00  0.00     0.074 A 
ATOM     54  C   UNL A   1      41.777  30.269  35.527  1.00  0.00     0.029 A 
ATOM     55  N   UNL A   1      41.602  29.585  33.418  1.00  0.00    -0.354 N 
ATOM     56  N   UNL A   1      42.358  28.021  31.052  1.00  0.00    -0.248 NA
ATOM     57  C   UNL A   1      43.833  26.562  29.983  1.00  0.00     0.031 C 
ATOM     58  C   UNL A   1      42.806  29.358  35.269  1.00  0.00     0.029 A 
ATOM     59  C   UNL A   1      42.678  28.910  33.964  1.00  0.00     0.049 A 
ATOM     60  H   UNL A   1      41.280  29.482  32.494  1.00  0.00     0.167 HD
ATOM     61  C   UNL A   1      43.318  27.592  31.965  1.00  0.00     0.074 A 
ATOM     62  C   UNL A   1      44.173  26.660  31.261  1.00  0.00     0.031 C 
ATOM     63  C   UNL A   1      43.482  27.939  33.267  1.00  0.00     0.034 A 
BRANCH  50  64
ATOM     64  C   UNL A   1      39.474  32.212  35.235  1.00  0.00     0.023 A 
ATOM     65  C   UNL A   1      39.823  33.578  35.211  1.00  0.00     0.012 A 
ATOM     66  C   UNL A   1      38.678  31.719  36.287  1.00  0.00     0.148 A 
ATOM     67  C   UNL A   1      39.421  34.430  36.238  1.00  0.00     0.002 A 
ATOM     68  C   UNL A   1      38.237  32.586  37.278  1.00  0.00     0.091 A 
ATOM     69  F   UNL A   1      38.381  30.413  36.305  1.00  0.00    -0.205 F 
ATOM     70  C   UNL A   1      38.619  33.938  37.264  1.00  0.00     0.022 A 
BRANCH  68  71
ATOM     71  S   UNL A   1      37.135  32.065  38.596  1.00  0.00     0.127 S 
ATOM     72  O   UNL A   1      37.096  30.617  38.393  1.00  0.00    -0.237 OA
ATOM     73  O   UNL A   1      37.862  32.494  39.790  1.00  0.00    -0.237 OA
ATOM     74  O   UNL A   1      35.876  32.761  38.368  1.00  0.00    -0.744 OA
ENDBRANCH  68  71
ENDBRANCH  50  64
BRANCH  51  75
ATOM     75  C   UNL A   1      42.345  26.611  27.463  1.00  0.00     0.023 A 
ATOM     76  C   UNL A   1      43.095  27.218  26.436  1.00  0.00     0.012 A 
ATOM     77  C   UNL A   1      42.037  25.241  27.368  1.00  0.00     0.148 A 
ATOM     78  C   UNL A   1      43.495  26.485  25.318  1.00  0.00     0.002 A 
ATOM     79  C   UNL A   1      42.486  24.504  26.279  1.00  0.00     0.091 A 
ATOM     80  F   UNL A   1      41.309  24.685  28.347  1.00  0.00    -0.205 F 
ATOM     81  C   UNL A   1      43.198  25.127  25.243  1.00  0.00     0.022 A 
BRANCH  79  82
ATOM     82  S   UNL A   1      42.252  22.727  26.150  1.00  0.00     0.127 S 
ATOM     83  O   UNL A   1      40.796  22.620  26.110  1.00  0.00    -0.237 OA
ATOM     84  O   UNL A   1      42.929  22.429  24.888  1.00  0.00    -0.237 OA
ATOM     85  O   UNL A   1      42.893  22.159  27.328  1.00  0.00    -0.744 OA
ENDBRANCH  79  82
ENDBRANCH  51  75
BRANCH  63  86
ATOM     86  C   UNL A   1      44.574  27.252  34.048  1.00  0.00     0.023 A 
ATOM     87  C   UNL A   1      45.883  27.771  34.056  1.00  0.00     0.012 A 
ATOM     88  C   UNL A   1      44.275  26.120  34.833  1.00  0.00     0.148 A 
ATOM     89  C   UNL A   1      46.888  27.145  34.796  1.00  0.00     0.002 A 
ATOM     90  C   UNL A   1      45.267  25.537  35.611  1.00  0.00     0.091 A 
ATOM     91  F   UNL A   1      43.027  25.630  34.802  1.00  0.00    -0.205 F 
ATOM     92  C   UNL A   1      46.577  26.037  35.581  1.00  0.00     0.022 A 
BRANCH  90  93
ATOM     93  S   UNL A   1      44.928  24.175  36.733  1.00  0.00     0.127 S 
ATOM     94  O   UNL A   1      44.419  23.155  35.818  1.00  0.00    -0.237 OA
ATOM     95  O   UNL A   1      46.253  23.890  37.287  1.00  0.00    -0.237 OA
ATOM     96  O   UNL A   1      43.967  24.684  37.703  1.00  0.00    -0.744 OA
ENDBRANCH  90  93
ENDBRANCH  63  86
ENDBRANCH  37  38
ENDBRANCH  30  32
ENDBRANCH  29  30
ENDBRANCH  28  29
ENDBRANCH  27  28
ENDBRANCH   1  27
TORSDOF 20
ENDMDL
MODEL 3
REMARK VINA RESULT:     -11.3      5.519      9.735
REMARK SMILES O=C(C[NH+]1CCN(c2nccc(N3CCCCC3)n2)CC1)OCCOCCOC(=O)c1ccc(-c2c3nc(c(-c4cccc(S(=O)(=O)[O-])c4F)c4ccc([nH]4)c(-c4cccc(S(=O)(=O)[O-])c4F)c4nc(c(-c5cccc(S(=O)(=O)[O-])c5F)c5ccc2[nH]5)C=C4)C=C3)cc1
REMARK SMILES IDX 25 1 24 2 23 3 22 4 2 5 1 6 3 7 4 8 5 9 21 10 6 12 20 13
REMARK SMILES IDX 7 14 8 15 9 16 19 17 10 18 12 19 11 20 13 21 14 22 18 23
REMARK SMILES IDX 15 24 17 25 16 26 26 27 27 28 28 29 29 30 30 31 31 32 32 33
REMARK SMILES IDX 93 34 33 35 92 36 34 37 35 38 36 39 86 40 37 41 91 42 85 43
REMARK SMILES IDX 87 44 38 45 90 46 84 47 83 48 39 50 71 51 51 52 70 53 52 54
REMARK SMILES IDX 55 55 69 56 88 57 53 58 54 59 68 61 89 62 56 63 40 64 41 65
REMARK SMILES IDX 49 66 42 67 44 68 50 69 43 70 45 71 46 72 47 73 48 74 72 75
REMARK SMILES IDX 73 76 81 77 74 78 76 79 82 80 75 81 77 82 78 83 79 84 80 85
REMARK SMILES IDX 57 86 58 87 66 88 59 89 61 90 67 91 60 92 62 93 63 94 64 95
REMARK SMILES IDX 65 96
REMARK H PARENT 4 11 87 49 55 60
REMARK Flexibility Score: inf
ROOT
ATOM      1  O   UNL A   1      37.119  22.723  24.746  1.00  0.00    -0.374 OA
ENDROOT
BRANCH   1   2
ATOM      2  C   UNL A   1      36.503  23.654  25.620  1.00  0.00     0.202 C 
BRANCH   2   3
ATOM      3  C   UNL A   1      35.187  24.271  25.201  1.00  0.00     0.261 C 
BRANCH   3   4
ATOM      4  O   UNL A   1      34.031  23.436  25.231  1.00  0.00    -0.459 OA
BRANCH   4   5
ATOM      5  C   UNL A   1      33.692  22.741  24.110  1.00  0.00     0.361 C 
ATOM      6  O   UNL A   1      33.479  21.532  24.169  1.00  0.00    -0.245 OA
BRANCH   5   7
ATOM      7  C   UNL A   1      33.714  23.501  22.783  1.00  0.00     0.386 C 
BRANCH   7   8
ATOM      8  N   UNL A   1      32.432  23.942  22.207  1.00  0.00    -0.323 N 
ATOM      9  C   UNL A   1      31.234  24.068  23.045  1.00  0.00     0.284 C 
ATOM     10  C   UNL A   1      32.547  25.083  21.286  1.00  0.00     0.284 C 
ATOM     11  H   UNL A   1      32.230  23.085  21.693  1.00  0.00     0.348 HD
ATOM     12  C   UNL A   1      30.947  25.427  23.730  1.00  0.00     0.181 C 
ATOM     13  C   UNL A   1      32.408  26.494  21.895  1.00  0.00     0.181 C 
ATOM     14  N   UNL A   1      31.427  26.572  22.970  1.00  0.00    -0.329 N 
BRANCH  14  15
ATOM     15  C   UNL A   1      31.261  27.824  23.521  1.00  0.00     0.227 A 
ATOM     16  N   UNL A   1      32.044  28.233  24.528  1.00  0.00    -0.221 NA
ATOM     17  N   UNL A   1      30.266  28.554  23.020  1.00  0.00    -0.196 NA
ATOM     18  C   UNL A   1      31.776  29.452  25.039  1.00  0.00     0.119 A 
ATOM     19  C   UNL A   1      29.964  29.724  23.600  1.00  0.00     0.134 A 
ATOM     20  C   UNL A   1      30.744  30.249  24.604  1.00  0.00     0.067 A 
BRANCH  19  21
ATOM     21  N   UNL A   1      28.747  30.303  23.279  1.00  0.00    -0.356 N 
ATOM     22  C   UNL A   1      28.194  29.905  21.985  1.00  0.00     0.118 C 
ATOM     23  C   UNL A   1      28.434  31.636  23.772  1.00  0.00     0.118 C 
ATOM     24  C   UNL A   1      28.522  30.935  20.908  1.00  0.00     0.022 C 
ATOM     25  C   UNL A   1      28.700  32.693  22.693  1.00  0.00     0.022 C 
ATOM     26  C   UNL A   1      28.060  32.319  21.354  1.00  0.00     0.004 C 
ENDBRANCH  19  21
ENDBRANCH  14  15
ENDBRANCH   7   8
ENDBRANCH   5   7
ENDBRANCH   4   5
ENDBRANCH   3   4
ENDBRANCH   2   3
ENDBRANCH   1   2
BRANCH   1  27
ATOM     27  C   UNL A   1      37.757  21.609  25.372  1.00  0.00     0.202 C 
BRANCH  27  28
ATOM     28  C   UNL A   1      39.100  21.855  26.091  1.00  0.00     0.261 C 
BRANCH  28  29
ATOM     29  O   UNL A   1      39.585  20.726  26.841  1.00  0.00    -0.460 OA
BRANCH  29  30
ATOM     30  C   UNL A   1      40.760  20.202  26.388  1.00  0.00     0.338 C 
ATOM     31  O   UNL A   1      40.900  19.170  25.759  1.00  0.00    -0.246 OA
BRANCH  30  32
ATOM     32  C   UNL A   1      41.850  21.203  26.527  1.00  0.00     0.060 A 
ATOM     33  C   UNL A   1      42.266  21.532  27.828  1.00  0.00     0.016 A 
ATOM     34  C   UNL A   1      42.419  21.839  25.424  1.00  0.00     0.016 A 
ATOM     35  C   UNL A   1      43.176  22.567  28.037  1.00  0.00     0.010 A 
ATOM     36  C   UNL A   1      43.316  22.893  25.634  1.00  0.00     0.010 A 
ATOM     37  C   UNL A   1      43.640  23.303  26.943  1.00  0.00    -0.014 A 
BRANCH  37  38
ATOM     38  C   UNL A   1      44.157  24.674  27.182  1.00  0.00     0.031 A 
ATOM     39  C   UNL A   1      43.177  25.696  27.707  1.00  0.00     0.074 A 
ATOM     40  C   UNL A   1      45.444  25.008  26.983  1.00  0.00     0.049 A 
ATOM     41  N   UNL A   1      43.360  26.958  27.987  1.00  0.00    -0.248 NA
ATOM     42  C   UNL A   1      41.801  25.222  27.944  1.00  0.00     0.031 C 
ATOM     43  C   UNL A   1      46.492  24.109  26.509  1.00  0.00     0.029 A 
ATOM     44  N   UNL A   1      46.077  26.216  27.143  1.00  0.00    -0.354 N 
ATOM     45  C   UNL A   1      42.118  27.436  28.392  1.00  0.00     0.074 A 
ATOM     46  C   UNL A   1      41.189  26.333  28.317  1.00  0.00     0.031 C 
ATOM     47  C   UNL A   1      47.638  24.805  26.391  1.00  0.00     0.029 A 
ATOM     48  C   UNL A   1      47.396  26.202  26.755  1.00  0.00     0.049 A 
ATOM     49  H   UNL A   1      45.630  27.016  27.500  1.00  0.00     0.167 HD
ATOM     50  C   UNL A   1      41.776  28.681  28.798  1.00  0.00     0.034 A 
ATOM     51  C   UNL A   1      48.291  27.207  26.682  1.00  0.00     0.034 A 
ATOM     52  C   UNL A   1      42.700  29.777  28.882  1.00  0.00     0.049 A 
ATOM     53  C   UNL A   1      47.878  28.595  27.110  1.00  0.00     0.074 A 
ATOM     54  C   UNL A   1      42.464  31.070  29.313  1.00  0.00     0.029 A 
ATOM     55  N   UNL A   1      44.033  29.714  28.508  1.00  0.00    -0.354 N 
ATOM     56  N   UNL A   1      46.728  29.010  27.584  1.00  0.00    -0.248 NA
ATOM     57  C   UNL A   1      48.903  29.648  27.027  1.00  0.00     0.031 C 
ATOM     58  C   UNL A   1      43.647  31.800  29.162  1.00  0.00     0.029 A 
ATOM     59  C   UNL A   1      44.631  30.947  28.689  1.00  0.00     0.049 A 
ATOM     60  H   UNL A   1      44.485  28.911  28.165  1.00  0.00     0.167 HD
ATOM     61  C   UNL A   1      46.906  30.353  27.906  1.00  0.00     0.074 A 
ATOM     62  C   UNL A   1      48.279  30.679  27.582  1.00  0.00     0.031 C 
ATOM     63  C   UNL A   1      46.015  31.239  28.418  1.00  0.00     0.034 A 
BRANCH  50  64
ATOM     64  C   UNL A   1      40.337  28.920  29.172  1.00  0.00     0.023 A 
ATOM     65  C   UNL A   1      39.380  29.186  28.171  1.00  0.00     0.012 A 
ATOM     66  C   UNL A   1      39.930  28.854  30.518  1.00  0.00     0.148 A 
ATOM     67  C   UNL A   1      38.048  29.421  28.509  1.00  0.00     0.002 A 
ATOM     68  C   UNL A   1      38.592  29.037  30.841  1.00  0.00     0.091 A 
ATOM     69  F   UNL A   1      40.860  28.627  31.456  1.00  0.00    -0.205 F 
ATOM     70  C   UNL A   1      37.652  29.335  29.841  1.00  0.00     0.022 A 
BRANCH  68  71
ATOM     71  S   UNL A   1      37.970  28.865  32.517  1.00  0.00     0.127 S 
ATOM     72  O   UNL A   1      38.857  29.764  33.255  1.00  0.00    -0.237 OA
ATOM     73  O   UNL A   1      36.594  29.342  32.382  1.00  0.00    -0.237 OA
ATOM     74  O   UNL A   1      38.095  27.453  32.851  1.00  0.00    -0.744 OA
ENDBRANCH  68  71
ENDBRANCH  50  64
BRANCH  51  75
ATOM     75  C   UNL A   1      49.683  26.948  26.212  1.00  0.00     0.023 A 
ATOM     76  C   UNL A   1      50.629  26.402  27.103  1.00  0.00     0.012 A 
ATOM     77  C   UNL A   1      50.079  27.256  24.897  1.00  0.00     0.148 A 
ATOM     78  C   UNL A   1      51.952  26.206  26.705  1.00  0.00     0.002 A 
ATOM     79  C   UNL A   1      51.384  27.006  24.490  1.00  0.00     0.091 A 
ATOM     80  F   UNL A   1      49.170  27.790  24.069  1.00  0.00    -0.205 F 
ATOM     81  C   UNL A   1      52.328  26.499  25.397  1.00  0.00     0.022 A 
BRANCH  79  82
ATOM     82  S   UNL A   1      51.932  27.244  22.795  1.00  0.00     0.127 S 
ATOM     83  O   UNL A   1      50.763  26.802  22.039  1.00  0.00    -0.237 OA
ATOM     84  O   UNL A   1      52.180  28.686  22.762  1.00  0.00    -0.237 OA
ATOM     85  O   UNL A   1      53.125  26.423  22.648  1.00  0.00    -0.744 OA
ENDBRANCH  79  82
ENDBRANCH  51  75
BRANCH  63  86
ATOM     86  C   UNL A   1      46.509  32.627  28.743  1.00  0.00     0.023 A 
ATOM     87  C   UNL A   1      47.273  32.862  29.903  1.00  0.00     0.012 A 
ATOM     88  C   UNL A   1      46.265  33.690  27.850  1.00  0.00     0.148 A 
ATOM     89  C   UNL A   1      47.746  34.143  30.191  1.00  0.00     0.002 A 
ATOM     90  C   UNL A   1      46.787  34.950  28.116  1.00  0.00     0.091 A 
ATOM     91  F   UNL A   1      45.522  33.453  26.759  1.00  0.00    -0.205 F 
ATOM     92  C   UNL A   1      47.513  35.182  29.293  1.00  0.00     0.022 A 
BRANCH  90  93
ATOM     93  S   UNL A   1      46.627  36.317  26.961  1.00  0.00     0.127 S 
ATOM     94  O   UNL A   1      45.178  36.514  26.931  1.00  0.00    -0.237 OA
ATOM     95  O   UNL A   1      47.373  37.381  27.632  1.00  0.00    -0.237 OA
ATOM     96  O   UNL A   1      47.222  35.859  25.713  1.00  0.00    -0.744 OA
ENDBRANCH  90  93
ENDBRANCH  63  86
ENDBRANCH  37  38
ENDBRANCH  30  32
ENDBRANCH  29  30
ENDBRANCH  28  29
ENDBRANCH  27  28
ENDBRANCH   1  27
TORSDOF 20
ENDMDL
