MODEL 1
REMARK VINA RESULT:     -11.1      0.000      0.000
REMARK SMILES O=C(OCCOCCOC(=O)[C@H]1C[NH2+]CC[N@@H+]1Cc1cccc(F)c1)c1ccc(-c2c3nc(c(-c4cccc(S(=O)(=O)[O-])c4F)c4ccc([nH]4)c(-c4cccc(S(=O)(=O)[O-])c4F)c4nc(c(-c5cccc(S(=O)(=O)[O-])c5F)c5ccc2[nH]5)C=C4)C=C3)cc1
REMARK SMILES IDX 5 1 4 2 3 3 2 4 1 5 26 6 27 7 88 8 28 9 87 10 29 11 30 12
REMARK SMILES IDX 31 13 81 14 32 15 86 16 80 17 82 18 33 19 85 20 79 21 78 22
REMARK SMILES IDX 34 24 66 25 46 26 65 27 47 28 50 29 64 30 83 31 48 32 49 33
REMARK SMILES IDX 63 35 84 36 51 37 35 38 36 39 44 40 37 41 39 42 45 43 38 44
REMARK SMILES IDX 40 45 41 46 42 47 43 48 67 49 68 50 76 51 69 52 71 53 77 54
REMARK SMILES IDX 70 55 72 56 73 57 74 58 75 59 52 60 53 61 61 62 54 63 56 64
REMARK SMILES IDX 62 65 55 66 57 67 58 68 59 69 60 70 6 71 7 72 8 73 9 74
REMARK SMILES IDX 10 75 11 76 12 77 13 78 17 79 14 80 16 81 15 83 18 86 19 87
REMARK SMILES IDX 20 88 25 89 21 90 23 91 22 92 24 93
REMARK H PARENT 82 23 50 34 17 82 14 84 14 85
REMARK Flexibility Score: inf
ROOT
ATOM      1  C   UNL A   1      31.409  28.405  26.514  1.00  0.00     0.202 C 
ENDROOT
BRANCH   1   2
ATOM      2  C   UNL A   1      31.655  29.644  25.612  1.00  0.00     0.261 C 
BRANCH   2   3
ATOM      3  O   UNL A   1      32.920  30.309  25.795  1.00  0.00    -0.460 OA
BRANCH   3   4
ATOM      4  C   UNL A   1      33.258  31.124  26.834  1.00  0.00     0.338 C 
ATOM      5  O   UNL A   1      32.578  32.118  27.076  1.00  0.00    -0.246 OA
BRANCH   4   6
ATOM      6  C   UNL A   1      34.498  30.884  27.630  1.00  0.00     0.060 A 
ATOM      7  C   UNL A   1      34.805  29.631  28.140  1.00  0.00     0.016 A 
ATOM      8  C   UNL A   1      35.445  31.897  27.804  1.00  0.00     0.016 A 
ATOM      9  C   UNL A   1      35.942  29.351  28.837  1.00  0.00     0.010 A 
ATOM     10  C   UNL A   1      36.646  31.626  28.479  1.00  0.00     0.010 A 
ATOM     11  C   UNL A   1      36.883  30.343  28.988  1.00  0.00    -0.014 A 
BRANCH  11  12
ATOM     12  C   UNL A   1      38.016  29.954  29.822  1.00  0.00     0.031 A 
ATOM     13  C   UNL A   1      39.074  29.124  29.182  1.00  0.00     0.074 A 
ATOM     14  C   UNL A   1      38.191  30.581  31.002  1.00  0.00     0.049 A 
ATOM     15  N   UNL A   1      40.157  28.637  29.707  1.00  0.00    -0.248 NA
ATOM     16  C   UNL A   1      38.909  28.827  27.744  1.00  0.00     0.031 C 
ATOM     17  C   UNL A   1      37.292  31.603  31.558  1.00  0.00     0.029 A 
ATOM     18  N   UNL A   1      39.200  30.498  31.916  1.00  0.00    -0.354 N 
ATOM     19  C   UNL A   1      40.766  27.915  28.691  1.00  0.00     0.074 A 
ATOM     20  C   UNL A   1      39.961  28.058  27.503  1.00  0.00     0.031 C 
ATOM     21  C   UNL A   1      37.796  32.049  32.719  1.00  0.00     0.029 A 
ATOM     22  C   UNL A   1      38.994  31.281  33.028  1.00  0.00     0.049 A 
ATOM     23  H   UNL A   1      39.997  29.933  31.794  1.00  0.00     0.167 HD
ATOM     24  C   UNL A   1      41.894  27.184  28.777  1.00  0.00     0.034 A 
ATOM     25  C   UNL A   1      39.677  31.314  34.187  1.00  0.00     0.034 A 
ATOM     26  C   UNL A   1      42.657  27.095  29.987  1.00  0.00     0.049 A 
ATOM     27  C   UNL A   1      40.860  30.391  34.294  1.00  0.00     0.074 A 
ATOM     28  C   UNL A   1      43.760  26.313  30.256  1.00  0.00     0.029 A 
ATOM     29  N   UNL A   1      42.384  27.828  31.135  1.00  0.00    -0.354 N 
ATOM     30  N   UNL A   1      41.390  29.625  33.368  1.00  0.00    -0.248 NA
ATOM     31  C   UNL A   1      41.540  30.328  35.591  1.00  0.00     0.031 C 
ATOM     32  C   UNL A   1      44.137  26.553  31.580  1.00  0.00     0.029 A 
ATOM     33  C   UNL A   1      43.297  27.518  32.121  1.00  0.00     0.049 A 
ATOM     34  H   UNL A   1      41.647  28.474  31.232  1.00  0.00     0.167 HD
ATOM     35  C   UNL A   1      42.481  29.007  33.959  1.00  0.00     0.074 A 
ATOM     36  C   UNL A   1      42.547  29.509  35.320  1.00  0.00     0.031 C 
ATOM     37  C   UNL A   1      43.341  28.096  33.442  1.00  0.00     0.034 A 
BRANCH  24  38
ATOM     38  C   UNL A   1      42.308  26.395  27.571  1.00  0.00     0.023 A 
ATOM     39  C   UNL A   1      43.060  27.000  26.546  1.00  0.00     0.012 A 
ATOM     40  C   UNL A   1      41.955  25.036  27.465  1.00  0.00     0.148 A 
ATOM     41  C   UNL A   1      43.445  26.265  25.425  1.00  0.00     0.002 A 
ATOM     42  C   UNL A   1      42.379  24.299  26.369  1.00  0.00     0.091 A 
ATOM     43  F   UNL A   1      41.205  24.495  28.436  1.00  0.00    -0.205 F 
ATOM     44  C   UNL A   1      43.115  24.913  25.341  1.00  0.00     0.022 A 
BRANCH  42  45
ATOM     45  S   UNL A   1      42.058  22.540  26.199  1.00  0.00     0.127 S 
ATOM     46  O   UNL A   1      42.745  22.233  24.946  1.00  0.00    -0.237 OA
ATOM     47  O   UNL A   1      42.702  22.001  27.397  1.00  0.00    -0.237 OA
ATOM     48  O   UNL A   1      40.610  22.394  26.158  1.00  0.00    -0.744 OA
ENDBRANCH  42  45
ENDBRANCH  24  38
BRANCH  25  49
ATOM     49  C   UNL A   1      39.243  32.193  35.311  1.00  0.00     0.023 A 
ATOM     50  C   UNL A   1      38.355  31.697  36.284  1.00  0.00     0.012 A 
ATOM     51  C   UNL A   1      39.715  33.518  35.434  1.00  0.00     0.148 A 
ATOM     52  C   UNL A   1      37.925  32.507  37.337  1.00  0.00     0.002 A 
ATOM     53  C   UNL A   1      39.329  34.300  36.517  1.00  0.00     0.091 A 
ATOM     54  F   UNL A   1      40.544  33.988  34.490  1.00  0.00    -0.205 F 
ATOM     55  C   UNL A   1      38.419  33.804  37.460  1.00  0.00     0.022 A 
BRANCH  53  56
ATOM     56  S   UNL A   1      40.013  35.936  36.819  1.00  0.00     0.127 S 
ATOM     57  O   UNL A   1      41.435  35.641  36.977  1.00  0.00    -0.237 OA
ATOM     58  O   UNL A   1      39.663  36.643  35.587  1.00  0.00    -0.237 OA
ATOM     59  O   UNL A   1      39.333  36.433  38.009  1.00  0.00    -0.744 OA
ENDBRANCH  53  56
ENDBRANCH  25  49
BRANCH  37  60
ATOM     60  C   UNL A   1      44.453  27.621  34.330  1.00  0.00     0.023 A 
ATOM     61  C   UNL A   1      45.652  28.354  34.402  1.00  0.00     0.012 A 
ATOM     62  C   UNL A   1      44.242  26.530  35.193  1.00  0.00     0.148 A 
ATOM     63  C   UNL A   1      46.639  27.993  35.314  1.00  0.00     0.002 A 
ATOM     64  C   UNL A   1      45.203  26.215  36.140  1.00  0.00     0.091 A 
ATOM     65  F   UNL A   1      43.095  25.843  35.087  1.00  0.00    -0.205 F 
ATOM     66  C   UNL A   1      46.408  26.937  36.194  1.00  0.00     0.022 A 
BRANCH  64  67
ATOM     67  S   UNL A   1      44.934  24.961  37.395  1.00  0.00     0.127 S 
ATOM     68  O   UNL A   1      44.818  23.751  36.584  1.00  0.00    -0.237 OA
ATOM     69  O   UNL A   1      46.160  25.050  38.188  1.00  0.00    -0.237 OA
ATOM     70  O   UNL A   1      43.724  25.354  38.105  1.00  0.00    -0.744 OA
ENDBRANCH  64  67
ENDBRANCH  37  60
ENDBRANCH  11  12
ENDBRANCH   4   6
ENDBRANCH   3   4
ENDBRANCH   2   3
ENDBRANCH   1   2
BRANCH   1  71
ATOM     71  O   UNL A   1      31.578  27.072  26.028  1.00  0.00    -0.374 OA
BRANCH  71  72
ATOM     72  C   UNL A   1      30.560  26.414  25.274  1.00  0.00     0.202 C 
BRANCH  72  73
ATOM     73  C   UNL A   1      30.286  25.042  25.883  1.00  0.00     0.261 C 
BRANCH  73  74
ATOM     74  O   UNL A   1      31.299  24.818  26.869  1.00  0.00    -0.459 OA
BRANCH  74  75
ATOM     75  C   UNL A   1      31.709  23.528  27.020  1.00  0.00     0.371 C 
ATOM     76  O   UNL A   1      31.084  22.655  27.617  1.00  0.00    -0.245 OA
BRANCH  75  77
ATOM     77  C   UNL A   1      33.063  23.299  26.324  1.00  0.00     0.350 C 
ATOM     78  C   UNL A   1      33.993  22.360  27.140  1.00  0.00     0.339 C 
ATOM     79  N   UNL A   1      32.823  22.822  24.949  1.00  0.00    -0.310 N 
ATOM     80  N   UNL A   1      33.653  20.938  27.203  1.00  0.00    -0.336 N 
ATOM     81  C   UNL A   1      32.417  21.409  24.945  1.00  0.00     0.325 C 
ATOM     82  H   UNL A   1      32.016  23.324  24.577  1.00  0.00     0.349 HD
ATOM     83  C   UNL A   1      33.091  20.428  25.951  1.00  0.00     0.322 C 
ATOM     84  H   UNL A   1      32.968  20.800  27.946  1.00  0.00     0.346 HD
ATOM     85  H   UNL A   1      34.517  20.426  27.380  1.00  0.00     0.346 HD
BRANCH  79  86
ATOM     86  C   UNL A   1      33.852  23.222  23.980  1.00  0.00     0.300 C 
BRANCH  86  87
ATOM     87  C   UNL A   1      33.635  24.535  23.261  1.00  0.00     0.009 A 
ATOM     88  C   UNL A   1      34.060  25.736  23.845  1.00  0.00     0.010 A 
ATOM     89  C   UNL A   1      32.911  24.593  22.060  1.00  0.00     0.048 A 
ATOM     90  C   UNL A   1      33.637  26.967  23.343  1.00  0.00     0.004 A 
ATOM     91  C   UNL A   1      32.521  25.828  21.548  1.00  0.00     0.123 A 
ATOM     92  C   UNL A   1      32.848  27.011  22.198  1.00  0.00     0.039 A 
ATOM     93  F   UNL A   1      31.772  25.874  20.438  1.00  0.00    -0.207 F 
ENDBRANCH  86  87
ENDBRANCH  79  86
ENDBRANCH  75  77
ENDBRANCH  74  75
ENDBRANCH  73  74
ENDBRANCH  72  73
ENDBRANCH  71  72
ENDBRANCH   1  71
TORSDOF 19
ENDMDL
MODEL 2
REMARK VINA RESULT:     -11.1      5.550      8.608
REMARK SMILES O=C(OCCOCCOC(=O)[C@H]1C[NH2+]CC[N@@H+]1Cc1cccc(F)c1)c1ccc(-c2c3nc(c(-c4cccc(S(=O)(=O)[O-])c4F)c4ccc([nH]4)c(-c4cccc(S(=O)(=O)[O-])c4F)c4nc(c(-c5cccc(S(=O)(=O)[O-])c5F)c5ccc2[nH]5)C=C4)C=C3)cc1
REMARK SMILES IDX 5 1 4 2 3 3 2 4 1 5 26 6 27 7 88 8 28 9 87 10 29 11 30 12
REMARK SMILES IDX 31 13 81 14 32 15 86 16 80 17 82 18 33 19 85 20 79 21 78 22
REMARK SMILES IDX 34 24 66 25 46 26 65 27 47 28 50 29 64 30 83 31 48 32 49 33
REMARK SMILES IDX 63 35 84 36 51 37 35 38 36 39 44 40 37 41 39 42 45 43 38 44
REMARK SMILES IDX 40 45 41 46 42 47 43 48 67 49 68 50 76 51 69 52 71 53 77 54
REMARK SMILES IDX 70 55 72 56 73 57 74 58 75 59 52 60 53 61 61 62 54 63 56 64
REMARK SMILES IDX 62 65 55 66 57 67 58 68 59 69 60 70 6 71 7 72 8 73 9 74
REMARK SMILES IDX 10 75 11 76 12 77 13 78 17 79 14 80 16 81 15 83 18 86 19 87
REMARK SMILES IDX 20 88 25 89 21 90 23 91 22 92 24 93
REMARK H PARENT 82 23 50 34 17 82 14 84 14 85
REMARK Flexibility Score: inf
ROOT
ATOM      1  C   UNL A   1      38.019  20.750  25.490  1.00  0.00     0.202 C 
ENDROOT
BRANCH   1   2
ATOM      2  C   UNL A   1      38.941  19.518  25.292  1.00  0.00     0.261 C 
BRANCH   2   3
ATOM      3  O   UNL A   1      39.997  19.364  26.259  1.00  0.00    -0.460 OA
BRANCH   3   4
ATOM      4  C   UNL A   1      41.284  19.793  26.123  1.00  0.00     0.338 C 
ATOM      5  O   UNL A   1      42.145  19.020  25.713  1.00  0.00    -0.246 OA
BRANCH   4   6
ATOM      6  C   UNL A   1      41.688  21.165  26.553  1.00  0.00     0.060 A 
ATOM      7  C   UNL A   1      41.461  22.275  25.753  1.00  0.00     0.016 A 
ATOM      8  C   UNL A   1      42.221  21.388  27.826  1.00  0.00     0.016 A 
ATOM      9  C   UNL A   1      41.773  23.551  26.116  1.00  0.00     0.010 A 
ATOM     10  C   UNL A   1      42.511  22.697  28.244  1.00  0.00     0.010 A 
ATOM     11  C   UNL A   1      42.277  23.772  27.378  1.00  0.00    -0.014 A 
BRANCH  11  12
ATOM     12  C   UNL A   1      42.654  25.161  27.623  1.00  0.00     0.031 A 
ATOM     13  C   UNL A   1      43.947  25.624  27.046  1.00  0.00     0.074 A 
ATOM     14  C   UNL A   1      41.718  26.007  28.093  1.00  0.00     0.049 A 
ATOM     15  N   UNL A   1      44.510  26.790  27.139  1.00  0.00    -0.248 NA
ATOM     16  C   UNL A   1      44.695  24.650  26.224  1.00  0.00     0.031 C 
ATOM     17  C   UNL A   1      40.338  25.636  28.439  1.00  0.00     0.029 A 
ATOM     18  N   UNL A   1      41.758  27.354  28.310  1.00  0.00    -0.354 N 
ATOM     19  C   UNL A   1      45.710  26.673  26.454  1.00  0.00     0.074 A 
ATOM     20  C   UNL A   1      45.782  25.339  25.911  1.00  0.00     0.031 C 
ATOM     21  C   UNL A   1      39.668  26.733  28.823  1.00  0.00     0.029 A 
ATOM     22  C   UNL A   1      40.593  27.857  28.839  1.00  0.00     0.049 A 
ATOM     23  H   UNL A   1      42.544  27.911  28.107  1.00  0.00     0.167 HD
ATOM     24  C   UNL A   1      46.666  27.614  26.323  1.00  0.00     0.034 A 
ATOM     25  C   UNL A   1      40.340  29.082  29.335  1.00  0.00     0.034 A 
ATOM     26  C   UNL A   1      46.525  28.928  26.876  1.00  0.00     0.049 A 
ATOM     27  C   UNL A   1      41.472  30.071  29.285  1.00  0.00     0.074 A 
ATOM     28  C   UNL A   1      47.449  29.952  26.916  1.00  0.00     0.029 A 
ATOM     29  N   UNL A   1      45.369  29.396  27.489  1.00  0.00    -0.354 N 
ATOM     30  N   UNL A   1      42.653  29.941  28.726  1.00  0.00    -0.248 NA
ATOM     31  C   UNL A   1      41.250  31.369  29.930  1.00  0.00     0.031 C 
ATOM     32  C   UNL A   1      46.858  31.030  27.580  1.00  0.00     0.029 A 
ATOM     33  C   UNL A   1      45.552  30.695  27.914  1.00  0.00     0.049 A 
ATOM     34  H   UNL A   1      44.540  28.876  27.604  1.00  0.00     0.167 HD
ATOM     35  C   UNL A   1      43.308  31.146  28.926  1.00  0.00     0.074 A 
ATOM     36  C   UNL A   1      42.379  32.002  29.641  1.00  0.00     0.031 C 
ATOM     37  C   UNL A   1      44.564  31.513  28.573  1.00  0.00     0.034 A 
BRANCH  24  38
ATOM     38  C   UNL A   1      47.936  27.227  25.627  1.00  0.00     0.023 A 
ATOM     39  C   UNL A   1      48.985  26.616  26.342  1.00  0.00     0.012 A 
ATOM     40  C   UNL A   1      48.080  27.462  24.246  1.00  0.00     0.148 A 
ATOM     41  C   UNL A   1      50.165  26.256  25.693  1.00  0.00     0.002 A 
ATOM     42  C   UNL A   1      49.240  27.059  23.598  1.00  0.00     0.091 A 
ATOM     43  F   UNL A   1      47.084  28.080  23.597  1.00  0.00    -0.205 F 
ATOM     44  C   UNL A   1      50.289  26.466  24.321  1.00  0.00     0.022 A 
BRANCH  42  45
ATOM     45  S   UNL A   1      49.469  27.231  21.825  1.00  0.00     0.127 S 
ATOM     46  O   UNL A   1      49.097  28.628  21.611  1.00  0.00    -0.237 OA
ATOM     47  O   UNL A   1      50.897  26.949  21.678  1.00  0.00    -0.237 OA
ATOM     48  O   UNL A   1      48.582  26.257  21.205  1.00  0.00    -0.744 OA
ENDBRANCH  42  45
ENDBRANCH  24  38
BRANCH  25  49
ATOM     49  C   UNL A   1      39.016  29.410  29.937  1.00  0.00     0.023 A 
ATOM     50  C   UNL A   1      38.735  29.025  31.262  1.00  0.00     0.012 A 
ATOM     51  C   UNL A   1      38.031  30.116  29.212  1.00  0.00     0.148 A 
ATOM     52  C   UNL A   1      37.497  29.309  31.841  1.00  0.00     0.002 A 
ATOM     53  C   UNL A   1      36.823  30.447  29.814  1.00  0.00     0.091 A 
ATOM     54  F   UNL A   1      38.300  30.460  27.944  1.00  0.00    -0.205 F 
ATOM     55  C   UNL A   1      36.544  30.029  31.122  1.00  0.00     0.022 A 
BRANCH  53  56
ATOM     56  S   UNL A   1      35.591  31.478  29.004  1.00  0.00     0.127 S 
ATOM     57  O   UNL A   1      34.800  31.946  30.139  1.00  0.00    -0.237 OA
ATOM     58  O   UNL A   1      36.423  32.501  28.368  1.00  0.00    -0.237 OA
ATOM     59  O   UNL A   1      34.899  30.602  28.067  1.00  0.00    -0.744 OA
ENDBRANCH  53  56
ENDBRANCH  25  49
BRANCH  37  60
ATOM     60  C   UNL A   1      44.989  32.912  28.910  1.00  0.00     0.023 A 
ATOM     61  C   UNL A   1      45.674  33.164  30.115  1.00  0.00     0.012 A 
ATOM     62  C   UNL A   1      44.830  33.940  27.963  1.00  0.00     0.148 A 
ATOM     63  C   UNL A   1      46.181  34.433  30.378  1.00  0.00     0.002 A 
ATOM     64  C   UNL A   1      45.392  35.183  28.206  1.00  0.00     0.091 A 
ATOM     65  F   UNL A   1      44.159  33.671  26.833  1.00  0.00    -0.205 F 
ATOM     66  C   UNL A   1      46.056  35.436  29.418  1.00  0.00     0.022 A 
BRANCH  64  67
ATOM     67  S   UNL A   1      45.395  36.488  26.975  1.00  0.00     0.127 S 
ATOM     68  O   UNL A   1      46.380  37.416  27.528  1.00  0.00    -0.237 OA
ATOM     69  O   UNL A   1      45.833  35.777  25.773  1.00  0.00    -0.237 OA
ATOM     70  O   UNL A   1      44.029  36.991  26.917  1.00  0.00    -0.744 OA
ENDBRANCH  64  67
ENDBRANCH  37  60
ENDBRANCH  11  12
ENDBRANCH   4   6
ENDBRANCH   3   4
ENDBRANCH   2   3
ENDBRANCH   1   2
BRANCH   1  71
ATOM     71  O   UNL A   1      37.425  21.434  24.385  1.00  0.00    -0.374 OA
BRANCH  71  72
ATOM     72  C   UNL A   1      37.028  22.801  24.476  1.00  0.00     0.202 C 
BRANCH  72  73
ATOM     73  C   UNL A   1      36.531  23.276  23.113  1.00  0.00     0.261 C 
BRANCH  73  74
ATOM     74  O   UNL A   1      35.122  23.028  23.079  1.00  0.00    -0.459 OA
BRANCH  74  75
ATOM     75  C   UNL A   1      34.357  23.828  23.873  1.00  0.00     0.371 C 
ATOM     76  O   UNL A   1      34.393  25.056  23.879  1.00  0.00    -0.245 OA
BRANCH  75  77
ATOM     77  C   UNL A   1      33.421  22.987  24.759  1.00  0.00     0.350 C 
ATOM     78  C   UNL A   1      32.427  23.866  25.567  1.00  0.00     0.339 C 
ATOM     79  N   UNL A   1      32.748  21.974  23.923  1.00  0.00    -0.310 N 
ATOM     80  N   UNL A   1      31.340  24.523  24.841  1.00  0.00    -0.336 N 
ATOM     81  C   UNL A   1      31.679  22.582  23.118  1.00  0.00     0.325 C 
ATOM     82  H   UNL A   1      33.423  21.631  23.239  1.00  0.00     0.349 HD
ATOM     83  C   UNL A   1      30.803  23.705  23.752  1.00  0.00     0.322 C 
ATOM     84  H   UNL A   1      31.693  25.395  24.447  1.00  0.00     0.346 HD
ATOM     85  H   UNL A   1      30.582  24.682  25.505  1.00  0.00     0.346 HD
BRANCH  79  86
ATOM     86  C   UNL A   1      32.425  20.725  24.625  1.00  0.00     0.300 C 
BRANCH  86  87
ATOM     87  C   UNL A   1      33.084  19.466  24.110  1.00  0.00     0.009 A 
ATOM     88  C   UNL A   1      32.442  18.679  23.144  1.00  0.00     0.010 A 
ATOM     89  C   UNL A   1      34.287  18.999  24.663  1.00  0.00     0.048 A 
ATOM     90  C   UNL A   1      32.890  17.389  22.855  1.00  0.00     0.004 A 
ATOM     91  C   UNL A   1      34.745  17.723  24.343  1.00  0.00     0.123 A 
ATOM     92  C   UNL A   1      34.038  16.903  23.472  1.00  0.00     0.039 A 
ATOM     93  F   UNL A   1      35.857  17.256  24.926  1.00  0.00    -0.207 F 
ENDBRANCH  86  87
ENDBRANCH  79  86
ENDBRANCH  75  77
ENDBRANCH  74  75
ENDBRANCH  73  74
ENDBRANCH  72  73
ENDBRANCH  71  72
ENDBRANCH   1  71
TORSDOF 19
ENDMDL
MODEL 3
REMARK VINA RESULT:     -11.0      1.414      2.406
REMARK SMILES O=C(OCCOCCOC(=O)[C@H]1C[NH2+]CC[N@@H+]1Cc1cccc(F)c1)c1ccc(-c2c3nc(c(-c4cccc(S(=O)(=O)[O-])c4F)c4ccc([nH]4)c(-c4cccc(S(=O)(=O)[O-])c4F)c4nc(c(-c5cccc(S(=O)(=O)[O-])c5F)c5ccc2[nH]5)C=C4)C=C3)cc1
REMARK SMILES IDX 5 1 4 2 3 3 2 4 1 5 26 6 27 7 88 8 28 9 87 10 29 11 30 12
REMARK SMILES IDX 31 13 81 14 32 15 86 16 80 17 82 18 33 19 85 20 79 21 78 22
REMARK SMILES IDX 34 24 66 25 46 26 65 27 47 28 50 29 64 30 83 31 48 32 49 33
REMARK SMILES IDX 63 35 84 36 51 37 35 38 36 39 44 40 37 41 39 42 45 43 38 44
REMARK SMILES IDX 40 45 41 46 42 47 43 48 67 49 68 50 76 51 69 52 71 53 77 54
REMARK SMILES IDX 70 55 72 56 73 57 74 58 75 59 52 60 53 61 61 62 54 63 56 64
REMARK SMILES IDX 62 65 55 66 57 67 58 68 59 69 60 70 6 71 7 72 8 73 9 74
REMARK SMILES IDX 10 75 11 76 12 77 13 78 17 79 14 80 16 81 15 83 18 86 19 87
REMARK SMILES IDX 20 88 25 89 21 90 23 91 22 92 24 93
REMARK H PARENT 82 23 50 34 17 82 14 84 14 85
REMARK Flexibility Score: inf
ROOT
ATOM      1  C   UNL A   1      31.387  29.145  24.222  1.00  0.00     0.202 C 
ENDROOT
BRANCH   1   2
ATOM      2  C   UNL A   1      31.775  29.553  25.668  1.00  0.00     0.261 C 
BRANCH   2   3
ATOM      3  O   UNL A   1      32.965  30.355  25.795  1.00  0.00    -0.460 OA
BRANCH   3   4
ATOM      4  C   UNL A   1      33.292  31.150  26.852  1.00  0.00     0.338 C 
ATOM      5  O   UNL A   1      32.602  32.132  27.113  1.00  0.00    -0.246 OA
BRANCH   4   6
ATOM      6  C   UNL A   1      34.531  30.904  27.648  1.00  0.00     0.060 A 
ATOM      7  C   UNL A   1      34.865  29.637  28.103  1.00  0.00     0.016 A 
ATOM      8  C   UNL A   1      35.451  31.932  27.876  1.00  0.00     0.016 A 
ATOM      9  C   UNL A   1      36.003  29.353  28.797  1.00  0.00     0.010 A 
ATOM     10  C   UNL A   1      36.653  31.659  28.550  1.00  0.00     0.010 A 
ATOM     11  C   UNL A   1      36.918  30.360  29.001  1.00  0.00    -0.014 A 
BRANCH  11  12
ATOM     12  C   UNL A   1      38.054  29.962  29.828  1.00  0.00     0.031 A 
ATOM     13  C   UNL A   1      39.130  29.175  29.164  1.00  0.00     0.074 A 
ATOM     14  C   UNL A   1      38.211  30.548  31.030  1.00  0.00     0.049 A 
ATOM     15  N   UNL A   1      40.219  28.688  29.677  1.00  0.00    -0.248 NA
ATOM     16  C   UNL A   1      38.978  28.927  27.715  1.00  0.00     0.031 C 
ATOM     17  C   UNL A   1      37.291  31.532  31.618  1.00  0.00     0.029 A 
ATOM     18  N   UNL A   1      39.216  30.449  31.947  1.00  0.00    -0.354 N 
ATOM     19  C   UNL A   1      40.845  28.015  28.639  1.00  0.00     0.074 A 
ATOM     20  C   UNL A   1      40.044  28.187  27.452  1.00  0.00     0.031 C 
ATOM     21  C   UNL A   1      37.781  31.945  32.797  1.00  0.00     0.029 A 
ATOM     22  C   UNL A   1      38.990  31.188  33.085  1.00  0.00     0.049 A 
ATOM     23  H   UNL A   1      40.024  29.904  31.809  1.00  0.00     0.167 HD
ATOM     24  C   UNL A   1      41.987  27.301  28.704  1.00  0.00     0.034 A 
ATOM     25  C   UNL A   1      39.666  31.190  34.248  1.00  0.00     0.034 A 
ATOM     26  C   UNL A   1      42.745  27.182  29.915  1.00  0.00     0.049 A 
ATOM     27  C   UNL A   1      40.865  30.286  34.329  1.00  0.00     0.074 A 
ATOM     28  C   UNL A   1      43.860  26.411  30.162  1.00  0.00     0.029 A 
ATOM     29  N   UNL A   1      42.452  27.868  31.088  1.00  0.00    -0.354 N 
ATOM     30  N   UNL A   1      41.414  29.564  33.379  1.00  0.00    -0.248 NA
ATOM     31  C   UNL A   1      41.540  30.188  35.627  1.00  0.00     0.031 C 
ATOM     32  C   UNL A   1      44.226  26.609  31.495  1.00  0.00     0.029 A 
ATOM     33  C   UNL A   1      43.366  27.538  32.067  1.00  0.00     0.049 A 
ATOM     34  H   UNL A   1      41.703  28.496  31.203  1.00  0.00     0.167 HD
ATOM     35  C   UNL A   1      42.513  28.944  33.953  1.00  0.00     0.074 A 
ATOM     36  C   UNL A   1      42.563  29.398  35.332  1.00  0.00     0.031 C 
ATOM     37  C   UNL A   1      43.393  28.069  33.408  1.00  0.00     0.034 A 
BRANCH  24  38
ATOM     38  C   UNL A   1      42.421  26.565  27.473  1.00  0.00     0.023 A 
ATOM     39  C   UNL A   1      43.089  27.242  26.435  1.00  0.00     0.012 A 
ATOM     40  C   UNL A   1      42.171  25.184  27.356  1.00  0.00     0.148 A 
ATOM     41  C   UNL A   1      43.493  26.555  25.290  1.00  0.00     0.002 A 
ATOM     42  C   UNL A   1      42.616  24.498  26.234  1.00  0.00     0.091 A 
ATOM     43  F   UNL A   1      41.498  24.572  28.340  1.00  0.00    -0.205 F 
ATOM     44  C   UNL A   1      43.267  25.183  25.194  1.00  0.00     0.022 A 
BRANCH  42  45
ATOM     45  S   UNL A   1      42.428  22.723  26.046  1.00  0.00     0.127 S 
ATOM     46  O   UNL A   1      40.975  22.568  26.116  1.00  0.00    -0.237 OA
ATOM     47  O   UNL A   1      43.002  22.499  24.719  1.00  0.00    -0.237 OA
ATOM     48  O   UNL A   1      43.164  22.117  27.147  1.00  0.00    -0.744 OA
ENDBRANCH  42  45
ENDBRANCH  24  38
BRANCH  25  49
ATOM     49  C   UNL A   1      39.211  32.020  35.401  1.00  0.00     0.023 A 
ATOM     50  C   UNL A   1      38.282  31.494  36.318  1.00  0.00     0.012 A 
ATOM     51  C   UNL A   1      39.704  33.327  35.608  1.00  0.00     0.148 A 
ATOM     52  C   UNL A   1      37.831  32.258  37.396  1.00  0.00     0.002 A 
ATOM     53  C   UNL A   1      39.295  34.061  36.716  1.00  0.00     0.091 A 
ATOM     54  F   UNL A   1      40.572  33.828  34.718  1.00  0.00    -0.205 F 
ATOM     55  C   UNL A   1      38.345  33.537  37.602  1.00  0.00     0.022 A 
BRANCH  53  56
ATOM     56  S   UNL A   1      39.999  35.665  37.125  1.00  0.00     0.127 S 
ATOM     57  O   UNL A   1      39.659  36.450  35.941  1.00  0.00    -0.237 OA
ATOM     58  O   UNL A   1      39.257  36.021  38.335  1.00  0.00    -0.237 OA
ATOM     59  O   UNL A   1      41.420  35.428  37.341  1.00  0.00    -0.744 OA
ENDBRANCH  53  56
ENDBRANCH  25  49
BRANCH  37  60
ATOM     60  C   UNL A   1      44.508  27.582  34.285  1.00  0.00     0.023 A 
ATOM     61  C   UNL A   1      45.685  28.344  34.408  1.00  0.00     0.012 A 
ATOM     62  C   UNL A   1      44.320  26.443  35.089  1.00  0.00     0.148 A 
ATOM     63  C   UNL A   1      46.672  27.966  35.312  1.00  0.00     0.002 A 
ATOM     64  C   UNL A   1      45.280  26.108  36.031  1.00  0.00     0.091 A 
ATOM     65  F   UNL A   1      43.195  25.729  34.935  1.00  0.00    -0.205 F 
ATOM     66  C   UNL A   1      46.463  26.860  36.135  1.00  0.00     0.022 A 
BRANCH  64  67
ATOM     67  S   UNL A   1      45.035  24.785  37.218  1.00  0.00     0.127 S 
ATOM     68  O   UNL A   1      43.798  25.202  37.875  1.00  0.00    -0.237 OA
ATOM     69  O   UNL A   1      44.901  23.614  36.351  1.00  0.00    -0.237 OA
ATOM     70  O   UNL A   1      46.219  24.778  38.065  1.00  0.00    -0.744 OA
ENDBRANCH  64  67
ENDBRANCH  37  60
ENDBRANCH  11  12
ENDBRANCH   4   6
ENDBRANCH   3   4
ENDBRANCH   2   3
ENDBRANCH   1   2
BRANCH   1  71
ATOM     71  O   UNL A   1      31.362  27.779  23.804  1.00  0.00    -0.374 OA
BRANCH  71  72
ATOM     72  C   UNL A   1      31.954  27.360  22.575  1.00  0.00     0.202 C 
BRANCH  72  73
ATOM     73  C   UNL A   1      31.385  26.002  22.175  1.00  0.00     0.261 C 
BRANCH  73  74
ATOM     74  O   UNL A   1      31.057  25.319  23.390  1.00  0.00    -0.459 OA
BRANCH  74  75
ATOM     75  C   UNL A   1      31.783  24.197  23.656  1.00  0.00     0.371 C 
ATOM     76  O   UNL A   1      31.999  23.290  22.856  1.00  0.00    -0.245 OA
BRANCH  75  77
ATOM     77  C   UNL A   1      32.318  24.222  25.099  1.00  0.00     0.350 C 
ATOM     78  C   UNL A   1      31.384  25.008  26.061  1.00  0.00     0.339 C 
ATOM     79  N   UNL A   1      32.570  22.837  25.543  1.00  0.00    -0.310 N 
ATOM     80  N   UNL A   1      30.101  24.404  26.422  1.00  0.00    -0.336 N 
ATOM     81  C   UNL A   1      31.311  22.151  25.866  1.00  0.00     0.325 C 
ATOM     82  H   UNL A   1      32.953  22.317  24.752  1.00  0.00     0.349 HD
ATOM     83  C   UNL A   1      30.176  22.950  26.576  1.00  0.00     0.322 C 
ATOM     84  H   UNL A   1      29.424  24.618  25.691  1.00  0.00     0.346 HD
ATOM     85  H   UNL A   1      29.826  24.792  27.324  1.00  0.00     0.346 HD
BRANCH  79  86
ATOM     86  C   UNL A   1      33.670  22.699  26.506  1.00  0.00     0.300 C 
BRANCH  86  87
ATOM     87  C   UNL A   1      35.058  22.521  25.933  1.00  0.00     0.009 A 
ATOM     88  C   UNL A   1      35.407  21.324  25.292  1.00  0.00     0.010 A 
ATOM     89  C   UNL A   1      36.052  23.492  26.127  1.00  0.00     0.048 A 
ATOM     90  C   UNL A   1      36.739  21.028  25.001  1.00  0.00     0.004 A 
ATOM     91  C   UNL A   1      37.375  23.201  25.801  1.00  0.00     0.123 A 
ATOM     92  C   UNL A   1      37.730  21.965  25.274  1.00  0.00     0.039 A 
ATOM     93  F   UNL A   1      38.330  24.106  26.052  1.00  0.00    -0.207 F 
ENDBRANCH  86  87
ENDBRANCH  79  86
ENDBRANCH  75  77
ENDBRANCH  74  75
ENDBRANCH  73  74
ENDBRANCH  72  73
ENDBRANCH  71  72
ENDBRANCH   1  71
TORSDOF 19
ENDMDL
