MODEL 1
REMARK VINA RESULT:     -11.9      0.000      0.000
REMARK SMILES COc1ccc(NC(=O)[C@H]2[C@@H]3CC[C@@H](C3)[C@@H]2C(=O)OCCOCCOC(=O)c2ccc(-c3c4nc(c(-c5cccc(S(=O)(=O)[O-])c5F)c5ccc([nH]5)c(-c5cccc(S(=O)(=O)[O-])c5F)c5nc(c(-c6cccc(S(=O)(=O)[O-])c6F)c6ccc3[nH]6)C=C5)C=C4)cc2)c(C)c1
REMARK SMILES IDX 22 1 21 2 20 3 19 4 17 5 18 6 16 7 10 8 11 9 12 10 15 11
REMARK SMILES IDX 14 12 13 13 8 14 7 15 9 17 6 18 3 19 4 20 93 21 5 22 91 23
REMARK SMILES IDX 92 24 2 25 1 26 23 27 24 28 25 29 26 30 27 31 28 32 29 33
REMARK SMILES IDX 90 34 30 35 89 36 31 37 32 38 33 39 83 40 34 41 88 42 82 43
REMARK SMILES IDX 84 44 35 45 87 46 81 47 80 48 36 50 68 51 48 52 67 53 49 54
REMARK SMILES IDX 52 55 66 56 85 57 50 58 51 59 65 61 86 62 53 63 37 64 38 65
REMARK SMILES IDX 46 66 39 67 41 68 47 69 40 70 42 71 43 72 44 73 45 74 69 75
REMARK SMILES IDX 70 76 78 77 71 78 73 79 79 80 72 81 74 82 75 83 76 84 77 85
REMARK SMILES IDX 54 86 55 87 63 88 56 89 58 90 64 91 57 92 59 93 60 94 61 95
REMARK SMILES IDX 62 96
REMARK H PARENT 7 16 84 49 52 60
REMARK Flexibility Score: inf
ROOT
ATOM      1  O   UNL A   1      32.026  29.362  27.495  1.00  0.00    -0.374 OA
ENDROOT
BRANCH   1   2
ATOM      2  C   UNL A   1      31.896  28.124  26.829  1.00  0.00     0.202 C 
BRANCH   2   3
ATOM      3  C   UNL A   1      33.283  27.671  26.505  1.00  0.00     0.261 C 
BRANCH   3   4
ATOM      4  O   UNL A   1      33.375  26.256  26.176  1.00  0.00    -0.463 OA
BRANCH   4   5
ATOM      5  C   UNL A   1      32.329  25.340  26.228  1.00  0.00     0.310 C 
ATOM      6  O   UNL A   1      31.710  24.920  27.171  1.00  0.00    -0.252 OA
BRANCH   5   7
ATOM      7  C   UNL A   1      31.916  25.168  24.799  1.00  0.00     0.115 C 
ATOM      8  C   UNL A   1      32.288  25.962  23.581  1.00  0.00     0.096 C 
ATOM      9  C   UNL A   1      30.939  26.070  22.810  1.00  0.00     0.003 C 
ATOM     10  C   UNL A   1      29.976  26.994  23.576  1.00  0.00     0.005 C 
ATOM     11  C   UNL A   1      30.281  24.720  23.085  1.00  0.00     0.009 C 
ATOM     12  C   UNL A   1      30.420  24.863  24.600  1.00  0.00     0.004 C 
ATOM     13  C   UNL A   1      29.639  26.167  24.819  1.00  0.00     0.005 C 
BRANCH   8  14
ATOM     14  C   UNL A   1      33.366  25.239  22.727  1.00  0.00     0.228 C 
ATOM     15  N   UNL A   1      33.636  23.896  22.586  1.00  0.00    -0.326 N 
ATOM     16  H   UNL A   1      34.337  23.792  21.904  1.00  0.00     0.169 HD
ATOM     17  O   UNL A   1      34.054  25.956  21.977  1.00  0.00    -0.274 OA
BRANCH  15  18
ATOM     18  C   UNL A   1      33.275  22.588  23.066  1.00  0.00     0.044 A 
ATOM     19  C   UNL A   1      32.825  19.854  23.889  1.00  0.00     0.119 A 
ATOM     20  C   UNL A   1      32.073  20.422  22.903  1.00  0.00     0.048 A 
ATOM     21  C   UNL A   1      33.703  20.687  24.579  1.00  0.00     0.052 A 
ATOM     22  C   UNL A   1      32.312  21.734  22.523  1.00  0.00     0.030 A 
ATOM     23  C   UNL A   1      33.922  22.054  24.202  1.00  0.00    -0.024 A 
ATOM     24  C   UNL A   1      34.871  22.821  25.086  1.00  0.00     0.047 C 
BRANCH  19  25
ATOM     25  O   UNL A   1      32.725  18.537  24.233  1.00  0.00    -0.497 OA
ATOM     26  C   UNL A   1      32.722  18.303  25.650  1.00  0.00     0.278 C 
ENDBRANCH  19  25
ENDBRANCH  15  18
ENDBRANCH   8  14
ENDBRANCH   5   7
ENDBRANCH   4   5
ENDBRANCH   3   4
ENDBRANCH   2   3
ENDBRANCH   1   2
BRANCH   1  27
ATOM     27  C   UNL A   1      32.235  30.482  26.664  1.00  0.00     0.202 C 
BRANCH  27  28
ATOM     28  C   UNL A   1      32.998  31.619  27.355  1.00  0.00     0.261 C 
BRANCH  28  29
ATOM     29  O   UNL A   1      33.982  31.072  28.257  1.00  0.00    -0.460 OA
BRANCH  29  30
ATOM     30  C   UNL A   1      35.266  31.491  28.051  1.00  0.00     0.338 C 
ATOM     31  O   UNL A   1      35.558  32.565  27.550  1.00  0.00    -0.246 OA
BRANCH  30  32
ATOM     32  C   UNL A   1      36.213  30.361  28.289  1.00  0.00     0.060 A 
ATOM     33  C   UNL A   1      36.308  29.762  29.556  1.00  0.00     0.016 A 
ATOM     34  C   UNL A   1      37.210  30.125  27.350  1.00  0.00     0.016 A 
ATOM     35  C   UNL A   1      37.495  29.117  29.951  1.00  0.00     0.010 A 
ATOM     36  C   UNL A   1      38.398  29.568  27.778  1.00  0.00     0.010 A 
ATOM     37  C   UNL A   1      38.588  29.123  29.101  1.00  0.00    -0.014 A 
BRANCH  37  38
ATOM     38  C   UNL A   1      39.958  28.681  29.428  1.00  0.00     0.031 A 
ATOM     39  C   UNL A   1      40.255  27.255  29.125  1.00  0.00     0.074 A 
ATOM     40  C   UNL A   1      41.002  29.530  29.660  1.00  0.00     0.049 A 
ATOM     41  N   UNL A   1      41.397  26.694  29.297  1.00  0.00    -0.248 NA
ATOM     42  C   UNL A   1      39.266  26.333  28.570  1.00  0.00     0.031 C 
ATOM     43  C   UNL A   1      42.400  29.284  29.292  1.00  0.00     0.029 A 
ATOM     44  N   UNL A   1      41.074  30.844  30.147  1.00  0.00    -0.354 N 
ATOM     45  C   UNL A   1      41.408  25.523  28.579  1.00  0.00     0.074 A 
ATOM     46  C   UNL A   1      40.033  25.302  28.212  1.00  0.00     0.031 C 
ATOM     47  C   UNL A   1      43.196  30.258  29.761  1.00  0.00     0.029 A 
ATOM     48  C   UNL A   1      42.378  31.110  30.589  1.00  0.00     0.049 A 
ATOM     49  H   UNL A   1      40.323  31.481  30.176  1.00  0.00     0.167 HD
ATOM     50  C   UNL A   1      42.615  24.973  28.268  1.00  0.00     0.034 A 
ATOM     51  C   UNL A   1      42.664  31.544  31.843  1.00  0.00     0.034 A 
ATOM     52  C   UNL A   1      43.717  25.788  28.842  1.00  0.00     0.049 A 
ATOM     53  C   UNL A   1      43.502  30.463  32.469  1.00  0.00     0.074 A 
ATOM     54  C   UNL A   1      44.649  26.659  28.299  1.00  0.00     0.029 A 
ATOM     55  N   UNL A   1      43.761  25.999  30.226  1.00  0.00    -0.354 N 
ATOM     56  N   UNL A   1      43.444  29.222  32.055  1.00  0.00    -0.248 NA
ATOM     57  C   UNL A   1      44.610  30.694  33.388  1.00  0.00     0.031 C 
ATOM     58  C   UNL A   1      45.218  27.422  29.364  1.00  0.00     0.029 A 
ATOM     59  C   UNL A   1      44.637  27.020  30.562  1.00  0.00     0.049 A 
ATOM     60  H   UNL A   1      43.234  25.486  30.879  1.00  0.00     0.167 HD
ATOM     61  C   UNL A   1      44.560  28.562  32.451  1.00  0.00     0.074 A 
ATOM     62  C   UNL A   1      45.220  29.492  33.359  1.00  0.00     0.031 C 
ATOM     63  C   UNL A   1      44.929  27.343  31.961  1.00  0.00     0.034 A 
BRANCH  50  64
ATOM     64  C   UNL A   1      42.836  23.854  27.251  1.00  0.00     0.023 A 
ATOM     65  C   UNL A   1      43.586  24.173  26.096  1.00  0.00     0.012 A 
ATOM     66  C   UNL A   1      42.372  22.515  27.323  1.00  0.00     0.148 A 
ATOM     67  C   UNL A   1      43.806  23.262  25.055  1.00  0.00     0.002 A 
ATOM     68  C   UNL A   1      42.551  21.614  26.263  1.00  0.00     0.091 A 
ATOM     69  F   UNL A   1      41.826  22.054  28.449  1.00  0.00    -0.205 F 
ATOM     70  C   UNL A   1      43.269  21.987  25.127  1.00  0.00     0.022 A 
BRANCH  68  71
ATOM     71  S   UNL A   1      41.855  19.949  26.263  1.00  0.00     0.127 S 
ATOM     72  O   UNL A   1      42.295  19.428  27.560  1.00  0.00    -0.237 OA
ATOM     73  O   UNL A   1      40.419  20.207  26.173  1.00  0.00    -0.237 OA
ATOM     74  O   UNL A   1      42.442  19.260  25.120  1.00  0.00    -0.744 OA
ENDBRANCH  68  71
ENDBRANCH  50  64
BRANCH  51  75
ATOM     75  C   UNL A   1      41.567  32.397  32.384  1.00  0.00     0.023 A 
ATOM     76  C   UNL A   1      41.273  33.579  31.643  1.00  0.00     0.012 A 
ATOM     77  C   UNL A   1      40.553  31.834  33.173  1.00  0.00     0.148 A 
ATOM     78  C   UNL A   1      39.969  34.077  31.560  1.00  0.00     0.002 A 
ATOM     79  C   UNL A   1      39.248  32.314  33.056  1.00  0.00     0.091 A 
ATOM     80  F   UNL A   1      40.859  30.790  33.953  1.00  0.00    -0.205 F 
ATOM     81  C   UNL A   1      38.946  33.405  32.220  1.00  0.00     0.022 A 
BRANCH  79  82
ATOM     82  S   UNL A   1      37.869  31.456  33.824  1.00  0.00     0.127 S 
ATOM     83  O   UNL A   1      36.727  32.113  33.194  1.00  0.00    -0.237 OA
ATOM     84  O   UNL A   1      38.084  30.071  33.401  1.00  0.00    -0.237 OA
ATOM     85  O   UNL A   1      38.027  31.676  35.253  1.00  0.00    -0.744 OA
ENDBRANCH  79  82
ENDBRANCH  51  75
BRANCH  63  86
ATOM     86  C   UNL A   1      45.597  26.323  32.844  1.00  0.00     0.023 A 
ATOM     87  C   UNL A   1      47.000  26.283  32.972  1.00  0.00     0.012 A 
ATOM     88  C   UNL A   1      44.843  25.545  33.752  1.00  0.00     0.148 A 
ATOM     89  C   UNL A   1      47.631  25.476  33.916  1.00  0.00     0.002 A 
ATOM     90  C   UNL A   1      45.471  24.852  34.776  1.00  0.00     0.091 A 
ATOM     91  F   UNL A   1      43.511  25.467  33.634  1.00  0.00    -0.205 F 
ATOM     92  C   UNL A   1      46.864  24.785  34.840  1.00  0.00     0.022 A 
BRANCH  90  93
ATOM     93  S   UNL A   1      44.534  24.171  36.147  1.00  0.00     0.127 S 
ATOM     94  O   UNL A   1      43.965  22.968  35.544  1.00  0.00    -0.237 OA
ATOM     95  O   UNL A   1      45.583  23.922  37.139  1.00  0.00    -0.237 OA
ATOM     96  O   UNL A   1      43.585  25.209  36.525  1.00  0.00    -0.744 OA
ENDBRANCH  90  93
ENDBRANCH  63  86
ENDBRANCH  37  38
ENDBRANCH  30  32
ENDBRANCH  29  30
ENDBRANCH  28  29
ENDBRANCH  27  28
ENDBRANCH   1  27
TORSDOF 20
ENDMDL
MODEL 2
REMARK VINA RESULT:     -11.5      2.896      4.059
REMARK SMILES COc1ccc(NC(=O)[C@H]2[C@@H]3CC[C@@H](C3)[C@@H]2C(=O)OCCOCCOC(=O)c2ccc(-c3c4nc(c(-c5cccc(S(=O)(=O)[O-])c5F)c5ccc([nH]5)c(-c5cccc(S(=O)(=O)[O-])c5F)c5nc(c(-c6cccc(S(=O)(=O)[O-])c6F)c6ccc3[nH]6)C=C5)C=C4)cc2)c(C)c1
REMARK SMILES IDX 22 1 21 2 20 3 19 4 17 5 18 6 16 7 10 8 11 9 12 10 15 11
REMARK SMILES IDX 14 12 13 13 8 14 7 15 9 17 6 18 3 19 4 20 93 21 5 22 91 23
REMARK SMILES IDX 92 24 2 25 1 26 23 27 24 28 25 29 26 30 27 31 28 32 29 33
REMARK SMILES IDX 90 34 30 35 89 36 31 37 32 38 33 39 83 40 34 41 88 42 82 43
REMARK SMILES IDX 84 44 35 45 87 46 81 47 80 48 36 50 68 51 48 52 67 53 49 54
REMARK SMILES IDX 52 55 66 56 85 57 50 58 51 59 65 61 86 62 53 63 37 64 38 65
REMARK SMILES IDX 46 66 39 67 41 68 47 69 40 70 42 71 43 72 44 73 45 74 69 75
REMARK SMILES IDX 70 76 78 77 71 78 73 79 79 80 72 81 74 82 75 83 76 84 77 85
REMARK SMILES IDX 54 86 55 87 63 88 56 89 58 90 64 91 57 92 59 93 60 94 61 95
REMARK SMILES IDX 62 96
REMARK H PARENT 7 16 84 49 52 60
REMARK Flexibility Score: inf
ROOT
ATOM      1  O   UNL A   1      34.893  29.371  27.735  1.00  0.00    -0.374 OA
ENDROOT
BRANCH   1   2
ATOM      2  C   UNL A   1      34.216  28.725  26.678  1.00  0.00     0.202 C 
BRANCH   2   3
ATOM      3  C   UNL A   1      33.561  29.802  25.876  1.00  0.00     0.261 C 
BRANCH   3   4
ATOM      4  O   UNL A   1      32.722  29.299  24.797  1.00  0.00    -0.463 OA
BRANCH   4   5
ATOM      5  C   UNL A   1      31.331  29.314  24.775  1.00  0.00     0.310 C 
ATOM      6  O   UNL A   1      30.565  30.234  24.646  1.00  0.00    -0.252 OA
BRANCH   5   7
ATOM      7  C   UNL A   1      30.947  27.871  24.667  1.00  0.00     0.115 C 
ATOM      8  C   UNL A   1      31.805  26.640  24.640  1.00  0.00     0.096 C 
ATOM      9  C   UNL A   1      31.127  25.766  23.543  1.00  0.00     0.003 C 
ATOM     10  C   UNL A   1      31.350  26.404  22.160  1.00  0.00     0.005 C 
ATOM     11  C   UNL A   1      29.643  26.070  23.736  1.00  0.00     0.009 C 
ATOM     12  C   UNL A   1      29.849  27.579  23.627  1.00  0.00     0.004 C 
ATOM     13  C   UNL A   1      30.484  27.664  22.232  1.00  0.00     0.005 C 
BRANCH   8  14
ATOM     14  C   UNL A   1      31.813  25.911  26.012  1.00  0.00     0.228 C 
ATOM     15  N   UNL A   1      32.686  24.974  26.516  1.00  0.00    -0.326 N 
ATOM     16  H   UNL A   1      32.434  24.787  27.449  1.00  0.00     0.169 HD
ATOM     17  O   UNL A   1      30.956  26.275  26.839  1.00  0.00    -0.274 OA
BRANCH  15  18
ATOM     18  C   UNL A   1      33.830  24.164  26.188  1.00  0.00     0.044 A 
ATOM     19  C   UNL A   1      36.265  22.658  25.798  1.00  0.00     0.119 A 
ATOM     20  C   UNL A   1      35.967  23.725  25.003  1.00  0.00     0.048 A 
ATOM     21  C   UNL A   1      35.284  22.237  26.693  1.00  0.00     0.052 A 
ATOM     22  C   UNL A   1      34.794  24.434  25.213  1.00  0.00     0.030 A 
ATOM     23  C   UNL A   1      34.058  22.957  26.883  1.00  0.00    -0.024 A 
ATOM     24  C   UNL A   1      33.090  22.334  27.857  1.00  0.00     0.047 C 
BRANCH  19  25
ATOM     25  O   UNL A   1      37.452  21.987  25.724  1.00  0.00    -0.497 OA
ATOM     26  C   UNL A   1      37.474  20.949  24.731  1.00  0.00     0.278 C 
ENDBRANCH  19  25
ENDBRANCH  15  18
ENDBRANCH   8  14
ENDBRANCH   5   7
ENDBRANCH   4   5
ENDBRANCH   3   4
ENDBRANCH   2   3
ENDBRANCH   1   2
BRANCH   1  27
ATOM     27  C   UNL A   1      35.067  30.762  27.587  1.00  0.00     0.202 C 
BRANCH  27  28
ATOM     28  C   UNL A   1      34.029  31.592  28.352  1.00  0.00     0.261 C 
BRANCH  28  29
ATOM     29  O   UNL A   1      34.232  32.995  28.085  1.00  0.00    -0.460 OA
BRANCH  29  30
ATOM     30  C   UNL A   1      34.270  33.803  29.186  1.00  0.00     0.338 C 
ATOM     31  O   UNL A   1      33.436  34.660  29.429  1.00  0.00    -0.246 OA
BRANCH  30  32
ATOM     32  C   UNL A   1      35.583  33.652  29.881  1.00  0.00     0.060 A 
ATOM     33  C   UNL A   1      36.788  33.844  29.185  1.00  0.00     0.016 A 
ATOM     34  C   UNL A   1      35.608  33.017  31.117  1.00  0.00     0.016 A 
ATOM     35  C   UNL A   1      37.969  33.213  29.617  1.00  0.00     0.010 A 
ATOM     36  C   UNL A   1      36.749  32.332  31.482  1.00  0.00     0.010 A 
ATOM     37  C   UNL A   1      37.924  32.357  30.704  1.00  0.00    -0.014 A 
BRANCH  37  38
ATOM     38  C   UNL A   1      39.005  31.463  31.165  1.00  0.00     0.031 A 
ATOM     39  C   UNL A   1      39.161  30.203  30.390  1.00  0.00     0.074 A 
ATOM     40  C   UNL A   1      40.020  31.852  31.990  1.00  0.00     0.049 A 
ATOM     41  N   UNL A   1      40.067  29.320  30.608  1.00  0.00    -0.248 NA
ATOM     42  C   UNL A   1      38.298  29.843  29.267  1.00  0.00     0.031 C 
ATOM     43  C   UNL A   1      41.401  31.363  31.933  1.00  0.00     0.029 A 
ATOM     44  N   UNL A   1      40.122  32.846  32.977  1.00  0.00    -0.354 N 
ATOM     45  C   UNL A   1      40.145  28.510  29.501  1.00  0.00     0.074 A 
ATOM     46  C   UNL A   1      38.970  28.824  28.731  1.00  0.00     0.031 C 
ATOM     47  C   UNL A   1      42.125  31.853  32.953  1.00  0.00     0.029 A 
ATOM     48  C   UNL A   1      41.213  32.567  33.813  1.00  0.00     0.049 A 
ATOM     49  H   UNL A   1      39.519  33.619  33.069  1.00  0.00     0.167 HD
ATOM     50  C   UNL A   1      41.282  27.782  29.318  1.00  0.00     0.034 A 
ATOM     51  C   UNL A   1      41.106  32.450  35.161  1.00  0.00     0.034 A 
ATOM     52  C   UNL A   1      42.226  28.007  30.443  1.00  0.00     0.049 A 
ATOM     53  C   UNL A   1      41.490  31.031  35.480  1.00  0.00     0.074 A 
ATOM     54  C   UNL A   1      43.414  28.711  30.572  1.00  0.00     0.029 A 
ATOM     55  N   UNL A   1      41.814  27.714  31.749  1.00  0.00    -0.354 N 
ATOM     56  N   UNL A   1      41.387  30.074  34.592  1.00  0.00    -0.248 NA
ATOM     57  C   UNL A   1      42.226  30.614  36.667  1.00  0.00     0.031 C 
ATOM     58  C   UNL A   1      43.685  28.873  31.965  1.00  0.00     0.029 A 
ATOM     59  C   UNL A   1      42.666  28.270  32.693  1.00  0.00     0.049 A 
ATOM     60  H   UNL A   1      41.018  27.181  31.970  1.00  0.00     0.167 HD
ATOM     61  C   UNL A   1      42.174  29.033  34.957  1.00  0.00     0.074 A 
ATOM     62  C   UNL A   1      42.611  29.373  36.306  1.00  0.00     0.031 C 
ATOM     63  C   UNL A   1      42.495  28.002  34.123  1.00  0.00     0.034 A 
BRANCH  50  64
ATOM     64  C   UNL A   1      41.667  27.061  28.027  1.00  0.00     0.023 A 
ATOM     65  C   UNL A   1      41.615  27.812  26.831  1.00  0.00     0.012 A 
ATOM     66  C   UNL A   1      42.074  25.710  27.878  1.00  0.00     0.148 A 
ATOM     67  C   UNL A   1      41.877  27.258  25.571  1.00  0.00     0.002 A 
ATOM     68  C   UNL A   1      42.293  25.139  26.616  1.00  0.00     0.091 A 
ATOM     69  F   UNL A   1      42.345  24.969  28.953  1.00  0.00    -0.205 F 
ATOM     70  C   UNL A   1      42.195  25.914  25.460  1.00  0.00     0.022 A 
BRANCH  68  71
ATOM     71  S   UNL A   1      42.675  23.391  26.381  1.00  0.00     0.127 S 
ATOM     72  O   UNL A   1      42.832  23.300  24.927  1.00  0.00    -0.237 OA
ATOM     73  O   UNL A   1      43.920  23.237  27.131  1.00  0.00    -0.237 OA
ATOM     74  O   UNL A   1      41.533  22.649  26.901  1.00  0.00    -0.744 OA
ENDBRANCH  68  71
ENDBRANCH  50  64
BRANCH  51  75
ATOM     75  C   UNL A   1      40.037  33.341  35.698  1.00  0.00     0.023 A 
ATOM     76  C   UNL A   1      38.731  32.775  35.769  1.00  0.00     0.012 A 
ATOM     77  C   UNL A   1      40.360  34.389  36.573  1.00  0.00     0.148 A 
ATOM     78  C   UNL A   1      37.844  33.128  36.791  1.00  0.00     0.002 A 
ATOM     79  C   UNL A   1      39.485  34.708  37.612  1.00  0.00     0.091 A 
ATOM     80  F   UNL A   1      41.547  34.993  36.433  1.00  0.00    -0.205 F 
ATOM     81  C   UNL A   1      38.247  34.052  37.748  1.00  0.00     0.022 A 
BRANCH  79  82
ATOM     82  S   UNL A   1      39.968  35.840  38.921  1.00  0.00     0.127 S 
ATOM     83  O   UNL A   1      40.038  37.109  38.201  1.00  0.00    -0.237 OA
ATOM     84  O   UNL A   1      38.849  35.733  39.859  1.00  0.00    -0.237 OA
ATOM     85  O   UNL A   1      41.227  35.322  39.431  1.00  0.00    -0.744 OA
ENDBRANCH  79  82
ENDBRANCH  51  75
BRANCH  63  86
ATOM     86  C   UNL A   1      42.642  26.599  34.648  1.00  0.00     0.023 A 
ATOM     87  C   UNL A   1      41.579  25.958  35.315  1.00  0.00     0.012 A 
ATOM     88  C   UNL A   1      43.749  25.799  34.279  1.00  0.00     0.148 A 
ATOM     89  C   UNL A   1      41.625  24.606  35.647  1.00  0.00     0.002 A 
ATOM     90  C   UNL A   1      43.729  24.429  34.490  1.00  0.00     0.091 A 
ATOM     91  F   UNL A   1      44.832  26.357  33.721  1.00  0.00    -0.205 F 
ATOM     92  C   UNL A   1      42.688  23.834  35.205  1.00  0.00     0.022 A 
BRANCH  90  93
ATOM     93  S   UNL A   1      44.933  23.351  33.707  1.00  0.00     0.127 S 
ATOM     94  O   UNL A   1      44.592  23.508  32.296  1.00  0.00    -0.237 OA
ATOM     95  O   UNL A   1      46.199  23.972  34.105  1.00  0.00    -0.237 OA
ATOM     96  O   UNL A   1      44.707  22.032  34.280  1.00  0.00    -0.744 OA
ENDBRANCH  90  93
ENDBRANCH  63  86
ENDBRANCH  37  38
ENDBRANCH  30  32
ENDBRANCH  29  30
ENDBRANCH  28  29
ENDBRANCH  27  28
ENDBRANCH   1  27
TORSDOF 20
ENDMDL
MODEL 3
REMARK VINA RESULT:     -11.4      3.845      8.986
REMARK SMILES COc1ccc(NC(=O)[C@H]2[C@@H]3CC[C@@H](C3)[C@@H]2C(=O)OCCOCCOC(=O)c2ccc(-c3c4nc(c(-c5cccc(S(=O)(=O)[O-])c5F)c5ccc([nH]5)c(-c5cccc(S(=O)(=O)[O-])c5F)c5nc(c(-c6cccc(S(=O)(=O)[O-])c6F)c6ccc3[nH]6)C=C5)C=C4)cc2)c(C)c1
REMARK SMILES IDX 22 1 21 2 20 3 19 4 17 5 18 6 16 7 10 8 11 9 12 10 15 11
REMARK SMILES IDX 14 12 13 13 8 14 7 15 9 17 6 18 3 19 4 20 93 21 5 22 91 23
REMARK SMILES IDX 92 24 2 25 1 26 23 27 24 28 25 29 26 30 27 31 28 32 29 33
REMARK SMILES IDX 90 34 30 35 89 36 31 37 32 38 33 39 83 40 34 41 88 42 82 43
REMARK SMILES IDX 84 44 35 45 87 46 81 47 80 48 36 50 68 51 48 52 67 53 49 54
REMARK SMILES IDX 52 55 66 56 85 57 50 58 51 59 65 61 86 62 53 63 37 64 38 65
REMARK SMILES IDX 46 66 39 67 41 68 47 69 40 70 42 71 43 72 44 73 45 74 69 75
REMARK SMILES IDX 70 76 78 77 71 78 73 79 79 80 72 81 74 82 75 83 76 84 77 85
REMARK SMILES IDX 54 86 55 87 63 88 56 89 58 90 64 91 57 92 59 93 60 94 61 95
REMARK SMILES IDX 62 96
REMARK H PARENT 7 16 84 49 52 60
REMARK Flexibility Score: inf
ROOT
ATOM      1  O   UNL A   1      36.200  22.111  24.348  1.00  0.00    -0.374 OA
ENDROOT
BRANCH   1   2
ATOM      2  C   UNL A   1      36.253  23.372  23.716  1.00  0.00     0.202 C 
BRANCH   2   3
ATOM      3  C   UNL A   1      34.836  23.810  23.529  1.00  0.00     0.261 C 
BRANCH   3   4
ATOM      4  O   UNL A   1      34.706  25.120  22.909  1.00  0.00    -0.463 OA
BRANCH   4   5
ATOM      5  C   UNL A   1      33.551  25.632  22.325  1.00  0.00     0.310 C 
ATOM      6  O   UNL A   1      33.169  25.584  21.184  1.00  0.00    -0.252 OA
BRANCH   5   7
ATOM      7  C   UNL A   1      32.698  26.040  23.486  1.00  0.00     0.115 C 
ATOM      8  C   UNL A   1      31.417  26.822  23.518  1.00  0.00     0.096 C 
ATOM      9  C   UNL A   1      31.613  27.763  24.744  1.00  0.00     0.003 C 
ATOM     10  C   UNL A   1      32.684  28.820  24.421  1.00  0.00     0.005 C 
ATOM     11  C   UNL A   1      32.394  26.888  25.722  1.00  0.00     0.009 C 
ATOM     12  C   UNL A   1      33.484  26.568  24.701  1.00  0.00     0.004 C 
ATOM     13  C   UNL A   1      33.968  27.988  24.371  1.00  0.00     0.005 C 
BRANCH   8  14
ATOM     14  C   UNL A   1      30.183  25.898  23.711  1.00  0.00     0.228 C 
ATOM     15  N   UNL A   1      30.114  24.545  23.961  1.00  0.00    -0.326 N 
ATOM     16  H   UNL A   1      29.170  24.306  24.104  1.00  0.00     0.169 HD
ATOM     17  O   UNL A   1      29.069  26.455  23.733  1.00  0.00    -0.274 OA
BRANCH  15  18
ATOM     18  C   UNL A   1      30.908  23.352  24.089  1.00  0.00     0.044 A 
ATOM     19  C   UNL A   1      32.754  21.152  24.413  1.00  0.00     0.119 A 
ATOM     20  C   UNL A   1      32.289  21.501  23.179  1.00  0.00     0.048 A 
ATOM     21  C   UNL A   1      32.188  21.795  25.511  1.00  0.00     0.052 A 
ATOM     22  C   UNL A   1      31.407  22.563  23.050  1.00  0.00     0.030 A 
ATOM     23  C   UNL A   1      31.251  22.873  25.372  1.00  0.00    -0.024 A 
ATOM     24  C   UNL A   1      30.705  23.422  26.665  1.00  0.00     0.047 C 
BRANCH  19  25
ATOM     25  O   UNL A   1      33.710  20.196  24.602  1.00  0.00    -0.497 OA
ATOM     26  C   UNL A   1      33.183  18.907  24.952  1.00  0.00     0.278 C 
ENDBRANCH  19  25
ENDBRANCH  15  18
ENDBRANCH   8  14
ENDBRANCH   5   7
ENDBRANCH   4   5
ENDBRANCH   3   4
ENDBRANCH   2   3
ENDBRANCH   1   2
BRANCH   1  27
ATOM     27  C   UNL A   1      37.312  21.784  25.150  1.00  0.00     0.202 C 
BRANCH  27  28
ATOM     28  C   UNL A   1      37.984  23.005  25.788  1.00  0.00     0.261 C 
BRANCH  28  29
ATOM     29  O   UNL A   1      38.959  22.575  26.761  1.00  0.00    -0.460 OA
BRANCH  29  30
ATOM     30  C   UNL A   1      40.134  23.272  26.763  1.00  0.00     0.338 C 
ATOM     31  O   UNL A   1      41.235  22.746  26.771  1.00  0.00    -0.246 OA
BRANCH  30  32
ATOM     32  C   UNL A   1      39.865  24.720  27.008  1.00  0.00     0.060 A 
ATOM     33  C   UNL A   1      40.445  25.704  26.189  1.00  0.00     0.016 A 
ATOM     34  C   UNL A   1      39.305  25.093  28.223  1.00  0.00     0.016 A 
ATOM     35  C   UNL A   1      40.659  27.005  26.682  1.00  0.00     0.010 A 
ATOM     36  C   UNL A   1      39.599  26.344  28.727  1.00  0.00     0.010 A 
ATOM     37  C   UNL A   1      40.342  27.295  27.999  1.00  0.00    -0.014 A 
BRANCH  37  38
ATOM     38  C   UNL A   1      40.683  28.528  28.735  1.00  0.00     0.031 A 
ATOM     39  C   UNL A   1      39.649  29.597  28.695  1.00  0.00     0.074 A 
ATOM     40  C   UNL A   1      41.675  28.613  29.668  1.00  0.00     0.049 A 
ATOM     41  N   UNL A   1      39.740  30.723  29.306  1.00  0.00    -0.248 NA
ATOM     42  C   UNL A   1      38.392  29.466  27.963  1.00  0.00     0.031 C 
ATOM     43  C   UNL A   1      41.643  29.445  30.875  1.00  0.00     0.029 A 
ATOM     44  N   UNL A   1      42.875  27.909  29.853  1.00  0.00    -0.354 N 
ATOM     45  C   UNL A   1      38.485  31.280  29.358  1.00  0.00     0.074 A 
ATOM     46  C   UNL A   1      37.698  30.502  28.437  1.00  0.00     0.031 C 
ATOM     47  C   UNL A   1      42.817  29.394  31.523  1.00  0.00     0.029 A 
ATOM     48  C   UNL A   1      43.726  28.644  30.691  1.00  0.00     0.049 A 
ATOM     49  H   UNL A   1      43.088  27.034  29.455  1.00  0.00     0.167 HD
ATOM     50  C   UNL A   1      38.250  32.243  30.293  1.00  0.00     0.034 A 
ATOM     51  C   UNL A   1      44.989  28.998  30.342  1.00  0.00     0.034 A 
ATOM     52  C   UNL A   1      39.485  32.523  31.069  1.00  0.00     0.049 A 
ATOM     53  C   UNL A   1      44.997  30.502  30.305  1.00  0.00     0.074 A 
ATOM     54  C   UNL A   1      39.898  32.219  32.357  1.00  0.00     0.029 A 
ATOM     55  N   UNL A   1      40.635  32.948  30.392  1.00  0.00    -0.354 N 
ATOM     56  N   UNL A   1      43.901  31.190  30.112  1.00  0.00    -0.248 NA
ATOM     57  C   UNL A   1      46.119  31.339  30.714  1.00  0.00     0.031 C 
ATOM     58  C   UNL A   1      41.309  32.425  32.432  1.00  0.00     0.029 A 
ATOM     59  C   UNL A   1      41.765  32.856  31.191  1.00  0.00     0.049 A 
ATOM     60  H   UNL A   1      40.641  33.272  29.463  1.00  0.00     0.167 HD
ATOM     61  C   UNL A   1      44.085  32.461  30.547  1.00  0.00     0.074 A 
ATOM     62  C   UNL A   1      45.513  32.538  30.831  1.00  0.00     0.031 C 
ATOM     63  C   UNL A   1      43.065  33.349  30.731  1.00  0.00     0.034 A 
BRANCH  50  64
ATOM     64  C   UNL A   1      36.870  32.765  30.689  1.00  0.00     0.023 A 
ATOM     65  C   UNL A   1      36.314  32.268  31.890  1.00  0.00     0.012 A 
ATOM     66  C   UNL A   1      36.063  33.699  29.989  1.00  0.00     0.148 A 
ATOM     67  C   UNL A   1      35.031  32.611  32.336  1.00  0.00     0.002 A 
ATOM     68  C   UNL A   1      34.761  34.010  30.407  1.00  0.00     0.091 A 
ATOM     69  F   UNL A   1      36.564  34.375  28.954  1.00  0.00    -0.205 F 
ATOM     70  C   UNL A   1      34.243  33.466  31.583  1.00  0.00     0.022 A 
BRANCH  68  71
ATOM     71  S   UNL A   1      33.658  35.086  29.466  1.00  0.00     0.127 S 
ATOM     72  O   UNL A   1      34.543  35.593  28.413  1.00  0.00    -0.237 OA
ATOM     73  O   UNL A   1      32.635  34.154  28.995  1.00  0.00    -0.237 OA
ATOM     74  O   UNL A   1      33.196  36.111  30.393  1.00  0.00    -0.744 OA
ENDBRANCH  68  71
ENDBRANCH  50  64
BRANCH  51  75
ATOM     75  C   UNL A   1      45.613  27.972  29.457  1.00  0.00     0.023 A 
ATOM     76  C   UNL A   1      45.735  26.663  30.008  1.00  0.00     0.012 A 
ATOM     77  C   UNL A   1      45.551  28.107  28.061  1.00  0.00     0.148 A 
ATOM     78  C   UNL A   1      45.625  25.525  29.202  1.00  0.00     0.002 A 
ATOM     79  C   UNL A   1      45.404  26.967  27.270  1.00  0.00     0.091 A 
ATOM     80  F   UNL A   1      45.546  29.340  27.540  1.00  0.00    -0.205 F 
ATOM     81  C   UNL A   1      45.398  25.681  27.840  1.00  0.00     0.022 A 
BRANCH  79  82
ATOM     82  S   UNL A   1      45.039  27.095  25.515  1.00  0.00     0.127 S 
ATOM     83  O   UNL A   1      46.278  27.669  24.998  1.00  0.00    -0.237 OA
ATOM     84  O   UNL A   1      44.812  25.699  25.138  1.00  0.00    -0.237 OA
ATOM     85  O   UNL A   1      43.857  27.938  25.428  1.00  0.00    -0.744 OA
ENDBRANCH  79  82
ENDBRANCH  51  75
BRANCH  63  86
ATOM     86  C   UNL A   1      43.252  34.814  30.438  1.00  0.00     0.023 A 
ATOM     87  C   UNL A   1      43.759  35.691  31.418  1.00  0.00     0.012 A 
ATOM     88  C   UNL A   1      43.161  35.307  29.116  1.00  0.00     0.148 A 
ATOM     89  C   UNL A   1      44.112  37.005  31.120  1.00  0.00     0.002 A 
ATOM     90  C   UNL A   1      43.641  36.568  28.800  1.00  0.00     0.091 A 
ATOM     91  F   UNL A   1      42.608  34.559  28.151  1.00  0.00    -0.205 F 
ATOM     92  C   UNL A   1      44.083  37.433  29.802  1.00  0.00     0.022 A 
BRANCH  90  93
ATOM     93  S   UNL A   1      43.881  37.070  27.092  1.00  0.00     0.127 S 
ATOM     94  O   UNL A   1      44.168  38.494  27.243  1.00  0.00    -0.237 OA
ATOM     95  O   UNL A   1      45.029  36.252  26.694  1.00  0.00    -0.237 OA
ATOM     96  O   UNL A   1      42.640  36.734  26.409  1.00  0.00    -0.744 OA
ENDBRANCH  90  93
ENDBRANCH  63  86
ENDBRANCH  37  38
ENDBRANCH  30  32
ENDBRANCH  29  30
ENDBRANCH  28  29
ENDBRANCH  27  28
ENDBRANCH   1  27
TORSDOF 20
ENDMDL
