MODEL 1
REMARK VINA RESULT:     -11.1      0.000      0.000
REMARK SMILES N#C/C(=C\c1ccc(Oc2ccccc2Cl)c([N+](=O)[O-])c1)C(=O)OCCOCCOC(=O)c1ccc(-c2c3nc(c(-c4cccc(S(=O)(=O)[O-])c4F)c4ccc([nH]4)c(-c4cccc(S(=O)(=O)[O-])c4F)c4nc(c(-c5cccc(S(=O)(=O)[O-])c5F)c5ccc2[nH]5)C=C4)C=C3)cc1
REMARK SMILES IDX 27 1 26 2 25 3 24 4 22 5 23 6 3 7 4 8 2 9 1 10 5 11 6 12
REMARK SMILES IDX 21 13 7 14 17 15 8 16 18 17 19 18 20 19 9 20 10 21 11 22
REMARK SMILES IDX 15 23 12 24 14 25 16 26 13 27 28 28 29 29 30 30 31 31 32 32
REMARK SMILES IDX 33 33 34 34 95 35 35 36 94 37 36 38 37 39 38 40 88 41 39 42
REMARK SMILES IDX 93 43 87 44 89 45 40 46 92 47 86 48 85 49 41 51 73 52 53 53
REMARK SMILES IDX 72 54 54 55 57 56 71 57 90 58 55 59 56 60 70 62 91 63 58 64
REMARK SMILES IDX 42 65 43 66 51 67 44 68 46 69 52 70 45 71 47 72 48 73 49 74
REMARK SMILES IDX 50 75 74 76 75 77 83 78 76 79 78 80 84 81 77 82 79 83 80 84
REMARK SMILES IDX 81 85 82 86 59 87 60 88 68 89 61 90 63 91 69 92 62 93 64 94
REMARK SMILES IDX 65 95 66 96 67 97
REMARK H PARENT 89 50 57 61
REMARK Flexibility Score: inf
ROOT
ATOM      1  O   UNL A   1      36.613  21.577  25.030  1.00  0.00    -0.374 OA
ENDROOT
BRANCH   1   2
ATOM      2  C   UNL A   1      35.689  21.524  26.115  1.00  0.00     0.202 C 
BRANCH   2   3
ATOM      3  C   UNL A   1      34.292  20.959  25.849  1.00  0.00     0.261 C 
BRANCH   3   4
ATOM      4  O   UNL A   1      34.148  20.567  24.475  1.00  0.00    -0.459 OA
BRANCH   4   5
ATOM      5  C   UNL A   1      32.866  20.506  24.050  1.00  0.00     0.348 C 
ATOM      6  O   UNL A   1      32.161  19.507  24.026  1.00  0.00    -0.245 OA
BRANCH   5   7
ATOM      7  C   UNL A   1      32.329  21.847  23.740  1.00  0.00     0.138 C 
ATOM      8  C   UNL A   1      31.248  22.363  24.366  1.00  0.00     0.035 C 
BRANCH   7   9
ATOM      9  C   UNL A   1      33.305  22.737  22.989  1.00  0.00     0.107 C 
ATOM     10  N   UNL A   1      34.115  23.476  22.366  1.00  0.00    -0.192 NA
ENDBRANCH   7   9
BRANCH   8  11
ATOM     11  C   UNL A   1      30.990  23.819  24.435  1.00  0.00    -0.017 A 
ATOM     12  C   UNL A   1      31.084  24.467  25.671  1.00  0.00     0.012 A 
ATOM     13  C   UNL A   1      30.815  24.604  23.292  1.00  0.00     0.098 A 
ATOM     14  C   UNL A   1      31.065  25.869  25.750  1.00  0.00     0.055 A 
ATOM     15  C   UNL A   1      30.898  26.007  23.373  1.00  0.00     0.312 A 
ATOM     16  C   UNL A   1      30.991  26.670  24.600  1.00  0.00     0.204 A 
BRANCH  15  17
ATOM     17  N   UNL A   1      31.054  26.677  22.098  1.00  0.00     0.066 N 
ATOM     18  O   UNL A   1      31.805  26.147  21.267  1.00  0.00    -0.258 OA
ATOM     19  O   UNL A   1      30.367  27.689  21.904  1.00  0.00    -0.258 OA
ENDBRANCH  15  17
BRANCH  16  20
ATOM     20  O   UNL A   1      31.050  28.017  24.889  1.00  0.00    -0.449 OA
BRANCH  20  21
ATOM     21  C   UNL A   1      32.104  28.545  25.590  1.00  0.00     0.146 A 
ATOM     22  C   UNL A   1      31.769  29.417  26.633  1.00  0.00     0.049 A 
ATOM     23  C   UNL A   1      33.449  28.304  25.289  1.00  0.00     0.083 A 
ATOM     24  C   UNL A   1      32.768  29.963  27.438  1.00  0.00     0.004 A 
ATOM     25  C   UNL A   1      34.446  28.837  26.111  1.00  0.00     0.024 A 
ATOM     26  Cl  UNL A   1      33.929  27.348  23.936  1.00  0.00    -0.080 Cl
ATOM     27  C   UNL A   1      34.104  29.654  27.191  1.00  0.00     0.002 A 
ENDBRANCH  20  21
ENDBRANCH  16  20
ENDBRANCH   8  11
ENDBRANCH   5   7
ENDBRANCH   4   5
ENDBRANCH   3   4
ENDBRANCH   2   3
ENDBRANCH   1   2
BRANCH   1  28
ATOM     28  C   UNL A   1      37.781  20.765  25.066  1.00  0.00     0.202 C 
BRANCH  28  29
ATOM     29  C   UNL A   1      38.990  21.213  25.902  1.00  0.00     0.261 C 
BRANCH  29  30
ATOM     30  O   UNL A   1      39.865  20.147  26.296  1.00  0.00    -0.460 OA
BRANCH  30  31
ATOM     31  C   UNL A   1      41.154  20.529  26.471  1.00  0.00     0.338 C 
ATOM     32  O   UNL A   1      42.158  19.905  26.138  1.00  0.00    -0.246 OA
BRANCH  31  33
ATOM     33  C   UNL A   1      41.223  21.913  26.965  1.00  0.00     0.060 A 
ATOM     34  C   UNL A   1      40.871  22.936  26.074  1.00  0.00     0.016 A 
ATOM     35  C   UNL A   1      41.712  22.212  28.237  1.00  0.00     0.016 A 
ATOM     36  C   UNL A   1      41.049  24.268  26.437  1.00  0.00     0.010 A 
ATOM     37  C   UNL A   1      41.903  23.552  28.593  1.00  0.00     0.010 A 
ATOM     38  C   UNL A   1      41.607  24.581  27.682  1.00  0.00    -0.014 A 
BRANCH  38  39
ATOM     39  C   UNL A   1      42.011  25.979  27.966  1.00  0.00     0.031 A 
ATOM     40  C   UNL A   1      43.390  26.433  27.574  1.00  0.00     0.074 A 
ATOM     41  C   UNL A   1      41.156  26.832  28.556  1.00  0.00     0.049 A 
ATOM     42  N   UNL A   1      43.948  27.605  27.726  1.00  0.00    -0.248 NA
ATOM     43  C   UNL A   1      44.256  25.434  26.924  1.00  0.00     0.031 C 
ATOM     44  C   UNL A   1      39.793  26.507  28.975  1.00  0.00     0.029 A 
ATOM     45  N   UNL A   1      41.319  28.144  28.923  1.00  0.00    -0.354 N 
ATOM     46  C   UNL A   1      45.238  27.479  27.224  1.00  0.00     0.074 A 
ATOM     47  C   UNL A   1      45.382  26.115  26.765  1.00  0.00     0.031 C 
ATOM     48  C   UNL A   1      39.251  27.587  29.565  1.00  0.00     0.029 A 
ATOM     49  C   UNL A   1      40.234  28.669  29.582  1.00  0.00     0.049 A 
ATOM     50  H   UNL A   1      42.135  28.660  28.732  1.00  0.00     0.167 HD
ATOM     51  C   UNL A   1      46.207  28.419  27.138  1.00  0.00     0.034 A 
ATOM     52  C   UNL A   1      40.060  29.880  30.149  1.00  0.00     0.034 A 
ATOM     53  C   UNL A   1      46.050  29.783  27.565  1.00  0.00     0.049 A 
ATOM     54  C   UNL A   1      41.166  30.901  30.053  1.00  0.00     0.074 A 
ATOM     55  C   UNL A   1      46.951  30.827  27.456  1.00  0.00     0.029 A 
ATOM     56  N   UNL A   1      44.924  30.289  28.194  1.00  0.00    -0.354 N 
ATOM     57  N   UNL A   1      42.326  30.809  29.449  1.00  0.00    -0.248 NA
ATOM     58  C   UNL A   1      40.925  32.204  30.691  1.00  0.00     0.031 C 
ATOM     59  C   UNL A   1      46.379  31.960  28.043  1.00  0.00     0.029 A 
ATOM     60  C   UNL A   1      45.113  31.626  28.496  1.00  0.00     0.049 A 
ATOM     61  H   UNL A   1      44.110  29.774  28.396  1.00  0.00     0.167 HD
ATOM     62  C   UNL A   1      42.935  32.050  29.599  1.00  0.00     0.074 A 
ATOM     63  C   UNL A   1      42.007  32.883  30.335  1.00  0.00     0.031 C 
ATOM     64  C   UNL A   1      44.156  32.461  29.177  1.00  0.00     0.034 A 
BRANCH  51  65
ATOM     65  C   UNL A   1      47.526  28.015  26.535  1.00  0.00     0.023 A 
ATOM     66  C   UNL A   1      48.603  27.676  27.377  1.00  0.00     0.012 A 
ATOM     67  C   UNL A   1      47.675  27.905  25.139  1.00  0.00     0.148 A 
ATOM     68  C   UNL A   1      49.819  27.257  26.838  1.00  0.00     0.002 A 
ATOM     69  C   UNL A   1      48.877  27.449  24.610  1.00  0.00     0.091 A 
ATOM     70  F   UNL A   1      46.646  28.258  24.356  1.00  0.00    -0.205 F 
ATOM     71  C   UNL A   1      49.952  27.133  25.457  1.00  0.00     0.022 A 
BRANCH  69  72
ATOM     72  S   UNL A   1      49.120  27.186  22.850  1.00  0.00     0.127 S 
ATOM     73  O   UNL A   1      48.360  25.957  22.629  1.00  0.00    -0.237 OA
ATOM     74  O   UNL A   1      48.516  28.387  22.272  1.00  0.00    -0.237 OA
ATOM     75  O   UNL A   1      50.558  27.076  22.655  1.00  0.00    -0.744 OA
ENDBRANCH  69  72
ENDBRANCH  51  65
BRANCH  52  76
ATOM     76  C   UNL A   1      38.773  30.214  30.820  1.00  0.00     0.023 A 
ATOM     77  C   UNL A   1      38.481  29.648  32.076  1.00  0.00     0.012 A 
ATOM     78  C   UNL A   1      37.844  31.092  30.230  1.00  0.00     0.148 A 
ATOM     79  C   UNL A   1      37.273  29.926  32.718  1.00  0.00     0.002 A 
ATOM     80  C   UNL A   1      36.668  31.408  30.900  1.00  0.00     0.091 A 
ATOM     81  F   UNL A   1      38.129  31.603  29.024  1.00  0.00    -0.205 F 
ATOM     82  C   UNL A   1      36.372  30.812  32.135  1.00  0.00     0.022 A 
BRANCH  80  83
ATOM     83  S   UNL A   1      35.517  32.642  30.282  1.00  0.00     0.127 S 
ATOM     84  O   UNL A   1      36.328  33.855  30.321  1.00  0.00    -0.237 OA
ATOM     85  O   UNL A   1      35.222  32.139  28.940  1.00  0.00    -0.237 OA
ATOM     86  O   UNL A   1      34.382  32.604  31.194  1.00  0.00    -0.744 OA
ENDBRANCH  80  83
ENDBRANCH  52  76
BRANCH  64  87
ATOM     87  C   UNL A   1      44.556  33.885  29.464  1.00  0.00     0.023 A 
ATOM     88  C   UNL A   1      45.130  34.212  30.707  1.00  0.00     0.012 A 
ATOM     89  C   UNL A   1      44.440  34.878  28.472  1.00  0.00     0.148 A 
ATOM     90  C   UNL A   1      45.555  35.514  30.970  1.00  0.00     0.002 A 
ATOM     91  C   UNL A   1      44.911  36.162  28.724  1.00  0.00     0.091 A 
ATOM     92  F   UNL A   1      43.875  34.552  27.300  1.00  0.00    -0.205 F 
ATOM     93  C   UNL A   1      45.458  36.484  29.976  1.00  0.00     0.022 A 
BRANCH  91  94
ATOM     94  S   UNL A   1      44.913  37.447  27.468  1.00  0.00     0.127 S 
ATOM     95  O   UNL A   1      45.843  36.899  26.482  1.00  0.00    -0.237 OA
ATOM     96  O   UNL A   1      43.514  37.470  27.042  1.00  0.00    -0.237 OA
ATOM     97  O   UNL A   1      45.356  38.661  28.141  1.00  0.00    -0.744 OA
ENDBRANCH  91  94
ENDBRANCH  64  87
ENDBRANCH  38  39
ENDBRANCH  31  33
ENDBRANCH  30  31
ENDBRANCH  29  30
ENDBRANCH  28  29
ENDBRANCH   1  28
TORSDOF 22
ENDMDL
MODEL 2
REMARK VINA RESULT:     -11.1      2.706      3.430
REMARK SMILES N#C/C(=C\c1ccc(Oc2ccccc2Cl)c([N+](=O)[O-])c1)C(=O)OCCOCCOC(=O)c1ccc(-c2c3nc(c(-c4cccc(S(=O)(=O)[O-])c4F)c4ccc([nH]4)c(-c4cccc(S(=O)(=O)[O-])c4F)c4nc(c(-c5cccc(S(=O)(=O)[O-])c5F)c5ccc2[nH]5)C=C4)C=C3)cc1
REMARK SMILES IDX 27 1 26 2 25 3 24 4 22 5 23 6 3 7 4 8 2 9 1 10 5 11 6 12
REMARK SMILES IDX 21 13 7 14 17 15 8 16 18 17 19 18 20 19 9 20 10 21 11 22
REMARK SMILES IDX 15 23 12 24 14 25 16 26 13 27 28 28 29 29 30 30 31 31 32 32
REMARK SMILES IDX 33 33 34 34 95 35 35 36 94 37 36 38 37 39 38 40 88 41 39 42
REMARK SMILES IDX 93 43 87 44 89 45 40 46 92 47 86 48 85 49 41 51 73 52 53 53
REMARK SMILES IDX 72 54 54 55 57 56 71 57 90 58 55 59 56 60 70 62 91 63 58 64
REMARK SMILES IDX 42 65 43 66 51 67 44 68 46 69 52 70 45 71 47 72 48 73 49 74
REMARK SMILES IDX 50 75 74 76 75 77 83 78 76 79 78 80 84 81 77 82 79 83 80 84
REMARK SMILES IDX 81 85 82 86 59 87 60 88 68 89 61 90 63 91 69 92 62 93 64 94
REMARK SMILES IDX 65 95 66 96 67 97
REMARK H PARENT 89 50 57 61
REMARK Flexibility Score: inf
ROOT
ATOM      1  O   UNL A   1      36.337  19.521  24.715  1.00  0.00    -0.374 OA
ENDROOT
BRANCH   1   2
ATOM      2  C   UNL A   1      36.068  18.124  24.824  1.00  0.00     0.202 C 
BRANCH   2   3
ATOM      3  C   UNL A   1      34.716  17.607  24.328  1.00  0.00     0.261 C 
BRANCH   3   4
ATOM      4  O   UNL A   1      33.633  18.331  24.934  1.00  0.00    -0.459 OA
BRANCH   4   5
ATOM      5  C   UNL A   1      32.769  18.874  24.047  1.00  0.00     0.348 C 
ATOM      6  O   UNL A   1      32.222  18.290  23.123  1.00  0.00    -0.245 OA
BRANCH   5   7
ATOM      7  C   UNL A   1      32.423  20.265  24.405  1.00  0.00     0.138 C 
ATOM      8  C   UNL A   1      32.523  20.741  25.665  1.00  0.00     0.035 C 
BRANCH   7   9
ATOM      9  C   UNL A   1      32.351  21.203  23.211  1.00  0.00     0.107 C 
ATOM     10  N   UNL A   1      32.291  21.981  22.221  1.00  0.00    -0.192 NA
ENDBRANCH   7   9
BRANCH   8  11
ATOM     11  C   UNL A   1      32.653  22.186  25.961  1.00  0.00    -0.017 A 
ATOM     12  C   UNL A   1      33.916  22.783  25.883  1.00  0.00     0.012 A 
ATOM     13  C   UNL A   1      31.545  23.014  26.156  1.00  0.00     0.098 A 
ATOM     14  C   UNL A   1      34.054  24.180  25.939  1.00  0.00     0.055 A 
ATOM     15  C   UNL A   1      31.685  24.414  26.110  1.00  0.00     0.312 A 
ATOM     16  C   UNL A   1      32.939  25.026  26.034  1.00  0.00     0.204 A 
BRANCH  15  17
ATOM     17  N   UNL A   1      30.439  25.141  25.971  1.00  0.00     0.066 N 
ATOM     18  O   UNL A   1      29.567  24.938  26.826  1.00  0.00    -0.258 OA
ATOM     19  O   UNL A   1      30.368  25.968  25.052  1.00  0.00    -0.258 OA
ENDBRANCH  15  17
BRANCH  16  20
ATOM     20  O   UNL A   1      33.285  26.361  26.009  1.00  0.00    -0.449 OA
BRANCH  20  21
ATOM     21  C   UNL A   1      33.463  27.024  24.822  1.00  0.00     0.146 A 
ATOM     22  C   UNL A   1      33.515  26.222  23.676  1.00  0.00     0.049 A 
ATOM     23  C   UNL A   1      33.640  28.407  24.712  1.00  0.00     0.083 A 
ATOM     24  C   UNL A   1      33.639  26.807  22.416  1.00  0.00     0.004 A 
ATOM     25  C   UNL A   1      33.743  28.992  23.447  1.00  0.00     0.024 A 
ATOM     26  Cl  UNL A   1      33.720  29.434  26.096  1.00  0.00    -0.080 Cl
ATOM     27  C   UNL A   1      33.729  28.193  22.300  1.00  0.00     0.002 A 
ENDBRANCH  20  21
ENDBRANCH  16  20
ENDBRANCH   8  11
ENDBRANCH   5   7
ENDBRANCH   4   5
ENDBRANCH   3   4
ENDBRANCH   2   3
ENDBRANCH   1   2
BRANCH   1  28
ATOM     28  C   UNL A   1      37.595  20.027  25.144  1.00  0.00     0.202 C 
BRANCH  28  29
ATOM     29  C   UNL A   1      37.920  21.516  24.948  1.00  0.00     0.261 C 
BRANCH  29  30
ATOM     30  O   UNL A   1      38.124  22.242  26.168  1.00  0.00    -0.460 OA
BRANCH  30  31
ATOM     31  C   UNL A   1      39.413  22.602  26.386  1.00  0.00     0.338 C 
ATOM     32  O   UNL A   1      40.417  21.960  26.090  1.00  0.00    -0.246 OA
BRANCH  31  33
ATOM     33  C   UNL A   1      39.490  23.987  26.876  1.00  0.00     0.060 A 
ATOM     34  C   UNL A   1      39.934  24.968  25.979  1.00  0.00     0.016 A 
ATOM     35  C   UNL A   1      39.227  24.307  28.209  1.00  0.00     0.016 A 
ATOM     36  C   UNL A   1      40.160  26.267  26.422  1.00  0.00     0.010 A 
ATOM     37  C   UNL A   1      39.468  25.611  28.654  1.00  0.00     0.010 A 
ATOM     38  C   UNL A   1      39.970  26.585  27.773  1.00  0.00    -0.014 A 
BRANCH  38  39
ATOM     39  C   UNL A   1      40.435  27.897  28.283  1.00  0.00     0.031 A 
ATOM     40  C   UNL A   1      41.910  28.185  28.315  1.00  0.00     0.074 A 
ATOM     41  C   UNL A   1      39.552  28.820  28.701  1.00  0.00     0.049 A 
ATOM     42  N   UNL A   1      42.533  29.260  28.719  1.00  0.00    -0.248 NA
ATOM     43  C   UNL A   1      42.804  27.120  27.828  1.00  0.00     0.031 C 
ATOM     44  C   UNL A   1      38.099  28.656  28.711  1.00  0.00     0.029 A 
ATOM     45  N   UNL A   1      39.754  30.075  29.219  1.00  0.00    -0.354 N 
ATOM     46  C   UNL A   1      43.888  28.994  28.568  1.00  0.00     0.074 A 
ATOM     47  C   UNL A   1      43.999  27.652  28.039  1.00  0.00     0.031 C 
ATOM     48  C   UNL A   1      37.540  29.762  29.234  1.00  0.00     0.029 A 
ATOM     49  C   UNL A   1      38.595  30.700  29.613  1.00  0.00     0.049 A 
ATOM     50  H   UNL A   1      40.643  30.487  29.300  1.00  0.00     0.167 HD
ATOM     51  C   UNL A   1      44.943  29.799  28.831  1.00  0.00     0.034 A 
ATOM     52  C   UNL A   1      38.410  31.888  30.223  1.00  0.00     0.034 A 
ATOM     53  C   UNL A   1      44.829  31.144  29.326  1.00  0.00     0.049 A 
ATOM     54  C   UNL A   1      39.607  32.756  30.520  1.00  0.00     0.074 A 
ATOM     55  C   UNL A   1      45.837  32.063  29.558  1.00  0.00     0.029 A 
ATOM     56  N   UNL A   1      43.638  31.758  29.677  1.00  0.00    -0.354 N 
ATOM     57  N   UNL A   1      40.870  32.545  30.240  1.00  0.00    -0.248 NA
ATOM     58  C   UNL A   1      39.347  34.039  31.190  1.00  0.00     0.031 C 
ATOM     59  C   UNL A   1      45.256  33.225  30.075  1.00  0.00     0.029 A 
ATOM     60  C   UNL A   1      43.885  33.038  30.143  1.00  0.00     0.049 A 
ATOM     61  H   UNL A   1      42.747  31.345  29.607  1.00  0.00     0.167 HD
ATOM     62  C   UNL A   1      41.550  33.683  30.661  1.00  0.00     0.074 A 
ATOM     63  C   UNL A   1      40.555  34.588  31.199  1.00  0.00     0.031 C 
ATOM     64  C   UNL A   1      42.878  33.951  30.619  1.00  0.00     0.034 A 
BRANCH  51  65
ATOM     65  C   UNL A   1      46.322  29.259  28.565  1.00  0.00     0.023 A 
ATOM     66  C   UNL A   1      46.953  29.530  27.335  1.00  0.00     0.012 A 
ATOM     67  C   UNL A   1      47.018  28.542  29.557  1.00  0.00     0.148 A 
ATOM     68  C   UNL A   1      48.248  29.076  27.086  1.00  0.00     0.002 A 
ATOM     69  C   UNL A   1      48.323  28.126  29.317  1.00  0.00     0.091 A 
ATOM     70  F   UNL A   1      46.390  28.272  30.710  1.00  0.00    -0.205 F 
ATOM     71  C   UNL A   1      48.935  28.385  28.081  1.00  0.00     0.022 A 
BRANCH  69  72
ATOM     72  S   UNL A   1      49.315  27.294  30.562  1.00  0.00     0.127 S 
ATOM     73  O   UNL A   1      50.668  27.497  30.044  1.00  0.00    -0.237 OA
ATOM     74  O   UNL A   1      49.004  28.061  31.768  1.00  0.00    -0.237 OA
ATOM     75  O   UNL A   1      48.855  25.913  30.585  1.00  0.00    -0.744 OA
ENDBRANCH  69  72
ENDBRANCH  51  65
BRANCH  52  76
ATOM     76  C   UNL A   1      37.034  32.350  30.557  1.00  0.00     0.023 A 
ATOM     77  C   UNL A   1      36.545  32.182  31.866  1.00  0.00     0.012 A 
ATOM     78  C   UNL A   1      36.212  32.962  29.592  1.00  0.00     0.148 A 
ATOM     79  C   UNL A   1      35.252  32.585  32.201  1.00  0.00     0.002 A 
ATOM     80  C   UNL A   1      34.945  33.412  29.945  1.00  0.00     0.091 A 
ATOM     81  F   UNL A   1      36.684  33.094  28.344  1.00  0.00    -0.205 F 
ATOM     82  C   UNL A   1      34.456  33.209  31.245  1.00  0.00     0.022 A 
BRANCH  80  83
ATOM     83  S   UNL A   1      33.909  34.344  28.810  1.00  0.00     0.127 S 
ATOM     84  O   UNL A   1      32.788  34.719  29.666  1.00  0.00    -0.237 OA
ATOM     85  O   UNL A   1      34.791  35.447  28.428  1.00  0.00    -0.237 OA
ATOM     86  O   UNL A   1      33.602  33.424  27.723  1.00  0.00    -0.744 OA
ENDBRANCH  80  83
ENDBRANCH  52  76
BRANCH  64  87
ATOM     87  C   UNL A   1      43.342  35.289  31.133  1.00  0.00     0.023 A 
ATOM     88  C   UNL A   1      43.734  35.422  32.479  1.00  0.00     0.012 A 
ATOM     89  C   UNL A   1      43.467  36.390  30.264  1.00  0.00     0.148 A 
ATOM     90  C   UNL A   1      44.215  36.640  32.959  1.00  0.00     0.002 A 
ATOM     91  C   UNL A   1      43.994  37.587  30.738  1.00  0.00     0.091 A 
ATOM     92  F   UNL A   1      43.072  36.249  28.990  1.00  0.00    -0.205 F 
ATOM     93  C   UNL A   1      44.358  37.717  32.087  1.00  0.00     0.022 A 
BRANCH  91  94
ATOM     94  S   UNL A   1      44.301  38.992  29.662  1.00  0.00     0.127 S 
ATOM     95  O   UNL A   1      44.776  39.996  30.612  1.00  0.00    -0.237 OA
ATOM     96  O   UNL A   1      45.327  38.474  28.756  1.00  0.00    -0.237 OA
ATOM     97  O   UNL A   1      43.027  39.289  29.020  1.00  0.00    -0.744 OA
ENDBRANCH  91  94
ENDBRANCH  64  87
ENDBRANCH  38  39
ENDBRANCH  31  33
ENDBRANCH  30  31
ENDBRANCH  29  30
ENDBRANCH  28  29
ENDBRANCH   1  28
TORSDOF 22
ENDMDL
MODEL 3
REMARK VINA RESULT:     -10.8      2.456      8.016
REMARK SMILES N#C/C(=C\c1ccc(Oc2ccccc2Cl)c([N+](=O)[O-])c1)C(=O)OCCOCCOC(=O)c1ccc(-c2c3nc(c(-c4cccc(S(=O)(=O)[O-])c4F)c4ccc([nH]4)c(-c4cccc(S(=O)(=O)[O-])c4F)c4nc(c(-c5cccc(S(=O)(=O)[O-])c5F)c5ccc2[nH]5)C=C4)C=C3)cc1
REMARK SMILES IDX 27 1 26 2 25 3 24 4 22 5 23 6 3 7 4 8 2 9 1 10 5 11 6 12
REMARK SMILES IDX 21 13 7 14 17 15 8 16 18 17 19 18 20 19 9 20 10 21 11 22
REMARK SMILES IDX 15 23 12 24 14 25 16 26 13 27 28 28 29 29 30 30 31 31 32 32
REMARK SMILES IDX 33 33 34 34 95 35 35 36 94 37 36 38 37 39 38 40 88 41 39 42
REMARK SMILES IDX 93 43 87 44 89 45 40 46 92 47 86 48 85 49 41 51 73 52 53 53
REMARK SMILES IDX 72 54 54 55 57 56 71 57 90 58 55 59 56 60 70 62 91 63 58 64
REMARK SMILES IDX 42 65 43 66 51 67 44 68 46 69 52 70 45 71 47 72 48 73 49 74
REMARK SMILES IDX 50 75 74 76 75 77 83 78 76 79 78 80 84 81 77 82 79 83 80 84
REMARK SMILES IDX 81 85 82 86 59 87 60 88 68 89 61 90 63 91 69 92 62 93 64 94
REMARK SMILES IDX 65 95 66 96 67 97
REMARK H PARENT 89 50 57 61
REMARK Flexibility Score: inf
ROOT
ATOM      1  O   UNL A   1      37.618  20.869  25.226  1.00  0.00    -0.374 OA
ENDROOT
BRANCH   1   2
ATOM      2  C   UNL A   1      36.501  20.184  24.662  1.00  0.00     0.202 C 
BRANCH   2   3
ATOM      3  C   UNL A   1      35.097  20.621  25.084  1.00  0.00     0.261 C 
BRANCH   3   4
ATOM      4  O   UNL A   1      35.076  22.011  25.446  1.00  0.00    -0.459 OA
BRANCH   4   5
ATOM      5  C   UNL A   1      33.999  22.375  26.178  1.00  0.00     0.348 C 
ATOM      6  O   UNL A   1      33.441  21.694  27.027  1.00  0.00    -0.245 OA
BRANCH   5   7
ATOM      7  C   UNL A   1      33.633  23.787  25.946  1.00  0.00     0.138 C 
ATOM      8  C   UNL A   1      34.248  24.558  25.022  1.00  0.00     0.035 C 
BRANCH   7   9
ATOM      9  C   UNL A   1      32.276  24.168  26.514  1.00  0.00     0.107 C 
ATOM     10  N   UNL A   1      31.150  24.484  26.986  1.00  0.00    -0.192 NA
ENDBRANCH   7   9
BRANCH   8  11
ATOM     11  C   UNL A   1      33.613  25.764  24.444  1.00  0.00    -0.017 A 
ATOM     12  C   UNL A   1      33.021  25.680  23.180  1.00  0.00     0.012 A 
ATOM     13  C   UNL A   1      33.436  26.942  25.176  1.00  0.00     0.098 A 
ATOM     14  C   UNL A   1      32.222  26.726  22.690  1.00  0.00     0.055 A 
ATOM     15  C   UNL A   1      32.554  27.939  24.719  1.00  0.00     0.312 A 
ATOM     16  C   UNL A   1      31.956  27.870  23.457  1.00  0.00     0.204 A 
BRANCH  15  17
ATOM     17  N   UNL A   1      32.192  28.927  25.714  1.00  0.00     0.066 N 
ATOM     18  O   UNL A   1      32.593  30.085  25.536  1.00  0.00    -0.258 OA
ATOM     19  O   UNL A   1      31.444  28.557  26.630  1.00  0.00    -0.258 OA
ENDBRANCH  15  17
BRANCH  16  20
ATOM     20  O   UNL A   1      31.101  28.746  22.822  1.00  0.00    -0.449 OA
BRANCH  20  21
ATOM     21  C   UNL A   1      29.742  28.640  22.968  1.00  0.00     0.146 A 
ATOM     22  C   UNL A   1      29.278  27.435  23.511  1.00  0.00     0.049 A 
ATOM     23  C   UNL A   1      28.828  29.619  22.567  1.00  0.00     0.083 A 
ATOM     24  C   UNL A   1      27.916  27.252  23.750  1.00  0.00     0.004 A 
ATOM     25  C   UNL A   1      27.466  29.441  22.826  1.00  0.00     0.024 A 
ATOM     26  Cl  UNL A   1      29.325  31.066  21.770  1.00  0.00    -0.080 Cl
ATOM     27  C   UNL A   1      27.014  28.264  23.428  1.00  0.00     0.002 A 
ENDBRANCH  20  21
ENDBRANCH  16  20
ENDBRANCH   8  11
ENDBRANCH   5   7
ENDBRANCH   4   5
ENDBRANCH   3   4
ENDBRANCH   2   3
ENDBRANCH   1   2
BRANCH   1  28
ATOM     28  C   UNL A   1      38.776  20.130  25.598  1.00  0.00     0.202 C 
BRANCH  28  29
ATOM     29  C   UNL A   1      39.982  20.864  26.205  1.00  0.00     0.261 C 
BRANCH  29  30
ATOM     30  O   UNL A   1      41.002  19.999  26.723  1.00  0.00    -0.460 OA
BRANCH  30  31
ATOM     31  C   UNL A   1      42.150  20.008  26.002  1.00  0.00     0.338 C 
ATOM     32  O   UNL A   1      42.488  19.196  25.145  1.00  0.00    -0.246 OA
BRANCH  31  33
ATOM     33  C   UNL A   1      42.902  21.250  26.240  1.00  0.00     0.060 A 
ATOM     34  C   UNL A   1      43.121  21.629  27.571  1.00  0.00     0.016 A 
ATOM     35  C   UNL A   1      43.300  22.077  25.188  1.00  0.00     0.016 A 
ATOM     36  C   UNL A   1      43.702  22.860  27.858  1.00  0.00     0.010 A 
ATOM     37  C   UNL A   1      43.872  23.320  25.481  1.00  0.00     0.010 A 
ATOM     38  C   UNL A   1      44.040  23.731  26.815  1.00  0.00    -0.014 A 
BRANCH  38  39
ATOM     39  C   UNL A   1      44.435  25.124  27.131  1.00  0.00     0.031 A 
ATOM     40  C   UNL A   1      43.399  26.070  27.675  1.00  0.00     0.074 A 
ATOM     41  C   UNL A   1      45.701  25.535  26.945  1.00  0.00     0.049 A 
ATOM     42  N   UNL A   1      43.526  27.324  28.017  1.00  0.00    -0.248 NA
ATOM     43  C   UNL A   1      42.041  25.531  27.856  1.00  0.00     0.031 C 
ATOM     44  C   UNL A   1      46.791  24.708  26.431  1.00  0.00     0.029 A 
ATOM     45  N   UNL A   1      46.278  26.764  27.150  1.00  0.00    -0.354 N 
ATOM     46  C   UNL A   1      42.263  27.737  28.422  1.00  0.00     0.074 A 
ATOM     47  C   UNL A   1      41.380  26.599  28.280  1.00  0.00     0.031 C 
ATOM     48  C   UNL A   1      47.902  25.460  26.337  1.00  0.00     0.029 A 
ATOM     49  C   UNL A   1      47.596  26.824  26.766  1.00  0.00     0.049 A 
ATOM     50  H   UNL A   1      45.793  27.528  27.536  1.00  0.00     0.167 HD
ATOM     51  C   UNL A   1      41.876  28.947  28.887  1.00  0.00     0.034 A 
ATOM     52  C   UNL A   1      48.452  27.865  26.748  1.00  0.00     0.034 A 
ATOM     53  C   UNL A   1      42.762  30.067  29.059  1.00  0.00     0.049 A 
ATOM     54  C   UNL A   1      47.987  29.207  27.255  1.00  0.00     0.074 A 
ATOM     55  C   UNL A   1      42.479  31.314  29.587  1.00  0.00     0.029 A 
ATOM     56  N   UNL A   1      44.098  30.080  28.695  1.00  0.00    -0.354 N 
ATOM     57  N   UNL A   1      46.826  29.541  27.766  1.00  0.00    -0.248 NA
ATOM     58  C   UNL A   1      48.960  30.308  27.209  1.00  0.00     0.031 C 
ATOM     59  C   UNL A   1      43.639  32.090  29.518  1.00  0.00     0.029 A 
ATOM     60  C   UNL A   1      44.651  31.319  28.969  1.00  0.00     0.049 A 
ATOM     61  H   UNL A   1      44.584  29.320  28.300  1.00  0.00     0.167 HD
ATOM     62  C   UNL A   1      46.943  30.875  28.140  1.00  0.00     0.074 A 
ATOM     63  C   UNL A   1      48.293  31.284  27.812  1.00  0.00     0.031 C 
ATOM     64  C   UNL A   1      46.014  31.694  28.693  1.00  0.00     0.034 A 
BRANCH  51  65
ATOM     65  C   UNL A   1      40.431  29.124  29.269  1.00  0.00     0.023 A 
ATOM     66  C   UNL A   1      39.473  29.388  28.271  1.00  0.00     0.012 A 
ATOM     67  C   UNL A   1      40.015  28.962  30.605  1.00  0.00     0.148 A 
ATOM     68  C   UNL A   1      38.123  29.511  28.600  1.00  0.00     0.002 A 
ATOM     69  C   UNL A   1      38.664  29.047  30.919  1.00  0.00     0.091 A 
ATOM     70  F   UNL A   1      40.947  28.738  31.542  1.00  0.00    -0.205 F 
ATOM     71  C   UNL A   1      37.718  29.330  29.920  1.00  0.00     0.022 A 
BRANCH  69  72
ATOM     72  S   UNL A   1      38.038  28.756  32.577  1.00  0.00     0.127 S 
ATOM     73  O   UNL A   1      36.665  29.247  32.464  1.00  0.00    -0.237 OA
ATOM     74  O   UNL A   1      38.156  27.303  32.701  1.00  0.00    -0.237 OA
ATOM     75  O   UNL A   1      38.901  29.515  33.471  1.00  0.00    -0.744 OA
ENDBRANCH  69  72
ENDBRANCH  51  65
BRANCH  52  76
ATOM     76  C   UNL A   1      49.851  27.675  26.274  1.00  0.00     0.023 A 
ATOM     77  C   UNL A   1      50.872  27.425  27.211  1.00  0.00     0.012 A 
ATOM     78  C   UNL A   1      50.175  27.729  24.905  1.00  0.00     0.148 A 
ATOM     79  C   UNL A   1      52.195  27.265  26.797  1.00  0.00     0.002 A 
ATOM     80  C   UNL A   1      51.485  27.513  24.494  1.00  0.00     0.091 A 
ATOM     81  F   UNL A   1      49.194  27.989  24.029  1.00  0.00    -0.205 F 
ATOM     82  C   UNL A   1      52.499  27.298  25.439  1.00  0.00     0.022 A 
BRANCH  80  83
ATOM     83  S   UNL A   1      51.938  27.406  22.759  1.00  0.00     0.127 S 
ATOM     84  O   UNL A   1      50.735  26.827  22.169  1.00  0.00    -0.237 OA
ATOM     85  O   UNL A   1      52.178  28.809  22.419  1.00  0.00    -0.237 OA
ATOM     86  O   UNL A   1      53.132  26.572  22.721  1.00  0.00    -0.744 OA
ENDBRANCH  80  83
ENDBRANCH  52  76
BRANCH  64  87
ATOM     87  C   UNL A   1      46.425  33.106  29.017  1.00  0.00     0.023 A 
ATOM     88  C   UNL A   1      46.967  33.403  30.282  1.00  0.00     0.012 A 
ATOM     89  C   UNL A   1      46.351  34.119  28.041  1.00  0.00     0.148 A 
ATOM     90  C   UNL A   1      47.402  34.693  30.581  1.00  0.00     0.002 A 
ATOM     91  C   UNL A   1      46.832  35.392  28.330  1.00  0.00     0.091 A 
ATOM     92  F   UNL A   1      45.815  33.822  26.847  1.00  0.00    -0.205 F 
ATOM     93  C   UNL A   1      47.346  35.683  29.603  1.00  0.00     0.022 A 
BRANCH  91  94
ATOM     94  S   UNL A   1      46.887  36.699  27.099  1.00  0.00     0.127 S 
ATOM     95  O   UNL A   1      47.531  37.780  27.841  1.00  0.00    -0.237 OA
ATOM     96  O   UNL A   1      47.712  36.103  26.048  1.00  0.00    -0.237 OA
ATOM     97  O   UNL A   1      45.504  36.941  26.712  1.00  0.00    -0.744 OA
ENDBRANCH  91  94
ENDBRANCH  64  87
ENDBRANCH  38  39
ENDBRANCH  31  33
ENDBRANCH  30  31
ENDBRANCH  29  30
ENDBRANCH  28  29
ENDBRANCH   1  28
TORSDOF 22
ENDMDL
