MODEL 1
REMARK VINA RESULT:     -10.7      0.000      0.000
REMARK SMILES C[C@@H]1C(=O)NC(=O)CN1C(=O)NC1(CC(=O)OCCOCCOC(=O)c2ccc(-c3c4nc(c(-c5cccc(S(=O)(=O)[O-])c5F)c5ccc([nH]5)c(-c5cccc(S(=O)(=O)[O-])c5F)c5nc(c(-c6cccc(S(=O)(=O)[O-])c6F)c6ccc3[nH]6)C=C5)C=C4)cc2)CCC1
REMARK SMILES IDX 20 1 19 2 18 3 17 4 15 5 16 6 14 7 13 8 89 9 91 10 90 11
REMARK SMILES IDX 12 12 10 13 11 14 9 16 1 17 2 18 3 19 4 20 5 21 8 22 6 23
REMARK SMILES IDX 7 25 21 26 22 27 23 28 24 29 25 30 26 31 27 32 88 33 28 34
REMARK SMILES IDX 87 35 29 36 30 37 31 38 81 39 32 40 86 41 80 42 82 43 33 44
REMARK SMILES IDX 85 45 79 46 78 47 34 49 66 50 46 51 65 52 47 53 50 54 64 55
REMARK SMILES IDX 83 56 48 57 49 58 63 60 84 61 51 62 35 63 36 64 44 65 37 66
REMARK SMILES IDX 39 67 45 68 38 69 40 70 41 71 42 72 43 73 67 74 68 75 76 76
REMARK SMILES IDX 69 77 71 78 77 79 70 80 72 81 73 82 74 83 75 84 52 85 53 86
REMARK SMILES IDX 61 87 54 88 56 89 62 90 55 91 57 92 58 93 59 94 60 95
REMARK H PARENT 12 15 5 24 82 48 50 59
REMARK Flexibility Score: inf
ROOT
ATOM      1  O   UNL A   1      37.472  20.744  24.728  1.00  0.00    -0.374 OA
ENDROOT
BRANCH   1   2
ATOM      2  C   UNL A   1      36.072  21.016  24.680  1.00  0.00     0.202 C 
BRANCH   2   3
ATOM      3  C   UNL A   1      35.574  22.116  25.621  1.00  0.00     0.261 C 
BRANCH   3   4
ATOM      4  O   UNL A   1      34.588  21.638  26.555  1.00  0.00    -0.463 OA
BRANCH   4   5
ATOM      5  C   UNL A   1      33.515  21.020  26.005  1.00  0.00     0.308 C 
ATOM      6  O   UNL A   1      33.272  19.821  26.083  1.00  0.00    -0.252 OA
BRANCH   5   7
ATOM      7  C   UNL A   1      32.686  21.944  25.165  1.00  0.00     0.151 C 
BRANCH   7   8
ATOM      8  C   UNL A   1      32.076  23.246  25.751  1.00  0.00     0.052 C 
ATOM      9  C   UNL A   1      31.726  22.869  27.212  1.00  0.00     0.029 C 
ATOM     10  C   UNL A   1      30.582  23.542  25.483  1.00  0.00     0.029 C 
ATOM     11  C   UNL A   1      30.233  22.864  26.822  1.00  0.00     0.005 C 
BRANCH   8  12
ATOM     12  N   UNL A   1      33.013  24.391  25.559  1.00  0.00    -0.332 N 
ATOM     13  C   UNL A   1      33.239  25.474  24.787  1.00  0.00     0.318 C 
ATOM     14  O   UNL A   1      34.387  25.919  24.926  1.00  0.00    -0.249 OA
ATOM     15  H   UNL A   1      33.722  24.335  26.239  1.00  0.00     0.165 HD
BRANCH  13  16
ATOM     16  N   UNL A   1      32.357  26.108  23.957  1.00  0.00    -0.304 N 
ATOM     17  C   UNL A   1      30.629  27.887  23.464  1.00  0.00     0.042 C 
ATOM     18  C   UNL A   1      32.056  27.539  23.895  1.00  0.00     0.174 C 
ATOM     19  C   UNL A   1      33.045  28.155  22.891  1.00  0.00     0.249 C 
ATOM     20  O   UNL A   1      33.348  29.346  22.891  1.00  0.00    -0.272 OA
ATOM     21  N   UNL A   1      33.421  27.341  21.842  1.00  0.00    -0.293 N 
ATOM     22  C   UNL A   1      32.089  25.430  22.676  1.00  0.00     0.222 C 
ATOM     23  C   UNL A   1      32.971  26.060  21.591  1.00  0.00     0.246 C 
ATOM     24  H   UNL A   1      34.078  27.712  21.207  1.00  0.00     0.173 HD
ATOM     25  O   UNL A   1      33.149  25.549  20.487  1.00  0.00    -0.273 OA
ENDBRANCH  13  16
ENDBRANCH   8  12
ENDBRANCH   7   8
ENDBRANCH   5   7
ENDBRANCH   4   5
ENDBRANCH   3   4
ENDBRANCH   2   3
ENDBRANCH   1   2
BRANCH   1  26
ATOM     26  C   UNL A   1      37.847  19.388  24.984  1.00  0.00     0.202 C 
BRANCH  26  27
ATOM     27  C   UNL A   1      39.175  19.199  25.720  1.00  0.00     0.261 C 
BRANCH  27  28
ATOM     28  O   UNL A   1      39.831  20.465  25.922  1.00  0.00    -0.460 OA
BRANCH  28  29
ATOM     29  C   UNL A   1      40.754  20.475  26.907  1.00  0.00     0.338 C 
ATOM     30  O   UNL A   1      41.431  19.524  27.291  1.00  0.00    -0.246 OA
BRANCH  29  31
ATOM     31  C   UNL A   1      41.002  21.852  27.369  1.00  0.00     0.060 A 
ATOM     32  C   UNL A   1      40.444  22.886  26.607  1.00  0.00     0.016 A 
ATOM     33  C   UNL A   1      41.803  22.141  28.477  1.00  0.00     0.016 A 
ATOM     34  C   UNL A   1      40.751  24.211  26.900  1.00  0.00     0.010 A 
ATOM     35  C   UNL A   1      42.112  23.476  28.769  1.00  0.00     0.010 A 
ATOM     36  C   UNL A   1      41.626  24.511  27.950  1.00  0.00    -0.014 A 
BRANCH  36  37
ATOM     37  C   UNL A   1      42.137  25.897  28.078  1.00  0.00     0.031 A 
ATOM     38  C   UNL A   1      41.246  26.955  28.674  1.00  0.00     0.074 A 
ATOM     39  C   UNL A   1      43.397  26.199  27.714  1.00  0.00     0.049 A 
ATOM     40  N   UNL A   1      41.510  28.208  28.934  1.00  0.00    -0.248 NA
ATOM     41  C   UNL A   1      39.875  26.545  29.026  1.00  0.00     0.031 C 
ATOM     42  C   UNL A   1      44.350  25.262  27.121  1.00  0.00     0.029 A 
ATOM     43  N   UNL A   1      44.086  27.383  27.782  1.00  0.00    -0.354 N 
ATOM     44  C   UNL A   1      40.337  28.743  29.453  1.00  0.00     0.074 A 
ATOM     45  C   UNL A   1      39.354  27.683  29.461  1.00  0.00     0.031 C 
ATOM     46  C   UNL A   1      45.494  25.915  26.856  1.00  0.00     0.029 A 
ATOM     47  C   UNL A   1      45.352  27.315  27.249  1.00  0.00     0.049 A 
ATOM     48  H   UNL A   1      43.709  28.204  28.175  1.00  0.00     0.167 HD
ATOM     49  C   UNL A   1      40.105  30.000  29.902  1.00  0.00     0.034 A 
ATOM     50  C   UNL A   1      46.282  28.276  27.087  1.00  0.00     0.034 A 
ATOM     51  C   UNL A   1      41.095  31.043  29.921  1.00  0.00     0.049 A 
ATOM     52  C   UNL A   1      45.998  29.664  27.599  1.00  0.00     0.074 A 
ATOM     53  C   UNL A   1      40.976  32.331  30.414  1.00  0.00     0.029 A 
ATOM     54  N   UNL A   1      42.380  30.925  29.417  1.00  0.00    -0.354 N 
ATOM     55  N   UNL A   1      44.933  30.116  28.217  1.00  0.00    -0.248 NA
ATOM     56  C   UNL A   1      47.060  30.667  27.428  1.00  0.00     0.031 C 
ATOM     57  C   UNL A   1      42.182  33.000  30.182  1.00  0.00     0.029 A 
ATOM     58  C   UNL A   1      43.061  32.120  29.569  1.00  0.00     0.049 A 
ATOM     59  H   UNL A   1      42.753  30.110  29.009  1.00  0.00     0.167 HD
ATOM     60  C   UNL A   1      45.207  31.442  28.534  1.00  0.00     0.074 A 
ATOM     61  C   UNL A   1      46.550  31.712  28.065  1.00  0.00     0.031 C 
ATOM     62  C   UNL A   1      44.415  32.359  29.142  1.00  0.00     0.034 A 
BRANCH  49  63
ATOM     63  C   UNL A   1      38.734  30.314  30.439  1.00  0.00     0.023 A 
ATOM     64  C   UNL A   1      38.443  30.073  31.796  1.00  0.00     0.012 A 
ATOM     65  C   UNL A   1      37.761  30.917  29.618  1.00  0.00     0.148 A 
ATOM     66  C   UNL A   1      37.197  30.406  32.324  1.00  0.00     0.002 A 
ATOM     67  C   UNL A   1      36.535  31.283  30.160  1.00  0.00     0.091 A 
ATOM     68  F   UNL A   1      38.051  31.115  28.324  1.00  0.00    -0.205 F 
ATOM     69  C   UNL A   1      36.247  31.021  31.510  1.00  0.00     0.022 A 
BRANCH  67  70
ATOM     70  S   UNL A   1      35.275  32.146  29.214  1.00  0.00     0.127 S 
ATOM     71  O   UNL A   1      34.823  31.097  28.301  1.00  0.00    -0.237 OA
ATOM     72  O   UNL A   1      34.309  32.511  30.250  1.00  0.00    -0.237 OA
ATOM     73  O   UNL A   1      35.947  33.273  28.583  1.00  0.00    -0.744 OA
ENDBRANCH  67  70
ENDBRANCH  49  63
BRANCH  50  74
ATOM     74  C   UNL A   1      47.582  27.951  26.437  1.00  0.00     0.023 A 
ATOM     75  C   UNL A   1      48.711  27.663  27.228  1.00  0.00     0.012 A 
ATOM     76  C   UNL A   1      47.701  27.912  25.033  1.00  0.00     0.148 A 
ATOM     77  C   UNL A   1      49.940  27.373  26.634  1.00  0.00     0.002 A 
ATOM     78  C   UNL A   1      48.913  27.565  24.449  1.00  0.00     0.091 A 
ATOM     79  F   UNL A   1      46.622  28.211  24.296  1.00  0.00    -0.205 F 
ATOM     80  C   UNL A   1      50.039  27.313  25.247  1.00  0.00     0.022 A 
BRANCH  78  81
ATOM     81  S   UNL A   1      49.085  27.329  22.677  1.00  0.00     0.127 S 
ATOM     82  O   UNL A   1      50.531  27.192  22.530  1.00  0.00    -0.237 OA
ATOM     83  O   UNL A   1      48.323  26.099  22.458  1.00  0.00    -0.237 OA
ATOM     84  O   UNL A   1      48.490  28.513  22.069  1.00  0.00    -0.744 OA
ENDBRANCH  78  81
ENDBRANCH  50  74
BRANCH  62  85
ATOM     85  C   UNL A   1      44.982  33.737  29.361  1.00  0.00     0.023 A 
ATOM     86  C   UNL A   1      45.669  34.027  30.557  1.00  0.00     0.012 A 
ATOM     87  C   UNL A   1      44.895  34.722  28.358  1.00  0.00     0.148 A 
ATOM     88  C   UNL A   1      46.227  35.288  30.766  1.00  0.00     0.002 A 
ATOM     89  C   UNL A   1      45.496  35.959  28.553  1.00  0.00     0.091 A 
ATOM     90  F   UNL A   1      44.222  34.434  27.234  1.00  0.00    -0.205 F 
ATOM     91  C   UNL A   1      46.151  36.249  29.760  1.00  0.00     0.022 A 
BRANCH  89  92
ATOM     92  S   UNL A   1      45.530  37.222  27.274  1.00  0.00     0.127 S 
ATOM     93  O   UNL A   1      44.106  37.406  27.000  1.00  0.00    -0.237 OA
ATOM     94  O   UNL A   1      46.169  38.345  27.961  1.00  0.00    -0.237 OA
ATOM     95  O   UNL A   1      46.313  36.661  26.181  1.00  0.00    -0.744 OA
ENDBRANCH  89  92
ENDBRANCH  62  85
ENDBRANCH  36  37
ENDBRANCH  29  31
ENDBRANCH  28  29
ENDBRANCH  27  28
ENDBRANCH  26  27
ENDBRANCH   1  26
TORSDOF 20
ENDMDL
MODEL 2
REMARK VINA RESULT:     -10.3      1.221      7.607
REMARK SMILES C[C@@H]1C(=O)NC(=O)CN1C(=O)NC1(CC(=O)OCCOCCOC(=O)c2ccc(-c3c4nc(c(-c5cccc(S(=O)(=O)[O-])c5F)c5ccc([nH]5)c(-c5cccc(S(=O)(=O)[O-])c5F)c5nc(c(-c6cccc(S(=O)(=O)[O-])c6F)c6ccc3[nH]6)C=C5)C=C4)cc2)CCC1
REMARK SMILES IDX 20 1 19 2 18 3 17 4 15 5 16 6 14 7 13 8 89 9 91 10 90 11
REMARK SMILES IDX 12 12 10 13 11 14 9 16 1 17 2 18 3 19 4 20 5 21 8 22 6 23
REMARK SMILES IDX 7 25 21 26 22 27 23 28 24 29 25 30 26 31 27 32 88 33 28 34
REMARK SMILES IDX 87 35 29 36 30 37 31 38 81 39 32 40 86 41 80 42 82 43 33 44
REMARK SMILES IDX 85 45 79 46 78 47 34 49 66 50 46 51 65 52 47 53 50 54 64 55
REMARK SMILES IDX 83 56 48 57 49 58 63 60 84 61 51 62 35 63 36 64 44 65 37 66
REMARK SMILES IDX 39 67 45 68 38 69 40 70 41 71 42 72 43 73 67 74 68 75 76 76
REMARK SMILES IDX 69 77 71 78 77 79 70 80 72 81 73 82 74 83 75 84 52 85 53 86
REMARK SMILES IDX 61 87 54 88 56 89 62 90 55 91 57 92 58 93 59 94 60 95
REMARK H PARENT 12 15 5 24 82 48 50 59
REMARK Flexibility Score: inf
ROOT
ATOM      1  O   UNL A   1      38.406  20.626  25.373  1.00  0.00    -0.374 OA
ENDROOT
BRANCH   1   2
ATOM      2  C   UNL A   1      37.218  20.890  24.627  1.00  0.00     0.202 C 
BRANCH   2   3
ATOM      3  C   UNL A   1      36.027  21.412  25.434  1.00  0.00     0.261 C 
BRANCH   3   4
ATOM      4  O   UNL A   1      36.263  22.723  25.980  1.00  0.00    -0.463 OA
BRANCH   4   5
ATOM      5  C   UNL A   1      35.236  23.599  25.856  1.00  0.00     0.308 C 
ATOM      6  O   UNL A   1      35.345  24.775  25.531  1.00  0.00    -0.252 OA
BRANCH   5   7
ATOM      7  C   UNL A   1      33.924  23.012  26.280  1.00  0.00     0.151 C 
BRANCH   7   8
ATOM      8  C   UNL A   1      32.667  23.092  25.371  1.00  0.00     0.052 C 
ATOM      9  C   UNL A   1      32.004  21.701  25.532  1.00  0.00     0.029 C 
ATOM     10  C   UNL A   1      32.836  22.822  23.858  1.00  0.00     0.029 C 
ATOM     11  C   UNL A   1      32.473  21.345  24.105  1.00  0.00     0.005 C 
BRANCH   8  12
ATOM     12  N   UNL A   1      31.838  24.277  25.734  1.00  0.00    -0.332 N 
ATOM     13  C   UNL A   1      31.764  25.617  25.593  1.00  0.00     0.318 C 
ATOM     14  O   UNL A   1      30.965  26.130  26.392  1.00  0.00    -0.249 OA
ATOM     15  H   UNL A   1      31.070  23.973  26.269  1.00  0.00     0.165 HD
BRANCH  13  16
ATOM     16  N   UNL A   1      32.412  26.399  24.680  1.00  0.00    -0.304 N 
ATOM     17  C   UNL A   1      33.311  26.857  22.361  1.00  0.00     0.042 C 
ATOM     18  C   UNL A   1      32.108  26.554  23.257  1.00  0.00     0.174 C 
ATOM     19  C   UNL A   1      31.098  27.709  23.144  1.00  0.00     0.249 C 
ATOM     20  O   UNL A   1      30.338  27.845  22.188  1.00  0.00    -0.272 OA
ATOM     21  N   UNL A   1      31.232  28.717  24.077  1.00  0.00    -0.293 N 
ATOM     22  C   UNL A   1      33.104  27.580  25.229  1.00  0.00     0.222 C 
ATOM     23  C   UNL A   1      32.195  28.804  25.062  1.00  0.00     0.246 C 
ATOM     24  H   UNL A   1      30.573  29.449  24.035  1.00  0.00     0.173 HD
ATOM     25  O   UNL A   1      32.392  29.872  25.640  1.00  0.00    -0.273 OA
ENDBRANCH  13  16
ENDBRANCH   8  12
ENDBRANCH   7   8
ENDBRANCH   5   7
ENDBRANCH   4   5
ENDBRANCH   3   4
ENDBRANCH   2   3
ENDBRANCH   1   2
BRANCH   1  26
ATOM     26  C   UNL A   1      38.859  19.270  25.387  1.00  0.00     0.202 C 
BRANCH  26  27
ATOM     27  C   UNL A   1      40.312  19.065  25.820  1.00  0.00     0.261 C 
BRANCH  27  28
ATOM     28  O   UNL A   1      40.712  20.080  26.760  1.00  0.00    -0.460 OA
BRANCH  28  29
ATOM     29  C   UNL A   1      41.846  20.738  26.436  1.00  0.00     0.338 C 
ATOM     30  O   UNL A   1      42.722  20.358  25.664  1.00  0.00    -0.246 OA
BRANCH  29  31
ATOM     31  C   UNL A   1      41.830  22.101  26.997  1.00  0.00     0.060 A 
ATOM     32  C   UNL A   1      41.499  23.143  26.122  1.00  0.00     0.016 A 
ATOM     33  C   UNL A   1      42.184  22.375  28.321  1.00  0.00     0.016 A 
ATOM     34  C   UNL A   1      41.601  24.465  26.541  1.00  0.00     0.010 A 
ATOM     35  C   UNL A   1      42.287  23.707  28.741  1.00  0.00     0.010 A 
ATOM     36  C   UNL A   1      42.044  24.756  27.837  1.00  0.00    -0.014 A 
BRANCH  36  37
ATOM     37  C   UNL A   1      42.389  26.158  28.174  1.00  0.00     0.031 A 
ATOM     38  C   UNL A   1      43.795  26.643  27.944  1.00  0.00     0.074 A 
ATOM     39  C   UNL A   1      41.447  27.003  28.632  1.00  0.00     0.049 A 
ATOM     40  N   UNL A   1      44.295  27.839  28.111  1.00  0.00    -0.248 NA
ATOM     41  C   UNL A   1      44.768  25.648  27.459  1.00  0.00     0.031 C 
ATOM     42  C   UNL A   1      40.054  26.647  28.901  1.00  0.00     0.029 A 
ATOM     43  N   UNL A   1      41.525  28.332  28.964  1.00  0.00    -0.354 N 
ATOM     44  C   UNL A   1      45.641  27.737  27.779  1.00  0.00     0.074 A 
ATOM     45  C   UNL A   1      45.885  26.360  27.412  1.00  0.00     0.031 C 
ATOM     46  C   UNL A   1      39.413  27.728  29.379  1.00  0.00     0.029 A 
ATOM     47  C   UNL A   1      40.351  28.845  29.462  1.00  0.00     0.049 A 
ATOM     48  H   UNL A   1      42.345  28.867  28.855  1.00  0.00     0.167 HD
ATOM     49  C   UNL A   1      46.585  28.708  27.762  1.00  0.00     0.034 A 
ATOM     50  C   UNL A   1      40.071  30.073  29.941  1.00  0.00     0.034 A 
ATOM     51  C   UNL A   1      46.331  30.084  28.096  1.00  0.00     0.049 A 
ATOM     52  C   UNL A   1      41.139  31.135  29.906  1.00  0.00     0.074 A 
ATOM     53  C   UNL A   1      47.207  31.154  28.049  1.00  0.00     0.029 A 
ATOM     54  N   UNL A   1      45.120  30.577  28.552  1.00  0.00    -0.354 N 
ATOM     55  N   UNL A   1      42.369  31.056  29.455  1.00  0.00    -0.248 NA
ATOM     56  C   UNL A   1      40.771  32.467  30.409  1.00  0.00     0.031 C 
ATOM     57  C   UNL A   1      46.530  32.292  28.503  1.00  0.00     0.029 A 
ATOM     58  C   UNL A   1      45.225  31.933  28.806  1.00  0.00     0.049 A 
ATOM     59  H   UNL A   1      44.303  30.041  28.676  1.00  0.00     0.167 HD
ATOM     60  C   UNL A   1      42.910  32.330  29.592  1.00  0.00     0.074 A 
ATOM     61  C   UNL A   1      41.864  33.169  30.141  1.00  0.00     0.031 C 
ATOM     62  C   UNL A   1      44.161  32.765  29.306  1.00  0.00     0.034 A 
BRANCH  49  63
ATOM     63  C   UNL A   1      47.979  28.328  27.339  1.00  0.00     0.023 A 
ATOM     64  C   UNL A   1      48.979  28.140  28.314  1.00  0.00     0.012 A 
ATOM     65  C   UNL A   1      48.279  28.085  25.984  1.00  0.00     0.148 A 
ATOM     66  C   UNL A   1      50.262  27.737  27.946  1.00  0.00     0.002 A 
ATOM     67  C   UNL A   1      49.548  27.645  25.629  1.00  0.00     0.091 A 
ATOM     68  F   UNL A   1      47.320  28.293  25.071  1.00  0.00    -0.205 F 
ATOM     69  C   UNL A   1      50.543  27.479  26.606  1.00  0.00     0.022 A 
BRANCH  67  70
ATOM     70  S   UNL A   1      49.988  27.214  23.941  1.00  0.00     0.127 S 
ATOM     71  O   UNL A   1      50.135  28.535  23.330  1.00  0.00    -0.237 OA
ATOM     72  O   UNL A   1      51.243  26.485  24.127  1.00  0.00    -0.237 OA
ATOM     73  O   UNL A   1      48.886  26.411  23.431  1.00  0.00    -0.744 OA
ENDBRANCH  67  70
ENDBRANCH  49  63
BRANCH  50  74
ATOM     74  C   UNL A   1      38.710  30.374  30.467  1.00  0.00     0.023 A 
ATOM     75  C   UNL A   1      38.383  30.051  31.798  1.00  0.00     0.012 A 
ATOM     76  C   UNL A   1      37.741  30.994  29.654  1.00  0.00     0.148 A 
ATOM     77  C   UNL A   1      37.107  30.311  32.300  1.00  0.00     0.002 A 
ATOM     78  C   UNL A   1      36.491  31.304  30.178  1.00  0.00     0.091 A 
ATOM     79  F   UNL A   1      38.062  31.274  28.383  1.00  0.00    -0.205 F 
ATOM     80  C   UNL A   1      36.165  30.947  31.495  1.00  0.00     0.022 A 
BRANCH  78  81
ATOM     81  S   UNL A   1      35.275  32.246  29.251  1.00  0.00     0.127 S 
ATOM     82  O   UNL A   1      34.774  31.248  28.311  1.00  0.00    -0.237 OA
ATOM     83  O   UNL A   1      34.331  32.638  30.298  1.00  0.00    -0.237 OA
ATOM     84  O   UNL A   1      36.011  33.361  28.667  1.00  0.00    -0.744 OA
ENDBRANCH  78  81
ENDBRANCH  50  74
BRANCH  62  85
ATOM     85  C   UNL A   1      44.470  34.218  29.556  1.00  0.00     0.023 A 
ATOM     86  C   UNL A   1      44.934  34.625  30.822  1.00  0.00     0.012 A 
ATOM     87  C   UNL A   1      44.366  35.166  28.520  1.00  0.00     0.148 A 
ATOM     88  C   UNL A   1      45.255  35.960  31.064  1.00  0.00     0.002 A 
ATOM     89  C   UNL A   1      44.734  36.486  28.754  1.00  0.00     0.091 A 
ATOM     90  F   UNL A   1      43.906  34.764  27.327  1.00  0.00    -0.205 F 
ATOM     91  C   UNL A   1      45.166  36.888  30.028  1.00  0.00     0.022 A 
BRANCH  89  92
ATOM     92  S   UNL A   1      44.742  37.725  27.453  1.00  0.00     0.127 S 
ATOM     93  O   UNL A   1      45.129  38.927  28.189  1.00  0.00    -0.237 OA
ATOM     94  O   UNL A   1      45.766  37.213  26.541  1.00  0.00    -0.237 OA
ATOM     95  O   UNL A   1      43.394  37.732  26.901  1.00  0.00    -0.744 OA
ENDBRANCH  89  92
ENDBRANCH  62  85
ENDBRANCH  36  37
ENDBRANCH  29  31
ENDBRANCH  28  29
ENDBRANCH  27  28
ENDBRANCH  26  27
ENDBRANCH   1  26
TORSDOF 20
ENDMDL
MODEL 3
REMARK VINA RESULT:     -10.1      2.683      7.886
REMARK SMILES C[C@@H]1C(=O)NC(=O)CN1C(=O)NC1(CC(=O)OCCOCCOC(=O)c2ccc(-c3c4nc(c(-c5cccc(S(=O)(=O)[O-])c5F)c5ccc([nH]5)c(-c5cccc(S(=O)(=O)[O-])c5F)c5nc(c(-c6cccc(S(=O)(=O)[O-])c6F)c6ccc3[nH]6)C=C5)C=C4)cc2)CCC1
REMARK SMILES IDX 20 1 19 2 18 3 17 4 15 5 16 6 14 7 13 8 89 9 91 10 90 11
REMARK SMILES IDX 12 12 10 13 11 14 9 16 1 17 2 18 3 19 4 20 5 21 8 22 6 23
REMARK SMILES IDX 7 25 21 26 22 27 23 28 24 29 25 30 26 31 27 32 88 33 28 34
REMARK SMILES IDX 87 35 29 36 30 37 31 38 81 39 32 40 86 41 80 42 82 43 33 44
REMARK SMILES IDX 85 45 79 46 78 47 34 49 66 50 46 51 65 52 47 53 50 54 64 55
REMARK SMILES IDX 83 56 48 57 49 58 63 60 84 61 51 62 35 63 36 64 44 65 37 66
REMARK SMILES IDX 39 67 45 68 38 69 40 70 41 71 42 72 43 73 67 74 68 75 76 76
REMARK SMILES IDX 69 77 71 78 77 79 70 80 72 81 73 82 74 83 75 84 52 85 53 86
REMARK SMILES IDX 61 87 54 88 56 89 62 90 55 91 57 92 58 93 59 94 60 95
REMARK H PARENT 12 15 5 24 82 48 50 59
REMARK Flexibility Score: inf
ROOT
ATOM      1  O   UNL A   1      39.133  22.967  26.916  1.00  0.00    -0.374 OA
ENDROOT
BRANCH   1   2
ATOM      2  C   UNL A   1      38.500  24.050  26.236  1.00  0.00     0.202 C 
BRANCH   2   3
ATOM      3  C   UNL A   1      37.306  23.678  25.355  1.00  0.00     0.261 C 
BRANCH   3   4
ATOM      4  O   UNL A   1      36.052  23.769  26.056  1.00  0.00    -0.463 OA
BRANCH   4   5
ATOM      5  C   UNL A   1      35.016  24.266  25.336  1.00  0.00     0.308 C 
ATOM      6  O   UNL A   1      34.314  25.214  25.668  1.00  0.00    -0.252 OA
BRANCH   5   7
ATOM      7  C   UNL A   1      34.723  23.452  24.112  1.00  0.00     0.151 C 
BRANCH   7   8
ATOM      8  C   UNL A   1      33.600  23.855  23.119  1.00  0.00     0.052 C 
ATOM      9  C   UNL A   1      32.293  23.538  23.888  1.00  0.00     0.029 C 
ATOM     10  C   UNL A   1      33.187  22.840  22.027  1.00  0.00     0.029 C 
ATOM     11  C   UNL A   1      32.076  22.323  22.960  1.00  0.00     0.005 C 
BRANCH   8  12
ATOM     12  N   UNL A   1      33.787  25.263  22.665  1.00  0.00    -0.332 N 
ATOM     13  C   UNL A   1      33.200  26.477  22.667  1.00  0.00     0.318 C 
ATOM     14  O   UNL A   1      33.719  27.252  21.849  1.00  0.00    -0.249 OA
ATOM     15  H   UNL A   1      34.649  25.329  22.194  1.00  0.00     0.165 HD
BRANCH  13  16
ATOM     16  N   UNL A   1      32.183  26.913  23.469  1.00  0.00    -0.304 N 
ATOM     17  C   UNL A   1      31.142  27.336  25.734  1.00  0.00     0.042 C 
ATOM     18  C   UNL A   1      32.290  27.600  24.757  1.00  0.00     0.174 C 
ATOM     19  C   UNL A   1      32.348  29.106  24.451  1.00  0.00     0.249 C 
ATOM     20  O   UNL A   1      32.832  29.931  25.224  1.00  0.00    -0.272 OA
ATOM     21  N   UNL A   1      31.633  29.523  23.347  1.00  0.00    -0.293 N 
ATOM     22  C   UNL A   1      30.917  27.223  22.780  1.00  0.00     0.222 C 
ATOM     23  C   UNL A   1      30.852  28.734  22.526  1.00  0.00     0.246 C 
ATOM     24  H   UNL A   1      31.686  30.481  23.121  1.00  0.00     0.173 HD
ATOM     25  O   UNL A   1      30.042  29.253  21.760  1.00  0.00    -0.273 OA
ENDBRANCH  13  16
ENDBRANCH   8  12
ENDBRANCH   7   8
ENDBRANCH   5   7
ENDBRANCH   4   5
ENDBRANCH   3   4
ENDBRANCH   2   3
ENDBRANCH   1   2
BRANCH   1  26
ATOM     26  C   UNL A   1      39.330  21.770  26.158  1.00  0.00     0.202 C 
BRANCH  26  27
ATOM     27  C   UNL A   1      40.709  21.121  26.298  1.00  0.00     0.261 C 
BRANCH  27  28
ATOM     28  O   UNL A   1      41.686  21.825  25.508  1.00  0.00    -0.460 OA
BRANCH  28  29
ATOM     29  C   UNL A   1      42.795  22.200  26.181  1.00  0.00     0.338 C 
ATOM     30  O   UNL A   1      43.893  21.651  26.153  1.00  0.00    -0.246 OA
BRANCH  29  31
ATOM     31  C   UNL A   1      42.584  23.501  26.839  1.00  0.00     0.060 A 
ATOM     32  C   UNL A   1      42.327  24.599  26.007  1.00  0.00     0.016 A 
ATOM     33  C   UNL A   1      42.691  23.672  28.222  1.00  0.00     0.016 A 
ATOM     34  C   UNL A   1      42.258  25.879  26.544  1.00  0.00     0.010 A 
ATOM     35  C   UNL A   1      42.622  24.963  28.761  1.00  0.00     0.010 A 
ATOM     36  C   UNL A   1      42.455  26.075  27.916  1.00  0.00    -0.014 A 
BRANCH  36  37
ATOM     37  C   UNL A   1      42.633  27.458  28.420  1.00  0.00     0.031 A 
ATOM     38  C   UNL A   1      44.007  28.071  28.409  1.00  0.00     0.074 A 
ATOM     39  C   UNL A   1      41.573  28.176  28.836  1.00  0.00     0.049 A 
ATOM     40  N   UNL A   1      44.376  29.280  28.745  1.00  0.00    -0.248 NA
ATOM     41  C   UNL A   1      45.114  27.210  27.958  1.00  0.00     0.031 C 
ATOM     42  C   UNL A   1      40.196  27.688  28.898  1.00  0.00     0.029 A 
ATOM     43  N   UNL A   1      41.494  29.466  29.296  1.00  0.00    -0.354 N 
ATOM     44  C   UNL A   1      45.755  29.317  28.572  1.00  0.00     0.074 A 
ATOM     45  C   UNL A   1      46.161  28.008  28.113  1.00  0.00     0.031 C 
ATOM     46  C   UNL A   1      39.411  28.661  29.392  1.00  0.00     0.029 A 
ATOM     47  C   UNL A   1      40.230  29.834  29.691  1.00  0.00     0.049 A 
ATOM     48  H   UNL A   1      42.270  30.072  29.337  1.00  0.00     0.167 HD
ATOM     49  C   UNL A   1      46.604  30.355  28.760  1.00  0.00     0.034 A 
ATOM     50  C   UNL A   1      39.789  30.981  30.244  1.00  0.00     0.034 A 
ATOM     51  C   UNL A   1      46.192  31.666  29.186  1.00  0.00     0.049 A 
ATOM     52  C   UNL A   1      40.755  32.120  30.437  1.00  0.00     0.074 A 
ATOM     53  C   UNL A   1      46.968  32.800  29.344  1.00  0.00     0.029 A 
ATOM     54  N   UNL A   1      44.898  32.015  29.534  1.00  0.00    -0.354 N 
ATOM     55  N   UNL A   1      42.030  32.183  30.135  1.00  0.00    -0.248 NA
ATOM     56  C   UNL A   1      40.215  33.361  31.012  1.00  0.00     0.031 C 
ATOM     57  C   UNL A   1      46.145  33.829  29.815  1.00  0.00     0.029 A 
ATOM     58  C   UNL A   1      44.852  33.342  29.923  1.00  0.00     0.049 A 
ATOM     59  H   UNL A   1      44.124  31.407  29.507  1.00  0.00     0.167 HD
ATOM     60  C   UNL A   1      42.436  33.475  30.453  1.00  0.00     0.074 A 
ATOM     61  C   UNL A   1      41.264  34.169  30.945  1.00  0.00     0.031 C 
ATOM     62  C   UNL A   1      43.668  34.033  30.363  1.00  0.00     0.034 A 
BRANCH  49  63
ATOM     63  C   UNL A   1      48.066  30.130  28.477  1.00  0.00     0.023 A 
ATOM     64  C   UNL A   1      48.594  30.468  27.215  1.00  0.00     0.012 A 
ATOM     65  C   UNL A   1      48.928  29.654  29.484  1.00  0.00     0.148 A 
ATOM     66  C   UNL A   1      49.954  30.315  26.952  1.00  0.00     0.002 A 
ATOM     67  C   UNL A   1      50.289  29.542  29.227  1.00  0.00     0.091 A 
ATOM     68  F   UNL A   1      48.401  29.316  30.669  1.00  0.00    -0.205 F 
ATOM     69  C   UNL A   1      50.803  29.863  27.960  1.00  0.00     0.022 A 
BRANCH  67  70
ATOM     70  S   UNL A   1      51.475  29.042  30.481  1.00  0.00     0.127 S 
ATOM     71  O   UNL A   1      51.065  27.662  30.738  1.00  0.00    -0.237 OA
ATOM     72  O   UNL A   1      52.748  29.178  29.773  1.00  0.00    -0.237 OA
ATOM     73  O   UNL A   1      51.295  29.962  31.595  1.00  0.00    -0.744 OA
ENDBRANCH  67  70
ENDBRANCH  49  63
BRANCH  50  74
ATOM     74  C   UNL A   1      38.355  31.120  30.625  1.00  0.00     0.023 A 
ATOM     75  C   UNL A   1      37.911  30.648  31.875  1.00  0.00     0.012 A 
ATOM     76  C   UNL A   1      37.431  31.732  29.755  1.00  0.00     0.148 A 
ATOM     77  C   UNL A   1      36.568  30.757  32.239  1.00  0.00     0.002 A 
ATOM     78  C   UNL A   1      36.107  31.889  30.149  1.00  0.00     0.091 A 
ATOM     79  F   UNL A   1      37.866  32.154  28.559  1.00  0.00    -0.205 F 
ATOM     80  C   UNL A   1      35.669  31.386  31.383  1.00  0.00     0.022 A 
BRANCH  78  81
ATOM     81  S   UNL A   1      34.922  32.811  29.163  1.00  0.00     0.127 S 
ATOM     82  O   UNL A   1      34.446  31.792  28.233  1.00  0.00    -0.237 OA
ATOM     83  O   UNL A   1      33.949  33.231  30.171  1.00  0.00    -0.237 OA
ATOM     84  O   UNL A   1      35.679  33.909  28.574  1.00  0.00    -0.744 OA
ENDBRANCH  78  81
ENDBRANCH  50  74
BRANCH  62  85
ATOM     85  C   UNL A   1      43.816  35.472  30.782  1.00  0.00     0.023 A 
ATOM     86  C   UNL A   1      44.215  35.779  32.097  1.00  0.00     0.012 A 
ATOM     87  C   UNL A   1      43.625  36.516  29.855  1.00  0.00     0.148 A 
ATOM     88  C   UNL A   1      44.387  37.105  32.495  1.00  0.00     0.002 A 
ATOM     89  C   UNL A   1      43.846  37.832  30.245  1.00  0.00     0.091 A 
ATOM     90  F   UNL A   1      43.228  36.206  28.613  1.00  0.00    -0.205 F 
ATOM     91  C   UNL A   1      44.214  38.129  31.567  1.00  0.00     0.022 A 
BRANCH  89  92
ATOM     92  S   UNL A   1      43.740  39.205  29.090  1.00  0.00     0.127 S 
ATOM     93  O   UNL A   1      44.088  40.339  29.945  1.00  0.00    -0.237 OA
ATOM     94  O   UNL A   1      44.757  38.856  28.097  1.00  0.00    -0.237 OA
ATOM     95  O   UNL A   1      42.375  39.195  28.584  1.00  0.00    -0.744 OA
ENDBRANCH  89  92
ENDBRANCH  62  85
ENDBRANCH  36  37
ENDBRANCH  29  31
ENDBRANCH  28  29
ENDBRANCH  27  28
ENDBRANCH  26  27
ENDBRANCH   1  26
TORSDOF 20
ENDMDL
