MODEL 1
REMARK VINA RESULT:     -11.1      0.000      0.000
REMARK SMILES O=C(CC1(NC(=O)c2cc(Cl)ccc2Cl)CCC1)OCCOCCOC(=O)c1ccc(-c2c3nc(c(-c4cccc(S(=O)(=O)[O-])c4F)c4ccc([nH]4)c(-c4cccc(S(=O)(=O)[O-])c4F)c4nc(c(-c5cccc(S(=O)(=O)[O-])c5F)c5ccc2[nH]5)C=C4)C=C3)cc1
REMARK SMILES IDX 22 1 21 2 20 3 19 4 2 5 1 6 3 7 4 8 16 9 18 10 17 11 5 12
REMARK SMILES IDX 6 13 7 15 8 16 9 17 14 18 10 19 13 20 15 21 11 22 12 23
REMARK SMILES IDX 23 24 24 25 25 26 26 27 27 28 28 29 29 30 90 31 30 32 89 33
REMARK SMILES IDX 31 34 32 35 33 36 83 37 34 38 88 39 82 40 84 41 35 42 87 43
REMARK SMILES IDX 81 44 80 45 36 47 68 48 48 49 67 50 49 51 52 52 66 53 85 54
REMARK SMILES IDX 50 55 51 56 65 58 86 59 53 60 37 61 38 62 46 63 39 64 41 65
REMARK SMILES IDX 47 66 40 67 42 68 43 69 44 70 45 71 69 72 70 73 78 74 71 75
REMARK SMILES IDX 73 76 79 77 72 78 74 79 75 80 76 81 77 82 54 83 55 84 63 85
REMARK SMILES IDX 56 86 58 87 64 88 57 89 59 90 60 91 61 92 62 93
REMARK H PARENT 5 14 84 46 52 57
REMARK Flexibility Score: inf
ROOT
ATOM      1  O   UNL A   1      31.217  27.471  25.484  1.00  0.00    -0.374 OA
ENDROOT
BRANCH   1   2
ATOM      2  C   UNL A   1      31.052  27.938  24.153  1.00  0.00     0.202 C 
BRANCH   2   3
ATOM      3  C   UNL A   1      30.403  26.953  23.189  1.00  0.00     0.261 C 
BRANCH   3   4
ATOM      4  O   UNL A   1      31.229  25.877  22.719  1.00  0.00    -0.463 OA
BRANCH   4   5
ATOM      5  C   UNL A   1      32.504  25.918  22.296  1.00  0.00     0.308 C 
ATOM      6  O   UNL A   1      32.723  26.147  21.104  1.00  0.00    -0.252 OA
BRANCH   5   7
ATOM      7  C   UNL A   1      33.662  25.567  23.189  1.00  0.00     0.151 C 
BRANCH   7   8
ATOM      8  C   UNL A   1      33.692  24.306  24.044  1.00  0.00     0.051 C 
ATOM      9  C   UNL A   1      34.577  23.158  23.444  1.00  0.00     0.029 C 
ATOM     10  C   UNL A   1      34.691  24.335  25.254  1.00  0.00     0.029 C 
ATOM     11  C   UNL A   1      35.498  23.192  24.663  1.00  0.00     0.005 C 
BRANCH   8  12
ATOM     12  N   UNL A   1      32.371  23.732  24.466  1.00  0.00    -0.346 N 
ATOM     13  C   UNL A   1      31.855  22.537  24.943  1.00  0.00     0.253 C 
ATOM     14  H   UNL A   1      31.658  24.404  24.378  1.00  0.00     0.164 HD
ATOM     15  O   UNL A   1      30.809  22.649  25.588  1.00  0.00    -0.269 OA
BRANCH  13  16
ATOM     16  C   UNL A   1      32.413  21.180  24.715  1.00  0.00     0.059 A 
ATOM     17  C   UNL A   1      32.234  20.516  23.498  1.00  0.00     0.036 A 
ATOM     18  C   UNL A   1      33.164  20.536  25.723  1.00  0.00     0.053 A 
ATOM     19  C   UNL A   1      32.623  19.179  23.359  1.00  0.00     0.041 A 
ATOM     20  C   UNL A   1      33.567  19.200  25.565  1.00  0.00     0.023 A 
ATOM     21  Cl  UNL A   1      33.679  21.307  27.188  1.00  0.00    -0.083 Cl
ATOM     22  Cl  UNL A   1      32.268  18.339  21.900  1.00  0.00    -0.084 Cl
ATOM     23  C   UNL A   1      33.265  18.509  24.395  1.00  0.00     0.022 A 
ENDBRANCH  13  16
ENDBRANCH   8  12
ENDBRANCH   7   8
ENDBRANCH   5   7
ENDBRANCH   4   5
ENDBRANCH   3   4
ENDBRANCH   2   3
ENDBRANCH   1   2
BRANCH   1  24
ATOM     24  C   UNL A   1      31.668  28.459  26.416  1.00  0.00     0.202 C 
BRANCH  24  25
ATOM     25  C   UNL A   1      31.880  29.796  25.718  1.00  0.00     0.261 C 
BRANCH  25  26
ATOM     26  O   UNL A   1      33.195  30.270  26.007  1.00  0.00    -0.460 OA
BRANCH  26  27
ATOM     27  C   UNL A   1      33.282  31.317  26.861  1.00  0.00     0.338 C 
ATOM     28  O   UNL A   1      32.431  32.148  27.111  1.00  0.00    -0.246 OA
BRANCH  27  29
ATOM     29  C   UNL A   1      34.540  31.155  27.603  1.00  0.00     0.060 A 
ATOM     30  C   UNL A   1      35.361  32.273  27.822  1.00  0.00     0.016 A 
ATOM     31  C   UNL A   1      34.846  29.911  28.159  1.00  0.00     0.016 A 
ATOM     32  C   UNL A   1      36.501  32.138  28.609  1.00  0.00     0.010 A 
ATOM     33  C   UNL A   1      35.968  29.783  28.953  1.00  0.00     0.010 A 
ATOM     34  C   UNL A   1      36.808  30.888  29.159  1.00  0.00    -0.014 A 
BRANCH  34  35
ATOM     35  C   UNL A   1      38.074  30.643  29.866  1.00  0.00     0.031 A 
ATOM     36  C   UNL A   1      39.046  29.692  29.237  1.00  0.00     0.074 A 
ATOM     37  C   UNL A   1      38.252  31.150  31.098  1.00  0.00     0.049 A 
ATOM     38  N   UNL A   1      40.129  29.170  29.736  1.00  0.00    -0.248 NA
ATOM     39  C   UNL A   1      38.727  29.238  27.869  1.00  0.00     0.031 C 
ATOM     40  C   UNL A   1      37.314  32.037  31.789  1.00  0.00     0.029 A 
ATOM     41  N   UNL A   1      39.253  30.945  32.006  1.00  0.00    -0.354 N 
ATOM     42  C   UNL A   1      40.601  28.296  28.764  1.00  0.00     0.074 A 
ATOM     43  C   UNL A   1      39.677  28.339  27.656  1.00  0.00     0.031 C 
ATOM     44  C   UNL A   1      37.772  32.276  33.029  1.00  0.00     0.029 A 
ATOM     45  C   UNL A   1      39.013  31.533  33.225  1.00  0.00     0.049 A 
ATOM     46  H   UNL A   1      40.067  30.427  31.805  1.00  0.00     0.167 HD
ATOM     47  C   UNL A   1      41.718  27.535  28.798  1.00  0.00     0.034 A 
ATOM     48  C   UNL A   1      39.713  31.448  34.371  1.00  0.00     0.034 A 
ATOM     49  C   UNL A   1      42.622  27.528  29.915  1.00  0.00     0.049 A 
ATOM     50  C   UNL A   1      40.970  30.620  34.370  1.00  0.00     0.074 A 
ATOM     51  C   UNL A   1      43.822  26.858  30.051  1.00  0.00     0.029 A 
ATOM     52  N   UNL A   1      42.409  28.223  31.097  1.00  0.00    -0.354 N 
ATOM     53  N   UNL A   1      41.482  29.899  33.399  1.00  0.00    -0.248 NA
ATOM     54  C   UNL A   1      41.764  30.619  35.604  1.00  0.00     0.031 C 
ATOM     55  C   UNL A   1      44.322  27.128  31.330  1.00  0.00     0.029 A 
ATOM     56  C   UNL A   1      43.452  27.996  31.974  1.00  0.00     0.049 A 
ATOM     57  H   UNL A   1      41.630  28.795  31.284  1.00  0.00     0.167 HD
ATOM     58  C   UNL A   1      42.677  29.391  33.889  1.00  0.00     0.074 A 
ATOM     59  C   UNL A   1      42.820  29.904  35.238  1.00  0.00     0.031 C 
ATOM     60  C   UNL A   1      43.574  28.565  33.293  1.00  0.00     0.034 A 
BRANCH  47  61
ATOM     61  C   UNL A   1      42.028  26.686  27.594  1.00  0.00     0.023 A 
ATOM     62  C   UNL A   1      42.650  27.267  26.469  1.00  0.00     0.012 A 
ATOM     63  C   UNL A   1      41.732  25.309  27.582  1.00  0.00     0.148 A 
ATOM     64  C   UNL A   1      42.942  26.501  25.340  1.00  0.00     0.002 A 
ATOM     65  C   UNL A   1      42.069  24.542  26.473  1.00  0.00     0.091 A 
ATOM     66  F   UNL A   1      41.115  24.780  28.647  1.00  0.00    -0.205 F 
ATOM     67  C   UNL A   1      42.661  25.137  25.347  1.00  0.00     0.022 A 
BRANCH  65  68
ATOM     68  S   UNL A   1      41.818  22.765  26.408  1.00  0.00     0.127 S 
ATOM     69  O   UNL A   1      42.515  22.323  27.616  1.00  0.00    -0.237 OA
ATOM     70  O   UNL A   1      40.360  22.661  26.473  1.00  0.00    -0.237 OA
ATOM     71  O   UNL A   1      42.408  22.319  25.154  1.00  0.00    -0.744 OA
ENDBRANCH  65  68
ENDBRANCH  47  61
BRANCH  48  72
ATOM     72  C   UNL A   1      39.272  32.203  35.578  1.00  0.00     0.023 A 
ATOM     73  C   UNL A   1      39.596  33.568  35.696  1.00  0.00     0.012 A 
ATOM     74  C   UNL A   1      38.507  31.592  36.590  1.00  0.00     0.148 A 
ATOM     75  C   UNL A   1      39.198  34.303  36.813  1.00  0.00     0.002 A 
ATOM     76  C   UNL A   1      38.066  32.343  37.675  1.00  0.00     0.091 A 
ATOM     77  F   UNL A   1      38.213  30.290  36.467  1.00  0.00    -0.205 F 
ATOM     78  C   UNL A   1      38.425  33.694  37.797  1.00  0.00     0.022 A 
BRANCH  76  79
ATOM     79  S   UNL A   1      36.955  31.677  38.921  1.00  0.00     0.127 S 
ATOM     80  O   UNL A   1      37.663  32.001  40.156  1.00  0.00    -0.237 OA
ATOM     81  O   UNL A   1      35.738  32.455  38.686  1.00  0.00    -0.237 OA
ATOM     82  O   UNL A   1      36.828  30.259  38.614  1.00  0.00    -0.744 OA
ENDBRANCH  76  79
ENDBRANCH  48  72
BRANCH  60  83
ATOM     83  C   UNL A   1      44.802  28.206  34.081  1.00  0.00     0.023 A 
ATOM     84  C   UNL A   1      45.945  29.027  34.017  1.00  0.00     0.012 A 
ATOM     85  C   UNL A   1      44.793  27.090  34.940  1.00  0.00     0.148 A 
ATOM     86  C   UNL A   1      47.076  28.720  34.770  1.00  0.00     0.002 A 
ATOM     87  C   UNL A   1      45.903  26.823  35.728  1.00  0.00     0.091 A 
ATOM     88  F   UNL A   1      43.699  26.313  34.969  1.00  0.00    -0.205 F 
ATOM     89  C   UNL A   1      47.050  27.626  35.634  1.00  0.00     0.022 A 
BRANCH  87  90
ATOM     90  S   UNL A   1      45.919  25.503  36.946  1.00  0.00     0.127 S 
ATOM     91  O   UNL A   1      47.327  25.477  37.335  1.00  0.00    -0.237 OA
ATOM     92  O   UNL A   1      45.010  26.017  37.971  1.00  0.00    -0.237 OA
ATOM     93  O   UNL A   1      45.440  24.313  36.255  1.00  0.00    -0.744 OA
ENDBRANCH  87  90
ENDBRANCH  60  83
ENDBRANCH  34  35
ENDBRANCH  27  29
ENDBRANCH  26  27
ENDBRANCH  25  26
ENDBRANCH  24  25
ENDBRANCH   1  24
TORSDOF 20
ENDMDL
MODEL 2
REMARK VINA RESULT:     -11.0      5.255     10.136
REMARK SMILES O=C(CC1(NC(=O)c2cc(Cl)ccc2Cl)CCC1)OCCOCCOC(=O)c1ccc(-c2c3nc(c(-c4cccc(S(=O)(=O)[O-])c4F)c4ccc([nH]4)c(-c4cccc(S(=O)(=O)[O-])c4F)c4nc(c(-c5cccc(S(=O)(=O)[O-])c5F)c5ccc2[nH]5)C=C4)C=C3)cc1
REMARK SMILES IDX 22 1 21 2 20 3 19 4 2 5 1 6 3 7 4 8 16 9 18 10 17 11 5 12
REMARK SMILES IDX 6 13 7 15 8 16 9 17 14 18 10 19 13 20 15 21 11 22 12 23
REMARK SMILES IDX 23 24 24 25 25 26 26 27 27 28 28 29 29 30 90 31 30 32 89 33
REMARK SMILES IDX 31 34 32 35 33 36 83 37 34 38 88 39 82 40 84 41 35 42 87 43
REMARK SMILES IDX 81 44 80 45 36 47 68 48 48 49 67 50 49 51 52 52 66 53 85 54
REMARK SMILES IDX 50 55 51 56 65 58 86 59 53 60 37 61 38 62 46 63 39 64 41 65
REMARK SMILES IDX 47 66 40 67 42 68 43 69 44 70 45 71 69 72 70 73 78 74 71 75
REMARK SMILES IDX 73 76 79 77 72 78 74 79 75 80 76 81 77 82 54 83 55 84 63 85
REMARK SMILES IDX 56 86 58 87 64 88 57 89 59 90 60 91 61 92 62 93
REMARK H PARENT 5 14 84 46 52 57
REMARK Flexibility Score: inf
ROOT
ATOM      1  O   UNL A   1      33.820  22.060  26.605  1.00  0.00    -0.374 OA
ENDROOT
BRANCH   1   2
ATOM      2  C   UNL A   1      33.497  20.810  26.014  1.00  0.00     0.202 C 
BRANCH   2   3
ATOM      3  C   UNL A   1      32.137  20.739  25.332  1.00  0.00     0.261 C 
BRANCH   3   4
ATOM      4  O   UNL A   1      32.142  20.567  23.906  1.00  0.00    -0.463 OA
BRANCH   4   5
ATOM      5  C   UNL A   1      32.443  21.464  22.953  1.00  0.00     0.308 C 
ATOM      6  O   UNL A   1      31.996  21.292  21.816  1.00  0.00    -0.252 OA
BRANCH   5   7
ATOM      7  C   UNL A   1      33.409  22.594  23.185  1.00  0.00     0.151 C 
BRANCH   7   8
ATOM      8  C   UNL A   1      32.958  24.018  23.483  1.00  0.00     0.051 C 
ATOM      9  C   UNL A   1      34.008  25.111  23.076  1.00  0.00     0.029 C 
ATOM     10  C   UNL A   1      31.998  24.659  22.420  1.00  0.00     0.029 C 
ATOM     11  C   UNL A   1      33.023  25.729  22.084  1.00  0.00     0.005 C 
BRANCH   8  12
ATOM     12  N   UNL A   1      32.471  24.307  24.874  1.00  0.00    -0.346 N 
ATOM     13  C   UNL A   1      31.657  25.218  25.528  1.00  0.00     0.253 C 
ATOM     14  H   UNL A   1      32.839  23.653  25.511  1.00  0.00     0.164 HD
ATOM     15  O   UNL A   1      31.173  24.808  26.587  1.00  0.00    -0.269 OA
BRANCH  13  16
ATOM     16  C   UNL A   1      31.363  26.608  25.098  1.00  0.00     0.059 A 
ATOM     17  C   UNL A   1      30.173  26.928  24.439  1.00  0.00     0.036 A 
ATOM     18  C   UNL A   1      32.276  27.651  25.372  1.00  0.00     0.053 A 
ATOM     19  C   UNL A   1      29.987  28.205  23.898  1.00  0.00     0.041 A 
ATOM     20  C   UNL A   1      32.069  28.934  24.842  1.00  0.00     0.023 A 
ATOM     21  Cl  UNL A   1      33.674  27.473  26.383  1.00  0.00    -0.083 Cl
ATOM     22  Cl  UNL A   1      28.576  28.537  22.970  1.00  0.00    -0.084 Cl
ATOM     23  C   UNL A   1      30.940  29.203  24.073  1.00  0.00     0.022 A 
ENDBRANCH  13  16
ENDBRANCH   8  12
ENDBRANCH   7   8
ENDBRANCH   5   7
ENDBRANCH   4   5
ENDBRANCH   3   4
ENDBRANCH   2   3
ENDBRANCH   1   2
BRANCH   1  24
ATOM     24  C   UNL A   1      35.196  22.438  26.498  1.00  0.00     0.202 C 
BRANCH  24  25
ATOM     25  C   UNL A   1      35.978  21.396  25.709  1.00  0.00     0.261 C 
BRANCH  25  26
ATOM     26  O   UNL A   1      37.218  21.965  25.286  1.00  0.00    -0.460 OA
BRANCH  26  27
ATOM     27  C   UNL A   1      38.340  21.401  25.793  1.00  0.00     0.338 C 
ATOM     28  O   UNL A   1      38.689  20.240  25.722  1.00  0.00    -0.246 OA
BRANCH  27  29
ATOM     29  C   UNL A   1      39.181  22.502  26.283  1.00  0.00     0.060 A 
ATOM     30  C   UNL A   1      40.265  22.219  27.129  1.00  0.00     0.016 A 
ATOM     31  C   UNL A   1      38.943  23.797  25.818  1.00  0.00     0.016 A 
ATOM     32  C   UNL A   1      41.120  23.250  27.510  1.00  0.00     0.010 A 
ATOM     33  C   UNL A   1      39.801  24.816  26.185  1.00  0.00     0.010 A 
ATOM     34  C   UNL A   1      40.874  24.548  27.048  1.00  0.00    -0.014 A 
BRANCH  34  35
ATOM     35  C   UNL A   1      41.644  25.702  27.537  1.00  0.00     0.031 A 
ATOM     36  C   UNL A   1      40.910  26.731  28.342  1.00  0.00     0.074 A 
ATOM     37  C   UNL A   1      42.912  25.871  27.131  1.00  0.00     0.049 A 
ATOM     38  N   UNL A   1      41.302  27.912  28.725  1.00  0.00    -0.248 NA
ATOM     39  C   UNL A   1      39.528  26.394  28.735  1.00  0.00     0.031 C 
ATOM     40  C   UNL A   1      43.665  24.931  26.297  1.00  0.00     0.029 A 
ATOM     41  N   UNL A   1      43.772  26.918  27.317  1.00  0.00    -0.354 N 
ATOM     42  C   UNL A   1      40.207  28.478  29.366  1.00  0.00     0.074 A 
ATOM     43  C   UNL A   1      39.126  27.522  29.303  1.00  0.00     0.031 C 
ATOM     44  C   UNL A   1      44.867  25.461  26.017  1.00  0.00     0.029 A 
ATOM     45  C   UNL A   1      44.951  26.785  26.623  1.00  0.00     0.049 A 
ATOM     46  H   UNL A   1      43.566  27.691  27.892  1.00  0.00     0.167 HD
ATOM     47  C   UNL A   1      40.123  29.687  29.965  1.00  0.00     0.034 A 
ATOM     48  C   UNL A   1      45.966  27.658  26.481  1.00  0.00     0.034 A 
ATOM     49  C   UNL A   1      41.224  30.607  30.019  1.00  0.00     0.049 A 
ATOM     50  C   UNL A   1      45.859  28.984  27.185  1.00  0.00     0.074 A 
ATOM     51  C   UNL A   1      41.296  31.833  30.650  1.00  0.00     0.029 A 
ATOM     52  N   UNL A   1      42.449  30.397  29.400  1.00  0.00    -0.354 N 
ATOM     53  N   UNL A   1      44.868  29.458  27.905  1.00  0.00    -0.248 NA
ATOM     54  C   UNL A   1      47.018  29.879  27.092  1.00  0.00     0.031 C 
ATOM     55  C   UNL A   1      42.559  32.377  30.391  1.00  0.00     0.029 A 
ATOM     56  C   UNL A   1      43.285  31.473  29.629  1.00  0.00     0.049 A 
ATOM     57  H   UNL A   1      42.688  29.599  28.876  1.00  0.00     0.167 HD
ATOM     58  C   UNL A   1      45.297  30.690  28.382  1.00  0.00     0.074 A 
ATOM     59  C   UNL A   1      46.646  30.877  27.885  1.00  0.00     0.031 C 
ATOM     60  C   UNL A   1      44.639  31.595  29.149  1.00  0.00     0.034 A 
BRANCH  47  61
ATOM     61  C   UNL A   1      38.820  30.057  30.622  1.00  0.00     0.023 A 
ATOM     62  C   UNL A   1      38.566  29.655  31.950  1.00  0.00     0.012 A 
ATOM     63  C   UNL A   1      37.857  30.827  29.941  1.00  0.00     0.148 A 
ATOM     64  C   UNL A   1      37.364  29.983  32.577  1.00  0.00     0.002 A 
ATOM     65  C   UNL A   1      36.683  31.191  30.588  1.00  0.00     0.091 A 
ATOM     66  F   UNL A   1      38.102  31.177  28.670  1.00  0.00    -0.205 F 
ATOM     67  C   UNL A   1      36.428  30.759  31.900  1.00  0.00     0.022 A 
BRANCH  65  68
ATOM     68  S   UNL A   1      35.444  32.250  29.832  1.00  0.00     0.127 S 
ATOM     69  O   UNL A   1      36.232  33.437  29.500  1.00  0.00    -0.237 OA
ATOM     70  O   UNL A   1      35.026  31.454  28.678  1.00  0.00    -0.237 OA
ATOM     71  O   UNL A   1      34.415  32.452  30.842  1.00  0.00    -0.744 OA
ENDBRANCH  65  68
ENDBRANCH  47  61
BRANCH  48  72
ATOM     72  C   UNL A   1      47.175  27.284  25.694  1.00  0.00     0.023 A 
ATOM     73  C   UNL A   1      48.153  26.458  26.280  1.00  0.00     0.012 A 
ATOM     74  C   UNL A   1      47.345  27.707  24.362  1.00  0.00     0.148 A 
ATOM     75  C   UNL A   1      49.295  26.089  25.568  1.00  0.00     0.002 A 
ATOM     76  C   UNL A   1      48.459  27.291  23.640  1.00  0.00     0.091 A 
ATOM     77  F   UNL A   1      46.409  28.499  23.821  1.00  0.00    -0.205 F 
ATOM     78  C   UNL A   1      49.444  26.497  24.246  1.00  0.00     0.022 A 
BRANCH  76  79
ATOM     79  S   UNL A   1      48.667  27.656  21.892  1.00  0.00     0.127 S 
ATOM     80  O   UNL A   1      49.559  28.811  21.932  1.00  0.00    -0.237 OA
ATOM     81  O   UNL A   1      49.278  26.422  21.397  1.00  0.00    -0.237 OA
ATOM     82  O   UNL A   1      47.325  27.906  21.383  1.00  0.00    -0.744 OA
ENDBRANCH  76  79
ENDBRANCH  48  72
BRANCH  60  83
ATOM     83  C   UNL A   1      45.388  32.843  29.530  1.00  0.00     0.023 A 
ATOM     84  C   UNL A   1      46.144  32.875  30.717  1.00  0.00     0.012 A 
ATOM     85  C   UNL A   1      45.396  33.955  28.667  1.00  0.00     0.148 A 
ATOM     86  C   UNL A   1      46.868  34.016  31.060  1.00  0.00     0.002 A 
ATOM     87  C   UNL A   1      46.164  35.065  28.988  1.00  0.00     0.091 A 
ATOM     88  F   UNL A   1      44.654  33.906  27.551  1.00  0.00    -0.205 F 
ATOM     89  C   UNL A   1      46.888  35.104  30.190  1.00  0.00     0.022 A 
BRANCH  87  90
ATOM     90  S   UNL A   1      46.335  36.466  27.877  1.00  0.00     0.127 S 
ATOM     91  O   UNL A   1      47.385  37.240  28.537  1.00  0.00    -0.237 OA
ATOM     92  O   UNL A   1      46.742  35.823  26.628  1.00  0.00    -0.237 OA
ATOM     93  O   UNL A   1      45.026  37.104  27.830  1.00  0.00    -0.744 OA
ENDBRANCH  87  90
ENDBRANCH  60  83
ENDBRANCH  34  35
ENDBRANCH  27  29
ENDBRANCH  26  27
ENDBRANCH  25  26
ENDBRANCH  24  25
ENDBRANCH   1  24
TORSDOF 20
ENDMDL
MODEL 3
REMARK VINA RESULT:     -10.9      5.427     11.280
REMARK SMILES O=C(CC1(NC(=O)c2cc(Cl)ccc2Cl)CCC1)OCCOCCOC(=O)c1ccc(-c2c3nc(c(-c4cccc(S(=O)(=O)[O-])c4F)c4ccc([nH]4)c(-c4cccc(S(=O)(=O)[O-])c4F)c4nc(c(-c5cccc(S(=O)(=O)[O-])c5F)c5ccc2[nH]5)C=C4)C=C3)cc1
REMARK SMILES IDX 22 1 21 2 20 3 19 4 2 5 1 6 3 7 4 8 16 9 18 10 17 11 5 12
REMARK SMILES IDX 6 13 7 15 8 16 9 17 14 18 10 19 13 20 15 21 11 22 12 23
REMARK SMILES IDX 23 24 24 25 25 26 26 27 27 28 28 29 29 30 90 31 30 32 89 33
REMARK SMILES IDX 31 34 32 35 33 36 83 37 34 38 88 39 82 40 84 41 35 42 87 43
REMARK SMILES IDX 81 44 80 45 36 47 68 48 48 49 67 50 49 51 52 52 66 53 85 54
REMARK SMILES IDX 50 55 51 56 65 58 86 59 53 60 37 61 38 62 46 63 39 64 41 65
REMARK SMILES IDX 47 66 40 67 42 68 43 69 44 70 45 71 69 72 70 73 78 74 71 75
REMARK SMILES IDX 73 76 79 77 72 78 74 79 75 80 76 81 77 82 54 83 55 84 63 85
REMARK SMILES IDX 56 86 58 87 64 88 57 89 59 90 60 91 61 92 62 93
REMARK H PARENT 5 14 84 46 52 57
REMARK Flexibility Score: inf
ROOT
ATOM      1  O   UNL A   1      33.025  35.643  29.668  1.00  0.00    -0.374 OA
ENDROOT
BRANCH   1   2
ATOM      2  C   UNL A   1      32.822  36.068  31.008  1.00  0.00     0.202 C 
BRANCH   2   3
ATOM      3  C   UNL A   1      34.063  36.070  31.890  1.00  0.00     0.261 C 
BRANCH   3   4
ATOM      4  O   UNL A   1      33.975  35.337  33.123  1.00  0.00    -0.463 OA
BRANCH   4   5
ATOM      5  C   UNL A   1      34.173  34.025  33.336  1.00  0.00     0.308 C 
ATOM      6  O   UNL A   1      33.327  33.225  32.928  1.00  0.00    -0.252 OA
BRANCH   5   7
ATOM      7  C   UNL A   1      35.316  33.507  34.166  1.00  0.00     0.151 C 
BRANCH   7   8
ATOM      8  C   UNL A   1      36.609  32.982  33.554  1.00  0.00     0.051 C 
ATOM      9  C   UNL A   1      36.425  32.367  32.122  1.00  0.00     0.029 C 
ATOM     10  C   UNL A   1      37.527  34.064  32.884  1.00  0.00     0.029 C 
ATOM     11  C   UNL A   1      37.361  33.415  31.520  1.00  0.00     0.005 C 
BRANCH   8  12
ATOM     12  N   UNL A   1      37.428  32.039  34.386  1.00  0.00    -0.346 N 
ATOM     13  C   UNL A   1      37.989  31.979  35.652  1.00  0.00     0.253 C 
ATOM     14  H   UNL A   1      37.627  31.217  33.882  1.00  0.00     0.164 HD
ATOM     15  O   UNL A   1      38.183  30.836  36.075  1.00  0.00    -0.269 OA
BRANCH  13  16
ATOM     16  C   UNL A   1      38.397  33.132  36.493  1.00  0.00     0.059 A 
ATOM     17  C   UNL A   1      39.025  34.250  35.937  1.00  0.00     0.036 A 
ATOM     18  C   UNL A   1      38.135  33.135  37.881  1.00  0.00     0.053 A 
ATOM     19  C   UNL A   1      39.548  35.250  36.764  1.00  0.00     0.041 A 
ATOM     20  C   UNL A   1      38.646  34.155  38.699  1.00  0.00     0.023 A 
ATOM     21  Cl  UNL A   1      37.159  31.947  38.684  1.00  0.00    -0.083 Cl
ATOM     22  Cl  UNL A   1      40.440  36.547  36.069  1.00  0.00    -0.084 Cl
ATOM     23  C   UNL A   1      39.386  35.196  38.145  1.00  0.00     0.022 A 
ENDBRANCH  13  16
ENDBRANCH   8  12
ENDBRANCH   7   8
ENDBRANCH   5   7
ENDBRANCH   4   5
ENDBRANCH   3   4
ENDBRANCH   2   3
ENDBRANCH   1   2
BRANCH   1  24
ATOM     24  C   UNL A   1      34.162  34.797  29.472  1.00  0.00     0.202 C 
BRANCH  24  25
ATOM     25  C   UNL A   1      33.740  33.466  28.863  1.00  0.00     0.261 C 
BRANCH  25  26
ATOM     26  O   UNL A   1      34.661  32.454  29.272  1.00  0.00    -0.460 OA
BRANCH  26  27
ATOM     27  C   UNL A   1      34.969  31.514  28.347  1.00  0.00     0.338 C 
ATOM     28  O   UNL A   1      34.495  31.376  27.237  1.00  0.00    -0.246 OA
BRANCH  27  29
ATOM     29  C   UNL A   1      36.146  30.793  28.852  1.00  0.00     0.060 A 
ATOM     30  C   UNL A   1      35.970  29.723  29.744  1.00  0.00     0.016 A 
ATOM     31  C   UNL A   1      37.409  31.124  28.357  1.00  0.00     0.016 A 
ATOM     32  C   UNL A   1      37.076  28.978  30.142  1.00  0.00     0.010 A 
ATOM     33  C   UNL A   1      38.503  30.374  28.740  1.00  0.00     0.010 A 
ATOM     34  C   UNL A   1      38.341  29.317  29.649  1.00  0.00    -0.014 A 
BRANCH  34  35
ATOM     35  C   UNL A   1      39.565  28.673  30.150  1.00  0.00     0.031 A 
ATOM     36  C   UNL A   1      40.250  29.305  31.324  1.00  0.00     0.074 A 
ATOM     37  C   UNL A   1      40.101  27.650  29.465  1.00  0.00     0.049 A 
ATOM     38  N   UNL A   1      41.421  29.050  31.831  1.00  0.00    -0.248 NA
ATOM     39  C   UNL A   1      39.526  30.405  31.991  1.00  0.00     0.031 C 
ATOM     40  C   UNL A   1      39.511  27.027  28.278  1.00  0.00     0.029 A 
ATOM     41  N   UNL A   1      41.290  26.995  29.633  1.00  0.00    -0.354 N 
ATOM     42  C   UNL A   1      41.597  29.980  32.848  1.00  0.00     0.074 A 
ATOM     43  C   UNL A   1      40.423  30.821  32.873  1.00  0.00     0.031 C 
ATOM     44  C   UNL A   1      40.357  26.096  27.806  1.00  0.00     0.029 A 
ATOM     45  C   UNL A   1      41.557  26.086  28.636  1.00  0.00     0.049 A 
ATOM     46  H   UNL A   1      41.894  27.158  30.394  1.00  0.00     0.167 HD
ATOM     47  C   UNL A   1      42.645  30.106  33.692  1.00  0.00     0.034 A 
ATOM     48  C   UNL A   1      42.665  25.354  28.418  1.00  0.00     0.034 A 
ATOM     49  C   UNL A   1      43.792  29.242  33.644  1.00  0.00     0.049 A 
ATOM     50  C   UNL A   1      43.805  25.492  29.392  1.00  0.00     0.074 A 
ATOM     51  C   UNL A   1      44.890  29.216  34.481  1.00  0.00     0.029 A 
ATOM     52  N   UNL A   1      43.986  28.252  32.689  1.00  0.00    -0.354 N 
ATOM     53  N   UNL A   1      43.907  26.283  30.435  1.00  0.00    -0.248 NA
ATOM     54  C   UNL A   1      44.963  24.615  29.185  1.00  0.00     0.031 C 
ATOM     55  C   UNL A   1      45.762  28.226  34.014  1.00  0.00     0.029 A 
ATOM     56  C   UNL A   1      45.189  27.611  32.910  1.00  0.00     0.049 A 
ATOM     57  H   UNL A   1      43.358  28.038  31.962  1.00  0.00     0.167 HD
ATOM     58  C   UNL A   1      45.122  25.974  31.032  1.00  0.00     0.074 A 
ATOM     59  C   UNL A   1      45.709  24.908  30.243  1.00  0.00     0.031 C 
ATOM     60  C   UNL A   1      45.713  26.523  32.123  1.00  0.00     0.034 A 
BRANCH  47  61
ATOM     61  C   UNL A   1      42.580  31.187  34.738  1.00  0.00     0.023 A 
ATOM     62  C   UNL A   1      41.960  30.925  35.977  1.00  0.00     0.012 A 
ATOM     63  C   UNL A   1      43.156  32.452  34.510  1.00  0.00     0.148 A 
ATOM     64  C   UNL A   1      41.884  31.913  36.959  1.00  0.00     0.002 A 
ATOM     65  C   UNL A   1      43.119  33.415  35.511  1.00  0.00     0.091 A 
ATOM     66  F   UNL A   1      43.716  32.693  33.317  1.00  0.00    -0.205 F 
ATOM     67  C   UNL A   1      42.472  33.153  36.730  1.00  0.00     0.022 A 
BRANCH  65  68
ATOM     68  S   UNL A   1      43.910  35.020  35.346  1.00  0.00     0.127 S 
ATOM     69  O   UNL A   1      43.101  35.642  34.298  1.00  0.00    -0.237 OA
ATOM     70  O   UNL A   1      43.721  35.590  36.680  1.00  0.00    -0.237 OA
ATOM     71  O   UNL A   1      45.294  34.752  34.985  1.00  0.00    -0.744 OA
ENDBRANCH  65  68
ENDBRANCH  47  61
BRANCH  48  72
ATOM     72  C   UNL A   1      42.723  24.401  27.274  1.00  0.00     0.023 A 
ATOM     73  C   UNL A   1      43.337  24.801  26.071  1.00  0.00     0.012 A 
ATOM     74  C   UNL A   1      42.210  23.093  27.378  1.00  0.00     0.148 A 
ATOM     75  C   UNL A   1      43.408  23.932  24.982  1.00  0.00     0.002 A 
ATOM     76  C   UNL A   1      42.333  22.214  26.308  1.00  0.00     0.091 A 
ATOM     77  F   UNL A   1      41.623  22.730  28.527  1.00  0.00    -0.205 F 
ATOM     78  C   UNL A   1      42.915  22.636  25.103  1.00  0.00     0.022 A 
BRANCH  76  79
ATOM     79  S   UNL A   1      41.849  20.486  26.419  1.00  0.00     0.127 S 
ATOM     80  O   UNL A   1      40.404  20.567  26.229  1.00  0.00    -0.237 OA
ATOM     81  O   UNL A   1      42.585  19.894  25.301  1.00  0.00    -0.237 OA
ATOM     82  O   UNL A   1      42.293  20.040  27.732  1.00  0.00    -0.744 OA
ENDBRANCH  76  79
ENDBRANCH  48  72
BRANCH  60  83
ATOM     83  C   UNL A   1      47.036  25.950  32.546  1.00  0.00     0.023 A 
ATOM     84  C   UNL A   1      48.233  26.484  32.030  1.00  0.00     0.012 A 
ATOM     85  C   UNL A   1      47.090  24.927  33.513  1.00  0.00     0.148 A 
ATOM     86  C   UNL A   1      49.465  25.981  32.443  1.00  0.00     0.002 A 
ATOM     87  C   UNL A   1      48.321  24.471  33.960  1.00  0.00     0.091 A 
ATOM     88  F   UNL A   1      45.936  24.423  33.976  1.00  0.00    -0.205 F 
ATOM     89  C   UNL A   1      49.509  24.984  33.416  1.00  0.00     0.022 A 
BRANCH  87  90
ATOM     90  S   UNL A   1      48.474  23.269  35.285  1.00  0.00     0.127 S 
ATOM     91  O   UNL A   1      49.925  23.141  35.403  1.00  0.00    -0.237 OA
ATOM     92  O   UNL A   1      47.828  23.957  36.403  1.00  0.00    -0.237 OA
ATOM     93  O   UNL A   1      47.778  22.074  34.827  1.00  0.00    -0.744 OA
ENDBRANCH  87  90
ENDBRANCH  60  83
ENDBRANCH  34  35
ENDBRANCH  27  29
ENDBRANCH  26  27
ENDBRANCH  25  26
ENDBRANCH  24  25
ENDBRANCH   1  24
TORSDOF 20
ENDMDL
