MODEL 1
REMARK VINA RESULT:     -12.5      0.000      0.000
REMARK SMILES Cc1cccc(N2C(=O)/C(=C/c3ccc(C(=O)OCCOCCOC(=O)c4ccc(-c5c6nc(c(-c7cccc(S(=O)(=O)[O-])c7F)c7ccc([nH]7)c(-c7cccc(S(=O)(=O)[O-])c7F)c7nc(c(-c8cccc(S(=O)(=O)[O-])c8F)c8ccc5[nH]8)C=C7)C=C6)cc4)cc3)c3ccccc3C2=O)c1
REMARK SMILES IDX 22 1 21 2 20 3 19 4 18 5 16 6 17 7 15 8 12 9 13 10 91 11
REMARK SMILES IDX 14 12 90 13 11 14 7 15 8 16 98 17 9 18 10 19 97 20 99 21
REMARK SMILES IDX 92 22 96 23 93 24 95 25 94 26 6 27 1 28 2 29 3 30 100 31
REMARK SMILES IDX 4 32 5 33 23 34 24 35 25 36 26 37 27 38 28 39 89 40 29 41
REMARK SMILES IDX 88 42 30 43 31 44 32 45 82 46 33 47 87 48 81 49 83 50 34 51
REMARK SMILES IDX 86 52 80 53 79 54 35 56 67 57 47 58 66 59 48 60 51 61 65 62
REMARK SMILES IDX 84 63 49 64 50 65 64 67 85 68 52 69 36 70 37 71 45 72 38 73
REMARK SMILES IDX 40 74 46 75 39 76 41 77 42 78 43 79 44 80 68 81 69 82 77 83
REMARK SMILES IDX 70 84 72 85 78 86 71 87 73 88 74 89 75 90 76 91 53 92 54 93
REMARK SMILES IDX 62 94 55 95 57 96 63 97 56 98 58 99 59 100 60 101 61 102
REMARK H PARENT 83 55 51 66
REMARK Flexibility Score: inf
ROOT
ATOM      1  C   UNL A   1      34.646  31.310  28.072  1.00  0.00     0.202 C 
ENDROOT
BRANCH   1   2
ATOM      2  O   UNL A   1      34.292  30.107  27.445  1.00  0.00    -0.374 OA
BRANCH   2   3
ATOM      3  C   UNL A   1      32.946  29.954  27.060  1.00  0.00     0.202 C 
BRANCH   3   4
ATOM      4  C   UNL A   1      32.974  28.872  26.028  1.00  0.00     0.261 C 
BRANCH   4   5
ATOM      5  O   UNL A   1      31.785  28.033  26.061  1.00  0.00    -0.460 OA
BRANCH   5   6
ATOM      6  C   UNL A   1      30.870  28.017  25.036  1.00  0.00     0.338 C 
ATOM      7  O   UNL A   1      30.512  28.880  24.287  1.00  0.00    -0.246 OA
BRANCH   6   8
ATOM      8  C   UNL A   1      30.474  26.618  24.841  1.00  0.00     0.060 A 
ATOM      9  C   UNL A   1      30.624  23.969  24.205  1.00  0.00    -0.025 A 
ATOM     10  C   UNL A   1      30.252  24.883  23.213  1.00  0.00     0.009 A 
ATOM     11  C   UNL A   1      30.642  24.349  25.551  1.00  0.00     0.009 A 
ATOM     12  C   UNL A   1      30.156  26.226  23.539  1.00  0.00     0.016 A 
ATOM     13  C   UNL A   1      30.614  25.693  25.871  1.00  0.00     0.016 A 
BRANCH   9  14
ATOM     14  C   UNL A   1      31.123  22.661  23.795  1.00  0.00     0.022 C 
ATOM     15  N   UNL A   1      33.411  20.149  24.351  1.00  0.00    -0.242 N 
ATOM     16  C   UNL A   1      32.610  20.856  23.434  1.00  0.00     0.265 C 
ATOM     17  C   UNL A   1      34.214  20.842  25.294  1.00  0.00     0.265 C 
ATOM     18  O   UNL A   1      32.037  20.450  22.425  1.00  0.00    -0.268 OA
ATOM     19  C   UNL A   1      32.420  22.284  23.787  1.00  0.00     0.049 C 
ATOM     20  C   UNL A   1      34.472  22.287  25.050  1.00  0.00     0.048 A 
ATOM     21  O   UNL A   1      34.768  20.380  26.289  1.00  0.00    -0.268 OA
ATOM     22  C   UNL A   1      33.604  23.011  24.238  1.00  0.00    -0.000 A 
ATOM     23  C   UNL A   1      35.580  22.916  25.640  1.00  0.00     0.014 A 
ATOM     24  C   UNL A   1      33.906  24.346  23.933  1.00  0.00     0.010 A 
ATOM     25  C   UNL A   1      35.841  24.262  25.381  1.00  0.00     0.001 A 
ATOM     26  C   UNL A   1      35.012  24.973  24.517  1.00  0.00     0.001 A 
BRANCH  15  27
ATOM     27  C   UNL A   1      33.397  18.686  24.327  1.00  0.00     0.053 A 
ATOM     28  C   UNL A   1      31.885  15.805  26.356  1.00  0.00     0.044 C 
ATOM     29  C   UNL A   1      32.660  16.529  25.295  1.00  0.00    -0.049 A 
ATOM     30  C   UNL A   1      33.332  15.831  24.298  1.00  0.00     0.003 A 
ATOM     31  C   UNL A   1      32.691  17.933  25.285  1.00  0.00     0.030 A 
ATOM     32  C   UNL A   1      34.042  16.534  23.334  1.00  0.00     0.002 A 
ATOM     33  C   UNL A   1      34.080  17.935  23.357  1.00  0.00     0.027 A 
ENDBRANCH  15  27
ENDBRANCH   9  14
ENDBRANCH   6   8
ENDBRANCH   5   6
ENDBRANCH   4   5
ENDBRANCH   3   4
ENDBRANCH   2   3
ENDBRANCH   1   2
BRANCH   1  34
ATOM     34  C   UNL A   1      33.697  32.426  27.652  1.00  0.00     0.261 C 
BRANCH  34  35
ATOM     35  O   UNL A   1      34.284  33.704  27.986  1.00  0.00    -0.460 OA
BRANCH  35  36
ATOM     36  C   UNL A   1      34.219  34.037  29.311  1.00  0.00     0.338 C 
ATOM     37  O   UNL A   1      33.242  34.551  29.832  1.00  0.00    -0.246 OA
BRANCH  36  38
ATOM     38  C   UNL A   1      35.568  33.921  29.948  1.00  0.00     0.060 A 
ATOM     39  C   UNL A   1      36.724  33.993  29.151  1.00  0.00     0.016 A 
ATOM     40  C   UNL A   1      35.661  33.416  31.241  1.00  0.00     0.016 A 
ATOM     41  C   UNL A   1      37.908  33.358  29.559  1.00  0.00     0.010 A 
ATOM     42  C   UNL A   1      36.807  32.728  31.599  1.00  0.00     0.010 A 
ATOM     43  C   UNL A   1      37.911  32.620  30.730  1.00  0.00    -0.014 A 
BRANCH  43  44
ATOM     44  C   UNL A   1      38.992  31.742  31.202  1.00  0.00     0.031 A 
ATOM     45  C   UNL A   1      39.112  30.439  30.511  1.00  0.00     0.074 A 
ATOM     46  C   UNL A   1      40.043  32.184  31.948  1.00  0.00     0.049 A 
ATOM     47  N   UNL A   1      40.048  29.589  30.740  1.00  0.00    -0.248 NA
ATOM     48  C   UNL A   1      38.152  29.966  29.511  1.00  0.00     0.031 C 
ATOM     49  C   UNL A   1      41.449  31.785  31.801  1.00  0.00     0.029 A 
ATOM     50  N   UNL A   1      40.120  33.146  32.962  1.00  0.00    -0.354 N 
ATOM     51  C   UNL A   1      40.051  28.713  29.684  1.00  0.00     0.074 A 
ATOM     52  C   UNL A   1      38.767  28.870  29.058  1.00  0.00     0.031 C 
ATOM     53  C   UNL A   1      42.179  32.291  32.810  1.00  0.00     0.029 A 
ATOM     54  C   UNL A   1      41.249  32.887  33.750  1.00  0.00     0.049 A 
ATOM     55  H   UNL A   1      39.484  33.885  33.100  1.00  0.00     0.167 HD
ATOM     56  C   UNL A   1      41.221  28.095  29.378  1.00  0.00     0.034 A 
ATOM     57  C   UNL A   1      41.156  32.679  35.091  1.00  0.00     0.034 A 
ATOM     58  C   UNL A   1      42.213  28.298  30.455  1.00  0.00     0.049 A 
ATOM     59  C   UNL A   1      41.637  31.289  35.400  1.00  0.00     0.074 A 
ATOM     60  C   UNL A   1      43.386  29.024  30.559  1.00  0.00     0.029 A 
ATOM     61  N   UNL A   1      41.878  27.919  31.759  1.00  0.00    -0.354 N 
ATOM     62  N   UNL A   1      41.906  30.437  34.452  1.00  0.00    -0.248 NA
ATOM     63  C   UNL A   1      41.918  30.735  36.717  1.00  0.00     0.031 C 
ATOM     64  C   UNL A   1      43.689  29.168  31.949  1.00  0.00     0.029 A 
ATOM     65  C   UNL A   1      42.735  28.484  32.691  1.00  0.00     0.049 A 
ATOM     66  H   UNL A   1      41.126  27.326  31.986  1.00  0.00     0.167 HD
ATOM     67  C   UNL A   1      42.326  29.258  34.954  1.00  0.00     0.074 A 
ATOM     68  C   UNL A   1      42.344  29.498  36.391  1.00  0.00     0.031 C 
ATOM     69  C   UNL A   1      42.568  28.200  34.124  1.00  0.00     0.034 A 
BRANCH  56  70
ATOM     70  C   UNL A   1      41.542  27.440  28.045  1.00  0.00     0.023 A 
ATOM     71  C   UNL A   1      41.517  28.274  26.907  1.00  0.00     0.012 A 
ATOM     72  C   UNL A   1      41.786  26.061  27.798  1.00  0.00     0.148 A 
ATOM     73  C   UNL A   1      41.729  27.785  25.612  1.00  0.00     0.002 A 
ATOM     74  C   UNL A   1      42.076  25.586  26.515  1.00  0.00     0.091 A 
ATOM     75  F   UNL A   1      41.649  25.164  28.778  1.00  0.00    -0.205 F 
ATOM     76  C   UNL A   1      42.031  26.445  25.416  1.00  0.00     0.022 A 
BRANCH  74  77
ATOM     77  S   UNL A   1      42.543  23.872  26.186  1.00  0.00     0.127 S 
ATOM     78  O   UNL A   1      43.058  23.947  24.820  1.00  0.00    -0.237 OA
ATOM     79  O   UNL A   1      43.564  23.624  27.206  1.00  0.00    -0.237 OA
ATOM     80  O   UNL A   1      41.331  23.078  26.347  1.00  0.00    -0.744 OA
ENDBRANCH  74  77
ENDBRANCH  56  70
BRANCH  57  81
ATOM     81  C   UNL A   1      40.035  33.465  35.699  1.00  0.00     0.023 A 
ATOM     82  C   UNL A   1      38.783  32.796  35.800  1.00  0.00     0.012 A 
ATOM     83  C   UNL A   1      40.304  34.521  36.587  1.00  0.00     0.148 A 
ATOM     84  C   UNL A   1      37.900  33.071  36.850  1.00  0.00     0.002 A 
ATOM     85  C   UNL A   1      39.435  34.760  37.654  1.00  0.00     0.091 A 
ATOM     86  F   UNL A   1      41.438  35.215  36.427  1.00  0.00    -0.205 F 
ATOM     87  C   UNL A   1      38.256  34.011  37.810  1.00  0.00     0.022 A 
BRANCH  85  88
ATOM     88  S   UNL A   1      39.852  35.908  38.976  1.00  0.00     0.127 S 
ATOM     89  O   UNL A   1      41.222  35.510  39.290  1.00  0.00    -0.237 OA
ATOM     90  O   UNL A   1      39.731  37.208  38.314  1.00  0.00    -0.237 OA
ATOM     91  O   UNL A   1      38.864  35.672  40.018  1.00  0.00    -0.744 OA
ENDBRANCH  85  88
ENDBRANCH  57  81
BRANCH  69  92
ATOM     92  C   UNL A   1      42.646  26.777  34.606  1.00  0.00     0.023 A 
ATOM     93  C   UNL A   1      41.568  26.159  35.270  1.00  0.00     0.012 A 
ATOM     94  C   UNL A   1      43.733  25.953  34.234  1.00  0.00     0.148 A 
ATOM     95  C   UNL A   1      41.595  24.808  35.612  1.00  0.00     0.002 A 
ATOM     96  C   UNL A   1      43.689  24.584  34.447  1.00  0.00     0.091 A 
ATOM     97  F   UNL A   1      44.826  26.494  33.674  1.00  0.00    -0.205 F 
ATOM     98  C   UNL A   1      42.642  24.012  35.173  1.00  0.00     0.022 A 
BRANCH  96  99
ATOM     99  S   UNL A   1      44.862  23.489  33.643  1.00  0.00     0.127 S 
ATOM    100  O   UNL A   1      44.462  22.185  34.169  1.00  0.00    -0.237 OA
ATOM    101  O   UNL A   1      44.558  23.698  32.226  1.00  0.00    -0.237 OA
ATOM    102  O   UNL A   1      46.177  23.967  34.047  1.00  0.00    -0.744 OA
ENDBRANCH  96  99
ENDBRANCH  69  92
ENDBRANCH  43  44
ENDBRANCH  36  38
ENDBRANCH  35  36
ENDBRANCH  34  35
ENDBRANCH   1  34
TORSDOF 19
ENDMDL
MODEL 2
REMARK VINA RESULT:     -12.3      5.617      8.229
REMARK SMILES Cc1cccc(N2C(=O)/C(=C/c3ccc(C(=O)OCCOCCOC(=O)c4ccc(-c5c6nc(c(-c7cccc(S(=O)(=O)[O-])c7F)c7ccc([nH]7)c(-c7cccc(S(=O)(=O)[O-])c7F)c7nc(c(-c8cccc(S(=O)(=O)[O-])c8F)c8ccc5[nH]8)C=C7)C=C6)cc4)cc3)c3ccccc3C2=O)c1
REMARK SMILES IDX 22 1 21 2 20 3 19 4 18 5 16 6 17 7 15 8 12 9 13 10 91 11
REMARK SMILES IDX 14 12 90 13 11 14 7 15 8 16 98 17 9 18 10 19 97 20 99 21
REMARK SMILES IDX 92 22 96 23 93 24 95 25 94 26 6 27 1 28 2 29 3 30 100 31
REMARK SMILES IDX 4 32 5 33 23 34 24 35 25 36 26 37 27 38 28 39 89 40 29 41
REMARK SMILES IDX 88 42 30 43 31 44 32 45 82 46 33 47 87 48 81 49 83 50 34 51
REMARK SMILES IDX 86 52 80 53 79 54 35 56 67 57 47 58 66 59 48 60 51 61 65 62
REMARK SMILES IDX 84 63 49 64 50 65 64 67 85 68 52 69 36 70 37 71 45 72 38 73
REMARK SMILES IDX 40 74 46 75 39 76 41 77 42 78 43 79 44 80 68 81 69 82 77 83
REMARK SMILES IDX 70 84 72 85 78 86 71 87 73 88 74 89 75 90 76 91 53 92 54 93
REMARK SMILES IDX 62 94 55 95 57 96 63 97 56 98 58 99 59 100 60 101 61 102
REMARK H PARENT 83 55 51 66
REMARK Flexibility Score: inf
ROOT
ATOM      1  C   UNL A   1      38.463  28.224  29.583  1.00  0.00     0.202 C 
ENDROOT
BRANCH   1   2
ATOM      2  O   UNL A   1      38.170  29.115  28.542  1.00  0.00    -0.374 OA
BRANCH   2   3
ATOM      3  C   UNL A   1      37.563  30.338  28.891  1.00  0.00     0.202 C 
BRANCH   3   4
ATOM      4  C   UNL A   1      36.507  30.540  27.853  1.00  0.00     0.261 C 
BRANCH   4   5
ATOM      5  O   UNL A   1      35.180  30.170  28.323  1.00  0.00    -0.460 OA
BRANCH   5   6
ATOM      6  C   UNL A   1      34.035  30.681  27.761  1.00  0.00     0.338 C 
ATOM      7  O   UNL A   1      33.632  31.805  27.677  1.00  0.00    -0.246 OA
BRANCH   6   8
ATOM      8  C   UNL A   1      33.382  29.577  27.048  1.00  0.00     0.060 A 
ATOM      9  C   UNL A   1      32.754  27.041  26.260  1.00  0.00    -0.025 A 
ATOM     10  C   UNL A   1      33.767  27.728  25.583  1.00  0.00     0.009 A 
ATOM     11  C   UNL A   1      31.889  27.720  27.124  1.00  0.00     0.009 A 
ATOM     12  C   UNL A   1      34.074  29.023  25.969  1.00  0.00     0.016 A 
ATOM     13  C   UNL A   1      32.231  28.986  27.560  1.00  0.00     0.016 A 
BRANCH   9  14
ATOM     14  C   UNL A   1      32.708  25.587  26.152  1.00  0.00     0.022 C 
ATOM     15  N   UNL A   1      33.300  22.825  24.183  1.00  0.00    -0.242 N 
ATOM     16  C   UNL A   1      32.535  23.426  25.202  1.00  0.00     0.265 C 
ATOM     17  C   UNL A   1      33.569  23.519  22.975  1.00  0.00     0.265 C 
ATOM     18  O   UNL A   1      32.022  22.917  26.195  1.00  0.00    -0.268 OA
ATOM     19  C   UNL A   1      32.380  24.893  25.041  1.00  0.00     0.049 C 
ATOM     20  C   UNL A   1      32.734  24.712  22.665  1.00  0.00     0.048 A 
ATOM     21  O   UNL A   1      34.398  23.231  22.114  1.00  0.00    -0.268 OA
ATOM     22  C   UNL A   1      32.078  25.377  23.696  1.00  0.00    -0.000 A 
ATOM     23  C   UNL A   1      32.615  25.165  21.341  1.00  0.00     0.014 A 
ATOM     24  C   UNL A   1      31.216  26.438  23.386  1.00  0.00     0.010 A 
ATOM     25  C   UNL A   1      31.804  26.261  21.047  1.00  0.00     0.001 A 
ATOM     26  C   UNL A   1      31.094  26.889  22.067  1.00  0.00     0.001 A 
BRANCH  15  27
ATOM     27  C   UNL A   1      33.824  21.475  24.391  1.00  0.00     0.053 A 
ATOM     28  C   UNL A   1      32.598  17.853  24.109  1.00  0.00     0.044 C 
ATOM     29  C   UNL A   1      33.507  19.020  24.365  1.00  0.00    -0.049 A 
ATOM     30  C   UNL A   1      34.823  18.826  24.768  1.00  0.00     0.003 A 
ATOM     31  C   UNL A   1      33.037  20.329  24.170  1.00  0.00     0.030 A 
ATOM     32  C   UNL A   1      35.634  19.929  25.000  1.00  0.00     0.002 A 
ATOM     33  C   UNL A   1      35.138  21.228  24.822  1.00  0.00     0.027 A 
ENDBRANCH  15  27
ENDBRANCH   9  14
ENDBRANCH   6   8
ENDBRANCH   5   6
ENDBRANCH   4   5
ENDBRANCH   3   4
ENDBRANCH   2   3
ENDBRANCH   1   2
BRANCH   1  34
ATOM     34  C   UNL A   1      39.702  27.404  29.247  1.00  0.00     0.261 C 
BRANCH  34  35
ATOM     35  O   UNL A   1      39.794  27.243  27.813  1.00  0.00    -0.460 OA
BRANCH  35  36
ATOM     36  C   UNL A   1      39.952  25.953  27.388  1.00  0.00     0.338 C 
ATOM     37  O   UNL A   1      39.023  25.180  27.216  1.00  0.00    -0.246 OA
BRANCH  36  38
ATOM     38  C   UNL A   1      41.397  25.565  27.414  1.00  0.00     0.060 A 
ATOM     39  C   UNL A   1      41.789  24.387  28.074  1.00  0.00     0.016 A 
ATOM     40  C   UNL A   1      42.357  26.518  27.089  1.00  0.00     0.016 A 
ATOM     41  C   UNL A   1      43.084  24.268  28.604  1.00  0.00     0.010 A 
ATOM     42  C   UNL A   1      43.604  26.424  27.681  1.00  0.00     0.010 A 
ATOM     43  C   UNL A   1      43.954  25.342  28.512  1.00  0.00    -0.014 A 
BRANCH  43  44
ATOM     44  C   UNL A   1      45.262  25.460  29.173  1.00  0.00     0.031 A 
ATOM     45  C   UNL A   1      46.432  25.054  28.362  1.00  0.00     0.074 A 
ATOM     46  C   UNL A   1      45.471  26.211  30.289  1.00  0.00     0.049 A 
ATOM     47  N   UNL A   1      47.651  25.169  28.752  1.00  0.00    -0.248 NA
ATOM     48  C   UNL A   1      46.320  24.444  27.035  1.00  0.00     0.031 C 
ATOM     49  C   UNL A   1      46.634  27.068  30.562  1.00  0.00     0.029 A 
ATOM     50  N   UNL A   1      44.668  26.449  31.411  1.00  0.00    -0.354 N 
ATOM     51  C   UNL A   1      48.435  25.056  27.633  1.00  0.00     0.074 A 
ATOM     52  C   UNL A   1      47.598  24.433  26.645  1.00  0.00     0.031 C 
ATOM     53  C   UNL A   1      46.583  27.525  31.824  1.00  0.00     0.029 A 
ATOM     54  C   UNL A   1      45.485  26.841  32.480  1.00  0.00     0.049 A 
ATOM     55  H   UNL A   1      43.689  26.355  31.444  1.00  0.00     0.167 HD
ATOM     56  C   UNL A   1      49.645  25.673  27.643  1.00  0.00     0.034 A 
ATOM     57  C   UNL A   1      45.497  26.164  33.660  1.00  0.00     0.034 A 
ATOM     58  C   UNL A   1      49.988  26.123  29.008  1.00  0.00     0.049 A 
ATOM     59  C   UNL A   1      46.875  25.608  33.884  1.00  0.00     0.074 A 
ATOM     60  C   UNL A   1      50.089  27.362  29.616  1.00  0.00     0.029 A 
ATOM     61  N   UNL A   1      49.997  25.184  30.044  1.00  0.00    -0.354 N 
ATOM     62  N   UNL A   1      47.789  25.663  32.957  1.00  0.00    -0.248 NA
ATOM     63  C   UNL A   1      47.388  25.015  35.112  1.00  0.00     0.031 C 
ATOM     64  C   UNL A   1      50.048  27.158  31.031  1.00  0.00     0.029 A 
ATOM     65  C   UNL A   1      49.980  25.796  31.288  1.00  0.00     0.049 A 
ATOM     66  H   UNL A   1      50.013  24.210  29.907  1.00  0.00     0.167 HD
ATOM     67  C   UNL A   1      48.947  25.112  33.375  1.00  0.00     0.074 A 
ATOM     68  C   UNL A   1      48.659  24.738  34.753  1.00  0.00     0.031 C 
ATOM     69  C   UNL A   1      50.003  24.987  32.515  1.00  0.00     0.034 A 
BRANCH  56  70
ATOM     70  C   UNL A   1      50.460  26.020  26.408  1.00  0.00     0.023 A 
ATOM     71  C   UNL A   1      49.759  26.598  25.328  1.00  0.00     0.012 A 
ATOM     72  C   UNL A   1      51.839  25.755  26.182  1.00  0.00     0.148 A 
ATOM     73  C   UNL A   1      50.377  26.904  24.109  1.00  0.00     0.002 A 
ATOM     74  C   UNL A   1      52.474  26.133  24.994  1.00  0.00     0.091 A 
ATOM     75  F   UNL A   1      52.545  25.047  27.067  1.00  0.00    -0.205 F 
ATOM     76  C   UNL A   1      51.739  26.694  23.948  1.00  0.00     0.022 A 
BRANCH  74  77
ATOM     77  S   UNL A   1      54.251  25.955  24.733  1.00  0.00     0.127 S 
ATOM     78  O   UNL A   1      54.444  24.512  24.876  1.00  0.00    -0.237 OA
ATOM     79  O   UNL A   1      54.420  26.455  23.367  1.00  0.00    -0.237 OA
ATOM     80  O   UNL A   1      54.900  26.769  25.753  1.00  0.00    -0.744 OA
ENDBRANCH  74  77
ENDBRANCH  56  70
BRANCH  57  81
ATOM     81  C   UNL A   1      44.159  25.569  33.973  1.00  0.00     0.023 A 
ATOM     82  C   UNL A   1      44.039  24.163  33.794  1.00  0.00     0.012 A 
ATOM     83  C   UNL A   1      43.290  26.205  34.878  1.00  0.00     0.148 A 
ATOM     84  C   UNL A   1      43.189  23.400  34.604  1.00  0.00     0.002 A 
ATOM     85  C   UNL A   1      42.475  25.432  35.708  1.00  0.00     0.091 A 
ATOM     86  F   UNL A   1      43.334  27.540  34.971  1.00  0.00    -0.205 F 
ATOM     87  C   UNL A   1      42.453  24.030  35.600  1.00  0.00     0.022 A 
BRANCH  85  88
ATOM     88  S   UNL A   1      41.546  26.159  37.066  1.00  0.00     0.127 S 
ATOM     89  O   UNL A   1      42.606  26.450  38.027  1.00  0.00    -0.237 OA
ATOM     90  O   UNL A   1      40.948  27.341  36.442  1.00  0.00    -0.237 OA
ATOM     91  O   UNL A   1      40.585  25.142  37.465  1.00  0.00    -0.744 OA
ENDBRANCH  85  88
ENDBRANCH  57  81
BRANCH  69  92
ATOM     92  C   UNL A   1      51.156  24.053  32.761  1.00  0.00     0.023 A 
ATOM     93  C   UNL A   1      50.991  22.655  32.758  1.00  0.00     0.012 A 
ATOM     94  C   UNL A   1      52.480  24.547  32.806  1.00  0.00     0.148 A 
ATOM     95  C   UNL A   1      52.078  21.787  32.866  1.00  0.00     0.002 A 
ATOM     96  C   UNL A   1      53.561  23.680  32.768  1.00  0.00     0.091 A 
ATOM     97  F   UNL A   1      52.703  25.867  32.895  1.00  0.00    -0.205 F 
ATOM     98  C   UNL A   1      53.365  22.299  32.841  1.00  0.00     0.022 A 
BRANCH  96  99
ATOM     99  S   UNL A   1      55.217  24.287  32.434  1.00  0.00     0.127 S 
ATOM    100  O   UNL A   1      55.978  23.043  32.343  1.00  0.00    -0.237 OA
ATOM    101  O   UNL A   1      55.037  24.989  31.161  1.00  0.00    -0.237 OA
ATOM    102  O   UNL A   1      55.543  25.158  33.554  1.00  0.00    -0.744 OA
ENDBRANCH  96  99
ENDBRANCH  69  92
ENDBRANCH  43  44
ENDBRANCH  36  38
ENDBRANCH  35  36
ENDBRANCH  34  35
ENDBRANCH   1  34
TORSDOF 19
ENDMDL
MODEL 3
REMARK VINA RESULT:     -12.1      5.346      8.018
REMARK SMILES Cc1cccc(N2C(=O)/C(=C/c3ccc(C(=O)OCCOCCOC(=O)c4ccc(-c5c6nc(c(-c7cccc(S(=O)(=O)[O-])c7F)c7ccc([nH]7)c(-c7cccc(S(=O)(=O)[O-])c7F)c7nc(c(-c8cccc(S(=O)(=O)[O-])c8F)c8ccc5[nH]8)C=C7)C=C6)cc4)cc3)c3ccccc3C2=O)c1
REMARK SMILES IDX 22 1 21 2 20 3 19 4 18 5 16 6 17 7 15 8 12 9 13 10 91 11
REMARK SMILES IDX 14 12 90 13 11 14 7 15 8 16 98 17 9 18 10 19 97 20 99 21
REMARK SMILES IDX 92 22 96 23 93 24 95 25 94 26 6 27 1 28 2 29 3 30 100 31
REMARK SMILES IDX 4 32 5 33 23 34 24 35 25 36 26 37 27 38 28 39 89 40 29 41
REMARK SMILES IDX 88 42 30 43 31 44 32 45 82 46 33 47 87 48 81 49 83 50 34 51
REMARK SMILES IDX 86 52 80 53 79 54 35 56 67 57 47 58 66 59 48 60 51 61 65 62
REMARK SMILES IDX 84 63 49 64 50 65 64 67 85 68 52 69 36 70 37 71 45 72 38 73
REMARK SMILES IDX 40 74 46 75 39 76 41 77 42 78 43 79 44 80 68 81 69 82 77 83
REMARK SMILES IDX 70 84 72 85 78 86 71 87 73 88 74 89 75 90 76 91 53 92 54 93
REMARK SMILES IDX 62 94 55 95 57 96 63 97 56 98 58 99 59 100 60 101 61 102
REMARK H PARENT 83 55 51 66
REMARK Flexibility Score: inf
ROOT
ATOM      1  C   UNL A   1      38.493  28.696  29.865  1.00  0.00     0.202 C 
ENDROOT
BRANCH   1   2
ATOM      2  O   UNL A   1      38.802  29.837  29.111  1.00  0.00    -0.374 OA
BRANCH   2   3
ATOM      3  C   UNL A   1      37.728  30.660  28.718  1.00  0.00     0.202 C 
BRANCH   3   4
ATOM      4  C   UNL A   1      36.774  29.730  28.038  1.00  0.00     0.261 C 
BRANCH   4   5
ATOM      5  O   UNL A   1      35.400  29.911  28.482  1.00  0.00    -0.460 OA
BRANCH   5   6
ATOM      6  C   UNL A   1      34.455  30.535  27.705  1.00  0.00     0.338 C 
ATOM      7  O   UNL A   1      34.299  31.690  27.431  1.00  0.00    -0.246 OA
BRANCH   6   8
ATOM      8  C   UNL A   1      33.683  29.478  27.043  1.00  0.00     0.060 A 
ATOM      9  C   UNL A   1      32.862  26.992  26.276  1.00  0.00    -0.025 A 
ATOM     10  C   UNL A   1      33.831  27.649  25.512  1.00  0.00     0.009 A 
ATOM     11  C   UNL A   1      32.122  27.687  27.238  1.00  0.00     0.009 A 
ATOM     12  C   UNL A   1      34.235  28.921  25.888  1.00  0.00     0.016 A 
ATOM     13  C   UNL A   1      32.565  28.926  27.661  1.00  0.00     0.016 A 
BRANCH   9  14
ATOM     14  C   UNL A   1      32.738  25.544  26.147  1.00  0.00     0.022 C 
ATOM     15  N   UNL A   1      33.168  22.786  24.129  1.00  0.00    -0.242 N 
ATOM     16  C   UNL A   1      32.445  23.411  25.164  1.00  0.00     0.265 C 
ATOM     17  C   UNL A   1      33.464  23.485  22.930  1.00  0.00     0.265 C 
ATOM     18  O   UNL A   1      31.914  22.913  26.154  1.00  0.00    -0.268 OA
ATOM     19  C   UNL A   1      32.365  24.886  25.027  1.00  0.00     0.049 C 
ATOM     20  C   UNL A   1      32.690  24.725  22.645  1.00  0.00     0.048 A 
ATOM     21  O   UNL A   1      34.269  23.168  22.057  1.00  0.00    -0.268 OA
ATOM     22  C   UNL A   1      32.079  25.406  23.692  1.00  0.00    -0.000 A 
ATOM     23  C   UNL A   1      32.585  25.204  21.330  1.00  0.00     0.014 A 
ATOM     24  C   UNL A   1      31.271  26.516  23.407  1.00  0.00     0.010 A 
ATOM     25  C   UNL A   1      31.830  26.346  21.060  1.00  0.00     0.001 A 
ATOM     26  C   UNL A   1      31.162  26.994  22.096  1.00  0.00     0.001 A 
BRANCH  15  27
ATOM     27  C   UNL A   1      33.623  21.408  24.311  1.00  0.00     0.053 A 
ATOM     28  C   UNL A   1      32.312  17.857  23.699  1.00  0.00     0.044 C 
ATOM     29  C   UNL A   1      33.227  18.972  24.112  1.00  0.00    -0.049 A 
ATOM     30  C   UNL A   1      34.487  18.705  24.635  1.00  0.00     0.003 A 
ATOM     31  C   UNL A   1      32.825  20.307  23.946  1.00  0.00     0.030 A 
ATOM     32  C   UNL A   1      35.307  19.761  25.010  1.00  0.00     0.002 A 
ATOM     33  C   UNL A   1      34.876  21.086  24.859  1.00  0.00     0.027 A 
ENDBRANCH  15  27
ENDBRANCH   9  14
ENDBRANCH   6   8
ENDBRANCH   5   6
ENDBRANCH   4   5
ENDBRANCH   3   4
ENDBRANCH   2   3
ENDBRANCH   1   2
BRANCH   1  34
ATOM     34  C   UNL A   1      39.541  27.613  29.640  1.00  0.00     0.261 C 
BRANCH  34  35
ATOM     35  O   UNL A   1      40.074  27.734  28.302  1.00  0.00    -0.460 OA
BRANCH  35  36
ATOM     36  C   UNL A   1      40.240  26.549  27.640  1.00  0.00     0.338 C 
ATOM     37  O   UNL A   1      39.318  25.809  27.334  1.00  0.00    -0.246 OA
BRANCH  36  38
ATOM     38  C   UNL A   1      41.690  26.181  27.579  1.00  0.00     0.060 A 
ATOM     39  C   UNL A   1      42.087  24.866  27.876  1.00  0.00     0.016 A 
ATOM     40  C   UNL A   1      42.642  27.195  27.562  1.00  0.00     0.016 A 
ATOM     41  C   UNL A   1      43.376  24.609  28.372  1.00  0.00     0.010 A 
ATOM     42  C   UNL A   1      43.882  26.945  28.123  1.00  0.00     0.010 A 
ATOM     43  C   UNL A   1      44.232  25.670  28.612  1.00  0.00    -0.014 A 
BRANCH  43  44
ATOM     44  C   UNL A   1      45.529  25.603  29.302  1.00  0.00     0.031 A 
ATOM     45  C   UNL A   1      46.663  25.101  28.495  1.00  0.00     0.074 A 
ATOM     46  C   UNL A   1      45.797  26.271  30.459  1.00  0.00     0.049 A 
ATOM     47  N   UNL A   1      47.877  25.054  28.913  1.00  0.00    -0.248 NA
ATOM     48  C   UNL A   1      46.514  24.572  27.136  1.00  0.00     0.031 C 
ATOM     49  C   UNL A   1      47.044  26.971  30.795  1.00  0.00     0.029 A 
ATOM     50  N   UNL A   1      44.999  26.547  31.575  1.00  0.00    -0.354 N 
ATOM     51  C   UNL A   1      48.670  24.902  27.804  1.00  0.00     0.074 A 
ATOM     52  C   UNL A   1      47.791  24.429  26.771  1.00  0.00     0.031 C 
ATOM     53  C   UNL A   1      47.015  27.371  32.078  1.00  0.00     0.029 A 
ATOM     54  C   UNL A   1      45.829  26.790  32.678  1.00  0.00     0.049 A 
ATOM     55  H   UNL A   1      44.015  26.567  31.584  1.00  0.00     0.167 HD
ATOM     56  C   UNL A   1      49.943  25.371  27.868  1.00  0.00     0.034 A 
ATOM     57  C   UNL A   1      45.733  26.061  33.822  1.00  0.00     0.034 A 
ATOM     58  C   UNL A   1      50.302  25.714  29.260  1.00  0.00     0.049 A 
ATOM     59  C   UNL A   1      47.031  25.337  34.045  1.00  0.00     0.074 A 
ATOM     60  C   UNL A   1      50.532  26.901  29.931  1.00  0.00     0.029 A 
ATOM     61  N   UNL A   1      50.177  24.732  30.248  1.00  0.00    -0.354 N 
ATOM     62  N   UNL A   1      47.968  25.328  33.139  1.00  0.00    -0.248 NA
ATOM     63  C   UNL A   1      47.441  24.631  35.251  1.00  0.00     0.031 C 
ATOM     64  C   UNL A   1      50.433  26.637  31.333  1.00  0.00     0.029 A 
ATOM     65  C   UNL A   1      50.200  25.282  31.521  1.00  0.00     0.049 A 
ATOM     66  H   UNL A   1      50.083  23.770  30.063  1.00  0.00     0.167 HD
ATOM     67  C   UNL A   1      49.044  24.626  33.551  1.00  0.00     0.074 A 
ATOM     68  C   UNL A   1      48.679  24.224  34.903  1.00  0.00     0.031 C 
ATOM     69  C   UNL A   1      50.098  24.419  32.707  1.00  0.00     0.034 A 
BRANCH  56  70
ATOM     70  C   UNL A   1      50.824  25.678  26.668  1.00  0.00     0.023 A 
ATOM     71  C   UNL A   1      52.137  25.162  26.697  1.00  0.00     0.012 A 
ATOM     72  C   UNL A   1      50.503  26.497  25.550  1.00  0.00     0.148 A 
ATOM     73  C   UNL A   1      53.070  25.425  25.687  1.00  0.00     0.002 A 
ATOM     74  C   UNL A   1      51.410  26.695  24.502  1.00  0.00     0.091 A 
ATOM     75  F   UNL A   1      49.356  27.179  25.518  1.00  0.00    -0.205 F 
ATOM     76  C   UNL A   1      52.701  26.173  24.578  1.00  0.00     0.022 A 
BRANCH  74  77
ATOM     77  S   UNL A   1      50.985  27.598  22.997  1.00  0.00     0.127 S 
ATOM     78  O   UNL A   1      49.742  26.947  22.584  1.00  0.00    -0.237 OA
ATOM     79  O   UNL A   1      50.817  28.966  23.488  1.00  0.00    -0.237 OA
ATOM     80  O   UNL A   1      52.108  27.423  22.083  1.00  0.00    -0.744 OA
ENDBRANCH  74  77
ENDBRANCH  56  70
BRANCH  57  81
ATOM     81  C   UNL A   1      44.327  25.613  34.080  1.00  0.00     0.023 A 
ATOM     82  C   UNL A   1      44.047  24.243  33.820  1.00  0.00     0.012 A 
ATOM     83  C   UNL A   1      43.519  26.298  35.005  1.00  0.00     0.148 A 
ATOM     84  C   UNL A   1      43.095  23.544  34.572  1.00  0.00     0.002 A 
ATOM     85  C   UNL A   1      42.601  25.584  35.777  1.00  0.00     0.091 A 
ATOM     86  F   UNL A   1      43.718  27.612  35.174  1.00  0.00    -0.205 F 
ATOM     87  C   UNL A   1      42.416  24.203  35.590  1.00  0.00     0.022 A 
BRANCH  85  88
ATOM     88  S   UNL A   1      41.733  26.342  37.159  1.00  0.00     0.127 S 
ATOM     89  O   UNL A   1      40.774  25.298  37.513  1.00  0.00    -0.237 OA
ATOM     90  O   UNL A   1      42.806  26.541  38.135  1.00  0.00    -0.237 OA
ATOM     91  O   UNL A   1      41.168  27.574  36.630  1.00  0.00    -0.744 OA
ENDBRANCH  85  88
ENDBRANCH  57  81
BRANCH  69  92
ATOM     92  C   UNL A   1      51.128  23.345  32.927  1.00  0.00     0.023 A 
ATOM     93  C   UNL A   1      52.505  23.595  32.767  1.00  0.00     0.012 A 
ATOM     94  C   UNL A   1      50.758  22.103  33.493  1.00  0.00     0.148 A 
ATOM     95  C   UNL A   1      53.466  22.636  33.086  1.00  0.00     0.002 A 
ATOM     96  C   UNL A   1      51.723  21.214  33.941  1.00  0.00     0.091 A 
ATOM     97  F   UNL A   1      49.463  21.769  33.595  1.00  0.00    -0.205 F 
ATOM     98  C   UNL A   1      53.077  21.456  33.701  1.00  0.00     0.022 A 
BRANCH  96  99
ATOM     99  S   UNL A   1      51.282  19.833  34.999  1.00  0.00     0.127 S 
ATOM    100  O   UNL A   1      50.441  19.032  34.112  1.00  0.00    -0.237 OA
ATOM    101  O   UNL A   1      52.589  19.246  35.300  1.00  0.00    -0.237 OA
ATOM    102  O   UNL A   1      50.616  20.426  36.151  1.00  0.00    -0.744 OA
ENDBRANCH  96  99
ENDBRANCH  69  92
ENDBRANCH  43  44
ENDBRANCH  36  38
ENDBRANCH  35  36
ENDBRANCH  34  35
ENDBRANCH   1  34
TORSDOF 19
ENDMDL
