MODEL 1
REMARK VINA RESULT:     -11.1      0.000      0.000
REMARK SMILES COc1cc(/C=C2\SC(=S)N([C@H](C)C(=O)Nc3ccc(C(=O)OCCOCCOC(=O)c4ccc(-c5c6nc(c(-c7cccc(S(=O)(=O)[O-])c7F)c7ccc([nH]7)c(-c7cccc(S(=O)(=O)[O-])c7F)c7nc(c(-c8cccc(S(=O)(=O)[O-])c8F)c8ccc5[nH]8)C=C7)C=C6)cc4)cc3)C2=O)ccc1O
REMARK SMILES IDX 25 1 24 2 23 3 21 4 22 5 20 6 17 7 18 8 96 9 19 10 95 11
REMARK SMILES IDX 16 12 14 13 15 14 12 16 13 17 11 18 6 19 7 20 8 21 97 22
REMARK SMILES IDX 9 23 98 24 10 25 5 26 3 27 4 28 101 29 100 30 99 31 2 32
REMARK SMILES IDX 1 33 102 34 26 36 27 37 28 38 29 39 30 40 31 41 32 42 33 43
REMARK SMILES IDX 94 44 34 45 93 46 35 47 36 48 37 49 87 50 38 51 92 52 86 53
REMARK SMILES IDX 88 54 39 55 91 56 85 57 84 58 40 60 72 61 52 62 71 63 53 64
REMARK SMILES IDX 56 65 70 66 89 67 54 68 55 69 69 71 90 72 57 73 41 74 42 75
REMARK SMILES IDX 50 76 43 77 45 78 51 79 44 80 46 81 47 82 48 83 49 84 73 85
REMARK SMILES IDX 74 86 82 87 75 88 77 89 83 90 76 91 78 92 79 93 80 94 81 95
REMARK SMILES IDX 58 96 59 97 67 98 60 99 62 100 68 101 61 102 63 103 64 104
REMARK SMILES IDX 65 105 66 106
REMARK H PARENT 16 15 102 35 88 59 56 70
REMARK Flexibility Score: inf
ROOT
ATOM      1  C   UNL A   1      35.754  33.290  28.515  1.00  0.00     0.202 C 
ENDROOT
BRANCH   1   2
ATOM      2  C   UNL A   1      34.663  32.360  27.980  1.00  0.00     0.261 C 
BRANCH   2   3
ATOM      3  O   UNL A   1      34.740  31.075  28.606  1.00  0.00    -0.460 OA
BRANCH   3   4
ATOM      4  C   UNL A   1      35.069  30.051  27.785  1.00  0.00     0.338 C 
ATOM      5  O   UNL A   1      36.094  29.391  27.808  1.00  0.00    -0.246 OA
BRANCH   4   6
ATOM      6  C   UNL A   1      33.939  29.741  26.874  1.00  0.00     0.060 A 
ATOM      7  C   UNL A   1      31.914  29.427  24.996  1.00  0.00     0.041 A 
ATOM      8  C   UNL A   1      33.231  29.185  24.623  1.00  0.00     0.027 A 
ATOM      9  C   UNL A   1      31.593  29.627  26.336  1.00  0.00     0.027 A 
ATOM     10  C   UNL A   1      34.248  29.372  25.558  1.00  0.00     0.018 A 
ATOM     11  C   UNL A   1      32.603  29.791  27.281  1.00  0.00     0.018 A 
BRANCH   7  12
ATOM     12  N   UNL A   1      30.935  29.423  24.011  1.00  0.00    -0.324 N 
ATOM     13  C   UNL A   1      30.416  28.363  23.325  1.00  0.00     0.247 C 
ATOM     14  O   UNL A   1      29.850  28.610  22.252  1.00  0.00    -0.272 OA
ATOM     15  H   UNL A   1      30.564  30.304  23.776  1.00  0.00     0.170 HD
BRANCH  13  16
ATOM     16  C   UNL A   1      30.523  26.890  23.825  1.00  0.00     0.178 C 
ATOM     17  C   UNL A   1      29.227  26.120  23.583  1.00  0.00     0.042 C 
BRANCH  16  18
ATOM     18  N   UNL A   1      31.830  26.200  23.631  1.00  0.00    -0.280 N 
ATOM     19  C   UNL A   1      33.779  23.808  25.490  1.00  0.00     0.029 C 
ATOM     20  C   UNL A   1      33.412  24.671  24.529  1.00  0.00     0.081 C 
ATOM     21  S   UNL A   1      33.730  24.612  22.856  1.00  0.00    -0.054 SA
ATOM     22  C   UNL A   1      32.424  25.745  24.809  1.00  0.00     0.266 C 
ATOM     23  C   UNL A   1      32.422  25.737  22.469  1.00  0.00     0.149 C 
ATOM     24  O   UNL A   1      32.146  26.112  25.943  1.00  0.00    -0.268 OA
ATOM     25  S   UNL A   1      32.087  26.028  20.865  1.00  0.00    -0.052 S 
BRANCH  19  26
ATOM     26  C   UNL A   1      34.458  22.514  25.310  1.00  0.00    -0.020 A 
ATOM     27  C   UNL A   1      36.606  21.354  24.994  1.00  0.00     0.161 A 
ATOM     28  C   UNL A   1      35.849  22.531  25.117  1.00  0.00     0.058 A 
ATOM     29  C   UNL A   1      35.934  20.134  25.064  1.00  0.00     0.157 A 
ATOM     30  C   UNL A   1      34.546  20.101  25.236  1.00  0.00     0.051 A 
ATOM     31  C   UNL A   1      33.806  21.283  25.337  1.00  0.00     0.012 A 
BRANCH  27  32
ATOM     32  O   UNL A   1      37.935  21.616  24.819  1.00  0.00    -0.493 OA
ATOM     33  C   UNL A   1      38.823  21.627  25.921  1.00  0.00     0.278 C 
ENDBRANCH  27  32
BRANCH  29  34
ATOM     34  O   UNL A   1      36.519  18.906  24.957  1.00  0.00    -0.504 OA
ATOM     35  H   UNL A   1      37.453  18.827  24.997  1.00  0.00     0.293 HD
ENDBRANCH  29  34
ENDBRANCH  19  26
ENDBRANCH  16  18
ENDBRANCH  13  16
ENDBRANCH   7  12
ENDBRANCH   4   6
ENDBRANCH   3   4
ENDBRANCH   2   3
ENDBRANCH   1   2
BRANCH   1  36
ATOM     36  O   UNL A   1      35.356  34.625  28.833  1.00  0.00    -0.374 OA
BRANCH  36  37
ATOM     37  C   UNL A   1      34.130  35.094  28.268  1.00  0.00     0.202 C 
BRANCH  37  38
ATOM     38  C   UNL A   1      33.173  35.844  29.201  1.00  0.00     0.261 C 
BRANCH  38  39
ATOM     39  O   UNL A   1      32.760  35.042  30.319  1.00  0.00    -0.460 OA
BRANCH  39  40
ATOM     40  C   UNL A   1      32.931  35.626  31.531  1.00  0.00     0.338 C 
ATOM     41  O   UNL A   1      32.229  36.482  32.041  1.00  0.00    -0.246 OA
BRANCH  40  42
ATOM     42  C   UNL A   1      34.013  34.941  32.261  1.00  0.00     0.060 A 
ATOM     43  C   UNL A   1      35.316  35.435  32.108  1.00  0.00     0.016 A 
ATOM     44  C   UNL A   1      33.769  33.802  33.028  1.00  0.00     0.016 A 
ATOM     45  C   UNL A   1      36.390  34.764  32.688  1.00  0.00     0.010 A 
ATOM     46  C   UNL A   1      34.848  33.124  33.600  1.00  0.00     0.010 A 
ATOM     47  C   UNL A   1      36.164  33.582  33.404  1.00  0.00    -0.014 A 
BRANCH  47  48
ATOM     48  C   UNL A   1      37.305  32.741  33.837  1.00  0.00     0.031 A 
ATOM     49  C   UNL A   1      38.082  33.148  35.056  1.00  0.00     0.074 A 
ATOM     50  C   UNL A   1      37.671  31.661  33.124  1.00  0.00     0.049 A 
ATOM     51  N   UNL A   1      39.178  32.635  35.549  1.00  0.00    -0.248 NA
ATOM     52  C   UNL A   1      37.559  34.296  35.817  1.00  0.00     0.031 C 
ATOM     53  C   UNL A   1      36.991  31.170  31.928  1.00  0.00     0.029 A 
ATOM     54  N   UNL A   1      38.736  30.810  33.283  1.00  0.00    -0.354 N 
ATOM     55  C   UNL A   1      39.502  33.421  36.647  1.00  0.00     0.074 A 
ATOM     56  C   UNL A   1      38.487  34.446  36.751  1.00  0.00     0.031 C 
ATOM     57  C   UNL A   1      37.684  30.132  31.431  1.00  0.00     0.029 A 
ATOM     58  C   UNL A   1      38.870  29.908  32.255  1.00  0.00     0.049 A 
ATOM     59  H   UNL A   1      39.344  30.843  34.057  1.00  0.00     0.167 HD
ATOM     60  C   UNL A   1      40.551  33.297  37.495  1.00  0.00     0.034 A 
ATOM     61  C   UNL A   1      39.857  29.030  31.989  1.00  0.00     0.034 A 
ATOM     62  C   UNL A   1      41.541  32.261  37.400  1.00  0.00     0.049 A 
ATOM     63  C   UNL A   1      41.021  28.917  32.939  1.00  0.00     0.074 A 
ATOM     64  C   UNL A   1      42.601  32.006  38.252  1.00  0.00     0.029 A 
ATOM     65  N   UNL A   1      41.607  31.321  36.384  1.00  0.00    -0.354 N 
ATOM     66  N   UNL A   1      41.249  29.584  34.044  1.00  0.00    -0.248 NA
ATOM     67  C   UNL A   1      42.048  27.913  32.623  1.00  0.00     0.031 C 
ATOM     68  C   UNL A   1      43.329  30.931  37.731  1.00  0.00     0.029 A 
ATOM     69  C   UNL A   1      42.701  30.495  36.575  1.00  0.00     0.049 A 
ATOM     70  H   UNL A   1      40.970  31.251  35.637  1.00  0.00     0.167 HD
ATOM     71  C   UNL A   1      42.422  29.057  34.575  1.00  0.00     0.074 A 
ATOM     72  C   UNL A   1      42.852  28.007  33.675  1.00  0.00     0.031 C 
ATOM     73  C   UNL A   1      43.086  29.415  35.702  1.00  0.00     0.034 A 
BRANCH  60  74
ATOM     74  C   UNL A   1      40.675  34.302  38.608  1.00  0.00     0.023 A 
ATOM     75  C   UNL A   1      41.558  35.393  38.476  1.00  0.00     0.012 A 
ATOM     76  C   UNL A   1      39.876  34.195  39.763  1.00  0.00     0.148 A 
ATOM     77  C   UNL A   1      41.667  36.344  39.490  1.00  0.00     0.002 A 
ATOM     78  C   UNL A   1      39.958  35.171  40.749  1.00  0.00     0.091 A 
ATOM     79  F   UNL A   1      39.061  33.138  39.881  1.00  0.00    -0.205 F 
ATOM     80  C   UNL A   1      40.860  36.238  40.620  1.00  0.00     0.022 A 
BRANCH  78  81
ATOM     81  S   UNL A   1      38.903  35.163  42.203  1.00  0.00     0.127 S 
ATOM     82  O   UNL A   1      37.571  35.143  41.601  1.00  0.00    -0.237 OA
ATOM     83  O   UNL A   1      39.293  33.914  42.860  1.00  0.00    -0.237 OA
ATOM     84  O   UNL A   1      39.237  36.369  42.948  1.00  0.00    -0.744 OA
ENDBRANCH  78  81
ENDBRANCH  60  74
BRANCH  61  85
ATOM     85  C   UNL A   1      39.775  28.176  30.771  1.00  0.00     0.023 A 
ATOM     86  C   UNL A   1      38.917  27.061  30.759  1.00  0.00     0.012 A 
ATOM     87  C   UNL A   1      40.516  28.487  29.613  1.00  0.00     0.148 A 
ATOM     88  C   UNL A   1      38.815  26.256  29.623  1.00  0.00     0.002 A 
ATOM     89  C   UNL A   1      40.369  27.714  28.468  1.00  0.00     0.091 A 
ATOM     90  F   UNL A   1      41.339  29.545  29.652  1.00  0.00    -0.205 F 
ATOM     91  C   UNL A   1      39.531  26.589  28.476  1.00  0.00     0.022 A 
BRANCH  89  92
ATOM     92  S   UNL A   1      41.154  28.140  26.910  1.00  0.00     0.127 S 
ATOM     93  O   UNL A   1      42.540  28.346  27.320  1.00  0.00    -0.237 OA
ATOM     94  O   UNL A   1      40.919  26.933  26.116  1.00  0.00    -0.237 OA
ATOM     95  O   UNL A   1      40.456  29.324  26.426  1.00  0.00    -0.744 OA
ENDBRANCH  89  92
ENDBRANCH  61  85
BRANCH  73  96
ATOM     96  C   UNL A   1      44.327  28.645  36.071  1.00  0.00     0.023 A 
ATOM     97  C   UNL A   1      45.593  29.124  35.684  1.00  0.00     0.012 A 
ATOM     98  C   UNL A   1      44.239  27.511  36.904  1.00  0.00     0.148 A 
ATOM     99  C   UNL A   1      46.753  28.475  36.105  1.00  0.00     0.002 A 
ATOM    100  C   UNL A   1      45.400  26.900  37.360  1.00  0.00     0.091 A 
ATOM    101  F   UNL A   1      43.023  27.065  37.248  1.00  0.00    -0.205 F 
ATOM    102  C   UNL A   1      46.658  27.374  36.953  1.00  0.00     0.022 A 
BRANCH 100 103
ATOM    103  S   UNL A   1      45.379  25.541  38.535  1.00  0.00     0.127 S 
ATOM    104  O   UNL A   1      46.806  25.260  38.692  1.00  0.00    -0.237 OA
ATOM    105  O   UNL A   1      44.746  26.151  39.703  1.00  0.00    -0.237 OA
ATOM    106  O   UNL A   1      44.603  24.478  37.909  1.00  0.00    -0.744 OA
ENDBRANCH 100 103
ENDBRANCH  73  96
ENDBRANCH  47  48
ENDBRANCH  40  42
ENDBRANCH  39  40
ENDBRANCH  38  39
ENDBRANCH  37  38
ENDBRANCH  36  37
ENDBRANCH   1  36
TORSDOF 23
ENDMDL
MODEL 2
REMARK VINA RESULT:     -11.0      5.817      8.803
REMARK SMILES COc1cc(/C=C2\SC(=S)N([C@H](C)C(=O)Nc3ccc(C(=O)OCCOCCOC(=O)c4ccc(-c5c6nc(c(-c7cccc(S(=O)(=O)[O-])c7F)c7ccc([nH]7)c(-c7cccc(S(=O)(=O)[O-])c7F)c7nc(c(-c8cccc(S(=O)(=O)[O-])c8F)c8ccc5[nH]8)C=C7)C=C6)cc4)cc3)C2=O)ccc1O
REMARK SMILES IDX 25 1 24 2 23 3 21 4 22 5 20 6 17 7 18 8 96 9 19 10 95 11
REMARK SMILES IDX 16 12 14 13 15 14 12 16 13 17 11 18 6 19 7 20 8 21 97 22
REMARK SMILES IDX 9 23 98 24 10 25 5 26 3 27 4 28 101 29 100 30 99 31 2 32
REMARK SMILES IDX 1 33 102 34 26 36 27 37 28 38 29 39 30 40 31 41 32 42 33 43
REMARK SMILES IDX 94 44 34 45 93 46 35 47 36 48 37 49 87 50 38 51 92 52 86 53
REMARK SMILES IDX 88 54 39 55 91 56 85 57 84 58 40 60 72 61 52 62 71 63 53 64
REMARK SMILES IDX 56 65 70 66 89 67 54 68 55 69 69 71 90 72 57 73 41 74 42 75
REMARK SMILES IDX 50 76 43 77 45 78 51 79 44 80 46 81 47 82 48 83 49 84 73 85
REMARK SMILES IDX 74 86 82 87 75 88 77 89 83 90 76 91 78 92 79 93 80 94 81 95
REMARK SMILES IDX 58 96 59 97 67 98 60 99 62 100 68 101 61 102 63 103 64 104
REMARK SMILES IDX 65 105 66 106
REMARK H PARENT 16 15 102 35 88 59 56 70
REMARK Flexibility Score: inf
ROOT
ATOM      1  C   UNL A   1      34.053  33.401  28.412  1.00  0.00     0.202 C 
ENDROOT
BRANCH   1   2
ATOM      2  C   UNL A   1      33.253  32.636  27.355  1.00  0.00     0.261 C 
BRANCH   2   3
ATOM      3  O   UNL A   1      33.055  31.276  27.757  1.00  0.00    -0.460 OA
BRANCH   3   4
ATOM      4  C   UNL A   1      33.938  30.388  27.245  1.00  0.00     0.338 C 
ATOM      5  O   UNL A   1      35.142  30.540  27.119  1.00  0.00    -0.246 OA
BRANCH   4   6
ATOM      6  C   UNL A   1      33.258  29.107  26.935  1.00  0.00     0.060 A 
ATOM      7  C   UNL A   1      31.863  26.718  26.661  1.00  0.00     0.041 A 
ATOM      8  C   UNL A   1      31.157  27.914  26.732  1.00  0.00     0.027 A 
ATOM      9  C   UNL A   1      33.249  26.732  26.527  1.00  0.00     0.027 A 
ATOM     10  C   UNL A   1      31.857  29.107  26.899  1.00  0.00     0.018 A 
ATOM     11  C   UNL A   1      33.954  27.925  26.668  1.00  0.00     0.018 A 
BRANCH   7  12
ATOM     12  N   UNL A   1      31.152  25.525  26.687  1.00  0.00    -0.324 N 
ATOM     13  C   UNL A   1      30.828  24.699  25.650  1.00  0.00     0.247 C 
ATOM     14  O   UNL A   1      29.887  23.915  25.827  1.00  0.00    -0.272 OA
ATOM     15  H   UNL A   1      30.838  25.237  27.575  1.00  0.00     0.170 HD
BRANCH  13  16
ATOM     16  C   UNL A   1      31.573  24.721  24.280  1.00  0.00     0.178 C 
ATOM     17  C   UNL A   1      31.533  23.356  23.598  1.00  0.00     0.042 C 
BRANCH  16  18
ATOM     18  N   UNL A   1      31.439  25.954  23.454  1.00  0.00    -0.280 N 
ATOM     19  C   UNL A   1      29.096  28.684  23.262  1.00  0.00     0.029 C 
ATOM     20  C   UNL A   1      30.148  27.895  22.990  1.00  0.00     0.081 C 
ATOM     21  S   UNL A   1      31.702  28.329  22.442  1.00  0.00    -0.054 SA
ATOM     22  C   UNL A   1      30.141  26.460  23.375  1.00  0.00     0.266 C 
ATOM     23  C   UNL A   1      32.418  26.797  22.957  1.00  0.00     0.149 C 
ATOM     24  O   UNL A   1      29.114  25.850  23.643  1.00  0.00    -0.268 OA
ATOM     25  S   UNL A   1      34.066  26.615  22.814  1.00  0.00    -0.052 S 
BRANCH  19  26
ATOM     26  C   UNL A   1      29.069  30.156  23.266  1.00  0.00    -0.020 A 
ATOM     27  C   UNL A   1      28.227  32.192  22.168  1.00  0.00     0.161 A 
ATOM     28  C   UNL A   1      28.369  30.796  22.230  1.00  0.00     0.058 A 
ATOM     29  C   UNL A   1      28.814  32.955  23.179  1.00  0.00     0.157 A 
ATOM     30  C   UNL A   1      29.530  32.333  24.207  1.00  0.00     0.051 A 
ATOM     31  C   UNL A   1      29.677  30.944  24.241  1.00  0.00     0.012 A 
BRANCH  27  32
ATOM     32  O   UNL A   1      27.505  32.586  21.077  1.00  0.00    -0.493 OA
ATOM     33  C   UNL A   1      27.998  32.376  19.768  1.00  0.00     0.278 C 
ENDBRANCH  27  32
BRANCH  29  34
ATOM     34  O   UNL A   1      28.773  34.316  23.261  1.00  0.00    -0.504 OA
ATOM     35  H   UNL A   1      29.502  34.787  23.616  1.00  0.00     0.293 HD
ENDBRANCH  29  34
ENDBRANCH  19  26
ENDBRANCH  16  18
ENDBRANCH  13  16
ENDBRANCH   7  12
ENDBRANCH   4   6
ENDBRANCH   3   4
ENDBRANCH   2   3
ENDBRANCH   1   2
BRANCH   1  36
ATOM     36  O   UNL A   1      33.299  34.158  29.361  1.00  0.00    -0.374 OA
BRANCH  36  37
ATOM     37  C   UNL A   1      34.015  35.094  30.169  1.00  0.00     0.202 C 
BRANCH  37  38
ATOM     38  C   UNL A   1      34.554  34.590  31.512  1.00  0.00     0.261 C 
BRANCH  38  39
ATOM     39  O   UNL A   1      35.755  33.814  31.361  1.00  0.00    -0.460 OA
BRANCH  39  40
ATOM     40  C   UNL A   1      35.721  32.595  31.954  1.00  0.00     0.338 C 
ATOM     41  O   UNL A   1      34.879  32.177  32.730  1.00  0.00    -0.246 OA
BRANCH  40  42
ATOM     42  C   UNL A   1      36.774  31.738  31.380  1.00  0.00     0.060 A 
ATOM     43  C   UNL A   1      37.662  31.114  32.268  1.00  0.00     0.016 A 
ATOM     44  C   UNL A   1      36.931  31.597  30.001  1.00  0.00     0.016 A 
ATOM     45  C   UNL A   1      38.739  30.380  31.778  1.00  0.00     0.010 A 
ATOM     46  C   UNL A   1      38.017  30.870  29.511  1.00  0.00     0.010 A 
ATOM     47  C   UNL A   1      38.944  30.288  30.397  1.00  0.00    -0.014 A 
BRANCH  47  48
ATOM     48  C   UNL A   1      40.198  29.703  29.865  1.00  0.00     0.031 A 
ATOM     49  C   UNL A   1      41.405  30.585  29.724  1.00  0.00     0.074 A 
ATOM     50  C   UNL A   1      40.240  28.419  29.467  1.00  0.00     0.049 A 
ATOM     51  N   UNL A   1      42.564  30.321  29.180  1.00  0.00    -0.248 NA
ATOM     52  C   UNL A   1      41.288  31.952  30.260  1.00  0.00     0.031 C 
ATOM     53  C   UNL A   1      39.133  27.470  29.558  1.00  0.00     0.029 A 
ATOM     54  N   UNL A   1      41.248  27.708  28.865  1.00  0.00    -0.354 N 
ATOM     55  C   UNL A   1      43.296  31.498  29.264  1.00  0.00     0.074 A 
ATOM     56  C   UNL A   1      42.454  32.478  29.914  1.00  0.00     0.031 C 
ATOM     57  C   UNL A   1      39.506  26.313  28.985  1.00  0.00     0.029 A 
ATOM     58  C   UNL A   1      40.862  26.452  28.461  1.00  0.00     0.049 A 
ATOM     59  H   UNL A   1      42.158  28.063  28.734  1.00  0.00     0.167 HD
ATOM     60  C   UNL A   1      44.560  31.739  28.841  1.00  0.00     0.034 A 
ATOM     61  C   UNL A   1      41.515  25.536  27.718  1.00  0.00     0.034 A 
ATOM     62  C   UNL A   1      45.400  30.753  28.220  1.00  0.00     0.049 A 
ATOM     63  C   UNL A   1      42.916  25.829  27.248  1.00  0.00     0.074 A 
ATOM     64  C   UNL A   1      46.719  30.877  27.822  1.00  0.00     0.029 A 
ATOM     65  N   UNL A   1      44.999  29.469  27.888  1.00  0.00    -0.354 N 
ATOM     66  N   UNL A   1      43.643  26.903  27.445  1.00  0.00    -0.248 NA
ATOM     67  C   UNL A   1      43.598  24.778  26.478  1.00  0.00     0.031 C 
ATOM     68  C   UNL A   1      47.105  29.676  27.216  1.00  0.00     0.029 A 
ATOM     69  C   UNL A   1      46.038  28.795  27.271  1.00  0.00     0.049 A 
ATOM     70  H   UNL A   1      44.107  29.092  28.064  1.00  0.00     0.167 HD
ATOM     71  C   UNL A   1      44.878  26.642  26.859  1.00  0.00     0.074 A 
ATOM     72  C   UNL A   1      44.803  25.306  26.307  1.00  0.00     0.031 C 
ATOM     73  C   UNL A   1      45.970  27.442  26.778  1.00  0.00     0.034 A 
BRANCH  60  74
ATOM     74  C   UNL A   1      45.117  33.122  29.048  1.00  0.00     0.023 A 
ATOM     75  C   UNL A   1      45.854  33.417  30.212  1.00  0.00     0.012 A 
ATOM     76  C   UNL A   1      44.955  34.115  28.061  1.00  0.00     0.148 A 
ATOM     77  C   UNL A   1      46.394  34.688  30.406  1.00  0.00     0.002 A 
ATOM     78  C   UNL A   1      45.534  35.365  28.242  1.00  0.00     0.091 A 
ATOM     79  F   UNL A   1      44.229  33.822  26.973  1.00  0.00    -0.205 F 
ATOM     80  C   UNL A   1      46.243  35.657  29.418  1.00  0.00     0.022 A 
BRANCH  78  81
ATOM     81  S   UNL A   1      45.461  36.651  26.990  1.00  0.00     0.127 S 
ATOM     82  O   UNL A   1      46.275  37.702  27.598  1.00  0.00    -0.237 OA
ATOM     83  O   UNL A   1      46.078  35.993  25.837  1.00  0.00    -0.237 OA
ATOM     84  O   UNL A   1      44.050  36.968  26.824  1.00  0.00    -0.744 OA
ENDBRANCH  78  81
ENDBRANCH  60  74
BRANCH  61  85
ATOM     85  C   UNL A   1      40.849  24.245  27.389  1.00  0.00     0.023 A 
ATOM     86  C   UNL A   1      41.383  23.040  27.881  1.00  0.00     0.012 A 
ATOM     87  C   UNL A   1      39.668  24.212  26.620  1.00  0.00     0.148 A 
ATOM     88  C   UNL A   1      40.766  21.821  27.595  1.00  0.00     0.002 A 
ATOM     89  C   UNL A   1      39.029  23.000  26.385  1.00  0.00     0.091 A 
ATOM     90  F   UNL A   1      39.185  25.370  26.149  1.00  0.00    -0.205 F 
ATOM     91  C   UNL A   1      39.585  21.803  26.858  1.00  0.00     0.022 A 
BRANCH  89  92
ATOM     92  S   UNL A   1      37.440  22.894  25.555  1.00  0.00     0.127 S 
ATOM     93  O   UNL A   1      37.691  23.650  24.330  1.00  0.00    -0.237 OA
ATOM     94  O   UNL A   1      37.295  21.450  25.369  1.00  0.00    -0.237 OA
ATOM     95  O   UNL A   1      36.474  23.483  26.472  1.00  0.00    -0.744 OA
ENDBRANCH  89  92
ENDBRANCH  61  85
BRANCH  73  96
ATOM     96  C   UNL A   1      47.205  26.892  26.114  1.00  0.00     0.023 A 
ATOM     97  C   UNL A   1      47.402  27.077  24.731  1.00  0.00     0.012 A 
ATOM     98  C   UNL A   1      48.224  26.298  26.886  1.00  0.00     0.148 A 
ATOM     99  C   UNL A   1      48.586  26.662  24.124  1.00  0.00     0.002 A 
ATOM    100  C   UNL A   1      49.421  25.932  26.283  1.00  0.00     0.091 A 
ATOM    101  F   UNL A   1      48.008  26.118  28.196  1.00  0.00    -0.205 F 
ATOM    102  C   UNL A   1      49.600  26.104  24.901  1.00  0.00     0.022 A 
BRANCH 100 103
ATOM    103  S   UNL A   1      50.820  25.301  27.217  1.00  0.00     0.127 S 
ATOM    104  O   UNL A   1      51.288  26.504  27.902  1.00  0.00    -0.237 OA
ATOM    105  O   UNL A   1      50.189  24.309  28.088  1.00  0.00    -0.237 OA
ATOM    106  O   UNL A   1      51.743  24.746  26.235  1.00  0.00    -0.744 OA
ENDBRANCH 100 103
ENDBRANCH  73  96
ENDBRANCH  47  48
ENDBRANCH  40  42
ENDBRANCH  39  40
ENDBRANCH  38  39
ENDBRANCH  37  38
ENDBRANCH  36  37
ENDBRANCH   1  36
TORSDOF 23
ENDMDL
MODEL 3
REMARK VINA RESULT:     -10.1      4.843      7.467
REMARK SMILES COc1cc(/C=C2\SC(=S)N([C@H](C)C(=O)Nc3ccc(C(=O)OCCOCCOC(=O)c4ccc(-c5c6nc(c(-c7cccc(S(=O)(=O)[O-])c7F)c7ccc([nH]7)c(-c7cccc(S(=O)(=O)[O-])c7F)c7nc(c(-c8cccc(S(=O)(=O)[O-])c8F)c8ccc5[nH]8)C=C7)C=C6)cc4)cc3)C2=O)ccc1O
REMARK SMILES IDX 25 1 24 2 23 3 21 4 22 5 20 6 17 7 18 8 96 9 19 10 95 11
REMARK SMILES IDX 16 12 14 13 15 14 12 16 13 17 11 18 6 19 7 20 8 21 97 22
REMARK SMILES IDX 9 23 98 24 10 25 5 26 3 27 4 28 101 29 100 30 99 31 2 32
REMARK SMILES IDX 1 33 102 34 26 36 27 37 28 38 29 39 30 40 31 41 32 42 33 43
REMARK SMILES IDX 94 44 34 45 93 46 35 47 36 48 37 49 87 50 38 51 92 52 86 53
REMARK SMILES IDX 88 54 39 55 91 56 85 57 84 58 40 60 72 61 52 62 71 63 53 64
REMARK SMILES IDX 56 65 70 66 89 67 54 68 55 69 69 71 90 72 57 73 41 74 42 75
REMARK SMILES IDX 50 76 43 77 45 78 51 79 44 80 46 81 47 82 48 83 49 84 73 85
REMARK SMILES IDX 74 86 82 87 75 88 77 89 83 90 76 91 78 92 79 93 80 94 81 95
REMARK SMILES IDX 58 96 59 97 67 98 60 99 62 100 68 101 61 102 63 103 64 104
REMARK SMILES IDX 65 105 66 106
REMARK H PARENT 16 15 102 35 88 59 56 70
REMARK Flexibility Score: inf
ROOT
ATOM      1  C   UNL A   1      33.115  30.136  27.328  1.00  0.00     0.202 C 
ENDROOT
BRANCH   1   2
ATOM      2  C   UNL A   1      32.874  29.681  25.886  1.00  0.00     0.261 C 
BRANCH   2   3
ATOM      3  O   UNL A   1      31.642  28.960  25.782  1.00  0.00    -0.460 OA
BRANCH   3   4
ATOM      4  C   UNL A   1      31.023  29.045  24.582  1.00  0.00     0.338 C 
ATOM      5  O   UNL A   1      30.646  30.059  24.020  1.00  0.00    -0.246 OA
BRANCH   4   6
ATOM      6  C   UNL A   1      30.946  27.705  23.948  1.00  0.00     0.060 A 
ATOM      7  C   UNL A   1      30.891  25.073  23.055  1.00  0.00     0.041 A 
ATOM      8  C   UNL A   1      29.912  25.513  23.941  1.00  0.00     0.027 A 
ATOM      9  C   UNL A   1      31.764  25.986  22.470  1.00  0.00     0.027 A 
ATOM     10  C   UNL A   1      29.960  26.824  24.409  1.00  0.00     0.018 A 
ATOM     11  C   UNL A   1      31.800  27.305  22.917  1.00  0.00     0.018 A 
BRANCH   7  12
ATOM     12  N   UNL A   1      30.945  23.721  22.745  1.00  0.00    -0.324 N 
ATOM     13  C   UNL A   1      31.789  22.764  23.233  1.00  0.00     0.247 C 
ATOM     14  O   UNL A   1      31.920  21.734  22.559  1.00  0.00    -0.272 OA
ATOM     15  H   UNL A   1      30.286  23.409  22.084  1.00  0.00     0.170 HD
BRANCH  13  16
ATOM     16  C   UNL A   1      32.583  22.928  24.564  1.00  0.00     0.178 C 
ATOM     17  C   UNL A   1      31.674  22.780  25.781  1.00  0.00     0.042 C 
BRANCH  16  18
ATOM     18  N   UNL A   1      33.960  22.360  24.608  1.00  0.00    -0.280 N 
ATOM     19  C   UNL A   1      37.242  23.621  25.393  1.00  0.00     0.029 C 
ATOM     20  C   UNL A   1      36.262  22.783  25.019  1.00  0.00     0.081 C 
ATOM     21  S   UNL A   1      36.128  21.105  25.284  1.00  0.00    -0.054 SA
ATOM     22  C   UNL A   1      34.979  23.304  24.480  1.00  0.00     0.266 C 
ATOM     23  C   UNL A   1      34.385  21.099  24.989  1.00  0.00     0.149 C 
ATOM     24  O   UNL A   1      34.856  24.442  24.046  1.00  0.00    -0.268 OA
ATOM     25  S   UNL A   1      33.554  19.678  25.232  1.00  0.00    -0.052 S 
BRANCH  19  26
ATOM     26  C   UNL A   1      38.403  23.308  26.242  1.00  0.00    -0.020 A 
ATOM     27  C   UNL A   1      40.127  21.650  26.824  1.00  0.00     0.161 A 
ATOM     28  C   UNL A   1      38.981  22.035  26.109  1.00  0.00     0.058 A 
ATOM     29  C   UNL A   1      40.696  22.579  27.697  1.00  0.00     0.157 A 
ATOM     30  C   UNL A   1      40.121  23.844  27.854  1.00  0.00     0.051 A 
ATOM     31  C   UNL A   1      38.969  24.202  27.148  1.00  0.00     0.012 A 
BRANCH  27  32
ATOM     32  O   UNL A   1      40.509  20.372  26.530  1.00  0.00    -0.493 OA
ATOM     33  C   UNL A   1      39.677  19.526  25.761  1.00  0.00     0.278 C 
ENDBRANCH  27  32
BRANCH  29  34
ATOM     34  O   UNL A   1      41.801  22.360  28.466  1.00  0.00    -0.504 OA
ATOM     35  H   UNL A   1      42.476  23.010  28.512  1.00  0.00     0.293 HD
ENDBRANCH  29  34
ENDBRANCH  19  26
ENDBRANCH  16  18
ENDBRANCH  13  16
ENDBRANCH   7  12
ENDBRANCH   4   6
ENDBRANCH   3   4
ENDBRANCH   2   3
ENDBRANCH   1   2
BRANCH   1  36
ATOM     36  O   UNL A   1      33.776  31.391  27.500  1.00  0.00    -0.374 OA
BRANCH  36  37
ATOM     37  C   UNL A   1      35.201  31.370  27.607  1.00  0.00     0.202 C 
BRANCH  37  38
ATOM     38  C   UNL A   1      35.794  31.031  28.979  1.00  0.00     0.261 C 
BRANCH  38  39
ATOM     39  O   UNL A   1      36.857  30.068  28.891  1.00  0.00    -0.460 OA
BRANCH  39  40
ATOM     40  C   UNL A   1      37.236  29.531  30.077  1.00  0.00     0.338 C 
ATOM     41  O   UNL A   1      36.535  29.337  31.056  1.00  0.00    -0.246 OA
BRANCH  40  42
ATOM     42  C   UNL A   1      38.616  29.023  29.970  1.00  0.00     0.060 A 
ATOM     43  C   UNL A   1      38.869  27.722  30.428  1.00  0.00     0.016 A 
ATOM     44  C   UNL A   1      39.653  29.822  29.491  1.00  0.00     0.016 A 
ATOM     45  C   UNL A   1      40.171  27.230  30.450  1.00  0.00     0.010 A 
ATOM     46  C   UNL A   1      40.960  29.332  29.523  1.00  0.00     0.010 A 
ATOM     47  C   UNL A   1      41.228  28.048  30.034  1.00  0.00    -0.014 A 
BRANCH  47  48
ATOM     48  C   UNL A   1      42.631  27.625  30.255  1.00  0.00     0.031 A 
ATOM     49  C   UNL A   1      43.382  28.194  31.425  1.00  0.00     0.074 A 
ATOM     50  C   UNL A   1      43.239  26.788  29.396  1.00  0.00     0.049 A 
ATOM     51  N   UNL A   1      44.642  28.058  31.745  1.00  0.00    -0.248 NA
ATOM     52  C   UNL A   1      42.612  29.037  32.355  1.00  0.00     0.031 C 
ATOM     53  C   UNL A   1      42.610  26.173  28.230  1.00  0.00     0.029 A 
ATOM     54  N   UNL A   1      44.539  26.348  29.353  1.00  0.00    -0.354 N 
ATOM     55  C   UNL A   1      44.828  28.834  32.882  1.00  0.00     0.074 A 
ATOM     56  C   UNL A   1      43.552  29.436  33.200  1.00  0.00     0.031 C 
ATOM     57  C   UNL A   1      43.538  25.473  27.556  1.00  0.00     0.029 A 
ATOM     58  C   UNL A   1      44.828  25.617  28.225  1.00  0.00     0.049 A 
ATOM     59  H   UNL A   1      45.198  26.537  30.060  1.00  0.00     0.167 HD
ATOM     60  C   UNL A   1      45.960  29.023  33.600  1.00  0.00     0.034 A 
ATOM     61  C   UNL A   1      46.008  25.154  27.766  1.00  0.00     0.034 A 
ATOM     62  C   UNL A   1      47.218  28.401  33.293  1.00  0.00     0.049 A 
ATOM     63  C   UNL A   1      47.258  25.386  28.575  1.00  0.00     0.074 A 
ATOM     64  C   UNL A   1      48.405  28.471  34.001  1.00  0.00     0.029 A 
ATOM     65  N   UNL A   1      47.459  27.611  32.181  1.00  0.00    -0.354 N 
ATOM     66  N   UNL A   1      47.394  26.016  29.717  1.00  0.00    -0.248 NA
ATOM     67  C   UNL A   1      48.510  24.822  28.050  1.00  0.00     0.031 C 
ATOM     68  C   UNL A   1      49.375  27.750  33.295  1.00  0.00     0.029 A 
ATOM     69  C   UNL A   1      48.781  27.203  32.170  1.00  0.00     0.049 A 
ATOM     70  H   UNL A   1      46.789  27.375  31.499  1.00  0.00     0.167 HD
ATOM     71  C   UNL A   1      48.736  25.892  30.065  1.00  0.00     0.074 A 
ATOM     72  C   UNL A   1      49.368  25.118  29.017  1.00  0.00     0.031 C 
ATOM     73  C   UNL A   1      49.385  26.382  31.150  1.00  0.00     0.034 A 
BRANCH  60  74
ATOM     74  C   UNL A   1      45.888  29.933  34.797  1.00  0.00     0.023 A 
ATOM     75  C   UNL A   1      45.950  31.330  34.623  1.00  0.00     0.012 A 
ATOM     76  C   UNL A   1      45.703  29.405  36.090  1.00  0.00     0.148 A 
ATOM     77  C   UNL A   1      45.863  32.186  35.720  1.00  0.00     0.002 A 
ATOM     78  C   UNL A   1      45.572  30.266  37.173  1.00  0.00     0.091 A 
ATOM     79  F   UNL A   1      45.671  28.073  36.238  1.00  0.00    -0.205 F 
ATOM     80  C   UNL A   1      45.664  31.655  36.992  1.00  0.00     0.022 A 
BRANCH  78  81
ATOM     81  S   UNL A   1      45.234  29.678  38.836  1.00  0.00     0.127 S 
ATOM     82  O   UNL A   1      44.382  30.745  39.359  1.00  0.00    -0.237 OA
ATOM     83  O   UNL A   1      44.539  28.415  38.581  1.00  0.00    -0.237 OA
ATOM     84  O   UNL A   1      46.531  29.536  39.482  1.00  0.00    -0.744 OA
ENDBRANCH  78  81
ENDBRANCH  60  74
BRANCH  61  85
ATOM     85  C   UNL A   1      46.055  24.406  26.478  1.00  0.00     0.023 A 
ATOM     86  C   UNL A   1      46.682  24.985  25.360  1.00  0.00     0.012 A 
ATOM     87  C   UNL A   1      45.511  23.110  26.371  1.00  0.00     0.148 A 
ATOM     88  C   UNL A   1      46.748  24.295  24.148  1.00  0.00     0.002 A 
ATOM     89  C   UNL A   1      45.628  22.408  25.177  1.00  0.00     0.091 A 
ATOM     90  F   UNL A   1      44.905  22.585  27.444  1.00  0.00    -0.205 F 
ATOM     91  C   UNL A   1      46.232  23.005  24.060  1.00  0.00     0.022 A 
BRANCH  89  92
ATOM     92  S   UNL A   1      45.107  20.698  25.010  1.00  0.00     0.127 S 
ATOM     93  O   UNL A   1      43.910  20.667  25.848  1.00  0.00    -0.237 OA
ATOM     94  O   UNL A   1      44.855  20.601  23.572  1.00  0.00    -0.237 OA
ATOM     95  O   UNL A   1      46.227  19.895  25.481  1.00  0.00    -0.744 OA
ENDBRANCH  89  92
ENDBRANCH  61  85
BRANCH  73  96
ATOM     96  C   UNL A   1      50.849  26.064  31.305  1.00  0.00     0.023 A 
ATOM     97  C   UNL A   1      51.819  26.980  30.852  1.00  0.00     0.012 A 
ATOM     98  C   UNL A   1      51.257  24.913  32.008  1.00  0.00     0.148 A 
ATOM     99  C   UNL A   1      53.175  26.744  31.080  1.00  0.00     0.002 A 
ATOM    100  C   UNL A   1      52.606  24.710  32.274  1.00  0.00     0.091 A 
ATOM    101  F   UNL A   1      50.318  24.048  32.416  1.00  0.00    -0.205 F 
ATOM    102  C   UNL A   1      53.566  25.619  31.803  1.00  0.00     0.022 A 
BRANCH 100 103
ATOM    103  S   UNL A   1      53.196  23.345  33.283  1.00  0.00     0.127 S 
ATOM    104  O   UNL A   1      54.642  23.561  33.260  1.00  0.00    -0.237 OA
ATOM    105  O   UNL A   1      52.560  23.615  34.572  1.00  0.00    -0.237 OA
ATOM    106  O   UNL A   1      52.740  22.128  32.624  1.00  0.00    -0.744 OA
ENDBRANCH 100 103
ENDBRANCH  73  96
ENDBRANCH  47  48
ENDBRANCH  40  42
ENDBRANCH  39  40
ENDBRANCH  38  39
ENDBRANCH  37  38
ENDBRANCH  36  37
ENDBRANCH   1  36
TORSDOF 23
ENDMDL
