MODEL 1
REMARK VINA RESULT:     -12.5      0.000      0.000
REMARK SMILES O=C(Nc1ccccc1C(=O)OCCOCCOC(=O)c1ccc(-c2c3nc(c(-c4cccc(S(=O)(=O)[O-])c4F)c4ccc([nH]4)c(-c4cccc(S(=O)(=O)[O-])c4F)c4nc(c(-c5cccc(S(=O)(=O)[O-])c5F)c5ccc2[nH]5)C=C4)C=C3)cc1)c1ccc(N2C(=O)[C@H]3CC=CC[C@H]3C2=O)cc1
REMARK SMILES IDX 15 1 14 2 13 3 12 4 10 5 11 6 9 7 4 8 5 9 6 10 8 11 7 12
REMARK SMILES IDX 3 13 1 14 2 15 84 17 85 18 100 19 86 20 99 21 87 22 88 23
REMARK SMILES IDX 89 24 97 25 90 26 91 27 96 28 98 29 92 30 95 31 93 32 94 33
REMARK SMILES IDX 16 34 17 35 18 36 19 37 20 38 21 39 22 40 83 41 23 42 82 43
REMARK SMILES IDX 24 44 25 45 26 46 76 47 27 48 81 49 75 50 77 51 28 52 80 53
REMARK SMILES IDX 74 54 73 55 29 57 61 58 41 59 60 60 42 61 45 62 59 63 78 64
REMARK SMILES IDX 43 65 44 66 58 68 79 69 46 70 30 71 31 72 39 73 32 74 34 75
REMARK SMILES IDX 40 76 33 77 35 78 36 79 37 80 38 81 62 82 63 83 71 84 64 85
REMARK SMILES IDX 66 86 72 87 65 88 67 89 68 90 69 91 70 92 47 93 48 94 56 95
REMARK SMILES IDX 49 96 51 97 57 98 50 99 52 100 53 101 54 102 55 103
REMARK H PARENT 3 16 77 56 45 67
REMARK Flexibility Score: inf
ROOT
ATOM      1  O   UNL A   1      35.448  23.481  22.751  1.00  0.00    -0.374 OA
ENDROOT
BRANCH   1   2
ATOM      2  C   UNL A   1      34.494  24.306  23.408  1.00  0.00     0.202 C 
BRANCH   2   3
ATOM      3  C   UNL A   1      34.402  25.777  22.995  1.00  0.00     0.261 C 
BRANCH   3   4
ATOM      4  O   UNL A   1      34.035  26.683  24.052  1.00  0.00    -0.460 OA
BRANCH   4   5
ATOM      5  C   UNL A   1      33.860  27.973  23.662  1.00  0.00     0.340 C 
ATOM      6  O   UNL A   1      34.037  28.419  22.535  1.00  0.00    -0.246 OA
BRANCH   5   7
ATOM      7  C   UNL A   1      33.234  28.803  24.722  1.00  0.00     0.083 A 
ATOM      8  C   UNL A   1      32.085  29.608  24.615  1.00  0.00     0.056 A 
ATOM      9  C   UNL A   1      31.748  30.429  25.710  1.00  0.00     0.027 A 
ATOM     10  C   UNL A   1      32.468  30.389  26.908  1.00  0.00     0.002 A 
ATOM     11  C   UNL A   1      33.953  28.778  25.938  1.00  0.00     0.018 A 
ATOM     12  C   UNL A   1      33.567  29.554  27.028  1.00  0.00     0.001 A 
BRANCH   8  13
ATOM     13  N   UNL A   1      31.175  29.693  23.539  1.00  0.00    -0.321 N 
ATOM     14  O   UNL A   1      29.961  29.035  21.755  1.00  0.00    -0.269 OA
ATOM     15  C   UNL A   1      30.496  28.737  22.819  1.00  0.00     0.255 C 
ATOM     16  H   UNL A   1      30.991  30.615  23.246  1.00  0.00     0.170 HD
BRANCH  15  17
ATOM     17  C   UNL A   1      30.361  27.361  23.332  1.00  0.00     0.040 A 
ATOM     18  C   UNL A   1      29.880  27.086  24.616  1.00  0.00     0.016 A 
ATOM     19  C   UNL A   1      30.829  26.329  22.525  1.00  0.00     0.016 A 
ATOM     20  C   UNL A   1      30.047  25.809  25.157  1.00  0.00     0.027 A 
ATOM     21  C   UNL A   1      31.033  25.070  23.083  1.00  0.00     0.027 A 
ATOM     22  C   UNL A   1      30.710  24.814  24.426  1.00  0.00     0.052 A 
BRANCH  22  23
ATOM     23  N   UNL A   1      31.107  23.592  25.020  1.00  0.00    -0.250 N 
ATOM     24  C   UNL A   1      31.536  22.482  24.339  1.00  0.00     0.238 C 
ATOM     25  C   UNL A   1      31.012  23.357  26.375  1.00  0.00     0.238 C 
ATOM     26  O   UNL A   1      31.574  22.283  23.131  1.00  0.00    -0.274 OA
ATOM     27  C   UNL A   1      32.076  21.484  25.334  1.00  0.00     0.096 C 
ATOM     28  C   UNL A   1      31.499  21.958  26.667  1.00  0.00     0.096 C 
ATOM     29  O   UNL A   1      30.548  24.079  27.249  1.00  0.00    -0.274 OA
ATOM     30  C   UNL A   1      33.609  21.463  25.243  1.00  0.00     0.041 C 
ATOM     31  C   UNL A   1      32.485  22.013  27.832  1.00  0.00     0.041 C 
ATOM     32  C   UNL A   1      34.290  22.401  26.197  1.00  0.00    -0.030 C 
ATOM     33  C   UNL A   1      33.778  22.642  27.412  1.00  0.00    -0.030 C 
ENDBRANCH  22  23
ENDBRANCH  15  17
ENDBRANCH   8  13
ENDBRANCH   5   7
ENDBRANCH   4   5
ENDBRANCH   3   4
ENDBRANCH   2   3
ENDBRANCH   1   2
BRANCH   1  34
ATOM     34  C   UNL A   1      36.695  23.262  23.401  1.00  0.00     0.202 C 
BRANCH  34  35
ATOM     35  C   UNL A   1      37.027  21.847  23.895  1.00  0.00     0.261 C 
BRANCH  35  36
ATOM     36  O   UNL A   1      37.175  21.727  25.323  1.00  0.00    -0.460 OA
BRANCH  36  37
ATOM     37  C   UNL A   1      38.442  21.486  25.741  1.00  0.00     0.338 C 
ATOM     38  O   UNL A   1      39.135  20.515  25.464  1.00  0.00    -0.246 OA
BRANCH  37  39
ATOM     39  C   UNL A   1      38.976  22.612  26.523  1.00  0.00     0.060 A 
ATOM     40  C   UNL A   1      38.364  23.865  26.398  1.00  0.00     0.016 A 
ATOM     41  C   UNL A   1      40.188  22.478  27.202  1.00  0.00     0.016 A 
ATOM     42  C   UNL A   1      38.992  25.003  26.908  1.00  0.00     0.010 A 
ATOM     43  C   UNL A   1      40.816  23.621  27.710  1.00  0.00     0.010 A 
ATOM     44  C   UNL A   1      40.244  24.893  27.527  1.00  0.00    -0.014 A 
BRANCH  44  45
ATOM     45  C   UNL A   1      41.022  26.113  27.867  1.00  0.00     0.031 A 
ATOM     46  C   UNL A   1      40.350  27.228  28.627  1.00  0.00     0.074 A 
ATOM     47  C   UNL A   1      42.306  26.235  27.487  1.00  0.00     0.049 A 
ATOM     48  N   UNL A   1      40.817  28.404  28.958  1.00  0.00    -0.248 NA
ATOM     49  C   UNL A   1      38.967  26.986  29.072  1.00  0.00     0.031 C 
ATOM     50  C   UNL A   1      43.066  25.231  26.744  1.00  0.00     0.029 A 
ATOM     51  N   UNL A   1      43.188  27.276  27.647  1.00  0.00    -0.354 N 
ATOM     52  C   UNL A   1      39.784  29.051  29.629  1.00  0.00     0.074 A 
ATOM     53  C   UNL A   1      38.659  28.141  29.644  1.00  0.00     0.031 C 
ATOM     54  C   UNL A   1      44.289  25.720  26.479  1.00  0.00     0.029 A 
ATOM     55  C   UNL A   1      44.390  27.078  27.010  1.00  0.00     0.049 A 
ATOM     56  H   UNL A   1      42.979  28.086  28.168  1.00  0.00     0.167 HD
ATOM     57  C   UNL A   1      39.777  30.280  30.198  1.00  0.00     0.034 A 
ATOM     58  C   UNL A   1      45.440  27.909  26.850  1.00  0.00     0.034 A 
ATOM     59  C   UNL A   1      40.901  31.178  30.197  1.00  0.00     0.049 A 
ATOM     60  C   UNL A   1      45.399  29.280  27.475  1.00  0.00     0.074 A 
ATOM     61  C   UNL A   1      40.996  32.438  30.762  1.00  0.00     0.029 A 
ATOM     62  N   UNL A   1      42.125  30.914  29.604  1.00  0.00    -0.354 N 
ATOM     63  N   UNL A   1      44.452  29.834  28.194  1.00  0.00    -0.248 NA
ATOM     64  C   UNL A   1      46.587  30.129  27.296  1.00  0.00     0.031 C 
ATOM     65  C   UNL A   1      42.276  32.940  30.502  1.00  0.00     0.029 A 
ATOM     66  C   UNL A   1      42.983  31.984  29.791  1.00  0.00     0.049 A 
ATOM     67  H   UNL A   1      42.351  30.085  29.122  1.00  0.00     0.167 HD
ATOM     68  C   UNL A   1      44.944  31.077  28.581  1.00  0.00     0.074 A 
ATOM     69  C   UNL A   1      46.281  31.185  28.037  1.00  0.00     0.031 C 
ATOM     70  C   UNL A   1      44.336  32.051  29.303  1.00  0.00     0.034 A 
BRANCH  57  71
ATOM     71  C   UNL A   1      38.527  30.712  30.920  1.00  0.00     0.023 A 
ATOM     72  C   UNL A   1      38.401  30.443  32.297  1.00  0.00     0.012 A 
ATOM     73  C   UNL A   1      37.519  31.446  30.264  1.00  0.00     0.148 A 
ATOM     74  C   UNL A   1      37.282  30.875  33.007  1.00  0.00     0.002 A 
ATOM     75  C   UNL A   1      36.423  31.906  30.986  1.00  0.00     0.091 A 
ATOM     76  F   UNL A   1      37.649  31.677  28.949  1.00  0.00    -0.205 F 
ATOM     77  C   UNL A   1      36.299  31.614  32.354  1.00  0.00     0.022 A 
BRANCH  75  78
ATOM     78  S   UNL A   1      35.138  32.928  30.257  1.00  0.00     0.127 S 
ATOM     79  O   UNL A   1      34.168  33.008  31.349  1.00  0.00    -0.237 OA
ATOM     80  O   UNL A   1      35.852  34.176  29.986  1.00  0.00    -0.237 OA
ATOM     81  O   UNL A   1      34.682  32.217  29.070  1.00  0.00    -0.744 OA
ENDBRANCH  75  78
ENDBRANCH  57  71
BRANCH  58  82
ATOM     82  C   UNL A   1      46.637  27.461  26.082  1.00  0.00     0.023 A 
ATOM     83  C   UNL A   1      46.696  27.689  24.693  1.00  0.00     0.012 A 
ATOM     84  C   UNL A   1      47.712  26.810  26.717  1.00  0.00     0.148 A 
ATOM     85  C   UNL A   1      47.786  27.242  23.945  1.00  0.00     0.002 A 
ATOM     86  C   UNL A   1      48.820  26.416  25.974  1.00  0.00     0.091 A 
ATOM     87  F   UNL A   1      47.628  26.579  28.035  1.00  0.00    -0.205 F 
ATOM     88  C   UNL A   1      48.851  26.616  24.586  1.00  0.00     0.022 A 
BRANCH  86  89
ATOM     89  S   UNL A   1      50.282  25.706  26.740  1.00  0.00     0.127 S 
ATOM     90  O   UNL A   1      51.183  25.572  25.598  1.00  0.00    -0.237 OA
ATOM     91  O   UNL A   1      50.658  26.742  27.702  1.00  0.00    -0.237 OA
ATOM     92  O   UNL A   1      49.836  24.459  27.348  1.00  0.00    -0.744 OA
ENDBRANCH  86  89
ENDBRANCH  58  82
BRANCH  70  93
ATOM     93  C   UNL A   1      45.119  33.306  29.588  1.00  0.00     0.023 A 
ATOM     94  C   UNL A   1      45.932  33.377  30.737  1.00  0.00     0.012 A 
ATOM     95  C   UNL A   1      45.110  34.384  28.680  1.00  0.00     0.148 A 
ATOM     96  C   UNL A   1      46.700  34.513  30.993  1.00  0.00     0.002 A 
ATOM     97  C   UNL A   1      45.912  35.494  28.919  1.00  0.00     0.091 A 
ATOM     98  F   UNL A   1      44.316  34.306  27.601  1.00  0.00    -0.205 F 
ATOM     99  C   UNL A   1      46.699  35.566  30.080  1.00  0.00     0.022 A 
BRANCH  97 100
ATOM    100  S   UNL A   1      46.042  36.856  27.753  1.00  0.00     0.127 S 
ATOM    101  O   UNL A   1      44.771  37.549  27.960  1.00  0.00    -0.237 OA
ATOM    102  O   UNL A   1      47.216  37.578  28.247  1.00  0.00    -0.237 OA
ATOM    103  O   UNL A   1      46.218  36.246  26.443  1.00  0.00    -0.744 OA
ENDBRANCH  97 100
ENDBRANCH  70  93
ENDBRANCH  44  45
ENDBRANCH  37  39
ENDBRANCH  36  37
ENDBRANCH  35  36
ENDBRANCH  34  35
ENDBRANCH   1  34
TORSDOF 20
ENDMDL
MODEL 2
REMARK VINA RESULT:     -12.3      1.367      8.402
REMARK SMILES O=C(Nc1ccccc1C(=O)OCCOCCOC(=O)c1ccc(-c2c3nc(c(-c4cccc(S(=O)(=O)[O-])c4F)c4ccc([nH]4)c(-c4cccc(S(=O)(=O)[O-])c4F)c4nc(c(-c5cccc(S(=O)(=O)[O-])c5F)c5ccc2[nH]5)C=C4)C=C3)cc1)c1ccc(N2C(=O)[C@H]3CC=CC[C@H]3C2=O)cc1
REMARK SMILES IDX 15 1 14 2 13 3 12 4 10 5 11 6 9 7 4 8 5 9 6 10 8 11 7 12
REMARK SMILES IDX 3 13 1 14 2 15 84 17 85 18 100 19 86 20 99 21 87 22 88 23
REMARK SMILES IDX 89 24 97 25 90 26 91 27 96 28 98 29 92 30 95 31 93 32 94 33
REMARK SMILES IDX 16 34 17 35 18 36 19 37 20 38 21 39 22 40 83 41 23 42 82 43
REMARK SMILES IDX 24 44 25 45 26 46 76 47 27 48 81 49 75 50 77 51 28 52 80 53
REMARK SMILES IDX 74 54 73 55 29 57 61 58 41 59 60 60 42 61 45 62 59 63 78 64
REMARK SMILES IDX 43 65 44 66 58 68 79 69 46 70 30 71 31 72 39 73 32 74 34 75
REMARK SMILES IDX 40 76 33 77 35 78 36 79 37 80 38 81 62 82 63 83 71 84 64 85
REMARK SMILES IDX 66 86 72 87 65 88 67 89 68 90 69 91 70 92 47 93 48 94 56 95
REMARK SMILES IDX 49 96 51 97 57 98 50 99 52 100 53 101 54 102 55 103
REMARK H PARENT 3 16 77 56 45 67
REMARK Flexibility Score: inf
ROOT
ATOM      1  O   UNL A   1      34.688  20.770  25.464  1.00  0.00    -0.374 OA
ENDROOT
BRANCH   1   2
ATOM      2  C   UNL A   1      34.168  19.482  25.161  1.00  0.00     0.202 C 
BRANCH   2   3
ATOM      3  C   UNL A   1      32.663  19.349  24.912  1.00  0.00     0.261 C 
BRANCH   3   4
ATOM      4  O   UNL A   1      31.997  20.572  24.546  1.00  0.00    -0.460 OA
BRANCH   4   5
ATOM      5  C   UNL A   1      32.161  20.945  23.250  1.00  0.00     0.340 C 
ATOM      6  O   UNL A   1      31.776  20.327  22.265  1.00  0.00    -0.246 OA
BRANCH   5   7
ATOM      7  C   UNL A   1      32.713  22.317  23.122  1.00  0.00     0.083 A 
ATOM      8  C   UNL A   1      32.767  23.316  24.111  1.00  0.00     0.056 A 
ATOM      9  C   UNL A   1      33.204  24.601  23.729  1.00  0.00     0.027 A 
ATOM     10  C   UNL A   1      33.662  24.868  22.436  1.00  0.00     0.002 A 
ATOM     11  C   UNL A   1      33.176  22.605  21.817  1.00  0.00     0.018 A 
ATOM     12  C   UNL A   1      33.659  23.866  21.479  1.00  0.00     0.001 A 
BRANCH   8  13
ATOM     13  N   UNL A   1      32.460  23.204  25.483  1.00  0.00    -0.321 N 
ATOM     14  O   UNL A   1      32.078  23.847  27.612  1.00  0.00    -0.269 OA
ATOM     15  C   UNL A   1      32.025  24.118  26.416  1.00  0.00     0.255 C 
ATOM     16  H   UNL A   1      32.579  22.296  25.845  1.00  0.00     0.170 HD
BRANCH  15  17
ATOM     17  C   UNL A   1      31.452  25.410  25.995  1.00  0.00     0.040 A 
ATOM     18  C   UNL A   1      30.147  25.524  25.508  1.00  0.00     0.016 A 
ATOM     19  C   UNL A   1      32.295  26.517  26.001  1.00  0.00     0.016 A 
ATOM     20  C   UNL A   1      29.754  26.695  24.854  1.00  0.00     0.027 A 
ATOM     21  C   UNL A   1      31.915  27.664  25.311  1.00  0.00     0.027 A 
ATOM     22  C   UNL A   1      30.668  27.741  24.669  1.00  0.00     0.052 A 
BRANCH  22  23
ATOM     23  N   UNL A   1      30.387  28.834  23.815  1.00  0.00    -0.250 N 
ATOM     24  C   UNL A   1      30.186  28.749  22.461  1.00  0.00     0.238 C 
ATOM     25  C   UNL A   1      30.381  30.140  24.253  1.00  0.00     0.238 C 
ATOM     26  O   UNL A   1      30.294  27.779  21.722  1.00  0.00    -0.274 OA
ATOM     27  C   UNL A   1      29.694  30.086  21.962  1.00  0.00     0.096 C 
ATOM     28  C   UNL A   1      30.066  31.049  23.089  1.00  0.00     0.096 C 
ATOM     29  O   UNL A   1      30.652  30.579  25.364  1.00  0.00    -0.274 OA
ATOM     30  C   UNL A   1      28.195  29.983  21.644  1.00  0.00     0.041 C 
ATOM     31  C   UNL A   1      28.972  32.028  23.510  1.00  0.00     0.041 C 
ATOM     32  C   UNL A   1      27.300  30.365  22.787  1.00  0.00    -0.030 C 
ATOM     33  C   UNL A   1      27.651  31.332  23.646  1.00  0.00    -0.030 C 
ENDBRANCH  22  23
ENDBRANCH  15  17
ENDBRANCH   8  13
ENDBRANCH   5   7
ENDBRANCH   4   5
ENDBRANCH   3   4
ENDBRANCH   2   3
ENDBRANCH   1   2
BRANCH   1  34
ATOM     34  C   UNL A   1      35.904  21.160  24.835  1.00  0.00     0.202 C 
BRANCH  34  35
ATOM     35  C   UNL A   1      37.184  20.378  25.161  1.00  0.00     0.261 C 
BRANCH  35  36
ATOM     36  O   UNL A   1      38.404  21.124  24.991  1.00  0.00    -0.460 OA
BRANCH  36  37
ATOM     37  C   UNL A   1      39.293  20.992  26.006  1.00  0.00     0.338 C 
ATOM     38  O   UNL A   1      39.894  19.975  26.329  1.00  0.00    -0.246 OA
BRANCH  37  39
ATOM     39  C   UNL A   1      39.560  22.281  26.661  1.00  0.00     0.060 A 
ATOM     40  C   UNL A   1      38.906  23.424  26.184  1.00  0.00     0.016 A 
ATOM     41  C   UNL A   1      40.598  22.392  27.588  1.00  0.00     0.016 A 
ATOM     42  C   UNL A   1      39.326  24.691  26.594  1.00  0.00     0.010 A 
ATOM     43  C   UNL A   1      41.017  23.664  27.996  1.00  0.00     0.010 A 
ATOM     44  C   UNL A   1      40.413  24.820  27.469  1.00  0.00    -0.014 A 
BRANCH  44  45
ATOM     45  C   UNL A   1      41.009  26.155  27.731  1.00  0.00     0.031 A 
ATOM     46  C   UNL A   1      42.435  26.421  27.320  1.00  0.00     0.074 A 
ATOM     47  C   UNL A   1      40.295  27.116  28.344  1.00  0.00     0.049 A 
ATOM     48  N   UNL A   1      43.172  27.483  27.521  1.00  0.00    -0.248 NA
ATOM     49  C   UNL A   1      43.123  25.344  26.588  1.00  0.00     0.031 C 
ATOM     50  C   UNL A   1      38.910  26.982  28.794  1.00  0.00     0.029 A 
ATOM     51  N   UNL A   1      40.652  28.387  28.724  1.00  0.00    -0.354 N 
ATOM     52  C   UNL A   1      44.413  27.198  26.961  1.00  0.00     0.074 A 
ATOM     53  C   UNL A   1      44.335  25.856  26.425  1.00  0.00     0.031 C 
ATOM     54  C   UNL A   1      38.547  28.112  29.424  1.00  0.00     0.029 A 
ATOM     55  C   UNL A   1      39.677  29.038  29.443  1.00  0.00     0.049 A 
ATOM     56  H   UNL A   1      41.522  28.792  28.503  1.00  0.00     0.167 HD
ATOM     57  C   UNL A   1      45.510  27.988  26.881  1.00  0.00     0.034 A 
ATOM     58  C   UNL A   1      39.706  30.230  30.071  1.00  0.00     0.034 A 
ATOM     59  C   UNL A   1      45.583  29.328  27.399  1.00  0.00     0.049 A 
ATOM     60  C   UNL A   1      40.948  31.081  29.984  1.00  0.00     0.074 A 
ATOM     61  C   UNL A   1      46.646  30.213  27.351  1.00  0.00     0.029 A 
ATOM     62  N   UNL A   1      44.552  29.979  28.058  1.00  0.00    -0.354 N 
ATOM     63  N   UNL A   1      42.076  30.838  29.362  1.00  0.00    -0.248 NA
ATOM     64  C   UNL A   1      40.908  32.388  30.658  1.00  0.00     0.031 C 
ATOM     65  C   UNL A   1      46.261  31.396  27.991  1.00  0.00     0.029 A 
ATOM     66  C   UNL A   1      44.951  31.254  28.420  1.00  0.00     0.049 A 
ATOM     67  H   UNL A   1      43.666  29.591  28.240  1.00  0.00     0.167 HD
ATOM     68  C   UNL A   1      42.863  31.971  29.540  1.00  0.00     0.074 A 
ATOM     69  C   UNL A   1      42.074  32.912  30.308  1.00  0.00     0.031 C 
ATOM     70  C   UNL A   1      44.132  32.206  29.123  1.00  0.00     0.034 A 
BRANCH  57  71
ATOM     71  C   UNL A   1      46.716  27.443  26.161  1.00  0.00     0.023 A 
ATOM     72  C   UNL A   1      46.843  27.657  24.773  1.00  0.00     0.012 A 
ATOM     73  C   UNL A   1      47.754  26.791  26.857  1.00  0.00     0.148 A 
ATOM     74  C   UNL A   1      47.970  27.211  24.084  1.00  0.00     0.002 A 
ATOM     75  C   UNL A   1      48.892  26.383  26.170  1.00  0.00     0.091 A 
ATOM     76  F   UNL A   1      47.607  26.582  28.174  1.00  0.00    -0.205 F 
ATOM     77  C   UNL A   1      48.998  26.584  24.784  1.00  0.00     0.022 A 
BRANCH  75  78
ATOM     78  S   UNL A   1      50.304  25.632  26.988  1.00  0.00     0.127 S 
ATOM     79  O   UNL A   1      50.694  26.682  27.930  1.00  0.00    -0.237 OA
ATOM     80  O   UNL A   1      49.708  24.449  27.609  1.00  0.00    -0.237 OA
ATOM     81  O   UNL A   1      51.273  25.346  25.939  1.00  0.00    -0.744 OA
ENDBRANCH  75  78
ENDBRANCH  57  71
BRANCH  58  82
ATOM     82  C   UNL A   1      38.509  30.710  30.819  1.00  0.00     0.023 A 
ATOM     83  C   UNL A   1      38.411  30.465  32.202  1.00  0.00     0.012 A 
ATOM     84  C   UNL A   1      37.469  31.402  30.170  1.00  0.00     0.148 A 
ATOM     85  C   UNL A   1      37.282  30.866  32.918  1.00  0.00     0.002 A 
ATOM     86  C   UNL A   1      36.371  31.847  30.898  1.00  0.00     0.091 A 
ATOM     87  F   UNL A   1      37.566  31.605  28.848  1.00  0.00    -0.205 F 
ATOM     88  C   UNL A   1      36.268  31.566  32.269  1.00  0.00     0.022 A 
BRANCH  86  89
ATOM     89  S   UNL A   1      35.077  32.853  30.163  1.00  0.00     0.127 S 
ATOM     90  O   UNL A   1      34.538  31.953  29.147  1.00  0.00    -0.237 OA
ATOM     91  O   UNL A   1      34.192  33.096  31.302  1.00  0.00    -0.237 OA
ATOM     92  O   UNL A   1      35.749  34.046  29.663  1.00  0.00    -0.744 OA
ENDBRANCH  86  89
ENDBRANCH  58  82
BRANCH  70  93
ATOM     93  C   UNL A   1      44.742  33.545  29.450  1.00  0.00     0.023 A 
ATOM     94  C   UNL A   1      45.528  33.691  30.610  1.00  0.00     0.012 A 
ATOM     95  C   UNL A   1      44.600  34.636  28.569  1.00  0.00     0.148 A 
ATOM     96  C   UNL A   1      46.137  34.911  30.905  1.00  0.00     0.002 A 
ATOM     97  C   UNL A   1      45.246  35.835  28.846  1.00  0.00     0.091 A 
ATOM     98  F   UNL A   1      43.833  34.484  27.479  1.00  0.00    -0.205 F 
ATOM     99  C   UNL A   1      46.006  35.978  30.018  1.00  0.00     0.022 A 
BRANCH  97 100
ATOM    100  S   UNL A   1      45.207  37.233  27.717  1.00  0.00     0.127 S 
ATOM    101  O   UNL A   1      46.214  38.117  28.301  1.00  0.00    -0.237 OA
ATOM    102  O   UNL A   1      45.600  36.619  26.447  1.00  0.00    -0.237 OA
ATOM    103  O   UNL A   1      43.839  37.733  27.747  1.00  0.00    -0.744 OA
ENDBRANCH  97 100
ENDBRANCH  70  93
ENDBRANCH  44  45
ENDBRANCH  37  39
ENDBRANCH  36  37
ENDBRANCH  35  36
ENDBRANCH  34  35
ENDBRANCH   1  34
TORSDOF 20
ENDMDL
MODEL 3
REMARK VINA RESULT:     -11.7      2.151      8.410
REMARK SMILES O=C(Nc1ccccc1C(=O)OCCOCCOC(=O)c1ccc(-c2c3nc(c(-c4cccc(S(=O)(=O)[O-])c4F)c4ccc([nH]4)c(-c4cccc(S(=O)(=O)[O-])c4F)c4nc(c(-c5cccc(S(=O)(=O)[O-])c5F)c5ccc2[nH]5)C=C4)C=C3)cc1)c1ccc(N2C(=O)[C@H]3CC=CC[C@H]3C2=O)cc1
REMARK SMILES IDX 15 1 14 2 13 3 12 4 10 5 11 6 9 7 4 8 5 9 6 10 8 11 7 12
REMARK SMILES IDX 3 13 1 14 2 15 84 17 85 18 100 19 86 20 99 21 87 22 88 23
REMARK SMILES IDX 89 24 97 25 90 26 91 27 96 28 98 29 92 30 95 31 93 32 94 33
REMARK SMILES IDX 16 34 17 35 18 36 19 37 20 38 21 39 22 40 83 41 23 42 82 43
REMARK SMILES IDX 24 44 25 45 26 46 76 47 27 48 81 49 75 50 77 51 28 52 80 53
REMARK SMILES IDX 74 54 73 55 29 57 61 58 41 59 60 60 42 61 45 62 59 63 78 64
REMARK SMILES IDX 43 65 44 66 58 68 79 69 46 70 30 71 31 72 39 73 32 74 34 75
REMARK SMILES IDX 40 76 33 77 35 78 36 79 37 80 38 81 62 82 63 83 71 84 64 85
REMARK SMILES IDX 66 86 72 87 65 88 67 89 68 90 69 91 70 92 47 93 48 94 56 95
REMARK SMILES IDX 49 96 51 97 57 98 50 99 52 100 53 101 54 102 55 103
REMARK H PARENT 3 16 77 56 45 67
REMARK Flexibility Score: inf
ROOT
ATOM      1  O   UNL A   1      34.955  20.445  25.903  1.00  0.00    -0.374 OA
ENDROOT
BRANCH   1   2
ATOM      2  C   UNL A   1      34.081  19.744  25.028  1.00  0.00     0.202 C 
BRANCH   2   3
ATOM      3  C   UNL A   1      32.580  19.775  25.326  1.00  0.00     0.261 C 
BRANCH   3   4
ATOM      4  O   UNL A   1      31.832  20.754  24.581  1.00  0.00    -0.460 OA
BRANCH   4   5
ATOM      5  C   UNL A   1      32.183  20.866  23.274  1.00  0.00     0.340 C 
ATOM      6  O   UNL A   1      32.008  20.023  22.402  1.00  0.00    -0.246 OA
BRANCH   5   7
ATOM      7  C   UNL A   1      32.659  22.229  22.930  1.00  0.00     0.083 A 
ATOM      8  C   UNL A   1      32.942  23.288  23.813  1.00  0.00     0.056 A 
ATOM      9  C   UNL A   1      33.244  24.548  23.260  1.00  0.00     0.027 A 
ATOM     10  C   UNL A   1      33.355  24.738  21.879  1.00  0.00     0.002 A 
ATOM     11  C   UNL A   1      32.772  22.439  21.537  1.00  0.00     0.018 A 
ATOM     12  C   UNL A   1      33.130  23.679  21.014  1.00  0.00     0.001 A 
BRANCH   8  13
ATOM     13  N   UNL A   1      32.994  23.258  25.223  1.00  0.00    -0.321 N 
ATOM     14  O   UNL A   1      33.164  24.027  27.337  1.00  0.00    -0.269 OA
ATOM     15  C   UNL A   1      32.810  24.230  26.180  1.00  0.00     0.255 C 
ATOM     16  H   UNL A   1      33.202  22.370  25.595  1.00  0.00     0.170 HD
BRANCH  15  17
ATOM     17  C   UNL A   1      32.147  25.504  25.843  1.00  0.00     0.040 A 
ATOM     18  C   UNL A   1      30.766  25.599  25.649  1.00  0.00     0.016 A 
ATOM     19  C   UNL A   1      32.962  26.610  25.621  1.00  0.00     0.016 A 
ATOM     20  C   UNL A   1      30.229  26.742  25.050  1.00  0.00     0.027 A 
ATOM     21  C   UNL A   1      32.430  27.728  24.985  1.00  0.00     0.027 A 
ATOM     22  C   UNL A   1      31.073  27.779  24.628  1.00  0.00     0.052 A 
BRANCH  22  23
ATOM     23  N   UNL A   1      30.603  28.836  23.813  1.00  0.00    -0.250 N 
ATOM     24  C   UNL A   1      30.290  28.730  22.481  1.00  0.00     0.238 C 
ATOM     25  C   UNL A   1      30.498  30.134  24.262  1.00  0.00     0.238 C 
ATOM     26  O   UNL A   1      30.434  27.777  21.727  1.00  0.00    -0.274 OA
ATOM     27  C   UNL A   1      29.618  30.008  22.041  1.00  0.00     0.096 C 
ATOM     28  C   UNL A   1      29.985  31.004  23.140  1.00  0.00     0.096 C 
ATOM     29  O   UNL A   1      30.820  30.599  25.349  1.00  0.00    -0.274 OA
ATOM     30  C   UNL A   1      28.115  29.747  21.857  1.00  0.00     0.041 C 
ATOM     31  C   UNL A   1      28.837  31.862  23.666  1.00  0.00     0.041 C 
ATOM     32  C   UNL A   1      27.292  30.032  23.079  1.00  0.00    -0.030 C 
ATOM     33  C   UNL A   1      27.615  31.031  23.912  1.00  0.00    -0.030 C 
ENDBRANCH  22  23
ENDBRANCH  15  17
ENDBRANCH   8  13
ENDBRANCH   5   7
ENDBRANCH   4   5
ENDBRANCH   3   4
ENDBRANCH   2   3
ENDBRANCH   1   2
BRANCH   1  34
ATOM     34  C   UNL A   1      36.018  21.192  25.321  1.00  0.00     0.202 C 
BRANCH  34  35
ATOM     35  C   UNL A   1      37.354  20.484  25.055  1.00  0.00     0.261 C 
BRANCH  35  36
ATOM     36  O   UNL A   1      38.495  21.360  24.982  1.00  0.00    -0.460 OA
BRANCH  36  37
ATOM     37  C   UNL A   1      39.392  21.204  25.987  1.00  0.00     0.338 C 
ATOM     38  O   UNL A   1      40.002  20.182  26.275  1.00  0.00    -0.246 OA
BRANCH  37  39
ATOM     39  C   UNL A   1      39.654  22.475  26.678  1.00  0.00     0.060 A 
ATOM     40  C   UNL A   1      39.023  23.635  26.211  1.00  0.00     0.016 A 
ATOM     41  C   UNL A   1      40.668  22.554  27.634  1.00  0.00     0.016 A 
ATOM     42  C   UNL A   1      39.444  24.888  26.662  1.00  0.00     0.010 A 
ATOM     43  C   UNL A   1      41.088  23.812  28.083  1.00  0.00     0.010 A 
ATOM     44  C   UNL A   1      40.509  24.986  27.567  1.00  0.00    -0.014 A 
BRANCH  44  45
ATOM     45  C   UNL A   1      41.111  26.309  27.875  1.00  0.00     0.031 A 
ATOM     46  C   UNL A   1      42.547  26.572  27.500  1.00  0.00     0.074 A 
ATOM     47  C   UNL A   1      40.392  27.260  28.498  1.00  0.00     0.049 A 
ATOM     48  N   UNL A   1      43.288  27.623  27.743  1.00  0.00    -0.248 NA
ATOM     49  C   UNL A   1      43.241  25.509  26.754  1.00  0.00     0.031 C 
ATOM     50  C   UNL A   1      38.998  27.126  28.916  1.00  0.00     0.029 A 
ATOM     51  N   UNL A   1      40.752  28.517  28.917  1.00  0.00    -0.354 N 
ATOM     52  C   UNL A   1      44.538  27.341  27.202  1.00  0.00     0.074 A 
ATOM     53  C   UNL A   1      44.460  26.014  26.630  1.00  0.00     0.031 C 
ATOM     54  C   UNL A   1      38.630  28.243  29.568  1.00  0.00     0.029 A 
ATOM     55  C   UNL A   1      39.768  29.158  29.634  1.00  0.00     0.049 A 
ATOM     56  H   UNL A   1      41.629  28.921  28.725  1.00  0.00     0.167 HD
ATOM     57  C   UNL A   1      45.643  28.123  27.164  1.00  0.00     0.034 A 
ATOM     58  C   UNL A   1      39.794  30.334  30.292  1.00  0.00     0.034 A 
ATOM     59  C   UNL A   1      45.717  29.449  27.717  1.00  0.00     0.049 A 
ATOM     60  C   UNL A   1      41.044  31.176  30.253  1.00  0.00     0.074 A 
ATOM     61  C   UNL A   1      46.788  30.325  27.714  1.00  0.00     0.029 A 
ATOM     62  N   UNL A   1      44.678  30.092  28.372  1.00  0.00    -0.354 N 
ATOM     63  N   UNL A   1      42.183  30.938  29.647  1.00  0.00    -0.248 NA
ATOM     64  C   UNL A   1      41.001  32.465  30.959  1.00  0.00     0.031 C 
ATOM     65  C   UNL A   1      46.399  31.495  28.376  1.00  0.00     0.029 A 
ATOM     66  C   UNL A   1      45.080  31.354  28.775  1.00  0.00     0.049 A 
ATOM     67  H   UNL A   1      43.785  29.707  28.526  1.00  0.00     0.167 HD
ATOM     68  C   UNL A   1      42.975  32.060  29.870  1.00  0.00     0.074 A 
ATOM     69  C   UNL A   1      42.178  32.987  30.646  1.00  0.00     0.031 C 
ATOM     70  C   UNL A   1      44.255  32.294  29.486  1.00  0.00     0.034 A 
BRANCH  57  71
ATOM     71  C   UNL A   1      46.859  27.586  26.454  1.00  0.00     0.023 A 
ATOM     72  C   UNL A   1      47.720  26.703  27.137  1.00  0.00     0.012 A 
ATOM     73  C   UNL A   1      47.110  27.886  25.100  1.00  0.00     0.148 A 
ATOM     74  C   UNL A   1      48.825  26.147  26.494  1.00  0.00     0.002 A 
ATOM     75  C   UNL A   1      48.192  27.298  24.454  1.00  0.00     0.091 A 
ATOM     76  F   UNL A   1      46.289  28.741  24.472  1.00  0.00    -0.205 F 
ATOM     77  C   UNL A   1      49.054  26.436  25.151  1.00  0.00     0.022 A 
BRANCH  75  78
ATOM     78  S   UNL A   1      48.534  27.547  22.708  1.00  0.00     0.127 S 
ATOM     79  O   UNL A   1      48.583  26.169  22.217  1.00  0.00    -0.237 OA
ATOM     80  O   UNL A   1      47.364  28.308  22.270  1.00  0.00    -0.237 OA
ATOM     81  O   UNL A   1      49.793  28.275  22.644  1.00  0.00    -0.744 OA
ENDBRANCH  75  78
ENDBRANCH  57  71
BRANCH  58  82
ATOM     82  C   UNL A   1      38.586  30.805  31.029  1.00  0.00     0.023 A 
ATOM     83  C   UNL A   1      38.482  30.571  32.413  1.00  0.00     0.012 A 
ATOM     84  C   UNL A   1      37.541  31.478  30.366  1.00  0.00     0.148 A 
ATOM     85  C   UNL A   1      37.343  30.964  33.118  1.00  0.00     0.002 A 
ATOM     86  C   UNL A   1      36.433  31.915  31.083  1.00  0.00     0.091 A 
ATOM     87  F   UNL A   1      37.644  31.669  29.043  1.00  0.00    -0.205 F 
ATOM     88  C   UNL A   1      36.324  31.644  32.456  1.00  0.00     0.022 A 
BRANCH  86  89
ATOM     89  S   UNL A   1      35.131  32.897  30.330  1.00  0.00     0.127 S 
ATOM     90  O   UNL A   1      34.253  33.155  31.468  1.00  0.00    -0.237 OA
ATOM     91  O   UNL A   1      35.869  34.065  29.846  1.00  0.00    -0.237 OA
ATOM     92  O   UNL A   1      34.575  32.061  29.274  1.00  0.00    -0.744 OA
ENDBRANCH  86  89
ENDBRANCH  58  82
BRANCH  70  93
ATOM     93  C   UNL A   1      44.868  33.619  29.859  1.00  0.00     0.023 A 
ATOM     94  C   UNL A   1      44.755  34.714  28.979  1.00  0.00     0.012 A 
ATOM     95  C   UNL A   1      45.489  33.800  31.111  1.00  0.00     0.148 A 
ATOM     96  C   UNL A   1      45.277  35.960  29.326  1.00  0.00     0.002 A 
ATOM     97  C   UNL A   1      45.966  35.055  31.469  1.00  0.00     0.091 A 
ATOM     98  F   UNL A   1      45.604  32.742  31.928  1.00  0.00    -0.205 F 
ATOM     99  C   UNL A   1      45.871  36.134  30.575  1.00  0.00     0.022 A 
BRANCH  97 100
ATOM    100  S   UNL A   1      46.666  35.392  33.090  1.00  0.00     0.127 S 
ATOM    101  O   UNL A   1      47.142  36.765  32.931  1.00  0.00    -0.237 OA
ATOM    102  O   UNL A   1      45.503  35.249  33.968  1.00  0.00    -0.237 OA
ATOM    103  O   UNL A   1      47.702  34.389  33.295  1.00  0.00    -0.744 OA
ENDBRANCH  97 100
ENDBRANCH  70  93
ENDBRANCH  44  45
ENDBRANCH  37  39
ENDBRANCH  36  37
ENDBRANCH  35  36
ENDBRANCH  34  35
ENDBRANCH   1  34
TORSDOF 20
ENDMDL
