MODEL 1
REMARK VINA RESULT:     -11.6      0.000      0.000
REMARK SMILES O=C(OCCOCCOC(=O)c1cc(Br)ccc1N1CC2(CCCCC2)C1)c1ccc(-c2c3nc(c(-c4cccc(S(=O)(=O)[O-])c4F)c4ccc([nH]4)c(-c4cccc(S(=O)(=O)[O-])c4F)c4nc(c(-c5cccc(S(=O)(=O)[O-])c5F)c5ccc2[nH]5)C=C4)C=C3)cc1
REMARK SMILES IDX 5 1 4 2 3 3 2 4 1 5 28 6 29 7 90 8 30 9 89 10 31 11 32 12
REMARK SMILES IDX 33 13 83 14 34 15 88 16 82 17 84 18 35 19 87 20 81 21 80 22
REMARK SMILES IDX 36 24 68 25 48 26 67 27 49 28 52 29 66 30 85 31 50 32 51 33
REMARK SMILES IDX 65 35 86 36 53 37 37 38 38 39 46 40 39 41 41 42 47 43 40 44
REMARK SMILES IDX 42 45 43 46 44 47 45 48 69 49 70 50 78 51 71 52 73 53 79 54
REMARK SMILES IDX 72 55 74 56 75 57 76 58 77 59 54 60 55 61 63 62 56 63 58 64
REMARK SMILES IDX 64 65 57 66 59 67 60 68 61 69 62 70 6 71 7 72 8 73 9 74
REMARK SMILES IDX 10 75 11 76 12 77 13 78 18 79 14 80 17 81 15 82 16 83 19 84
REMARK SMILES IDX 20 85 27 86 21 87 22 88 26 89 23 90 25 91 24 92
REMARK H PARENT 84 23 52 34
REMARK Flexibility Score: inf
ROOT
ATOM      1  C   UNL A   1      31.370  31.792  26.825  1.00  0.00     0.202 C 
ENDROOT
BRANCH   1   2
ATOM      2  C   UNL A   1      32.341  32.970  26.695  1.00  0.00     0.261 C 
BRANCH   2   3
ATOM      3  O   UNL A   1      32.212  33.838  27.844  1.00  0.00    -0.460 OA
BRANCH   3   4
ATOM      4  C   UNL A   1      33.227  34.499  28.453  1.00  0.00     0.338 C 
ATOM      5  O   UNL A   1      33.107  35.687  28.735  1.00  0.00    -0.246 OA
BRANCH   4   6
ATOM      6  C   UNL A   1      34.376  33.740  29.015  1.00  0.00     0.060 A 
ATOM      7  C   UNL A   1      34.241  32.528  29.681  1.00  0.00     0.016 A 
ATOM      8  C   UNL A   1      35.670  34.215  28.747  1.00  0.00     0.016 A 
ATOM      9  C   UNL A   1      35.356  31.835  30.131  1.00  0.00     0.010 A 
ATOM     10  C   UNL A   1      36.797  33.499  29.180  1.00  0.00     0.010 A 
ATOM     11  C   UNL A   1      36.643  32.310  29.901  1.00  0.00    -0.014 A 
BRANCH  11  12
ATOM     12  C   UNL A   1      37.772  31.584  30.534  1.00  0.00     0.031 A 
ATOM     13  C   UNL A   1      38.022  31.771  32.002  1.00  0.00     0.074 A 
ATOM     14  C   UNL A   1      38.472  30.662  29.841  1.00  0.00     0.049 A 
ATOM     15  N   UNL A   1      38.984  31.292  32.744  1.00  0.00    -0.248 NA
ATOM     16  C   UNL A   1      37.055  32.605  32.736  1.00  0.00     0.031 C 
ATOM     17  C   UNL A   1      38.242  30.304  28.440  1.00  0.00     0.029 A 
ATOM     18  N   UNL A   1      39.491  29.830  30.230  1.00  0.00    -0.354 N 
ATOM     19  C   UNL A   1      38.795  31.844  34.004  1.00  0.00     0.074 A 
ATOM     20  C   UNL A   1      37.602  32.658  33.941  1.00  0.00     0.031 C 
ATOM     21  C   UNL A   1      39.058  29.292  28.103  1.00  0.00     0.029 A 
ATOM     22  C   UNL A   1      39.931  28.991  29.232  1.00  0.00     0.049 A 
ATOM     23  H   UNL A   1      39.872  29.832  31.139  1.00  0.00     0.167 HD
ATOM     24  C   UNL A   1      39.560  31.694  35.110  1.00  0.00     0.034 A 
ATOM     25  C   UNL A   1      40.946  28.103  29.221  1.00  0.00     0.034 A 
ATOM     26  C   UNL A   1      40.704  30.829  35.179  1.00  0.00     0.049 A 
ATOM     27  C   UNL A   1      41.783  27.959  30.464  1.00  0.00     0.074 A 
ATOM     28  C   UNL A   1      41.569  30.625  36.238  1.00  0.00     0.029 A 
ATOM     29  N   UNL A   1      41.133  30.009  34.145  1.00  0.00    -0.354 N 
ATOM     30  N   UNL A   1      41.619  28.516  31.640  1.00  0.00    -0.248 NA
ATOM     31  C   UNL A   1      42.949  27.068  30.379  1.00  0.00     0.031 C 
ATOM     32  C   UNL A   1      42.531  29.692  35.839  1.00  0.00     0.029 A 
ATOM     33  C   UNL A   1      42.249  29.294  34.540  1.00  0.00     0.049 A 
ATOM     34  H   UNL A   1      40.706  29.945  33.261  1.00  0.00     0.167 HD
ATOM     35  C   UNL A   1      42.647  28.030  32.440  1.00  0.00     0.074 A 
ATOM     36  C   UNL A   1      43.409  27.107  31.622  1.00  0.00     0.031 C 
ATOM     37  C   UNL A   1      42.953  28.339  33.724  1.00  0.00     0.034 A 
BRANCH  24  38
ATOM     38  C   UNL A   1      39.202  32.525  36.311  1.00  0.00     0.023 A 
ATOM     39  C   UNL A   1      39.749  33.812  36.480  1.00  0.00     0.012 A 
ATOM     40  C   UNL A   1      38.312  32.017  37.278  1.00  0.00     0.148 A 
ATOM     41  C   UNL A   1      39.446  34.565  37.616  1.00  0.00     0.002 A 
ATOM     42  C   UNL A   1      37.982  32.790  38.384  1.00  0.00     0.091 A 
ATOM     43  F   UNL A   1      37.826  30.778  37.112  1.00  0.00    -0.205 F 
ATOM     44  C   UNL A   1      38.558  34.058  38.562  1.00  0.00     0.022 A 
BRANCH  42  45
ATOM     45  S   UNL A   1      36.796  32.247  39.619  1.00  0.00     0.127 S 
ATOM     46  O   UNL A   1      36.944  33.280  40.644  1.00  0.00    -0.237 OA
ATOM     47  O   UNL A   1      35.536  32.299  38.880  1.00  0.00    -0.237 OA
ATOM     48  O   UNL A   1      37.212  30.909  40.013  1.00  0.00    -0.744 OA
ENDBRANCH  42  45
ENDBRANCH  24  38
BRANCH  25  49
ATOM     49  C   UNL A   1      41.232  27.288  28.002  1.00  0.00     0.023 A 
ATOM     50  C   UNL A   1      41.845  27.894  26.888  1.00  0.00     0.012 A 
ATOM     51  C   UNL A   1      40.913  25.917  27.942  1.00  0.00     0.148 A 
ATOM     52  C   UNL A   1      42.110  27.157  25.730  1.00  0.00     0.002 A 
ATOM     53  C   UNL A   1      41.241  25.174  26.813  1.00  0.00     0.091 A 
ATOM     54  F   UNL A   1      40.297  25.359  28.994  1.00  0.00    -0.205 F 
ATOM     55  C   UNL A   1      41.822  25.796  25.698  1.00  0.00     0.022 A 
BRANCH  53  56
ATOM     56  S   UNL A   1      41.035  23.390  26.752  1.00  0.00     0.127 S 
ATOM     57  O   UNL A   1      41.468  22.992  28.088  1.00  0.00    -0.237 OA
ATOM     58  O   UNL A   1      39.598  23.256  26.504  1.00  0.00    -0.237 OA
ATOM     59  O   UNL A   1      41.873  22.941  25.648  1.00  0.00    -0.744 OA
ENDBRANCH  53  56
ENDBRANCH  25  49
BRANCH  37  60
ATOM     60  C   UNL A   1      44.140  27.648  34.339  1.00  0.00     0.023 A 
ATOM     61  C   UNL A   1      45.404  28.268  34.308  1.00  0.00     0.012 A 
ATOM     62  C   UNL A   1      43.983  26.423  35.016  1.00  0.00     0.148 A 
ATOM     63  C   UNL A   1      46.503  27.663  34.916  1.00  0.00     0.002 A 
ATOM     64  C   UNL A   1      45.072  25.850  35.662  1.00  0.00     0.091 A 
ATOM     65  F   UNL A   1      42.776  25.839  35.013  1.00  0.00    -0.205 F 
ATOM     66  C   UNL A   1      46.334  26.462  35.603  1.00  0.00     0.022 A 
BRANCH  64  67
ATOM     67  S   UNL A   1      44.916  24.360  36.652  1.00  0.00     0.127 S 
ATOM     68  O   UNL A   1      46.311  24.071  36.977  1.00  0.00    -0.237 OA
ATOM     69  O   UNL A   1      44.108  24.819  37.783  1.00  0.00    -0.237 OA
ATOM     70  O   UNL A   1      44.253  23.384  35.798  1.00  0.00    -0.744 OA
ENDBRANCH  64  67
ENDBRANCH  37  60
ENDBRANCH  11  12
ENDBRANCH   4   6
ENDBRANCH   3   4
ENDBRANCH   2   3
ENDBRANCH   1   2
BRANCH   1  71
ATOM     71  O   UNL A   1      32.104  30.651  27.251  1.00  0.00    -0.374 OA
BRANCH  71  72
ATOM     72  C   UNL A   1      33.437  30.526  26.769  1.00  0.00     0.202 C 
BRANCH  72  73
ATOM     73  C   UNL A   1      33.857  29.058  26.748  1.00  0.00     0.261 C 
BRANCH  73  74
ATOM     74  O   UNL A   1      32.936  28.334  25.918  1.00  0.00    -0.460 OA
BRANCH  74  75
ATOM     75  C   UNL A   1      33.109  28.478  24.571  1.00  0.00     0.340 C 
ATOM     76  O   UNL A   1      34.167  28.551  23.988  1.00  0.00    -0.246 OA
BRANCH  75  77
ATOM     77  C   UNL A   1      31.754  28.462  23.942  1.00  0.00     0.084 A 
ATOM     78  C   UNL A   1      31.006  29.654  23.985  1.00  0.00     0.033 A 
ATOM     79  C   UNL A   1      31.231  27.313  23.305  1.00  0.00     0.051 A 
ATOM     80  C   UNL A   1      29.729  29.700  23.440  1.00  0.00     0.018 A 
ATOM     81  C   UNL A   1      29.944  27.402  22.747  1.00  0.00     0.028 A 
ATOM     82  Br  UNL A   1      28.726  31.298  23.539  1.00  0.00    -0.051 Br
ATOM     83  C   UNL A   1      29.189  28.577  22.828  1.00  0.00     0.018 A 
BRANCH  79  84
ATOM     84  N   UNL A   1      31.928  26.101  23.205  1.00  0.00    -0.370 N 
ATOM     85  C   UNL A   1      31.998  25.014  24.131  1.00  0.00     0.125 C 
ATOM     86  C   UNL A   1      32.257  25.279  22.080  1.00  0.00     0.125 C 
ATOM     87  C   UNL A   1      32.882  24.281  23.089  1.00  0.00     0.005 C 
ATOM     88  C   UNL A   1      32.567  22.803  22.845  1.00  0.00     0.011 C 
ATOM     89  C   UNL A   1      34.394  24.485  23.286  1.00  0.00     0.011 C 
ATOM     90  C   UNL A   1      33.050  21.961  24.029  1.00  0.00     0.001 C 
ATOM     91  C   UNL A   1      34.860  23.671  24.486  1.00  0.00     0.001 C 
ATOM     92  C   UNL A   1      34.533  22.188  24.321  1.00  0.00     0.000 C 
ENDBRANCH  79  84
ENDBRANCH  75  77
ENDBRANCH  74  75
ENDBRANCH  73  74
ENDBRANCH  72  73
ENDBRANCH  71  72
ENDBRANCH   1  71
TORSDOF 18
ENDMDL
MODEL 2
REMARK VINA RESULT:     -11.4      5.411     10.886
REMARK SMILES O=C(OCCOCCOC(=O)c1cc(Br)ccc1N1CC2(CCCCC2)C1)c1ccc(-c2c3nc(c(-c4cccc(S(=O)(=O)[O-])c4F)c4ccc([nH]4)c(-c4cccc(S(=O)(=O)[O-])c4F)c4nc(c(-c5cccc(S(=O)(=O)[O-])c5F)c5ccc2[nH]5)C=C4)C=C3)cc1
REMARK SMILES IDX 5 1 4 2 3 3 2 4 1 5 28 6 29 7 90 8 30 9 89 10 31 11 32 12
REMARK SMILES IDX 33 13 83 14 34 15 88 16 82 17 84 18 35 19 87 20 81 21 80 22
REMARK SMILES IDX 36 24 68 25 48 26 67 27 49 28 52 29 66 30 85 31 50 32 51 33
REMARK SMILES IDX 65 35 86 36 53 37 37 38 38 39 46 40 39 41 41 42 47 43 40 44
REMARK SMILES IDX 42 45 43 46 44 47 45 48 69 49 70 50 78 51 71 52 73 53 79 54
REMARK SMILES IDX 72 55 74 56 75 57 76 58 77 59 54 60 55 61 63 62 56 63 58 64
REMARK SMILES IDX 64 65 57 66 59 67 60 68 61 69 62 70 6 71 7 72 8 73 9 74
REMARK SMILES IDX 10 75 11 76 12 77 13 78 18 79 14 80 17 81 15 82 16 83 19 84
REMARK SMILES IDX 20 85 27 86 21 87 22 88 26 89 23 90 25 91 24 92
REMARK H PARENT 84 23 52 34
REMARK Flexibility Score: inf
ROOT
ATOM      1  C   UNL A   1      36.362  21.831  24.321  1.00  0.00     0.202 C 
ENDROOT
BRANCH   1   2
ATOM      2  C   UNL A   1      36.913  21.064  25.527  1.00  0.00     0.261 C 
BRANCH   2   3
ATOM      3  O   UNL A   1      38.270  20.642  25.260  1.00  0.00    -0.460 OA
BRANCH   3   4
ATOM      4  C   UNL A   1      39.309  20.728  26.127  1.00  0.00     0.338 C 
ATOM      5  O   UNL A   1      39.948  19.723  26.425  1.00  0.00    -0.246 OA
BRANCH   4   6
ATOM      6  C   UNL A   1      39.844  22.060  26.515  1.00  0.00     0.060 A 
ATOM      7  C   UNL A   1      39.289  23.262  26.091  1.00  0.00     0.016 A 
ATOM      8  C   UNL A   1      40.886  22.101  27.455  1.00  0.00     0.016 A 
ATOM      9  C   UNL A   1      39.795  24.476  26.535  1.00  0.00     0.010 A 
ATOM     10  C   UNL A   1      41.380  23.328  27.922  1.00  0.00     0.010 A 
ATOM     11  C   UNL A   1      40.849  24.531  27.442  1.00  0.00    -0.014 A 
BRANCH  11  12
ATOM     12  C   UNL A   1      41.420  25.863  27.758  1.00  0.00     0.031 A 
ATOM     13  C   UNL A   1      42.752  26.237  27.175  1.00  0.00     0.074 A 
ATOM     14  C   UNL A   1      40.698  26.779  28.435  1.00  0.00     0.049 A 
ATOM     15  N   UNL A   1      43.466  27.313  27.368  1.00  0.00    -0.248 NA
ATOM     16  C   UNL A   1      43.359  25.272  26.243  1.00  0.00     0.031 C 
ATOM     17  C   UNL A   1      39.341  26.574  28.948  1.00  0.00     0.029 A 
ATOM     18  N   UNL A   1      40.985  28.077  28.774  1.00  0.00    -0.354 N 
ATOM     19  C   UNL A   1      44.646  27.112  26.664  1.00  0.00     0.074 A 
ATOM     20  C   UNL A   1      44.535  25.831  26.001  1.00  0.00     0.031 C 
ATOM     21  C   UNL A   1      38.897  27.720  29.489  1.00  0.00     0.029 A 
ATOM     22  C   UNL A   1      39.965  28.712  29.445  1.00  0.00     0.049 A 
ATOM     23  H   UNL A   1      41.841  28.514  28.556  1.00  0.00     0.167 HD
ATOM     24  C   UNL A   1      45.729  27.919  26.590  1.00  0.00     0.034 A 
ATOM     25  C   UNL A   1      39.912  29.944  29.991  1.00  0.00     0.034 A 
ATOM     26  C   UNL A   1      45.799  29.218  27.198  1.00  0.00     0.049 A 
ATOM     27  C   UNL A   1      41.133  30.820  29.898  1.00  0.00     0.074 A 
ATOM     28  C   UNL A   1      46.859  30.106  27.214  1.00  0.00     0.029 A 
ATOM     29  N   UNL A   1      44.757  29.822  27.886  1.00  0.00    -0.354 N 
ATOM     30  N   UNL A   1      42.259  30.604  29.261  1.00  0.00    -0.248 NA
ATOM     31  C   UNL A   1      41.080  32.109  30.602  1.00  0.00     0.031 C 
ATOM     32  C   UNL A   1      46.461  31.243  27.926  1.00  0.00     0.029 A 
ATOM     33  C   UNL A   1      45.145  31.073  28.330  1.00  0.00     0.049 A 
ATOM     34  H   UNL A   1      43.872  29.419  28.037  1.00  0.00     0.167 HD
ATOM     35  C   UNL A   1      43.041  31.734  29.472  1.00  0.00     0.074 A 
ATOM     36  C   UNL A   1      42.244  32.647  30.268  1.00  0.00     0.031 C 
ATOM     37  C   UNL A   1      44.311  31.985  29.070  1.00  0.00     0.034 A 
BRANCH  24  38
ATOM     38  C   UNL A   1      46.934  27.386  25.866  1.00  0.00     0.023 A 
ATOM     39  C   UNL A   1      47.867  26.569  26.533  1.00  0.00     0.012 A 
ATOM     40  C   UNL A   1      47.138  27.707  24.509  1.00  0.00     0.148 A 
ATOM     41  C   UNL A   1      49.006  26.109  25.869  1.00  0.00     0.002 A 
ATOM     42  C   UNL A   1      48.252  27.211  23.844  1.00  0.00     0.091 A 
ATOM     43  F   UNL A   1      46.254  28.511  23.902  1.00  0.00    -0.205 F 
ATOM     44  C   UNL A   1      49.194  26.423  24.525  1.00  0.00     0.022 A 
BRANCH  42  45
ATOM     45  S   UNL A   1      48.541  27.507  22.096  1.00  0.00     0.127 S 
ATOM     46  O   UNL A   1      48.657  26.143  21.581  1.00  0.00    -0.237 OA
ATOM     47  O   UNL A   1      47.321  28.208  21.697  1.00  0.00    -0.237 OA
ATOM     48  O   UNL A   1      49.753  28.311  22.021  1.00  0.00    -0.744 OA
ENDBRANCH  42  45
ENDBRANCH  24  38
BRANCH  25  49
ATOM     49  C   UNL A   1      38.673  30.422  30.674  1.00  0.00     0.023 A 
ATOM     50  C   UNL A   1      38.510  30.200  32.055  1.00  0.00     0.012 A 
ATOM     51  C   UNL A   1      37.660  31.103  29.970  1.00  0.00     0.148 A 
ATOM     52  C   UNL A   1      37.353  30.623  32.715  1.00  0.00     0.002 A 
ATOM     53  C   UNL A   1      36.542  31.582  30.645  1.00  0.00     0.091 A 
ATOM     54  F   UNL A   1      37.809  31.277  28.648  1.00  0.00    -0.205 F 
ATOM     55  C   UNL A   1      36.378  31.327  32.014  1.00  0.00     0.022 A 
BRANCH  53  56
ATOM     56  S   UNL A   1      35.316  32.621  29.843  1.00  0.00     0.127 S 
ATOM     57  O   UNL A   1      34.407  32.919  30.946  1.00  0.00    -0.237 OA
ATOM     58  O   UNL A   1      36.124  33.753  29.386  1.00  0.00    -0.237 OA
ATOM     59  O   UNL A   1      34.767  31.809  28.764  1.00  0.00    -0.744 OA
ENDBRANCH  53  56
ENDBRANCH  25  49
BRANCH  37  60
ATOM     60  C   UNL A   1      44.909  33.312  29.451  1.00  0.00     0.023 A 
ATOM     61  C   UNL A   1      45.666  33.425  30.633  1.00  0.00     0.012 A 
ATOM     62  C   UNL A   1      44.786  34.424  28.596  1.00  0.00     0.148 A 
ATOM     63  C   UNL A   1      46.267  34.635  30.974  1.00  0.00     0.002 A 
ATOM     64  C   UNL A   1      45.428  35.613  28.917  1.00  0.00     0.091 A 
ATOM     65  F   UNL A   1      44.041  34.300  27.487  1.00  0.00    -0.205 F 
ATOM     66  C   UNL A   1      46.159  35.724  30.111  1.00  0.00     0.022 A 
BRANCH  64  67
ATOM     67  S   UNL A   1      45.423  37.028  27.811  1.00  0.00     0.127 S 
ATOM     68  O   UNL A   1      44.005  37.377  27.780  1.00  0.00    -0.237 OA
ATOM     69  O   UNL A   1      46.273  37.985  28.522  1.00  0.00    -0.237 OA
ATOM     70  O   UNL A   1      45.982  36.550  26.554  1.00  0.00    -0.744 OA
ENDBRANCH  64  67
ENDBRANCH  37  60
ENDBRANCH  11  12
ENDBRANCH   4   6
ENDBRANCH   3   4
ENDBRANCH   2   3
ENDBRANCH   1   2
BRANCH   1  71
ATOM     71  O   UNL A   1      35.579  22.917  24.800  1.00  0.00    -0.374 OA
BRANCH  71  72
ATOM     72  C   UNL A   1      35.360  22.982  26.205  1.00  0.00     0.202 C 
BRANCH  72  73
ATOM     73  C   UNL A   1      34.114  23.810  26.509  1.00  0.00     0.261 C 
BRANCH  73  74
ATOM     74  O   UNL A   1      33.177  22.979  27.212  1.00  0.00    -0.460 OA
BRANCH  74  75
ATOM     75  C   UNL A   1      31.906  22.959  26.711  1.00  0.00     0.340 C 
ATOM     76  O   UNL A   1      30.913  23.380  27.261  1.00  0.00    -0.246 OA
BRANCH  75  77
ATOM     77  C   UNL A   1      31.977  22.385  25.334  1.00  0.00     0.084 A 
ATOM     78  C   UNL A   1      32.289  21.017  25.219  1.00  0.00     0.033 A 
ATOM     79  C   UNL A   1      31.724  23.160  24.179  1.00  0.00     0.051 A 
ATOM     80  C   UNL A   1      32.394  20.426  23.967  1.00  0.00     0.018 A 
ATOM     81  C   UNL A   1      31.819  22.523  22.929  1.00  0.00     0.028 A 
ATOM     82  Br  UNL A   1      32.850  18.597  23.830  1.00  0.00    -0.051 Br
ATOM     83  C   UNL A   1      32.170  21.174  22.819  1.00  0.00     0.018 A 
BRANCH  79  84
ATOM     84  N   UNL A   1      31.386  24.520  24.219  1.00  0.00    -0.370 N 
ATOM     85  C   UNL A   1      32.190  25.665  23.928  1.00  0.00     0.125 C 
ATOM     86  C   UNL A   1      30.157  25.207  23.958  1.00  0.00     0.125 C 
ATOM     87  C   UNL A   1      30.931  26.527  24.205  1.00  0.00     0.005 C 
ATOM     88  C   UNL A   1      30.648  27.660  23.216  1.00  0.00     0.011 C 
ATOM     89  C   UNL A   1      30.818  27.034  25.653  1.00  0.00     0.011 C 
ATOM     90  C   UNL A   1      31.634  28.810  23.438  1.00  0.00     0.001 C 
ATOM     91  C   UNL A   1      31.825  28.154  25.876  1.00  0.00     0.001 C 
ATOM     92  C   UNL A   1      31.622  29.299  24.886  1.00  0.00     0.000 C 
ENDBRANCH  79  84
ENDBRANCH  75  77
ENDBRANCH  74  75
ENDBRANCH  73  74
ENDBRANCH  72  73
ENDBRANCH  71  72
ENDBRANCH   1  71
TORSDOF 18
ENDMDL
MODEL 3
REMARK VINA RESULT:     -11.4      1.408      3.067
REMARK SMILES O=C(OCCOCCOC(=O)c1cc(Br)ccc1N1CC2(CCCCC2)C1)c1ccc(-c2c3nc(c(-c4cccc(S(=O)(=O)[O-])c4F)c4ccc([nH]4)c(-c4cccc(S(=O)(=O)[O-])c4F)c4nc(c(-c5cccc(S(=O)(=O)[O-])c5F)c5ccc2[nH]5)C=C4)C=C3)cc1
REMARK SMILES IDX 5 1 4 2 3 3 2 4 1 5 28 6 29 7 90 8 30 9 89 10 31 11 32 12
REMARK SMILES IDX 33 13 83 14 34 15 88 16 82 17 84 18 35 19 87 20 81 21 80 22
REMARK SMILES IDX 36 24 68 25 48 26 67 27 49 28 52 29 66 30 85 31 50 32 51 33
REMARK SMILES IDX 65 35 86 36 53 37 37 38 38 39 46 40 39 41 41 42 47 43 40 44
REMARK SMILES IDX 42 45 43 46 44 47 45 48 69 49 70 50 78 51 71 52 73 53 79 54
REMARK SMILES IDX 72 55 74 56 75 57 76 58 77 59 54 60 55 61 63 62 56 63 58 64
REMARK SMILES IDX 64 65 57 66 59 67 60 68 61 69 62 70 6 71 7 72 8 73 9 74
REMARK SMILES IDX 10 75 11 76 12 77 13 78 18 79 14 80 17 81 15 82 16 83 19 84
REMARK SMILES IDX 20 85 27 86 21 87 22 88 26 89 23 90 25 91 24 92
REMARK H PARENT 84 23 52 34
REMARK Flexibility Score: inf
ROOT
ATOM      1  C   UNL A   1      31.337  31.626  26.503  1.00  0.00     0.202 C 
ENDROOT
BRANCH   1   2
ATOM      2  C   UNL A   1      31.784  33.091  26.483  1.00  0.00     0.261 C 
BRANCH   2   3
ATOM      3  O   UNL A   1      32.211  33.490  27.804  1.00  0.00    -0.460 OA
BRANCH   3   4
ATOM      4  C   UNL A   1      33.360  34.149  28.099  1.00  0.00     0.338 C 
ATOM      5  O   UNL A   1      33.385  35.376  28.094  1.00  0.00    -0.246 OA
BRANCH   4   6
ATOM      6  C   UNL A   1      34.513  33.409  28.678  1.00  0.00     0.060 A 
ATOM      7  C   UNL A   1      34.401  32.154  29.263  1.00  0.00     0.016 A 
ATOM      8  C   UNL A   1      35.795  33.957  28.511  1.00  0.00     0.016 A 
ATOM      9  C   UNL A   1      35.523  31.485  29.732  1.00  0.00     0.010 A 
ATOM     10  C   UNL A   1      36.931  33.268  28.963  1.00  0.00     0.010 A 
ATOM     11  C   UNL A   1      36.796  32.030  29.603  1.00  0.00    -0.014 A 
BRANCH  11  12
ATOM     12  C   UNL A   1      37.924  31.318  30.253  1.00  0.00     0.031 A 
ATOM     13  C   UNL A   1      38.138  31.495  31.729  1.00  0.00     0.074 A 
ATOM     14  C   UNL A   1      38.655  30.416  29.568  1.00  0.00     0.049 A 
ATOM     15  N   UNL A   1      39.092  31.026  32.488  1.00  0.00    -0.248 NA
ATOM     16  C   UNL A   1      37.140  32.305  32.449  1.00  0.00     0.031 C 
ATOM     17  C   UNL A   1      38.462  30.068  28.158  1.00  0.00     0.029 A 
ATOM     18  N   UNL A   1      39.680  29.598  29.972  1.00  0.00    -0.354 N 
ATOM     19  C   UNL A   1      38.866  31.562  33.748  1.00  0.00     0.074 A 
ATOM     20  C   UNL A   1      37.660  32.355  33.666  1.00  0.00     0.031 C 
ATOM     21  C   UNL A   1      39.303  29.074  27.830  1.00  0.00     0.029 A 
ATOM     22  C   UNL A   1      40.157  28.778  28.975  1.00  0.00     0.049 A 
ATOM     23  H   UNL A   1      40.040  29.598  30.889  1.00  0.00     0.167 HD
ATOM     24  C   UNL A   1      39.608  31.414  34.870  1.00  0.00     0.034 A 
ATOM     25  C   UNL A   1      41.187  27.908  28.978  1.00  0.00     0.034 A 
ATOM     26  C   UNL A   1      40.765  30.569  34.955  1.00  0.00     0.049 A 
ATOM     27  C   UNL A   1      42.000  27.766  30.239  1.00  0.00     0.074 A 
ATOM     28  C   UNL A   1      41.611  30.370  36.032  1.00  0.00     0.029 A 
ATOM     29  N   UNL A   1      41.232  29.767  33.924  1.00  0.00    -0.354 N 
ATOM     30  N   UNL A   1      41.799  28.308  31.416  1.00  0.00    -0.248 NA
ATOM     31  C   UNL A   1      43.183  26.897  30.171  1.00  0.00     0.031 C 
ATOM     32  C   UNL A   1      42.598  29.458  35.645  1.00  0.00     0.029 A 
ATOM     33  C   UNL A   1      42.352  29.068  34.336  1.00  0.00     0.049 A 
ATOM     34  H   UNL A   1      40.826  29.705  33.029  1.00  0.00     0.167 HD
ATOM     35  C   UNL A   1      42.819  27.832  32.234  1.00  0.00     0.074 A 
ATOM     36  C   UNL A   1      43.614  26.932  31.424  1.00  0.00     0.031 C 
ATOM     37  C   UNL A   1      43.090  28.134  33.527  1.00  0.00     0.034 A 
BRANCH  24  38
ATOM     38  C   UNL A   1      39.208  32.227  36.070  1.00  0.00     0.023 A 
ATOM     39  C   UNL A   1      39.736  33.518  36.268  1.00  0.00     0.012 A 
ATOM     40  C   UNL A   1      38.300  31.697  37.008  1.00  0.00     0.148 A 
ATOM     41  C   UNL A   1      39.394  34.254  37.404  1.00  0.00     0.002 A 
ATOM     42  C   UNL A   1      37.932  32.453  38.113  1.00  0.00     0.091 A 
ATOM     43  F   UNL A   1      37.834  30.455  36.815  1.00  0.00    -0.205 F 
ATOM     44  C   UNL A   1      38.487  33.726  38.321  1.00  0.00     0.022 A 
BRANCH  42  45
ATOM     45  S   UNL A   1      36.721  31.882  39.311  1.00  0.00     0.127 S 
ATOM     46  O   UNL A   1      35.528  32.618  38.897  1.00  0.00    -0.237 OA
ATOM     47  O   UNL A   1      36.675  30.445  39.040  1.00  0.00    -0.237 OA
ATOM     48  O   UNL A   1      37.254  32.234  40.619  1.00  0.00    -0.744 OA
ENDBRANCH  42  45
ENDBRANCH  24  38
BRANCH  25  49
ATOM     49  C   UNL A   1      41.515  27.110  27.759  1.00  0.00     0.023 A 
ATOM     50  C   UNL A   1      42.068  27.753  26.634  1.00  0.00     0.012 A 
ATOM     51  C   UNL A   1      41.294  25.719  27.707  1.00  0.00     0.148 A 
ATOM     52  C   UNL A   1      42.370  27.032  25.476  1.00  0.00     0.002 A 
ATOM     53  C   UNL A   1      41.659  24.996  26.576  1.00  0.00     0.091 A 
ATOM     54  F   UNL A   1      40.732  25.123  28.769  1.00  0.00    -0.205 F 
ATOM     55  C   UNL A   1      42.179  25.654  25.452  1.00  0.00     0.022 A 
BRANCH  53  56
ATOM     56  S   UNL A   1      41.579  23.202  26.523  1.00  0.00     0.127 S 
ATOM     57  O   UNL A   1      42.270  22.836  27.757  1.00  0.00    -0.237 OA
ATOM     58  O   UNL A   1      40.136  22.959  26.530  1.00  0.00    -0.237 OA
ATOM     59  O   UNL A   1      42.241  22.822  25.283  1.00  0.00    -0.744 OA
ENDBRANCH  53  56
ENDBRANCH  25  49
BRANCH  37  60
ATOM     60  C   UNL A   1      44.275  27.458  34.162  1.00  0.00     0.023 A 
ATOM     61  C   UNL A   1      45.552  28.045  34.063  1.00  0.00     0.012 A 
ATOM     62  C   UNL A   1      44.107  26.284  34.922  1.00  0.00     0.148 A 
ATOM     63  C   UNL A   1      46.650  27.457  34.687  1.00  0.00     0.002 A 
ATOM     64  C   UNL A   1      45.198  25.731  35.581  1.00  0.00     0.091 A 
ATOM     65  F   UNL A   1      42.888  25.730  34.983  1.00  0.00    -0.205 F 
ATOM     66  C   UNL A   1      46.471  26.308  35.456  1.00  0.00     0.022 A 
BRANCH  64  67
ATOM     67  S   UNL A   1      45.032  24.313  36.672  1.00  0.00     0.127 S 
ATOM     68  O   UNL A   1      46.409  24.122  37.123  1.00  0.00    -0.237 OA
ATOM     69  O   UNL A   1      44.117  24.814  37.699  1.00  0.00    -0.237 OA
ATOM     70  O   UNL A   1      44.484  23.243  35.851  1.00  0.00    -0.744 OA
ENDBRANCH  64  67
ENDBRANCH  37  60
ENDBRANCH  11  12
ENDBRANCH   4   6
ENDBRANCH   3   4
ENDBRANCH   2   3
ENDBRANCH   1   2
BRANCH   1  71
ATOM     71  O   UNL A   1      32.378  30.847  27.081  1.00  0.00    -0.374 OA
BRANCH  71  72
ATOM     72  C   UNL A   1      33.125  30.017  26.199  1.00  0.00     0.202 C 
BRANCH  72  73
ATOM     73  C   UNL A   1      32.749  28.552  26.405  1.00  0.00     0.261 C 
BRANCH  73  74
ATOM     74  O   UNL A   1      31.439  28.337  25.858  1.00  0.00    -0.460 OA
BRANCH  74  75
ATOM     75  C   UNL A   1      31.082  27.034  25.660  1.00  0.00     0.340 C 
ATOM     76  O   UNL A   1      30.337  26.381  26.356  1.00  0.00    -0.246 OA
BRANCH  75  77
ATOM     77  C   UNL A   1      31.726  26.582  24.390  1.00  0.00     0.084 A 
ATOM     78  C   UNL A   1      32.686  25.555  24.481  1.00  0.00     0.033 A 
ATOM     79  C   UNL A   1      31.387  27.134  23.133  1.00  0.00     0.051 A 
ATOM     80  C   UNL A   1      33.339  25.105  23.341  1.00  0.00     0.018 A 
ATOM     81  C   UNL A   1      32.054  26.639  21.999  1.00  0.00     0.028 A 
ATOM     82  Br  UNL A   1      34.650  23.752  23.486  1.00  0.00    -0.051 Br
ATOM     83  C   UNL A   1      33.035  25.648  22.100  1.00  0.00     0.018 A 
BRANCH  79  84
ATOM     84  N   UNL A   1      30.426  28.140  22.965  1.00  0.00    -0.370 N 
ATOM     85  C   UNL A   1      30.470  29.311  22.145  1.00  0.00     0.125 C 
ATOM     86  C   UNL A   1      28.995  28.110  22.998  1.00  0.00     0.125 C 
ATOM     87  C   UNL A   1      29.030  29.616  22.635  1.00  0.00     0.005 C 
ATOM     88  C   UNL A   1      28.029  30.069  21.570  1.00  0.00     0.011 C 
ATOM     89  C   UNL A   1      28.963  30.538  23.865  1.00  0.00     0.011 C 
ATOM     90  C   UNL A   1      28.323  31.511  21.150  1.00  0.00     0.001 C 
ATOM     91  C   UNL A   1      29.291  31.965  23.445  1.00  0.00     0.001 C 
ATOM     92  C   UNL A   1      28.350  32.459  22.349  1.00  0.00     0.000 C 
ENDBRANCH  79  84
ENDBRANCH  75  77
ENDBRANCH  74  75
ENDBRANCH  73  74
ENDBRANCH  72  73
ENDBRANCH  71  72
ENDBRANCH   1  71
TORSDOF 18
ENDMDL
