MODEL 1
REMARK VINA RESULT:     -10.4      0.000      0.000
REMARK SMILES CCc1c(C(=O)NCC(=O)OCCOCCOC(=O)c2ccc(-c3c4nc(c(-c5cccc(S(=O)(=O)[O-])c5F)c5ccc([nH]5)c(-c5cccc(S(=O)(=O)[O-])c5F)c5nc(c(-c6cccc(S(=O)(=O)[O-])c6F)c6ccc3[nH]6)C=C5)C=C4)cc2)nnn1-c1ccc(Cl)cc1
REMARK SMILES IDX 14 1 13 2 12 3 11 4 9 5 10 6 8 7 7 8 5 9 6 10 4 12 3 13
REMARK SMILES IDX 85 14 83 15 84 16 2 17 1 18 86 19 87 20 92 21 88 22 91 23
REMARK SMILES IDX 89 24 90 25 15 26 16 27 17 28 18 29 19 30 20 31 21 32 82 33
REMARK SMILES IDX 22 34 81 35 23 36 24 37 25 38 75 39 26 40 80 41 74 42 76 43
REMARK SMILES IDX 27 44 79 45 73 46 72 47 28 49 60 50 40 51 59 52 41 53 44 54
REMARK SMILES IDX 58 55 77 56 42 57 43 58 57 60 78 61 45 62 29 63 30 64 38 65
REMARK SMILES IDX 31 66 33 67 39 68 32 69 34 70 35 71 36 72 37 73 61 74 62 75
REMARK SMILES IDX 70 76 63 77 65 78 71 79 64 80 66 81 67 82 68 83 69 84 46 85
REMARK SMILES IDX 47 86 55 87 48 88 50 89 56 90 49 91 51 92 52 93 53 94 54 95
REMARK H PARENT 7 11 76 48 44 59
REMARK Flexibility Score: inf
ROOT
ATOM      1  O   UNL A   1      36.498  22.979  25.709  1.00  0.00    -0.374 OA
ENDROOT
BRANCH   1   2
ATOM      2  C   UNL A   1      35.266  22.821  25.008  1.00  0.00     0.202 C 
BRANCH   2   3
ATOM      3  C   UNL A   1      34.221  21.788  25.450  1.00  0.00     0.261 C 
BRANCH   3   4
ATOM      4  O   UNL A   1      33.411  21.291  24.373  1.00  0.00    -0.462 OA
BRANCH   4   5
ATOM      5  C   UNL A   1      32.079  21.482  24.542  1.00  0.00     0.325 C 
ATOM      6  O   UNL A   1      31.457  21.168  25.557  1.00  0.00    -0.250 OA
BRANCH   5   7
ATOM      7  C   UNL A   1      31.455  22.363  23.468  1.00  0.00     0.239 C 
BRANCH   7   8
ATOM      8  N   UNL A   1      32.145  22.619  22.238  1.00  0.00    -0.340 N 
ATOM      9  C   UNL A   1      32.970  23.630  21.830  1.00  0.00     0.274 C 
ATOM     10  O   UNL A   1      33.653  23.338  20.846  1.00  0.00    -0.267 OA
ATOM     11  H   UNL A   1      31.994  21.931  21.550  1.00  0.00     0.164 HD
BRANCH   9  12
ATOM     12  C   UNL A   1      33.049  24.985  22.403  1.00  0.00     0.174 A 
ATOM     13  C   UNL A   1      32.617  25.663  23.552  1.00  0.00     0.077 A 
ATOM     14  N   UNL A   1      32.986  26.987  23.309  1.00  0.00    -0.217 N 
ATOM     15  N   UNL A   1      33.656  25.918  21.577  1.00  0.00    -0.124 NA
ATOM     16  N   UNL A   1      33.519  27.120  22.090  1.00  0.00    -0.061 NA
BRANCH  13  17
ATOM     17  C   UNL A   1      31.767  25.321  24.730  1.00  0.00     0.055 C 
ATOM     18  C   UNL A   1      32.522  25.090  26.029  1.00  0.00     0.011 C 
ENDBRANCH  13  17
BRANCH  14  19
ATOM     19  C   UNL A   1      32.715  28.137  24.085  1.00  0.00     0.067 A 
ATOM     20  C   UNL A   1      31.494  28.799  23.901  1.00  0.00     0.030 A 
ATOM     21  C   UNL A   1      33.616  28.571  25.062  1.00  0.00     0.030 A 
ATOM     22  C   UNL A   1      31.142  29.840  24.761  1.00  0.00     0.023 A 
ATOM     23  C   UNL A   1      33.266  29.621  25.908  1.00  0.00     0.023 A 
ATOM     24  C   UNL A   1      32.023  30.238  25.767  1.00  0.00     0.041 A 
ATOM     25  Cl  UNL A   1      31.573  31.496  26.850  1.00  0.00    -0.084 Cl
ENDBRANCH  14  19
ENDBRANCH   9  12
ENDBRANCH   7   8
ENDBRANCH   5   7
ENDBRANCH   4   5
ENDBRANCH   3   4
ENDBRANCH   2   3
ENDBRANCH   1   2
BRANCH   1  26
ATOM     26  C   UNL A   1      37.508  21.978  25.763  1.00  0.00     0.202 C 
BRANCH  26  27
ATOM     27  C   UNL A   1      38.916  22.296  26.265  1.00  0.00     0.261 C 
BRANCH  27  28
ATOM     28  O   UNL A   1      39.911  21.758  25.417  1.00  0.00    -0.460 OA
BRANCH  28  29
ATOM     29  C   UNL A   1      40.525  20.688  25.973  1.00  0.00     0.338 C 
ATOM     30  O   UNL A   1      40.113  19.544  26.001  1.00  0.00    -0.246 OA
BRANCH  29  31
ATOM     31  C   UNL A   1      41.786  21.110  26.602  1.00  0.00     0.060 A 
ATOM     32  C   UNL A   1      41.762  21.009  27.994  1.00  0.00     0.016 A 
ATOM     33  C   UNL A   1      42.564  22.050  25.921  1.00  0.00     0.016 A 
ATOM     34  C   UNL A   1      42.141  22.118  28.699  1.00  0.00     0.010 A 
ATOM     35  C   UNL A   1      42.927  23.164  26.622  1.00  0.00     0.010 A 
ATOM     36  C   UNL A   1      42.579  23.222  27.970  1.00  0.00    -0.014 A 
BRANCH  36  37
ATOM     37  C   UNL A   1      42.667  24.485  28.655  1.00  0.00     0.031 A 
ATOM     38  C   UNL A   1      41.574  25.392  28.259  1.00  0.00     0.074 A 
ATOM     39  C   UNL A   1      43.582  24.670  29.625  1.00  0.00     0.049 A 
ATOM     40  N   UNL A   1      41.650  26.477  27.562  1.00  0.00    -0.248 NA
ATOM     41  C   UNL A   1      40.203  24.892  28.452  1.00  0.00     0.031 C 
ATOM     42  C   UNL A   1      44.477  23.677  30.235  1.00  0.00     0.029 A 
ATOM     43  N   UNL A   1      43.779  25.765  30.398  1.00  0.00    -0.354 N 
ATOM     44  C   UNL A   1      40.332  26.912  27.467  1.00  0.00     0.074 A 
ATOM     45  C   UNL A   1      39.501  25.774  27.745  1.00  0.00     0.031 C 
ATOM     46  C   UNL A   1      44.884  24.137  31.441  1.00  0.00     0.029 A 
ATOM     47  C   UNL A   1      44.370  25.482  31.625  1.00  0.00     0.049 A 
ATOM     48  H   UNL A   1      43.529  26.676  30.118  1.00  0.00     0.167 HD
ATOM     49  C   UNL A   1      40.018  28.232  27.543  1.00  0.00     0.034 A 
ATOM     50  C   UNL A   1      44.289  26.256  32.739  1.00  0.00     0.034 A 
ATOM     51  C   UNL A   1      41.165  29.066  27.297  1.00  0.00     0.049 A 
ATOM     52  C   UNL A   1      43.854  27.609  32.300  1.00  0.00     0.074 A 
ATOM     53  C   UNL A   1      42.053  29.219  26.252  1.00  0.00     0.029 A 
ATOM     54  N   UNL A   1      41.771  29.624  28.398  1.00  0.00    -0.354 N 
ATOM     55  N   UNL A   1      44.573  28.381  31.533  1.00  0.00    -0.248 NA
ATOM     56  C   UNL A   1      42.425  27.891  32.308  1.00  0.00     0.031 C 
ATOM     57  C   UNL A   1      43.318  29.433  26.874  1.00  0.00     0.029 A 
ATOM     58  C   UNL A   1      43.123  29.455  28.257  1.00  0.00     0.049 A 
ATOM     59  H   UNL A   1      41.317  30.066  29.151  1.00  0.00     0.167 HD
ATOM     60  C   UNL A   1      43.662  28.933  30.640  1.00  0.00     0.074 A 
ATOM     61  C   UNL A   1      42.347  28.669  31.224  1.00  0.00     0.031 C 
ATOM     62  C   UNL A   1      44.032  29.270  29.367  1.00  0.00     0.034 A 
BRANCH  49  63
ATOM     63  C   UNL A   1      38.786  28.755  28.245  1.00  0.00     0.023 A 
ATOM     64  C   UNL A   1      37.835  29.425  27.452  1.00  0.00     0.012 A 
ATOM     65  C   UNL A   1      38.638  28.862  29.651  1.00  0.00     0.148 A 
ATOM     66  C   UNL A   1      36.820  30.197  28.026  1.00  0.00     0.002 A 
ATOM     67  C   UNL A   1      37.578  29.556  30.216  1.00  0.00     0.091 A 
ATOM     68  F   UNL A   1      39.597  28.426  30.471  1.00  0.00    -0.205 F 
ATOM     69  C   UNL A   1      36.684  30.256  29.409  1.00  0.00     0.022 A 
BRANCH  67  70
ATOM     70  S   UNL A   1      37.346  29.616  31.998  1.00  0.00     0.127 S 
ATOM     71  O   UNL A   1      36.024  30.227  32.097  1.00  0.00    -0.237 OA
ATOM     72  O   UNL A   1      37.405  28.198  32.355  1.00  0.00    -0.237 OA
ATOM     73  O   UNL A   1      38.462  30.403  32.506  1.00  0.00    -0.744 OA
ENDBRANCH  67  70
ENDBRANCH  49  63
BRANCH  50  74
ATOM     74  C   UNL A   1      44.185  25.812  34.152  1.00  0.00     0.023 A 
ATOM     75  C   UNL A   1      42.981  25.263  34.635  1.00  0.00     0.012 A 
ATOM     76  C   UNL A   1      45.338  25.689  34.962  1.00  0.00     0.148 A 
ATOM     77  C   UNL A   1      42.930  24.610  35.875  1.00  0.00     0.002 A 
ATOM     78  C   UNL A   1      45.279  25.059  36.201  1.00  0.00     0.091 A 
ATOM     79  F   UNL A   1      46.515  26.107  34.478  1.00  0.00    -0.205 F 
ATOM     80  C   UNL A   1      44.078  24.506  36.657  1.00  0.00     0.022 A 
BRANCH  78  81
ATOM     81  S   UNL A   1      46.724  24.899  37.260  1.00  0.00     0.127 S 
ATOM     82  O   UNL A   1      46.196  24.109  38.374  1.00  0.00    -0.237 OA
ATOM     83  O   UNL A   1      47.658  24.186  36.394  1.00  0.00    -0.237 OA
ATOM     84  O   UNL A   1      47.100  26.260  37.623  1.00  0.00    -0.744 OA
ENDBRANCH  78  81
ENDBRANCH  50  74
BRANCH  62  85
ATOM     85  C   UNL A   1      45.500  29.197  29.014  1.00  0.00     0.023 A 
ATOM     86  C   UNL A   1      46.415  30.202  29.397  1.00  0.00     0.012 A 
ATOM     87  C   UNL A   1      45.997  28.004  28.468  1.00  0.00     0.148 A 
ATOM     88  C   UNL A   1      47.791  30.029  29.221  1.00  0.00     0.002 A 
ATOM     89  C   UNL A   1      47.368  27.818  28.334  1.00  0.00     0.091 A 
ATOM     90  F   UNL A   1      45.116  27.052  28.126  1.00  0.00    -0.205 F 
ATOM     91  C   UNL A   1      48.269  28.831  28.700  1.00  0.00     0.022 A 
BRANCH  89  92
ATOM     92  S   UNL A   1      48.057  26.251  27.796  1.00  0.00     0.127 S 
ATOM     93  O   UNL A   1      47.598  26.176  26.410  1.00  0.00    -0.237 OA
ATOM     94  O   UNL A   1      49.495  26.471  27.955  1.00  0.00    -0.237 OA
ATOM     95  O   UNL A   1      47.507  25.239  28.690  1.00  0.00    -0.744 OA
ENDBRANCH  89  92
ENDBRANCH  62  85
ENDBRANCH  36  37
ENDBRANCH  29  31
ENDBRANCH  28  29
ENDBRANCH  27  28
ENDBRANCH  26  27
ENDBRANCH   1  26
TORSDOF 21
ENDMDL
MODEL 2
REMARK VINA RESULT:     -10.3      5.359      9.702
REMARK SMILES CCc1c(C(=O)NCC(=O)OCCOCCOC(=O)c2ccc(-c3c4nc(c(-c5cccc(S(=O)(=O)[O-])c5F)c5ccc([nH]5)c(-c5cccc(S(=O)(=O)[O-])c5F)c5nc(c(-c6cccc(S(=O)(=O)[O-])c6F)c6ccc3[nH]6)C=C5)C=C4)cc2)nnn1-c1ccc(Cl)cc1
REMARK SMILES IDX 14 1 13 2 12 3 11 4 9 5 10 6 8 7 7 8 5 9 6 10 4 12 3 13
REMARK SMILES IDX 85 14 83 15 84 16 2 17 1 18 86 19 87 20 92 21 88 22 91 23
REMARK SMILES IDX 89 24 90 25 15 26 16 27 17 28 18 29 19 30 20 31 21 32 82 33
REMARK SMILES IDX 22 34 81 35 23 36 24 37 25 38 75 39 26 40 80 41 74 42 76 43
REMARK SMILES IDX 27 44 79 45 73 46 72 47 28 49 60 50 40 51 59 52 41 53 44 54
REMARK SMILES IDX 58 55 77 56 42 57 43 58 57 60 78 61 45 62 29 63 30 64 38 65
REMARK SMILES IDX 31 66 33 67 39 68 32 69 34 70 35 71 36 72 37 73 61 74 62 75
REMARK SMILES IDX 70 76 63 77 65 78 71 79 64 80 66 81 67 82 68 83 69 84 46 85
REMARK SMILES IDX 47 86 55 87 48 88 50 89 56 90 49 91 51 92 52 93 53 94 54 95
REMARK H PARENT 7 11 76 48 44 59
REMARK Flexibility Score: inf
ROOT
ATOM      1  O   UNL A   1      33.880  32.495  27.978  1.00  0.00    -0.374 OA
ENDROOT
BRANCH   1   2
ATOM      2  C   UNL A   1      34.459  31.233  27.649  1.00  0.00     0.202 C 
BRANCH   2   3
ATOM      3  C   UNL A   1      33.594  30.048  27.201  1.00  0.00     0.261 C 
BRANCH   3   4
ATOM      4  O   UNL A   1      34.354  28.923  26.735  1.00  0.00    -0.462 OA
BRANCH   4   5
ATOM      5  C   UNL A   1      33.616  27.963  26.125  1.00  0.00     0.325 C 
ATOM      6  O   UNL A   1      34.024  27.252  25.208  1.00  0.00    -0.250 OA
BRANCH   5   7
ATOM      7  C   UNL A   1      32.311  27.654  26.850  1.00  0.00     0.239 C 
BRANCH   7   8
ATOM      8  N   UNL A   1      31.164  27.187  26.128  1.00  0.00    -0.340 N 
ATOM      9  C   UNL A   1      30.658  25.938  25.899  1.00  0.00     0.274 C 
ATOM     10  O   UNL A   1      29.477  25.946  25.543  1.00  0.00    -0.267 OA
ATOM     11  H   UNL A   1      30.637  27.909  25.714  1.00  0.00     0.164 HD
BRANCH   9  12
ATOM     12  C   UNL A   1      31.394  24.664  25.975  1.00  0.00     0.174 A 
ATOM     13  C   UNL A   1      32.019  23.762  25.102  1.00  0.00     0.077 A 
ATOM     14  N   UNL A   1      32.395  22.707  25.936  1.00  0.00    -0.217 N 
ATOM     15  N   UNL A   1      31.455  24.116  27.247  1.00  0.00    -0.124 NA
ATOM     16  N   UNL A   1      31.966  22.907  27.185  1.00  0.00    -0.061 NA
BRANCH  13  17
ATOM     17  C   UNL A   1      32.154  23.638  23.622  1.00  0.00     0.055 C 
ATOM     18  C   UNL A   1      33.537  23.944  23.068  1.00  0.00     0.011 C 
ENDBRANCH  13  17
BRANCH  14  19
ATOM     19  C   UNL A   1      32.980  21.469  25.585  1.00  0.00     0.067 A 
ATOM     20  C   UNL A   1      32.142  20.419  25.187  1.00  0.00     0.030 A 
ATOM     21  C   UNL A   1      34.369  21.311  25.573  1.00  0.00     0.030 A 
ATOM     22  C   UNL A   1      32.706  19.242  24.691  1.00  0.00     0.023 A 
ATOM     23  C   UNL A   1      34.926  20.128  25.091  1.00  0.00     0.023 A 
ATOM     24  C   UNL A   1      34.093  19.108  24.634  1.00  0.00     0.041 A 
ATOM     25  Cl  UNL A   1      34.787  17.672  23.988  1.00  0.00    -0.084 Cl
ENDBRANCH  14  19
ENDBRANCH   9  12
ENDBRANCH   7   8
ENDBRANCH   5   7
ENDBRANCH   4   5
ENDBRANCH   3   4
ENDBRANCH   2   3
ENDBRANCH   1   2
BRANCH   1  26
ATOM     26  C   UNL A   1      34.642  33.639  28.345  1.00  0.00     0.202 C 
BRANCH  26  27
ATOM     27  C   UNL A   1      34.016  34.793  29.128  1.00  0.00     0.261 C 
BRANCH  27  28
ATOM     28  O   UNL A   1      33.317  34.336  30.267  1.00  0.00    -0.460 OA
BRANCH  28  29
ATOM     29  C   UNL A   1      33.478  35.166  31.325  1.00  0.00     0.338 C 
ATOM     30  O   UNL A   1      33.094  36.316  31.415  1.00  0.00    -0.246 OA
BRANCH  29  31
ATOM     31  C   UNL A   1      34.245  34.484  32.380  1.00  0.00     0.060 A 
ATOM     32  C   UNL A   1      35.192  35.310  32.987  1.00  0.00     0.016 A 
ATOM     33  C   UNL A   1      34.401  33.099  32.270  1.00  0.00     0.016 A 
ATOM     34  C   UNL A   1      36.470  34.830  33.065  1.00  0.00     0.010 A 
ATOM     35  C   UNL A   1      35.680  32.624  32.332  1.00  0.00     0.010 A 
ATOM     36  C   UNL A   1      36.699  33.538  32.593  1.00  0.00    -0.014 A 
BRANCH  36  37
ATOM     37  C   UNL A   1      38.063  33.141  32.364  1.00  0.00     0.031 A 
ATOM     38  C   UNL A   1      38.878  33.280  33.585  1.00  0.00     0.074 A 
ATOM     39  C   UNL A   1      38.423  32.591  31.190  1.00  0.00     0.049 A 
ATOM     40  N   UNL A   1      39.823  34.128  33.822  1.00  0.00    -0.248 NA
ATOM     41  C   UNL A   1      38.410  32.547  34.773  1.00  0.00     0.031 C 
ATOM     42  C   UNL A   1      37.559  32.173  30.077  1.00  0.00     0.029 A 
ATOM     43  N   UNL A   1      39.639  32.122  30.817  1.00  0.00    -0.354 N 
ATOM     44  C   UNL A   1      40.226  33.833  35.121  1.00  0.00     0.074 A 
ATOM     45  C   UNL A   1      39.149  33.103  35.730  1.00  0.00     0.031 C 
ATOM     46  C   UNL A   1      38.228  31.273  29.318  1.00  0.00     0.029 A 
ATOM     47  C   UNL A   1      39.581  31.145  29.830  1.00  0.00     0.049 A 
ATOM     48  H   UNL A   1      40.483  32.443  31.208  1.00  0.00     0.167 HD
ATOM     49  C   UNL A   1      41.536  33.870  35.479  1.00  0.00     0.034 A 
ATOM     50  C   UNL A   1      40.538  30.214  29.581  1.00  0.00     0.034 A 
ATOM     51  C   UNL A   1      42.322  34.628  34.541  1.00  0.00     0.049 A 
ATOM     52  C   UNL A   1      41.789  30.690  30.229  1.00  0.00     0.074 A 
ATOM     53  C   UNL A   1      42.294  35.925  34.071  1.00  0.00     0.029 A 
ATOM     54  N   UNL A   1      43.069  33.910  33.638  1.00  0.00    -0.354 N 
ATOM     55  N   UNL A   1      42.419  31.773  29.865  1.00  0.00    -0.248 NA
ATOM     56  C   UNL A   1      42.058  30.237  31.586  1.00  0.00     0.031 C 
ATOM     57  C   UNL A   1      42.623  35.821  32.687  1.00  0.00     0.029 A 
ATOM     58  C   UNL A   1      42.888  34.478  32.405  1.00  0.00     0.049 A 
ATOM     59  H   UNL A   1      43.634  33.130  33.840  1.00  0.00     0.167 HD
ATOM     60  C   UNL A   1      42.798  32.376  31.059  1.00  0.00     0.074 A 
ATOM     61  C   UNL A   1      42.632  31.340  32.079  1.00  0.00     0.031 C 
ATOM     62  C   UNL A   1      42.909  33.734  31.164  1.00  0.00     0.034 A 
BRANCH  49  63
ATOM     63  C   UNL A   1      42.166  32.881  36.434  1.00  0.00     0.023 A 
ATOM     64  C   UNL A   1      42.823  33.412  37.560  1.00  0.00     0.012 A 
ATOM     65  C   UNL A   1      42.380  31.508  36.155  1.00  0.00     0.148 A 
ATOM     66  C   UNL A   1      43.682  32.630  38.340  1.00  0.00     0.002 A 
ATOM     67  C   UNL A   1      43.162  30.716  36.982  1.00  0.00     0.091 A 
ATOM     68  F   UNL A   1      41.957  30.973  35.007  1.00  0.00    -0.205 F 
ATOM     69  C   UNL A   1      43.845  31.278  38.058  1.00  0.00     0.022 A 
BRANCH  67  70
ATOM     70  S   UNL A   1      43.359  28.955  36.673  1.00  0.00     0.127 S 
ATOM     71  O   UNL A   1      44.087  28.963  35.408  1.00  0.00    -0.237 OA
ATOM     72  O   UNL A   1      44.140  28.533  37.837  1.00  0.00    -0.237 OA
ATOM     73  O   UNL A   1      42.006  28.415  36.639  1.00  0.00    -0.744 OA
ENDBRANCH  67  70
ENDBRANCH  49  63
BRANCH  50  74
ATOM     74  C   UNL A   1      40.349  28.799  29.171  1.00  0.00     0.023 A 
ATOM     75  C   UNL A   1      39.233  28.071  29.630  1.00  0.00     0.012 A 
ATOM     76  C   UNL A   1      41.123  28.234  28.130  1.00  0.00     0.148 A 
ATOM     77  C   UNL A   1      38.896  26.833  29.067  1.00  0.00     0.002 A 
ATOM     78  C   UNL A   1      40.797  26.996  27.588  1.00  0.00     0.091 A 
ATOM     79  F   UNL A   1      42.123  28.954  27.605  1.00  0.00    -0.205 F 
ATOM     80  C   UNL A   1      39.676  26.295  28.046  1.00  0.00     0.022 A 
BRANCH  78  81
ATOM     81  S   UNL A   1      41.767  26.245  26.273  1.00  0.00     0.127 S 
ATOM     82  O   UNL A   1      41.524  27.160  25.156  1.00  0.00    -0.237 OA
ATOM     83  O   UNL A   1      43.117  26.298  26.824  1.00  0.00    -0.237 OA
ATOM     84  O   UNL A   1      41.207  24.913  26.080  1.00  0.00    -0.744 OA
ENDBRANCH  78  81
ENDBRANCH  50  74
BRANCH  62  85
ATOM     85  C   UNL A   1      42.784  34.554  29.900  1.00  0.00     0.023 A 
ATOM     86  C   UNL A   1      41.531  34.932  29.371  1.00  0.00     0.012 A 
ATOM     87  C   UNL A   1      43.946  35.120  29.353  1.00  0.00     0.148 A 
ATOM     88  C   UNL A   1      41.439  35.838  28.311  1.00  0.00     0.002 A 
ATOM     89  C   UNL A   1      43.849  36.053  28.328  1.00  0.00     0.091 A 
ATOM     90  F   UNL A   1      45.128  34.764  29.878  1.00  0.00    -0.205 F 
ATOM     91  C   UNL A   1      42.599  36.408  27.796  1.00  0.00     0.022 A 
BRANCH  89  92
ATOM     92  S   UNL A   1      45.291  36.925  27.709  1.00  0.00     0.127 S 
ATOM     93  O   UNL A   1      44.693  37.881  26.779  1.00  0.00    -0.237 OA
ATOM     94  O   UNL A   1      45.842  37.519  28.928  1.00  0.00    -0.237 OA
ATOM     95  O   UNL A   1      46.145  35.913  27.101  1.00  0.00    -0.744 OA
ENDBRANCH  89  92
ENDBRANCH  62  85
ENDBRANCH  36  37
ENDBRANCH  29  31
ENDBRANCH  28  29
ENDBRANCH  27  28
ENDBRANCH  26  27
ENDBRANCH   1  26
TORSDOF 21
ENDMDL
MODEL 3
REMARK VINA RESULT:     -10.1      3.353      7.916
REMARK SMILES CCc1c(C(=O)NCC(=O)OCCOCCOC(=O)c2ccc(-c3c4nc(c(-c5cccc(S(=O)(=O)[O-])c5F)c5ccc([nH]5)c(-c5cccc(S(=O)(=O)[O-])c5F)c5nc(c(-c6cccc(S(=O)(=O)[O-])c6F)c6ccc3[nH]6)C=C5)C=C4)cc2)nnn1-c1ccc(Cl)cc1
REMARK SMILES IDX 14 1 13 2 12 3 11 4 9 5 10 6 8 7 7 8 5 9 6 10 4 12 3 13
REMARK SMILES IDX 85 14 83 15 84 16 2 17 1 18 86 19 87 20 92 21 88 22 91 23
REMARK SMILES IDX 89 24 90 25 15 26 16 27 17 28 18 29 19 30 20 31 21 32 82 33
REMARK SMILES IDX 22 34 81 35 23 36 24 37 25 38 75 39 26 40 80 41 74 42 76 43
REMARK SMILES IDX 27 44 79 45 73 46 72 47 28 49 60 50 40 51 59 52 41 53 44 54
REMARK SMILES IDX 58 55 77 56 42 57 43 58 57 60 78 61 45 62 29 63 30 64 38 65
REMARK SMILES IDX 31 66 33 67 39 68 32 69 34 70 35 71 36 72 37 73 61 74 62 75
REMARK SMILES IDX 70 76 63 77 65 78 71 79 64 80 66 81 67 82 68 83 69 84 46 85
REMARK SMILES IDX 47 86 55 87 48 88 50 89 56 90 49 91 51 92 52 93 53 94 54 95
REMARK H PARENT 7 11 76 48 44 59
REMARK Flexibility Score: inf
ROOT
ATOM      1  O   UNL A   1      33.303  32.678  27.960  1.00  0.00    -0.374 OA
ENDROOT
BRANCH   1   2
ATOM      2  C   UNL A   1      33.753  31.544  27.221  1.00  0.00     0.202 C 
BRANCH   2   3
ATOM      3  C   UNL A   1      33.410  30.115  27.660  1.00  0.00     0.261 C 
BRANCH   3   4
ATOM      4  O   UNL A   1      32.434  29.474  26.825  1.00  0.00    -0.462 OA
BRANCH   4   5
ATOM      5  C   UNL A   1      32.958  28.639  25.893  1.00  0.00     0.325 C 
ATOM      6  O   UNL A   1      33.998  27.998  26.043  1.00  0.00    -0.250 OA
BRANCH   5   7
ATOM      7  C   UNL A   1      32.008  28.354  24.736  1.00  0.00     0.239 C 
BRANCH   7   8
ATOM      8  N   UNL A   1      30.879  27.489  24.911  1.00  0.00    -0.340 N 
ATOM      9  C   UNL A   1      30.746  26.233  25.435  1.00  0.00     0.274 C 
ATOM     10  O   UNL A   1      29.585  25.952  25.744  1.00  0.00    -0.267 OA
ATOM     11  H   UNL A   1      30.032  27.875  24.591  1.00  0.00     0.164 HD
BRANCH   9  12
ATOM     12  C   UNL A   1      31.810  25.225  25.584  1.00  0.00     0.174 A 
ATOM     13  C   UNL A   1      32.805  24.629  24.796  1.00  0.00     0.077 A 
ATOM     14  N   UNL A   1      33.347  23.655  25.636  1.00  0.00    -0.217 N 
ATOM     15  N   UNL A   1      31.835  24.602  26.822  1.00  0.00    -0.124 NA
ATOM     16  N   UNL A   1      32.689  23.604  26.798  1.00  0.00    -0.061 NA
BRANCH  13  17
ATOM     17  C   UNL A   1      33.199  24.689  23.359  1.00  0.00     0.055 C 
ATOM     18  C   UNL A   1      33.761  26.024  22.896  1.00  0.00     0.011 C 
ENDBRANCH  13  17
BRANCH  14  19
ATOM     19  C   UNL A   1      34.325  22.677  25.341  1.00  0.00     0.067 A 
ATOM     20  C   UNL A   1      35.675  23.050  25.361  1.00  0.00     0.030 A 
ATOM     21  C   UNL A   1      33.959  21.350  25.095  1.00  0.00     0.030 A 
ATOM     22  C   UNL A   1      36.659  22.070  25.225  1.00  0.00     0.023 A 
ATOM     23  C   UNL A   1      34.946  20.378  24.945  1.00  0.00     0.023 A 
ATOM     24  C   UNL A   1      36.290  20.738  25.030  1.00  0.00     0.041 A 
ATOM     25  Cl  UNL A   1      37.503  19.525  24.900  1.00  0.00    -0.084 Cl
ENDBRANCH  14  19
ENDBRANCH   9  12
ENDBRANCH   7   8
ENDBRANCH   5   7
ENDBRANCH   4   5
ENDBRANCH   3   4
ENDBRANCH   2   3
ENDBRANCH   1   2
BRANCH   1  26
ATOM     26  C   UNL A   1      34.178  33.637  28.543  1.00  0.00     0.202 C 
BRANCH  26  27
ATOM     27  C   UNL A   1      34.485  33.626  30.040  1.00  0.00     0.261 C 
BRANCH  27  28
ATOM     28  O   UNL A   1      34.427  32.321  30.579  1.00  0.00    -0.460 OA
BRANCH  28  29
ATOM     29  C   UNL A   1      35.643  31.892  30.996  1.00  0.00     0.338 C 
ATOM     30  O   UNL A   1      36.211  32.202  32.025  1.00  0.00    -0.246 OA
BRANCH  29  31
ATOM     31  C   UNL A   1      36.229  31.001  29.983  1.00  0.00     0.060 A 
ATOM     32  C   UNL A   1      36.295  29.670  30.399  1.00  0.00     0.016 A 
ATOM     33  C   UNL A   1      37.136  31.561  29.079  1.00  0.00     0.016 A 
ATOM     34  C   UNL A   1      37.505  29.046  30.279  1.00  0.00     0.010 A 
ATOM     35  C   UNL A   1      38.350  30.945  28.972  1.00  0.00     0.010 A 
ATOM     36  C   UNL A   1      38.544  29.767  29.693  1.00  0.00    -0.014 A 
BRANCH  36  37
ATOM     37  C   UNL A   1      39.882  29.263  29.850  1.00  0.00     0.031 A 
ATOM     38  C   UNL A   1      40.367  29.440  31.232  1.00  0.00     0.074 A 
ATOM     39  C   UNL A   1      40.483  28.601  28.844  1.00  0.00     0.049 A 
ATOM     40  N   UNL A   1      41.288  30.238  31.659  1.00  0.00    -0.248 NA
ATOM     41  C   UNL A   1      39.549  28.834  32.296  1.00  0.00     0.031 C 
ATOM     42  C   UNL A   1      39.900  28.158  27.570  1.00  0.00     0.029 A 
ATOM     43  N   UNL A   1      41.709  28.025  28.829  1.00  0.00    -0.354 N 
ATOM     44  C   UNL A   1      41.318  30.017  33.032  1.00  0.00     0.074 A 
ATOM     45  C   UNL A   1      40.064  29.411  33.380  1.00  0.00     0.031 C 
ATOM     46  C   UNL A   1      40.662  27.160  27.064  1.00  0.00     0.029 A 
ATOM     47  C   UNL A   1      41.823  26.981  27.917  1.00  0.00     0.049 A 
ATOM     48  H   UNL A   1      42.450  28.318  29.408  1.00  0.00     0.167 HD
ATOM     49  C   UNL A   1      42.491  29.994  33.717  1.00  0.00     0.034 A 
ATOM     50  C   UNL A   1      42.730  25.971  27.981  1.00  0.00     0.034 A 
ATOM     51  C   UNL A   1      43.552  30.623  32.976  1.00  0.00     0.049 A 
ATOM     52  C   UNL A   1      43.809  26.411  28.904  1.00  0.00     0.074 A 
ATOM     53  C   UNL A   1      43.756  31.879  32.442  1.00  0.00     0.029 A 
ATOM     54  N   UNL A   1      44.443  29.790  32.341  1.00  0.00    -0.354 N 
ATOM     55  N   UNL A   1      44.601  27.418  28.656  1.00  0.00    -0.248 NA
ATOM     56  C   UNL A   1      43.682  26.046  30.308  1.00  0.00     0.031 C 
ATOM     57  C   UNL A   1      44.418  31.647  31.200  1.00  0.00     0.029 A 
ATOM     58  C   UNL A   1      44.631  30.272  31.073  1.00  0.00     0.049 A 
ATOM     59  H   UNL A   1      44.868  28.991  32.728  1.00  0.00     0.167 HD
ATOM     60  C   UNL A   1      44.712  28.084  29.872  1.00  0.00     0.074 A 
ATOM     61  C   UNL A   1      44.203  27.142  30.870  1.00  0.00     0.031 C 
ATOM     62  C   UNL A   1      44.906  29.436  29.925  1.00  0.00     0.034 A 
BRANCH  49  63
ATOM     63  C   UNL A   1      42.770  29.041  34.858  1.00  0.00     0.023 A 
ATOM     64  C   UNL A   1      43.369  29.584  36.011  1.00  0.00     0.012 A 
ATOM     65  C   UNL A   1      42.728  27.628  34.763  1.00  0.00     0.148 A 
ATOM     66  C   UNL A   1      43.936  28.765  36.993  1.00  0.00     0.002 A 
ATOM     67  C   UNL A   1      43.212  26.819  35.781  1.00  0.00     0.091 A 
ATOM     68  F   UNL A   1      42.358  27.033  33.626  1.00  0.00    -0.205 F 
ATOM     69  C   UNL A   1      43.849  27.382  36.884  1.00  0.00     0.022 A 
BRANCH  67  70
ATOM     70  S   UNL A   1      43.076  25.029  35.694  1.00  0.00     0.127 S 
ATOM     71  O   UNL A   1      43.806  24.742  34.463  1.00  0.00    -0.237 OA
ATOM     72  O   UNL A   1      43.750  24.618  36.927  1.00  0.00    -0.237 OA
ATOM     73  O   UNL A   1      41.646  24.750  35.679  1.00  0.00    -0.744 OA
ENDBRANCH  67  70
ENDBRANCH  49  63
BRANCH  50  74
ATOM     74  C   UNL A   1      42.533  24.545  27.617  1.00  0.00     0.023 A 
ATOM     75  C   UNL A   1      41.349  23.876  27.987  1.00  0.00     0.012 A 
ATOM     76  C   UNL A   1      43.390  23.906  26.690  1.00  0.00     0.148 A 
ATOM     77  C   UNL A   1      41.027  22.623  27.447  1.00  0.00     0.002 A 
ATOM     78  C   UNL A   1      43.077  22.654  26.171  1.00  0.00     0.091 A 
ATOM     79  F   UNL A   1      44.465  24.567  26.242  1.00  0.00    -0.205 F 
ATOM     80  C   UNL A   1      41.889  22.012  26.539  1.00  0.00     0.022 A 
BRANCH  78  81
ATOM     81  S   UNL A   1      44.151  21.810  25.002  1.00  0.00     0.127 S 
ATOM     82  O   UNL A   1      45.445  21.865  25.684  1.00  0.00    -0.237 OA
ATOM     83  O   UNL A   1      43.548  20.482  24.940  1.00  0.00    -0.237 OA
ATOM     84  O   UNL A   1      44.093  22.595  23.775  1.00  0.00    -0.744 OA
ENDBRANCH  78  81
ENDBRANCH  50  74
BRANCH  62  85
ATOM     85  C   UNL A   1      45.179  30.162  28.629  1.00  0.00     0.023 A 
ATOM     86  C   UNL A   1      44.139  30.587  27.773  1.00  0.00     0.012 A 
ATOM     87  C   UNL A   1      46.487  30.600  28.370  1.00  0.00     0.148 A 
ATOM     88  C   UNL A   1      44.400  31.413  26.675  1.00  0.00     0.002 A 
ATOM     89  C   UNL A   1      46.736  31.456  27.304  1.00  0.00     0.091 A 
ATOM     90  F   UNL A   1      47.461  30.202  29.202  1.00  0.00    -0.205 F 
ATOM     91  C   UNL A   1      45.698  31.858  26.447  1.00  0.00     0.022 A 
BRANCH  89  92
ATOM     92  S   UNL A   1      48.359  32.173  27.032  1.00  0.00     0.127 S 
ATOM     93  O   UNL A   1      49.146  31.005  26.642  1.00  0.00    -0.237 OA
ATOM     94  O   UNL A   1      48.101  33.126  25.952  1.00  0.00    -0.237 OA
ATOM     95  O   UNL A   1      48.744  32.792  28.294  1.00  0.00    -0.744 OA
ENDBRANCH  89  92
ENDBRANCH  62  85
ENDBRANCH  36  37
ENDBRANCH  29  31
ENDBRANCH  28  29
ENDBRANCH  27  28
ENDBRANCH  26  27
ENDBRANCH   1  26
TORSDOF 21
ENDMDL
