MODEL 1
REMARK VINA RESULT:     -11.5      0.000      0.000
REMARK SMILES COc1ccc2c(c1)[C@@](NC=O)(C(=O)OCCOCCOC(=O)c1ccc(-c3c4nc(c(-c5cccc(S(=O)(=O)[O-])c5F)c5ccc([nH]5)c(-c5cccc(S(=O)(=O)[O-])c5F)c5nc(c(-c6cccc(S(=O)(=O)[O-])c6F)c6ccc3[nH]6)C=C5)C=C4)cc1)CCC2
REMARK SMILES IDX 19 1 18 2 17 3 16 4 15 5 13 6 14 7 9 8 3 9 4 10 8 11 5 12
REMARK SMILES IDX 7 13 6 14 89 15 87 16 88 17 2 18 1 19 10 20 11 21 12 23
REMARK SMILES IDX 20 24 21 25 22 26 23 27 24 28 25 29 86 30 26 31 85 32 27 33
REMARK SMILES IDX 28 34 29 35 79 36 30 37 84 38 78 39 80 40 31 41 83 42 77 43
REMARK SMILES IDX 76 44 32 46 64 47 44 48 63 49 45 50 48 51 62 52 81 53 46 54
REMARK SMILES IDX 47 55 61 57 82 58 49 59 33 60 34 61 42 62 35 63 37 64 43 65
REMARK SMILES IDX 36 66 38 67 39 68 40 69 41 70 65 71 66 72 74 73 67 74 69 75
REMARK SMILES IDX 75 76 68 77 70 78 71 79 72 80 73 81 50 82 51 83 59 84 52 85
REMARK SMILES IDX 54 86 60 87 53 88 55 89 56 90 57 91 58 92
REMARK H PARENT 10 22 80 45 48 56
REMARK Flexibility Score: inf
ROOT
ATOM      1  C   UNL A   1      31.449  29.123  24.966  1.00  0.00     0.202 C 
ENDROOT
BRANCH   1   2
ATOM      2  O   UNL A   1      31.866  27.920  25.614  1.00  0.00    -0.374 OA
BRANCH   2   3
ATOM      3  C   UNL A   1      30.849  27.068  26.133  1.00  0.00     0.202 C 
BRANCH   3   4
ATOM      4  C   UNL A   1      30.404  25.873  25.281  1.00  0.00     0.261 C 
BRANCH   4   5
ATOM      5  O   UNL A   1      31.358  24.801  25.233  1.00  0.00    -0.461 OA
BRANCH   5   6
ATOM      6  C   UNL A   1      31.399  24.141  24.041  1.00  0.00     0.336 C 
ATOM      7  O   UNL A   1      30.383  23.833  23.418  1.00  0.00    -0.249 OA
BRANCH   6   8
ATOM      8  C   UNL A   1      32.840  23.682  23.614  1.00  0.00     0.164 C 
ATOM      9  C   UNL A   1      32.877  19.816  23.869  1.00  0.00     0.119 A 
ATOM     10  C   UNL A   1      34.021  19.587  24.622  1.00  0.00     0.047 A 
ATOM     11  C   UNL A   1      32.488  21.125  23.561  1.00  0.00     0.053 A 
ATOM     12  C   UNL A   1      34.803  20.659  25.032  1.00  0.00     0.008 A 
ATOM     13  C   UNL A   1      33.239  22.240  24.006  1.00  0.00    -0.004 A 
ATOM     14  C   UNL A   1      34.437  21.980  24.718  1.00  0.00    -0.042 A 
ATOM     15  C   UNL A   1      35.360  23.072  25.195  1.00  0.00     0.036 C 
ATOM     16  C   UNL A   1      33.758  24.739  24.306  1.00  0.00     0.046 C 
ATOM     17  C   UNL A   1      35.220  24.355  24.398  1.00  0.00     0.008 C 
BRANCH   9  18
ATOM     18  O   UNL A   1      32.161  18.700  23.530  1.00  0.00    -0.497 OA
ATOM     19  C   UNL A   1      32.906  17.739  22.787  1.00  0.00     0.278 C 
ENDBRANCH   9  18
BRANCH   8  20
ATOM     20  N   UNL A   1      32.898  23.839  22.149  1.00  0.00    -0.339 N 
ATOM     21  C   UNL A   1      32.995  25.011  21.467  1.00  0.00     0.338 C 
ATOM     22  H   UNL A   1      32.860  23.015  21.612  1.00  0.00     0.164 HD
ATOM     23  O   UNL A   1      32.907  25.078  20.249  1.00  0.00    -0.279 OA
ENDBRANCH   8  20
ENDBRANCH   6   8
ENDBRANCH   5   6
ENDBRANCH   4   5
ENDBRANCH   3   4
ENDBRANCH   2   3
ENDBRANCH   1   2
BRANCH   1  24
ATOM     24  C   UNL A   1      31.580  30.436  25.746  1.00  0.00     0.261 C 
BRANCH  24  25
ATOM     25  O   UNL A   1      32.488  30.314  26.856  1.00  0.00    -0.460 OA
BRANCH  25  26
ATOM     26  C   UNL A   1      33.129  31.455  27.199  1.00  0.00     0.338 C 
ATOM     27  O   UNL A   1      32.651  32.582  27.257  1.00  0.00    -0.246 OA
BRANCH  26  28
ATOM     28  C   UNL A   1      34.470  31.138  27.719  1.00  0.00     0.060 A 
ATOM     29  C   UNL A   1      34.755  29.793  27.995  1.00  0.00     0.016 A 
ATOM     30  C   UNL A   1      35.408  32.134  27.995  1.00  0.00     0.016 A 
ATOM     31  C   UNL A   1      35.960  29.443  28.599  1.00  0.00     0.010 A 
ATOM     32  C   UNL A   1      36.612  31.782  28.614  1.00  0.00     0.010 A 
ATOM     33  C   UNL A   1      36.876  30.442  28.952  1.00  0.00    -0.014 A 
BRANCH  33  34
ATOM     34  C   UNL A   1      38.033  30.096  29.812  1.00  0.00     0.031 A 
ATOM     35  C   UNL A   1      39.065  29.132  29.292  1.00  0.00     0.074 A 
ATOM     36  C   UNL A   1      38.173  30.644  31.033  1.00  0.00     0.049 A 
ATOM     37  N   UNL A   1      40.142  28.678  29.875  1.00  0.00    -0.248 NA
ATOM     38  C   UNL A   1      38.850  28.609  27.932  1.00  0.00     0.031 C 
ATOM     39  C   UNL A   1      37.249  31.599  31.640  1.00  0.00     0.029 A 
ATOM     40  N   UNL A   1      39.141  30.456  31.987  1.00  0.00    -0.354 N 
ATOM     41  C   UNL A   1      40.722  27.799  28.968  1.00  0.00     0.074 A 
ATOM     42  C   UNL A   1      39.870  27.773  27.800  1.00  0.00     0.031 C 
ATOM     43  C   UNL A   1      37.681  31.894  32.879  1.00  0.00     0.029 A 
ATOM     44  C   UNL A   1      38.897  31.133  33.157  1.00  0.00     0.049 A 
ATOM     45  H   UNL A   1      39.934  29.890  31.846  1.00  0.00     0.167 HD
ATOM     46  C   UNL A   1      41.870  27.092  29.088  1.00  0.00     0.034 A 
ATOM     47  C   UNL A   1      39.570  31.124  34.326  1.00  0.00     0.034 A 
ATOM     48  C   UNL A   1      42.727  27.134  30.242  1.00  0.00     0.049 A 
ATOM     49  C   UNL A   1      40.828  30.302  34.445  1.00  0.00     0.074 A 
ATOM     50  C   UNL A   1      43.932  26.484  30.442  1.00  0.00     0.029 A 
ATOM     51  N   UNL A   1      42.465  27.858  31.395  1.00  0.00    -0.354 N 
ATOM     52  N   UNL A   1      41.424  29.566  33.538  1.00  0.00    -0.248 NA
ATOM     53  C   UNL A   1      41.524  30.336  35.740  1.00  0.00     0.031 C 
ATOM     54  C   UNL A   1      44.387  26.797  31.728  1.00  0.00     0.029 A 
ATOM     55  C   UNL A   1      43.480  27.663  32.316  1.00  0.00     0.049 A 
ATOM     56  H   UNL A   1      41.675  28.427  31.537  1.00  0.00     0.167 HD
ATOM     57  C   UNL A   1      42.581  29.081  34.139  1.00  0.00     0.074 A 
ATOM     58  C   UNL A   1      42.611  29.622  35.482  1.00  0.00     0.031 C 
ATOM     59  C   UNL A   1      43.526  28.252  33.630  1.00  0.00     0.034 A 
BRANCH  46  60
ATOM     60  C   UNL A   1      42.283  26.230  27.924  1.00  0.00     0.023 A 
ATOM     61  C   UNL A   1      43.150  26.753  26.945  1.00  0.00     0.012 A 
ATOM     62  C   UNL A   1      41.857  24.891  27.827  1.00  0.00     0.148 A 
ATOM     63  C   UNL A   1      43.565  25.967  25.871  1.00  0.00     0.002 A 
ATOM     64  C   UNL A   1      42.308  24.100  26.776  1.00  0.00     0.091 A 
ATOM     65  F   UNL A   1      41.012  24.419  28.755  1.00  0.00    -0.205 F 
ATOM     66  C   UNL A   1      43.153  24.640  25.792  1.00  0.00     0.022 A 
BRANCH  64  67
ATOM     67  S   UNL A   1      41.891  22.359  26.628  1.00  0.00     0.127 S 
ATOM     68  O   UNL A   1      42.632  21.783  27.748  1.00  0.00    -0.237 OA
ATOM     69  O   UNL A   1      40.438  22.375  26.800  1.00  0.00    -0.237 OA
ATOM     70  O   UNL A   1      42.341  21.952  25.303  1.00  0.00    -0.744 OA
ENDBRANCH  64  67
ENDBRANCH  46  60
BRANCH  47  71
ATOM     71  C   UNL A   1      39.088  31.949  35.468  1.00  0.00     0.023 A 
ATOM     72  C   UNL A   1      39.278  33.344  35.448  1.00  0.00     0.012 A 
ATOM     73  C   UNL A   1      38.429  31.361  36.566  1.00  0.00     0.148 A 
ATOM     74  C   UNL A   1      38.846  34.137  36.512  1.00  0.00     0.002 A 
ATOM     75  C   UNL A   1      37.952  32.163  37.596  1.00  0.00     0.091 A 
ATOM     76  F   UNL A   1      38.275  30.030  36.575  1.00  0.00    -0.205 F 
ATOM     77  C   UNL A   1      38.174  33.548  37.580  1.00  0.00     0.022 A 
BRANCH  75  78
ATOM     78  S   UNL A   1      36.966  31.506  38.947  1.00  0.00     0.127 S 
ATOM     79  O   UNL A   1      35.809  32.399  38.933  1.00  0.00    -0.237 OA
ATOM     80  O   UNL A   1      36.698  30.143  38.487  1.00  0.00    -0.237 OA
ATOM     81  O   UNL A   1      37.816  31.587  40.126  1.00  0.00    -0.744 OA
ENDBRANCH  75  78
ENDBRANCH  47  71
BRANCH  59  82
ATOM     82  C   UNL A   1      44.699  27.901  34.509  1.00  0.00     0.023 A 
ATOM     83  C   UNL A   1      45.837  28.731  34.523  1.00  0.00     0.012 A 
ATOM     84  C   UNL A   1      44.639  26.795  35.380  1.00  0.00     0.148 A 
ATOM     85  C   UNL A   1      46.911  28.448  35.367  1.00  0.00     0.002 A 
ATOM     86  C   UNL A   1      45.693  26.546  36.252  1.00  0.00     0.091 A 
ATOM     87  F   UNL A   1      43.555  26.007  35.339  1.00  0.00    -0.205 F 
ATOM     88  C   UNL A   1      46.833  27.365  36.238  1.00  0.00     0.022 A 
BRANCH  86  89
ATOM     89  S   UNL A   1      45.639  25.232  37.475  1.00  0.00     0.127 S 
ATOM     90  O   UNL A   1      46.038  24.070  36.683  1.00  0.00    -0.237 OA
ATOM     91  O   UNL A   1      46.634  25.674  38.453  1.00  0.00    -0.237 OA
ATOM     92  O   UNL A   1      44.271  25.208  37.977  1.00  0.00    -0.744 OA
ENDBRANCH  86  89
ENDBRANCH  59  82
ENDBRANCH  33  34
ENDBRANCH  26  28
ENDBRANCH  25  26
ENDBRANCH  24  25
ENDBRANCH   1  24
TORSDOF 19
ENDMDL
MODEL 2
REMARK VINA RESULT:     -11.5      5.904      8.708
REMARK SMILES COc1ccc2c(c1)[C@@](NC=O)(C(=O)OCCOCCOC(=O)c1ccc(-c3c4nc(c(-c5cccc(S(=O)(=O)[O-])c5F)c5ccc([nH]5)c(-c5cccc(S(=O)(=O)[O-])c5F)c5nc(c(-c6cccc(S(=O)(=O)[O-])c6F)c6ccc3[nH]6)C=C5)C=C4)cc1)CCC2
REMARK SMILES IDX 19 1 18 2 17 3 16 4 15 5 13 6 14 7 9 8 3 9 4 10 8 11 5 12
REMARK SMILES IDX 7 13 6 14 89 15 87 16 88 17 2 18 1 19 10 20 11 21 12 23
REMARK SMILES IDX 20 24 21 25 22 26 23 27 24 28 25 29 86 30 26 31 85 32 27 33
REMARK SMILES IDX 28 34 29 35 79 36 30 37 84 38 78 39 80 40 31 41 83 42 77 43
REMARK SMILES IDX 76 44 32 46 64 47 44 48 63 49 45 50 48 51 62 52 81 53 46 54
REMARK SMILES IDX 47 55 61 57 82 58 49 59 33 60 34 61 42 62 35 63 37 64 43 65
REMARK SMILES IDX 36 66 38 67 39 68 40 69 41 70 65 71 66 72 74 73 67 74 69 75
REMARK SMILES IDX 75 76 68 77 70 78 71 79 72 80 73 81 50 82 51 83 59 84 52 85
REMARK SMILES IDX 54 86 60 87 53 88 55 89 56 90 57 91 58 92
REMARK H PARENT 10 22 80 45 48 56
REMARK Flexibility Score: inf
ROOT
ATOM      1  C   UNL A   1      38.964  21.615  25.973  1.00  0.00     0.202 C 
ENDROOT
BRANCH   1   2
ATOM      2  O   UNL A   1      37.796  22.031  25.263  1.00  0.00    -0.374 OA
BRANCH   2   3
ATOM      3  C   UNL A   1      37.263  23.315  25.573  1.00  0.00     0.202 C 
BRANCH   3   4
ATOM      4  C   UNL A   1      35.870  23.383  26.212  1.00  0.00     0.261 C 
BRANCH   4   5
ATOM      5  O   UNL A   1      34.854  22.685  25.477  1.00  0.00    -0.461 OA
BRANCH   5   6
ATOM      6  C   UNL A   1      33.795  22.278  26.233  1.00  0.00     0.336 C 
ATOM      7  O   UNL A   1      33.863  22.154  27.456  1.00  0.00    -0.249 OA
BRANCH   6   8
ATOM      8  C   UNL A   1      32.541  21.840  25.394  1.00  0.00     0.164 C 
ATOM      9  C   UNL A   1      32.735  17.984  25.065  1.00  0.00     0.119 A 
ATOM     10  C   UNL A   1      32.571  17.802  23.698  1.00  0.00     0.047 A 
ATOM     11  C   UNL A   1      32.744  19.275  25.606  1.00  0.00     0.053 A 
ATOM     12  C   UNL A   1      32.372  18.903  22.875  1.00  0.00     0.008 A 
ATOM     13  C   UNL A   1      32.591  20.419  24.786  1.00  0.00    -0.004 A 
ATOM     14  C   UNL A   1      32.361  20.206  23.404  1.00  0.00    -0.042 A 
ATOM     15  C   UNL A   1      32.121  21.332  22.430  1.00  0.00     0.036 C 
ATOM     16  C   UNL A   1      32.469  22.936  24.285  1.00  0.00     0.046 C 
ATOM     17  C   UNL A   1      31.595  22.589  23.098  1.00  0.00     0.008 C 
BRANCH   9  18
ATOM     18  O   UNL A   1      32.946  16.843  25.790  1.00  0.00    -0.497 OA
ATOM     19  C   UNL A   1      33.120  15.675  24.993  1.00  0.00     0.278 C 
ENDBRANCH   9  18
BRANCH   8  20
ATOM     20  N   UNL A   1      31.385  21.958  26.303  1.00  0.00    -0.339 N 
ATOM     21  C   UNL A   1      30.774  23.111  26.684  1.00  0.00     0.338 C 
ATOM     22  H   UNL A   1      31.022  21.120  26.671  1.00  0.00     0.164 HD
ATOM     23  O   UNL A   1      29.904  23.147  27.542  1.00  0.00    -0.279 OA
ENDBRANCH   8  20
ENDBRANCH   6   8
ENDBRANCH   5   6
ENDBRANCH   4   5
ENDBRANCH   3   4
ENDBRANCH   2   3
ENDBRANCH   1   2
BRANCH   1  24
ATOM     24  C   UNL A   1      39.461  20.182  25.753  1.00  0.00     0.261 C 
BRANCH  24  25
ATOM     25  O   UNL A   1      40.496  19.822  26.686  1.00  0.00    -0.460 OA
BRANCH  25  26
ATOM     26  C   UNL A   1      41.740  19.745  26.158  1.00  0.00     0.338 C 
ATOM     27  O   UNL A   1      42.190  18.848  25.455  1.00  0.00    -0.246 OA
BRANCH  26  28
ATOM     28  C   UNL A   1      42.448  21.021  26.360  1.00  0.00     0.060 A 
ATOM     29  C   UNL A   1      42.703  21.417  27.681  1.00  0.00     0.016 A 
ATOM     30  C   UNL A   1      42.800  21.846  25.291  1.00  0.00     0.016 A 
ATOM     31  C   UNL A   1      43.261  22.666  27.941  1.00  0.00     0.010 A 
ATOM     32  C   UNL A   1      43.348  23.106  25.555  1.00  0.00     0.010 A 
ATOM     33  C   UNL A   1      43.545  23.535  26.880  1.00  0.00    -0.014 A 
BRANCH  33  34
ATOM     34  C   UNL A   1      43.901  24.944  27.170  1.00  0.00     0.031 A 
ATOM     35  C   UNL A   1      45.321  25.396  26.956  1.00  0.00     0.074 A 
ATOM     36  C   UNL A   1      42.972  25.816  27.602  1.00  0.00     0.049 A 
ATOM     37  N   UNL A   1      45.856  26.570  27.159  1.00  0.00    -0.248 NA
ATOM     38  C   UNL A   1      46.263  24.385  26.446  1.00  0.00     0.031 C 
ATOM     39  C   UNL A   1      41.564  25.501  27.834  1.00  0.00     0.029 A 
ATOM     40  N   UNL A   1      43.084  27.140  27.942  1.00  0.00    -0.354 N 
ATOM     41  C   UNL A   1      47.198  26.438  26.827  1.00  0.00     0.074 A 
ATOM     42  C   UNL A   1      47.401  25.064  26.422  1.00  0.00     0.031 C 
ATOM     43  C   UNL A   1      40.946  26.598  28.305  1.00  0.00     0.029 A 
ATOM     44  C   UNL A   1      41.918  27.682  28.428  1.00  0.00     0.049 A 
ATOM     45  H   UNL A   1      43.919  27.653  27.847  1.00  0.00     0.167 HD
ATOM     46  C   UNL A   1      48.172  27.378  26.840  1.00  0.00     0.034 A 
ATOM     47  C   UNL A   1      41.671  28.909  28.932  1.00  0.00     0.034 A 
ATOM     48  C   UNL A   1      47.966  28.748  27.224  1.00  0.00     0.049 A 
ATOM     49  C   UNL A   1      42.781  29.929  28.965  1.00  0.00     0.074 A 
ATOM     50  C   UNL A   1      48.881  29.786  27.232  1.00  0.00     0.029 A 
ATOM     51  N   UNL A   1      46.764  29.270  27.678  1.00  0.00    -0.354 N 
ATOM     52  N   UNL A   1      44.017  29.820  28.541  1.00  0.00    -0.248 NA
ATOM     53  C   UNL A   1      42.452  31.251  29.518  1.00  0.00     0.031 C 
ATOM     54  C   UNL A   1      48.237  30.931  27.714  1.00  0.00     0.029 A 
ATOM     55  C   UNL A   1      46.915  30.612  27.980  1.00  0.00     0.049 A 
ATOM     56  H   UNL A   1      45.927  28.760  27.771  1.00  0.00     0.167 HD
ATOM     57  C   UNL A   1      44.601  31.066  28.741  1.00  0.00     0.074 A 
ATOM     58  C   UNL A   1      43.577  31.920  29.307  1.00  0.00     0.031 C 
ATOM     59  C   UNL A   1      45.872  31.465  28.490  1.00  0.00     0.034 A 
BRANCH  46  60
ATOM     60  C   UNL A   1      49.550  26.962  26.397  1.00  0.00     0.023 A 
ATOM     61  C   UNL A   1      50.367  26.218  27.271  1.00  0.00     0.012 A 
ATOM     62  C   UNL A   1      50.015  27.260  25.101  1.00  0.00     0.148 A 
ATOM     63  C   UNL A   1      51.637  25.802  26.874  1.00  0.00     0.002 A 
ATOM     64  C   UNL A   1      51.265  26.807  24.697  1.00  0.00     0.091 A 
ATOM     65  F   UNL A   1      49.233  27.991  24.293  1.00  0.00    -0.205 F 
ATOM     66  C   UNL A   1      52.081  26.086  25.586  1.00  0.00     0.022 A 
BRANCH  64  67
ATOM     67  S   UNL A   1      51.896  27.060  23.034  1.00  0.00     0.127 S 
ATOM     68  O   UNL A   1      50.736  26.697  22.221  1.00  0.00    -0.237 OA
ATOM     69  O   UNL A   1      52.215  28.488  23.040  1.00  0.00    -0.237 OA
ATOM     70  O   UNL A   1      53.051  26.181  22.906  1.00  0.00    -0.744 OA
ENDBRANCH  64  67
ENDBRANCH  46  60
BRANCH  47  71
ATOM     71  C   UNL A   1      40.304  29.254  29.413  1.00  0.00     0.023 A 
ATOM     72  C   UNL A   1      39.377  29.825  28.519  1.00  0.00     0.012 A 
ATOM     73  C   UNL A   1      39.914  29.006  30.743  1.00  0.00     0.148 A 
ATOM     74  C   UNL A   1      38.095  30.168  28.950  1.00  0.00     0.002 A 
ATOM     75  C   UNL A   1      38.618  29.299  31.150  1.00  0.00     0.091 A 
ATOM     76  F   UNL A   1      40.818  28.479  31.581  1.00  0.00    -0.205 F 
ATOM     77  C   UNL A   1      37.712  29.895  30.260  1.00  0.00     0.022 A 
BRANCH  75  78
ATOM     78  S   UNL A   1      38.002  28.864  32.780  1.00  0.00     0.127 S 
ATOM     79  O   UNL A   1      38.874  29.652  33.649  1.00  0.00    -0.237 OA
ATOM     80  O   UNL A   1      36.617  29.331  32.712  1.00  0.00    -0.237 OA
ATOM     81  O   UNL A   1      38.145  27.418  32.879  1.00  0.00    -0.744 OA
ENDBRANCH  75  78
ENDBRANCH  47  71
BRANCH  59  82
ATOM     82  C   UNL A   1      46.231  32.898  28.790  1.00  0.00     0.023 A 
ATOM     83  C   UNL A   1      46.826  33.229  30.023  1.00  0.00     0.012 A 
ATOM     84  C   UNL A   1      46.052  33.902  27.817  1.00  0.00     0.148 A 
ATOM     85  C   UNL A   1      47.208  34.541  30.297  1.00  0.00     0.002 A 
ATOM     86  C   UNL A   1      46.479  35.199  28.079  1.00  0.00     0.091 A 
ATOM     87  F   UNL A   1      45.467  33.572  26.657  1.00  0.00    -0.205 F 
ATOM     88  C   UNL A   1      47.047  35.522  29.322  1.00  0.00     0.022 A 
BRANCH  86  89
ATOM     89  S   UNL A   1      46.398  36.505  26.848  1.00  0.00     0.127 S 
ATOM     90  O   UNL A   1      46.691  35.774  25.617  1.00  0.00    -0.237 OA
ATOM     91  O   UNL A   1      45.013  36.964  26.971  1.00  0.00    -0.237 OA
ATOM     92  O   UNL A   1      47.396  37.490  27.244  1.00  0.00    -0.744 OA
ENDBRANCH  86  89
ENDBRANCH  59  82
ENDBRANCH  33  34
ENDBRANCH  26  28
ENDBRANCH  25  26
ENDBRANCH  24  25
ENDBRANCH   1  24
TORSDOF 19
ENDMDL
MODEL 3
REMARK VINA RESULT:     -11.4      1.790      7.921
REMARK SMILES COc1ccc2c(c1)[C@@](NC=O)(C(=O)OCCOCCOC(=O)c1ccc(-c3c4nc(c(-c5cccc(S(=O)(=O)[O-])c5F)c5ccc([nH]5)c(-c5cccc(S(=O)(=O)[O-])c5F)c5nc(c(-c6cccc(S(=O)(=O)[O-])c6F)c6ccc3[nH]6)C=C5)C=C4)cc1)CCC2
REMARK SMILES IDX 19 1 18 2 17 3 16 4 15 5 13 6 14 7 9 8 3 9 4 10 8 11 5 12
REMARK SMILES IDX 7 13 6 14 89 15 87 16 88 17 2 18 1 19 10 20 11 21 12 23
REMARK SMILES IDX 20 24 21 25 22 26 23 27 24 28 25 29 86 30 26 31 85 32 27 33
REMARK SMILES IDX 28 34 29 35 79 36 30 37 84 38 78 39 80 40 31 41 83 42 77 43
REMARK SMILES IDX 76 44 32 46 64 47 44 48 63 49 45 50 48 51 62 52 81 53 46 54
REMARK SMILES IDX 47 55 61 57 82 58 49 59 33 60 34 61 42 62 35 63 37 64 43 65
REMARK SMILES IDX 36 66 38 67 39 68 40 69 41 70 65 71 66 72 74 73 67 74 69 75
REMARK SMILES IDX 75 76 68 77 70 78 71 79 72 80 73 81 50 82 51 83 59 84 52 85
REMARK SMILES IDX 54 86 60 87 53 88 55 89 56 90 57 91 58 92
REMARK H PARENT 10 22 80 45 48 56
REMARK Flexibility Score: inf
ROOT
ATOM      1  C   UNL A   1      31.988  29.683  24.883  1.00  0.00     0.202 C 
ENDROOT
BRANCH   1   2
ATOM      2  O   UNL A   1      31.116  28.567  24.689  1.00  0.00    -0.374 OA
BRANCH   2   3
ATOM      3  C   UNL A   1      30.833  28.181  23.348  1.00  0.00     0.202 C 
BRANCH   3   4
ATOM      4  C   UNL A   1      31.541  26.940  22.789  1.00  0.00     0.261 C 
BRANCH   4   5
ATOM      5  O   UNL A   1      32.625  26.468  23.604  1.00  0.00    -0.461 OA
BRANCH   5   6
ATOM      6  C   UNL A   1      33.186  25.304  23.169  1.00  0.00     0.336 C 
ATOM      7  O   UNL A   1      33.667  25.181  22.043  1.00  0.00    -0.249 OA
BRANCH   6   8
ATOM      8  C   UNL A   1      33.028  24.105  24.172  1.00  0.00     0.164 C 
ATOM      9  C   UNL A   1      36.482  23.633  25.865  1.00  0.00     0.119 A 
ATOM     10  C   UNL A   1      36.701  22.272  25.700  1.00  0.00     0.047 A 
ATOM     11  C   UNL A   1      35.317  24.223  25.362  1.00  0.00     0.053 A 
ATOM     12  C   UNL A   1      35.740  21.490  25.071  1.00  0.00     0.008 A 
ATOM     13  C   UNL A   1      34.341  23.461  24.674  1.00  0.00    -0.004 A 
ATOM     14  C   UNL A   1      34.557  22.063  24.574  1.00  0.00    -0.042 A 
ATOM     15  C   UNL A   1      33.570  21.127  23.922  1.00  0.00     0.036 C 
ATOM     16  C   UNL A   1      32.165  23.088  23.360  1.00  0.00     0.046 C 
ATOM     17  C   UNL A   1      32.156  21.676  23.907  1.00  0.00     0.008 C 
BRANCH   9  18
ATOM     18  O   UNL A   1      37.493  24.323  26.477  1.00  0.00    -0.497 OA
ATOM     19  C   UNL A   1      38.736  23.626  26.501  1.00  0.00     0.278 C 
ENDBRANCH   9  18
BRANCH   8  20
ATOM     20  N   UNL A   1      32.257  24.631  25.313  1.00  0.00    -0.339 N 
ATOM     21  C   UNL A   1      31.848  23.927  26.403  1.00  0.00     0.338 C 
ATOM     22  H   UNL A   1      32.013  25.584  25.283  1.00  0.00     0.164 HD
ATOM     23  O   UNL A   1      31.100  24.394  27.250  1.00  0.00    -0.279 OA
ENDBRANCH   8  20
ENDBRANCH   6   8
ENDBRANCH   5   6
ENDBRANCH   4   5
ENDBRANCH   3   4
ENDBRANCH   2   3
ENDBRANCH   1   2
BRANCH   1  24
ATOM     24  C   UNL A   1      31.629  30.686  25.985  1.00  0.00     0.261 C 
BRANCH  24  25
ATOM     25  O   UNL A   1      32.504  30.571  27.121  1.00  0.00    -0.460 OA
BRANCH  25  26
ATOM     26  C   UNL A   1      33.307  31.640  27.335  1.00  0.00     0.338 C 
ATOM     27  O   UNL A   1      32.976  32.818  27.366  1.00  0.00    -0.246 OA
BRANCH  26  28
ATOM     28  C   UNL A   1      34.645  31.183  27.752  1.00  0.00     0.060 A 
ATOM     29  C   UNL A   1      34.825  29.807  27.954  1.00  0.00     0.016 A 
ATOM     30  C   UNL A   1      35.684  32.080  28.003  1.00  0.00     0.016 A 
ATOM     31  C   UNL A   1      36.029  29.327  28.462  1.00  0.00     0.010 A 
ATOM     32  C   UNL A   1      36.888  31.597  28.526  1.00  0.00     0.010 A 
ATOM     33  C   UNL A   1      37.051  30.225  28.793  1.00  0.00    -0.014 A 
BRANCH  33  34
ATOM     34  C   UNL A   1      38.224  29.742  29.559  1.00  0.00     0.031 A 
ATOM     35  C   UNL A   1      38.425  30.229  30.969  1.00  0.00     0.074 A 
ATOM     36  C   UNL A   1      39.092  28.870  29.015  1.00  0.00     0.049 A 
ATOM     37  N   UNL A   1      39.383  29.952  31.812  1.00  0.00    -0.248 NA
ATOM     38  C   UNL A   1      37.407  31.153  31.496  1.00  0.00     0.031 C 
ATOM     39  C   UNL A   1      38.997  28.317  27.665  1.00  0.00     0.029 A 
ATOM     40  N   UNL A   1      40.237  28.314  29.529  1.00  0.00    -0.354 N 
ATOM     41  C   UNL A   1      39.102  30.683  32.959  1.00  0.00     0.074 A 
ATOM     42  C   UNL A   1      37.889  31.428  32.700  1.00  0.00     0.031 C 
ATOM     43  C   UNL A   1      40.058  27.519  27.447  1.00  0.00     0.029 A 
ATOM     44  C   UNL A   1      40.913  27.524  28.632  1.00  0.00     0.049 A 
ATOM     45  H   UNL A   1      40.542  28.467  30.452  1.00  0.00     0.167 HD
ATOM     46  C   UNL A   1      39.781  30.719  34.130  1.00  0.00     0.034 A 
ATOM     47  C   UNL A   1      42.099  26.891  28.749  1.00  0.00     0.034 A 
ATOM     48  C   UNL A   1      40.975  29.963  34.394  1.00  0.00     0.049 A 
ATOM     49  C   UNL A   1      42.851  26.972  30.053  1.00  0.00     0.074 A 
ATOM     50  C   UNL A   1      41.713  29.902  35.563  1.00  0.00     0.029 A 
ATOM     51  N   UNL A   1      41.613  29.146  33.473  1.00  0.00    -0.354 N 
ATOM     52  N   UNL A   1      42.513  27.577  31.166  1.00  0.00    -0.248 NA
ATOM     53  C   UNL A   1      44.134  26.257  30.126  1.00  0.00     0.031 C 
ATOM     54  C   UNL A   1      42.812  29.064  35.341  1.00  0.00     0.029 A 
ATOM     55  C   UNL A   1      42.743  28.584  34.043  1.00  0.00     0.049 A 
ATOM     56  H   UNL A   1      41.308  28.989  32.551  1.00  0.00     0.167 HD
ATOM     57  C   UNL A   1      43.519  27.285  32.081  1.00  0.00     0.074 A 
ATOM     58  C   UNL A   1      44.471  26.434  31.396  1.00  0.00     0.031 C 
ATOM     59  C   UNL A   1      43.651  27.694  33.367  1.00  0.00     0.034 A 
BRANCH  46  60
ATOM     60  C   UNL A   1      39.228  31.585  35.231  1.00  0.00     0.023 A 
ATOM     61  C   UNL A   1      38.288  31.049  36.133  1.00  0.00     0.012 A 
ATOM     62  C   UNL A   1      39.675  32.910  35.404  1.00  0.00     0.148 A 
ATOM     63  C   UNL A   1      37.780  31.825  37.174  1.00  0.00     0.002 A 
ATOM     64  C   UNL A   1      39.194  33.665  36.468  1.00  0.00     0.091 A 
ATOM     65  F   UNL A   1      40.549  33.411  34.519  1.00  0.00    -0.205 F 
ATOM     66  C   UNL A   1      38.240  33.127  37.347  1.00  0.00     0.022 A 
BRANCH  64  67
ATOM     67  S   UNL A   1      39.780  35.326  36.817  1.00  0.00     0.127 S 
ATOM     68  O   UNL A   1      41.229  35.131  36.833  1.00  0.00    -0.237 OA
ATOM     69  O   UNL A   1      39.278  36.078  35.667  1.00  0.00    -0.237 OA
ATOM     70  O   UNL A   1      39.184  35.701  38.093  1.00  0.00    -0.744 OA
ENDBRANCH  64  67
ENDBRANCH  46  60
BRANCH  47  71
ATOM     71  C   UNL A   1      42.632  26.094  27.610  1.00  0.00     0.023 A 
ATOM     72  C   UNL A   1      43.406  26.729  26.619  1.00  0.00     0.012 A 
ATOM     73  C   UNL A   1      42.391  24.710  27.511  1.00  0.00     0.148 A 
ATOM     74  C   UNL A   1      43.907  26.006  25.536  1.00  0.00     0.002 A 
ATOM     75  C   UNL A   1      42.938  23.985  26.459  1.00  0.00     0.091 A 
ATOM     76  F   UNL A   1      41.636  24.129  28.454  1.00  0.00    -0.205 F 
ATOM     77  C   UNL A   1      43.682  24.634  25.461  1.00  0.00     0.022 A 
BRANCH  75  78
ATOM     78  S   UNL A   1      42.808  22.197  26.353  1.00  0.00     0.127 S 
ATOM     79  O   UNL A   1      41.546  22.032  25.635  1.00  0.00    -0.237 OA
ATOM     80  O   UNL A   1      44.004  21.853  25.584  1.00  0.00    -0.237 OA
ATOM     81  O   UNL A   1      42.822  21.722  27.730  1.00  0.00    -0.744 OA
ENDBRANCH  75  78
ENDBRANCH  47  71
BRANCH  59  82
ATOM     82  C   UNL A   1      44.848  27.203  34.141  1.00  0.00     0.023 A 
ATOM     83  C   UNL A   1      46.047  27.943  34.122  1.00  0.00     0.012 A 
ATOM     84  C   UNL A   1      44.758  26.053  34.950  1.00  0.00     0.148 A 
ATOM     85  C   UNL A   1      47.148  27.529  34.871  1.00  0.00     0.002 A 
ATOM     86  C   UNL A   1      45.844  25.673  35.731  1.00  0.00     0.091 A 
ATOM     87  F   UNL A   1      43.616  25.351  34.941  1.00  0.00    -0.205 F 
ATOM     88  C   UNL A   1      47.042  26.403  35.684  1.00  0.00     0.022 A 
BRANCH  86  89
ATOM     89  S   UNL A   1      45.767  24.293  36.878  1.00  0.00     0.127 S 
ATOM     90  O   UNL A   1      45.842  23.148  35.974  1.00  0.00    -0.237 OA
ATOM     91  O   UNL A   1      46.961  24.502  37.699  1.00  0.00    -0.237 OA
ATOM     92  O   UNL A   1      44.508  24.441  37.598  1.00  0.00    -0.744 OA
ENDBRANCH  86  89
ENDBRANCH  59  82
ENDBRANCH  33  34
ENDBRANCH  26  28
ENDBRANCH  25  26
ENDBRANCH  24  25
ENDBRANCH   1  24
TORSDOF 19
ENDMDL
