MODEL 1
REMARK VINA RESULT:     -10.6      0.000      0.000
REMARK SMILES Nc1ccc(C(=O)NC[C@@H]2CC[C@@H](C(=O)OCCOCCOC(=O)c3ccc(-c4c5nc(c(-c6cccc(S(=O)(=O)[O-])c6F)c6ccc([nH]6)c(-c6cccc(S(=O)(=O)[O-])c6F)c6nc(c(-c7cccc(S(=O)(=O)[O-])c7F)c7ccc4[nH]7)C=C6)C=C5)cc3)O2)cc1Cl
REMARK SMILES IDX 18 1 17 2 16 3 14 4 15 5 13 6 10 7 11 8 88 9 12 10 9 11 8 12
REMARK SMILES IDX 6 13 7 14 5 16 2 17 3 18 90 19 4 20 89 21 91 22 1 23 19 26
REMARK SMILES IDX 20 27 21 28 22 29 23 30 24 31 25 32 26 33 87 34 27 35 86 36
REMARK SMILES IDX 28 37 29 38 30 39 80 40 31 41 85 42 79 43 81 44 32 45 84 46
REMARK SMILES IDX 78 47 77 48 33 50 65 51 45 52 64 53 46 54 49 55 63 56 82 57
REMARK SMILES IDX 47 58 48 59 62 61 83 62 50 63 34 64 35 65 43 66 36 67 38 68
REMARK SMILES IDX 44 69 37 70 39 71 40 72 41 73 42 74 66 75 67 76 75 77 68 78
REMARK SMILES IDX 70 79 76 80 69 81 71 82 72 83 73 84 74 85 51 86 52 87 60 88
REMARK SMILES IDX 53 89 55 90 61 91 54 92 56 93 57 94 58 95 59 96
REMARK H PARENT 8 15 1 24 1 25 81 49 49 60
REMARK Flexibility Score: inf
ROOT
ATOM      1  C   UNL A   1      36.495  22.179  25.280  1.00  0.00     0.202 C 
ENDROOT
BRANCH   1   2
ATOM      2  C   UNL A   1      35.224  21.422  25.674  1.00  0.00     0.261 C 
BRANCH   2   3
ATOM      3  O   UNL A   1      34.508  21.043  24.490  1.00  0.00    -0.461 OA
BRANCH   3   4
ATOM      4  C   UNL A   1      33.483  20.165  24.666  1.00  0.00     0.335 C 
ATOM      5  O   UNL A   1      33.587  19.035  25.128  1.00  0.00    -0.249 OA
BRANCH   4   6
ATOM      6  C   UNL A   1      32.156  20.843  24.312  1.00  0.00     0.228 C 
ATOM      7  C   UNL A   1      31.741  22.973  25.121  1.00  0.00     0.138 C 
ATOM      8  C   UNL A   1      31.632  23.064  23.608  1.00  0.00     0.037 C 
ATOM      9  O   UNL A   1      31.604  21.575  25.411  1.00  0.00    -0.361 OA
ATOM     10  C   UNL A   1      32.353  21.819  23.152  1.00  0.00     0.047 C 
BRANCH   7  11
ATOM     11  C   UNL A   1      30.730  23.794  25.943  1.00  0.00     0.148 C 
BRANCH  11  12
ATOM     12  N   UNL A   1      30.045  24.832  25.188  1.00  0.00    -0.349 N 
ATOM     13  C   UNL A   1      30.275  26.149  24.908  1.00  0.00     0.251 C 
ATOM     14  O   UNL A   1      29.385  26.714  24.263  1.00  0.00    -0.269 OA
ATOM     15  H   UNL A   1      29.211  24.505  24.780  1.00  0.00     0.163 HD
BRANCH  13  16
ATOM     16  C   UNL A   1      31.480  26.939  25.298  1.00  0.00     0.041 A 
ATOM     17  C   UNL A   1      33.619  28.674  26.033  1.00  0.00     0.050 A 
ATOM     18  C   UNL A   1      33.844  27.327  25.742  1.00  0.00     0.028 A 
ATOM     19  C   UNL A   1      32.295  29.130  26.016  1.00  0.00     0.064 A 
ATOM     20  C   UNL A   1      32.790  26.470  25.377  1.00  0.00     0.016 A 
ATOM     21  C   UNL A   1      31.247  28.283  25.643  1.00  0.00     0.036 A 
ATOM     22  Cl  UNL A   1      31.917  30.767  26.435  1.00  0.00    -0.082 Cl
BRANCH  17  23
ATOM     23  N   UNL A   1      34.676  29.472  26.458  1.00  0.00    -0.398 N 
ATOM     24  H   UNL A   1      34.544  30.439  26.582  1.00  0.00     0.156 HD
ATOM     25  H   UNL A   1      35.557  29.069  26.636  1.00  0.00     0.156 HD
ENDBRANCH  17  23
ENDBRANCH  13  16
ENDBRANCH  11  12
ENDBRANCH   7  11
ENDBRANCH   4   6
ENDBRANCH   3   4
ENDBRANCH   2   3
ENDBRANCH   1   2
BRANCH   1  26
ATOM     26  O   UNL A   1      37.718  21.439  25.360  1.00  0.00    -0.374 OA
BRANCH  26  27
ATOM     27  C   UNL A   1      37.691  20.061  24.986  1.00  0.00     0.202 C 
BRANCH  27  28
ATOM     28  C   UNL A   1      38.921  19.209  25.326  1.00  0.00     0.261 C 
BRANCH  28  29
ATOM     29  O   UNL A   1      39.572  19.615  26.541  1.00  0.00    -0.460 OA
BRANCH  29  30
ATOM     30  C   UNL A   1      40.891  19.888  26.406  1.00  0.00     0.338 C 
ATOM     31  O   UNL A   1      41.741  19.176  25.883  1.00  0.00    -0.246 OA
BRANCH  30  32
ATOM     32  C   UNL A   1      41.178  21.274  26.815  1.00  0.00     0.060 A 
ATOM     33  C   UNL A   1      40.840  22.292  25.913  1.00  0.00     0.016 A 
ATOM     34  C   UNL A   1      41.836  21.574  28.010  1.00  0.00     0.016 A 
ATOM     35  C   UNL A   1      41.199  23.609  26.183  1.00  0.00     0.010 A 
ATOM     36  C   UNL A   1      42.202  22.900  28.275  1.00  0.00     0.010 A 
ATOM     37  C   UNL A   1      41.915  23.917  27.348  1.00  0.00    -0.014 A 
BRANCH  37  38
ATOM     38  C   UNL A   1      42.450  25.291  27.522  1.00  0.00     0.031 A 
ATOM     39  C   UNL A   1      41.619  26.324  28.235  1.00  0.00     0.074 A 
ATOM     40  C   UNL A   1      43.681  25.602  27.081  1.00  0.00     0.049 A 
ATOM     41  N   UNL A   1      41.917  27.563  28.526  1.00  0.00    -0.248 NA
ATOM     42  C   UNL A   1      40.281  25.905  28.682  1.00  0.00     0.031 C 
ATOM     43  C   UNL A   1      44.578  24.692  26.368  1.00  0.00     0.029 A 
ATOM     44  N   UNL A   1      44.385  26.778  27.155  1.00  0.00    -0.354 N 
ATOM     45  C   UNL A   1      40.804  28.078  29.182  1.00  0.00     0.074 A 
ATOM     46  C   UNL A   1      39.814  27.022  29.225  1.00  0.00     0.031 C 
ATOM     47  C   UNL A   1      45.702  25.353  26.044  1.00  0.00     0.029 A 
ATOM     48  C   UNL A   1      45.603  26.733  26.517  1.00  0.00     0.049 A 
ATOM     49  H   UNL A   1      44.050  27.579  27.619  1.00  0.00     0.167 HD
ATOM     50  C   UNL A   1      40.630  29.306  29.724  1.00  0.00     0.034 A 
ATOM     51  C   UNL A   1      46.524  27.698  26.325  1.00  0.00     0.034 A 
ATOM     52  C   UNL A   1      41.617  30.352  29.695  1.00  0.00     0.049 A 
ATOM     53  C   UNL A   1      46.298  29.062  26.926  1.00  0.00     0.074 A 
ATOM     54  C   UNL A   1      41.540  31.622  30.239  1.00  0.00     0.029 A 
ATOM     55  N   UNL A   1      42.857  30.253  29.086  1.00  0.00    -0.354 N 
ATOM     56  N   UNL A   1      45.293  29.488  27.651  1.00  0.00    -0.248 NA
ATOM     57  C   UNL A   1      47.354  30.063  26.718  1.00  0.00     0.031 C 
ATOM     58  C   UNL A   1      42.731  32.296  29.946  1.00  0.00     0.029 A 
ATOM     59  C   UNL A   1      43.555  31.440  29.236  1.00  0.00     0.049 A 
ATOM     60  H   UNL A   1      43.193  29.457  28.615  1.00  0.00     0.167 HD
ATOM     61  C   UNL A   1      45.608  30.796  28.009  1.00  0.00     0.074 A 
ATOM     62  C   UNL A   1      46.913  31.079  27.447  1.00  0.00     0.031 C 
ATOM     63  C   UNL A   1      44.875  31.689  28.719  1.00  0.00     0.034 A 
BRANCH  50  64
ATOM     64  C   UNL A   1      39.336  29.575  30.446  1.00  0.00     0.023 A 
ATOM     65  C   UNL A   1      39.159  29.074  31.751  1.00  0.00     0.012 A 
ATOM     66  C   UNL A   1      38.333  30.380  29.871  1.00  0.00     0.148 A 
ATOM     67  C   UNL A   1      37.995  29.352  32.467  1.00  0.00     0.002 A 
ATOM     68  C   UNL A   1      37.192  30.684  30.605  1.00  0.00     0.091 A 
ATOM     69  F   UNL A   1      38.513  30.829  28.621  1.00  0.00    -0.205 F 
ATOM     70  C   UNL A   1      37.019  30.165  31.899  1.00  0.00     0.022 A 
BRANCH  68  71
ATOM     71  S   UNL A   1      35.906  31.778  29.994  1.00  0.00     0.127 S 
ATOM     72  O   UNL A   1      35.326  30.978  28.916  1.00  0.00    -0.237 OA
ATOM     73  O   UNL A   1      35.048  31.931  31.169  1.00  0.00    -0.237 OA
ATOM     74  O   UNL A   1      36.582  32.997  29.570  1.00  0.00    -0.744 OA
ENDBRANCH  68  71
ENDBRANCH  50  64
BRANCH  51  75
ATOM     75  C   UNL A   1      47.763  27.402  25.553  1.00  0.00     0.023 A 
ATOM     76  C   UNL A   1      48.866  26.808  26.197  1.00  0.00     0.012 A 
ATOM     77  C   UNL A   1      47.852  27.706  24.181  1.00  0.00     0.148 A 
ATOM     78  C   UNL A   1      50.046  26.556  25.497  1.00  0.00     0.002 A 
ATOM     79  C   UNL A   1      49.011  27.399  23.476  1.00  0.00     0.091 A 
ATOM     80  F   UNL A   1      46.803  28.294  23.589  1.00  0.00    -0.205 F 
ATOM     81  C   UNL A   1      50.116  26.840  24.135  1.00  0.00     0.022 A 
BRANCH  79  82
ATOM     82  S   UNL A   1      49.121  27.609  21.696  1.00  0.00     0.127 S 
ATOM     83  O   UNL A   1      47.731  27.431  21.286  1.00  0.00    -0.237 OA
ATOM     84  O   UNL A   1      49.628  28.978  21.579  1.00  0.00    -0.237 OA
ATOM     85  O   UNL A   1      50.058  26.588  21.245  1.00  0.00    -0.744 OA
ENDBRANCH  79  82
ENDBRANCH  51  75
BRANCH  63  86
ATOM     86  C   UNL A   1      45.474  33.053  28.951  1.00  0.00     0.023 A 
ATOM     87  C   UNL A   1      46.261  33.283  30.097  1.00  0.00     0.012 A 
ATOM     88  C   UNL A   1      45.307  34.087  28.009  1.00  0.00     0.148 A 
ATOM     89  C   UNL A   1      46.842  34.531  30.320  1.00  0.00     0.002 A 
ATOM     90  C   UNL A   1      45.927  35.314  28.214  1.00  0.00     0.091 A 
ATOM     91  F   UNL A   1      44.539  33.857  26.933  1.00  0.00    -0.205 F 
ATOM     92  C   UNL A   1      46.685  35.541  29.375  1.00  0.00     0.022 A 
BRANCH  90  93
ATOM     93  S   UNL A   1      45.852  36.642  27.006  1.00  0.00     0.127 S 
ATOM     94  O   UNL A   1      44.419  36.929  26.967  1.00  0.00    -0.237 OA
ATOM     95  O   UNL A   1      46.665  37.684  27.634  1.00  0.00    -0.237 OA
ATOM     96  O   UNL A   1      46.419  36.095  25.780  1.00  0.00    -0.744 OA
ENDBRANCH  90  93
ENDBRANCH  63  86
ENDBRANCH  37  38
ENDBRANCH  30  32
ENDBRANCH  29  30
ENDBRANCH  28  29
ENDBRANCH  27  28
ENDBRANCH  26  27
ENDBRANCH   1  26
TORSDOF 21
ENDMDL
MODEL 2
REMARK VINA RESULT:     -10.5      6.629     10.918
REMARK SMILES Nc1ccc(C(=O)NC[C@@H]2CC[C@@H](C(=O)OCCOCCOC(=O)c3ccc(-c4c5nc(c(-c6cccc(S(=O)(=O)[O-])c6F)c6ccc([nH]6)c(-c6cccc(S(=O)(=O)[O-])c6F)c6nc(c(-c7cccc(S(=O)(=O)[O-])c7F)c7ccc4[nH]7)C=C6)C=C5)cc3)O2)cc1Cl
REMARK SMILES IDX 18 1 17 2 16 3 14 4 15 5 13 6 10 7 11 8 88 9 12 10 9 11 8 12
REMARK SMILES IDX 6 13 7 14 5 16 2 17 3 18 90 19 4 20 89 21 91 22 1 23 19 26
REMARK SMILES IDX 20 27 21 28 22 29 23 30 24 31 25 32 26 33 87 34 27 35 86 36
REMARK SMILES IDX 28 37 29 38 30 39 80 40 31 41 85 42 79 43 81 44 32 45 84 46
REMARK SMILES IDX 78 47 77 48 33 50 65 51 45 52 64 53 46 54 49 55 63 56 82 57
REMARK SMILES IDX 47 58 48 59 62 61 83 62 50 63 34 64 35 65 43 66 36 67 38 68
REMARK SMILES IDX 44 69 37 70 39 71 40 72 41 73 42 74 66 75 67 76 75 77 68 78
REMARK SMILES IDX 70 79 76 80 69 81 71 82 72 83 73 84 74 85 51 86 52 87 60 88
REMARK SMILES IDX 53 89 55 90 61 91 54 92 56 93 57 94 58 95 59 96
REMARK H PARENT 8 15 1 24 1 25 81 49 49 60
REMARK Flexibility Score: inf
ROOT
ATOM      1  C   UNL A   1      35.737  33.495  28.384  1.00  0.00     0.202 C 
ENDROOT
BRANCH   1   2
ATOM      2  C   UNL A   1      35.982  32.009  28.109  1.00  0.00     0.261 C 
BRANCH   2   3
ATOM      3  O   UNL A   1      34.797  31.426  27.548  1.00  0.00    -0.461 OA
BRANCH   3   4
ATOM      4  C   UNL A   1      34.770  30.067  27.488  1.00  0.00     0.335 C 
ATOM      5  O   UNL A   1      35.472  29.313  28.151  1.00  0.00    -0.249 OA
BRANCH   4   6
ATOM      6  C   UNL A   1      33.647  29.613  26.551  1.00  0.00     0.228 C 
ATOM      7  C   UNL A   1      32.782  27.479  26.798  1.00  0.00     0.138 C 
ATOM      8  C   UNL A   1      31.610  28.434  26.950  1.00  0.00     0.037 C 
ATOM      9  O   UNL A   1      33.794  28.252  26.138  1.00  0.00    -0.361 OA
ATOM     10  C   UNL A   1      32.292  29.747  27.245  1.00  0.00     0.047 C 
BRANCH   7  11
ATOM     11  C   UNL A   1      32.520  26.170  26.032  1.00  0.00     0.148 C 
BRANCH  11  12
ATOM     12  N   UNL A   1      31.467  25.342  26.602  1.00  0.00    -0.349 N 
ATOM     13  C   UNL A   1      31.264  24.002  26.775  1.00  0.00     0.251 C 
ATOM     14  O   UNL A   1      30.170  23.693  27.260  1.00  0.00    -0.269 OA
ATOM     15  H   UNL A   1      30.718  25.879  26.946  1.00  0.00     0.163 HD
BRANCH  13  16
ATOM     16  C   UNL A   1      32.229  22.911  26.445  1.00  0.00     0.041 A 
ATOM     17  C   UNL A   1      33.888  20.744  25.621  1.00  0.00     0.050 A 
ATOM     18  C   UNL A   1      34.200  21.511  26.746  1.00  0.00     0.028 A 
ATOM     19  C   UNL A   1      32.766  21.118  24.871  1.00  0.00     0.064 A 
ATOM     20  C   UNL A   1      33.381  22.579  27.156  1.00  0.00     0.016 A 
ATOM     21  C   UNL A   1      31.944  22.172  25.282  1.00  0.00     0.036 A 
ATOM     22  Cl  UNL A   1      32.348  20.271  23.420  1.00  0.00    -0.082 Cl
BRANCH  17  23
ATOM     23  N   UNL A   1      34.759  19.742  25.208  1.00  0.00    -0.398 N 
ATOM     24  H   UNL A   1      35.035  19.039  25.839  1.00  0.00     0.156 HD
ATOM     25  H   UNL A   1      35.100  19.736  24.285  1.00  0.00     0.156 HD
ENDBRANCH  17  23
ENDBRANCH  13  16
ENDBRANCH  11  12
ENDBRANCH   7  11
ENDBRANCH   4   6
ENDBRANCH   3   4
ENDBRANCH   2   3
ENDBRANCH   1   2
BRANCH   1  26
ATOM     26  O   UNL A   1      34.373  33.881  28.589  1.00  0.00    -0.374 OA
BRANCH  26  27
ATOM     27  C   UNL A   1      34.036  35.258  28.421  1.00  0.00     0.202 C 
BRANCH  27  28
ATOM     28  C   UNL A   1      32.923  35.830  29.309  1.00  0.00     0.261 C 
BRANCH  28  29
ATOM     29  O   UNL A   1      32.608  34.990  30.432  1.00  0.00    -0.460 OA
BRANCH  29  30
ATOM     30  C   UNL A   1      32.842  35.558  31.639  1.00  0.00     0.338 C 
ATOM     31  O   UNL A   1      32.140  36.384  32.213  1.00  0.00    -0.246 OA
BRANCH  30  32
ATOM     32  C   UNL A   1      33.992  34.917  32.299  1.00  0.00     0.060 A 
ATOM     33  C   UNL A   1      35.257  35.468  32.061  1.00  0.00     0.016 A 
ATOM     34  C   UNL A   1      33.855  33.756  33.064  1.00  0.00     0.016 A 
ATOM     35  C   UNL A   1      36.397  34.835  32.551  1.00  0.00     0.010 A 
ATOM     36  C   UNL A   1      35.004  33.118  33.549  1.00  0.00     0.010 A 
ATOM     37  C   UNL A   1      36.280  33.636  33.267  1.00  0.00    -0.014 A 
BRANCH  37  38
ATOM     38  C   UNL A   1      37.511  32.882  33.613  1.00  0.00     0.031 A 
ATOM     39  C   UNL A   1      38.316  33.293  34.818  1.00  0.00     0.074 A 
ATOM     40  C   UNL A   1      37.887  31.819  32.882  1.00  0.00     0.049 A 
ATOM     41  N   UNL A   1      39.394  32.746  35.315  1.00  0.00    -0.248 NA
ATOM     42  C   UNL A   1      37.841  34.471  35.562  1.00  0.00     0.031 C 
ATOM     43  C   UNL A   1      37.197  31.329  31.689  1.00  0.00     0.029 A 
ATOM     44  N   UNL A   1      38.952  30.966  33.027  1.00  0.00    -0.354 N 
ATOM     45  C   UNL A   1      39.734  33.513  36.423  1.00  0.00     0.074 A 
ATOM     46  C   UNL A   1      38.760  34.581  36.512  1.00  0.00     0.031 C 
ATOM     47  C   UNL A   1      37.874  30.279  31.194  1.00  0.00     0.029 A 
ATOM     48  C   UNL A   1      39.049  30.028  32.027  1.00  0.00     0.049 A 
ATOM     49  H   UNL A   1      39.589  31.022  33.777  1.00  0.00     0.167 HD
ATOM     50  C   UNL A   1      40.747  33.332  37.303  1.00  0.00     0.034 A 
ATOM     51  C   UNL A   1      39.984  29.084  31.803  1.00  0.00     0.034 A 
ATOM     52  C   UNL A   1      41.708  32.264  37.225  1.00  0.00     0.049 A 
ATOM     53  C   UNL A   1      41.111  28.914  32.790  1.00  0.00     0.074 A 
ATOM     54  C   UNL A   1      42.756  31.985  38.084  1.00  0.00     0.029 A 
ATOM     55  N   UNL A   1      41.743  31.303  36.227  1.00  0.00    -0.354 N 
ATOM     56  N   UNL A   1      41.342  29.571  33.900  1.00  0.00    -0.248 NA
ATOM     57  C   UNL A   1      42.080  27.843  32.515  1.00  0.00     0.031 C 
ATOM     58  C   UNL A   1      43.433  30.861  37.598  1.00  0.00     0.029 A 
ATOM     59  C   UNL A   1      42.796  30.431  36.446  1.00  0.00     0.049 A 
ATOM     60  H   UNL A   1      41.113  31.248  35.474  1.00  0.00     0.167 HD
ATOM     61  C   UNL A   1      42.464  28.977  34.470  1.00  0.00     0.074 A 
ATOM     62  C   UNL A   1      42.846  27.886  33.597  1.00  0.00     0.031 C 
ATOM     63  C   UNL A   1      43.132  29.316  35.600  1.00  0.00     0.034 A 
BRANCH  50  64
ATOM     64  C   UNL A   1      40.842  34.284  38.466  1.00  0.00     0.023 A 
ATOM     65  C   UNL A   1      41.689  35.407  38.368  1.00  0.00     0.012 A 
ATOM     66  C   UNL A   1      40.046  34.115  39.614  1.00  0.00     0.148 A 
ATOM     67  C   UNL A   1      41.758  36.337  39.404  1.00  0.00     0.002 A 
ATOM     68  C   UNL A   1      40.091  35.067  40.627  1.00  0.00     0.091 A 
ATOM     69  F   UNL A   1      39.263  33.031  39.695  1.00  0.00    -0.205 F 
ATOM     70  C   UNL A   1      40.952  36.173  40.527  1.00  0.00     0.022 A 
BRANCH  68  71
ATOM     71  S   UNL A   1      39.044  34.987  42.084  1.00  0.00     0.127 S 
ATOM     72  O   UNL A   1      39.739  35.893  42.998  1.00  0.00    -0.237 OA
ATOM     73  O   UNL A   1      37.770  35.495  41.575  1.00  0.00    -0.237 OA
ATOM     74  O   UNL A   1      39.024  33.588  42.490  1.00  0.00    -0.744 OA
ENDBRANCH  68  71
ENDBRANCH  50  64
BRANCH  51  75
ATOM     75  C   UNL A   1      39.882  28.203  30.606  1.00  0.00     0.023 A 
ATOM     76  C   UNL A   1      38.973  27.127  30.603  1.00  0.00     0.012 A 
ATOM     77  C   UNL A   1      40.681  28.429  29.468  1.00  0.00     0.148 A 
ATOM     78  C   UNL A   1      38.889  26.271  29.504  1.00  0.00     0.002 A 
ATOM     79  C   UNL A   1      40.550  27.607  28.354  1.00  0.00     0.091 A 
ATOM     80  F   UNL A   1      41.558  29.441  29.497  1.00  0.00    -0.205 F 
ATOM     81  C   UNL A   1      39.668  26.517  28.376  1.00  0.00     0.022 A 
BRANCH  79  82
ATOM     82  S   UNL A   1      41.419  27.945  26.820  1.00  0.00     0.127 S 
ATOM     83  O   UNL A   1      42.815  27.904  27.249  1.00  0.00    -0.237 OA
ATOM     84  O   UNL A   1      41.001  26.824  25.976  1.00  0.00    -0.237 OA
ATOM     85  O   UNL A   1      40.924  29.241  26.375  1.00  0.00    -0.744 OA
ENDBRANCH  79  82
ENDBRANCH  51  75
BRANCH  63  86
ATOM     86  C   UNL A   1      44.333  28.487  35.975  1.00  0.00     0.023 A 
ATOM     87  C   UNL A   1      45.611  28.862  35.514  1.00  0.00     0.012 A 
ATOM     88  C   UNL A   1      44.207  27.373  36.829  1.00  0.00     0.148 A 
ATOM     89  C   UNL A   1      46.739  28.122  35.867  1.00  0.00     0.002 A 
ATOM     90  C   UNL A   1      45.341  26.667  37.213  1.00  0.00     0.091 A 
ATOM     91  F   UNL A   1      42.981  27.018  37.243  1.00  0.00    -0.205 F 
ATOM     92  C   UNL A   1      46.605  27.033  36.724  1.00  0.00     0.022 A 
BRANCH  90  93
ATOM     93  S   UNL A   1      45.273  25.306  38.385  1.00  0.00     0.127 S 
ATOM     94  O   UNL A   1      44.657  25.944  39.547  1.00  0.00    -0.237 OA
ATOM     95  O   UNL A   1      44.417  24.340  37.695  1.00  0.00    -0.237 OA
ATOM     96  O   UNL A   1      46.652  24.868  38.564  1.00  0.00    -0.744 OA
ENDBRANCH  90  93
ENDBRANCH  63  86
ENDBRANCH  37  38
ENDBRANCH  30  32
ENDBRANCH  29  30
ENDBRANCH  28  29
ENDBRANCH  27  28
ENDBRANCH  26  27
ENDBRANCH   1  26
TORSDOF 21
ENDMDL
MODEL 3
REMARK VINA RESULT:     -10.2      1.309      7.609
REMARK SMILES Nc1ccc(C(=O)NC[C@@H]2CC[C@@H](C(=O)OCCOCCOC(=O)c3ccc(-c4c5nc(c(-c6cccc(S(=O)(=O)[O-])c6F)c6ccc([nH]6)c(-c6cccc(S(=O)(=O)[O-])c6F)c6nc(c(-c7cccc(S(=O)(=O)[O-])c7F)c7ccc4[nH]7)C=C6)C=C5)cc3)O2)cc1Cl
REMARK SMILES IDX 18 1 17 2 16 3 14 4 15 5 13 6 10 7 11 8 88 9 12 10 9 11 8 12
REMARK SMILES IDX 6 13 7 14 5 16 2 17 3 18 90 19 4 20 89 21 91 22 1 23 19 26
REMARK SMILES IDX 20 27 21 28 22 29 23 30 24 31 25 32 26 33 87 34 27 35 86 36
REMARK SMILES IDX 28 37 29 38 30 39 80 40 31 41 85 42 79 43 81 44 32 45 84 46
REMARK SMILES IDX 78 47 77 48 33 50 65 51 45 52 64 53 46 54 49 55 63 56 82 57
REMARK SMILES IDX 47 58 48 59 62 61 83 62 50 63 34 64 35 65 43 66 36 67 38 68
REMARK SMILES IDX 44 69 37 70 39 71 40 72 41 73 42 74 66 75 67 76 75 77 68 78
REMARK SMILES IDX 70 79 76 80 69 81 71 82 72 83 73 84 74 85 51 86 52 87 60 88
REMARK SMILES IDX 53 89 55 90 61 91 54 92 56 93 57 94 58 95 59 96
REMARK H PARENT 8 15 1 24 1 25 81 49 49 60
REMARK Flexibility Score: inf
ROOT
ATOM      1  C   UNL A   1      36.444  21.734  24.917  1.00  0.00     0.202 C 
ENDROOT
BRANCH   1   2
ATOM      2  C   UNL A   1      36.185  23.241  24.847  1.00  0.00     0.261 C 
BRANCH   2   3
ATOM      3  O   UNL A   1      34.802  23.500  25.127  1.00  0.00    -0.461 OA
BRANCH   3   4
ATOM      4  C   UNL A   1      34.022  23.811  24.055  1.00  0.00     0.335 C 
ATOM      5  O   UNL A   1      34.430  24.025  22.920  1.00  0.00    -0.249 OA
BRANCH   4   6
ATOM      6  C   UNL A   1      32.545  23.736  24.452  1.00  0.00     0.228 C 
ATOM      7  C   UNL A   1      31.042  25.167  23.424  1.00  0.00     0.138 C 
ATOM      8  C   UNL A   1      30.539  23.757  23.157  1.00  0.00     0.037 C 
ATOM      9  O   UNL A   1      31.935  25.027  24.537  1.00  0.00    -0.361 OA
ATOM     10  C   UNL A   1      31.762  22.916  23.426  1.00  0.00     0.047 C 
BRANCH   7  11
ATOM     11  C   UNL A   1      29.979  26.242  23.718  1.00  0.00     0.148 C 
BRANCH  11  12
ATOM     12  N   UNL A   1      30.053  27.411  22.855  1.00  0.00    -0.349 N 
ATOM     13  C   UNL A   1      30.484  28.701  22.993  1.00  0.00     0.251 C 
ATOM     14  O   UNL A   1      30.308  29.422  22.005  1.00  0.00    -0.269 OA
ATOM     15  H   UNL A   1      29.710  27.229  21.952  1.00  0.00     0.163 HD
BRANCH  13  16
ATOM     16  C   UNL A   1      31.135  29.292  24.199  1.00  0.00     0.041 A 
ATOM     17  C   UNL A   1      32.529  30.185  26.519  1.00  0.00     0.050 A 
ATOM     18  C   UNL A   1      31.452  30.906  25.997  1.00  0.00     0.028 A 
ATOM     19  C   UNL A   1      32.944  29.042  25.826  1.00  0.00     0.064 A 
ATOM     20  C   UNL A   1      30.762  30.465  24.853  1.00  0.00     0.016 A 
ATOM     21  C   UNL A   1      32.253  28.596  24.695  1.00  0.00     0.036 A 
ATOM     22  Cl  UNL A   1      34.315  28.130  26.361  1.00  0.00    -0.082 Cl
BRANCH  17  23
ATOM     23  N   UNL A   1      33.230  30.690  27.609  1.00  0.00    -0.398 N 
ATOM     24  H   UNL A   1      33.835  31.458  27.493  1.00  0.00     0.156 HD
ATOM     25  H   UNL A   1      33.120  30.280  28.498  1.00  0.00     0.156 HD
ENDBRANCH  17  23
ENDBRANCH  13  16
ENDBRANCH  11  12
ENDBRANCH   7  11
ENDBRANCH   4   6
ENDBRANCH   3   4
ENDBRANCH   2   3
ENDBRANCH   1   2
BRANCH   1  26
ATOM     26  O   UNL A   1      37.818  21.333  24.955  1.00  0.00    -0.374 OA
BRANCH  26  27
ATOM     27  C   UNL A   1      38.110  19.938  24.876  1.00  0.00     0.202 C 
BRANCH  27  28
ATOM     28  C   UNL A   1      39.214  19.390  25.789  1.00  0.00     0.261 C 
BRANCH  28  29
ATOM     29  O   UNL A   1      40.538  19.685  25.315  1.00  0.00    -0.460 OA
BRANCH  29  30
ATOM     30  C   UNL A   1      41.469  19.805  26.291  1.00  0.00     0.338 C 
ATOM     31  O   UNL A   1      42.244  18.938  26.680  1.00  0.00    -0.246 OA
BRANCH  30  32
ATOM     32  C   UNL A   1      41.577  21.205  26.735  1.00  0.00     0.060 A 
ATOM     33  C   UNL A   1      41.545  22.196  25.746  1.00  0.00     0.016 A 
ATOM     34  C   UNL A   1      41.789  21.544  28.073  1.00  0.00     0.016 A 
ATOM     35  C   UNL A   1      41.768  23.527  26.085  1.00  0.00     0.010 A 
ATOM     36  C   UNL A   1      42.022  22.884  28.410  1.00  0.00     0.010 A 
ATOM     37  C   UNL A   1      42.045  23.876  27.414  1.00  0.00    -0.014 A 
BRANCH  37  38
ATOM     38  C   UNL A   1      42.466  25.266  27.720  1.00  0.00     0.031 A 
ATOM     39  C   UNL A   1      43.835  25.733  27.302  1.00  0.00     0.074 A 
ATOM     40  C   UNL A   1      41.622  26.114  28.332  1.00  0.00     0.049 A 
ATOM     41  N   UNL A   1      44.380  26.914  27.437  1.00  0.00    -0.248 NA
ATOM     42  C   UNL A   1      44.702  24.742  26.643  1.00  0.00     0.031 C 
ATOM     43  C   UNL A   1      40.275  25.778  28.793  1.00  0.00     0.029 A 
ATOM     44  N   UNL A   1      41.778  27.431  28.684  1.00  0.00    -0.354 N 
ATOM     45  C   UNL A   1      45.654  26.810  26.889  1.00  0.00     0.074 A 
ATOM     46  C   UNL A   1      45.810  25.442  26.442  1.00  0.00     0.031 C 
ATOM     47  C   UNL A   1      39.739  26.854  29.394  1.00  0.00     0.029 A 
ATOM     48  C   UNL A   1      40.705  27.950  29.369  1.00  0.00     0.049 A 
ATOM     49  H   UNL A   1      42.584  27.955  28.467  1.00  0.00     0.167 HD
ATOM     50  C   UNL A   1      46.597  27.770  26.745  1.00  0.00     0.034 A 
ATOM     51  C   UNL A   1      40.529  29.166  29.924  1.00  0.00     0.034 A 
ATOM     52  C   UNL A   1      46.439  29.133  27.177  1.00  0.00     0.049 A 
ATOM     53  C   UNL A   1      41.602  30.212  29.763  1.00  0.00     0.074 A 
ATOM     54  C   UNL A   1      47.331  30.184  27.052  1.00  0.00     0.029 A 
ATOM     55  N   UNL A   1      45.319  29.635  27.820  1.00  0.00    -0.354 N 
ATOM     56  N   UNL A   1      42.748  30.129  29.130  1.00  0.00    -0.248 NA
ATOM     57  C   UNL A   1      41.339  31.532  30.355  1.00  0.00     0.031 C 
ATOM     58  C   UNL A   1      46.755  31.318  27.633  1.00  0.00     0.029 A 
ATOM     59  C   UNL A   1      45.497  30.979  28.103  1.00  0.00     0.049 A 
ATOM     60  H   UNL A   1      44.515  29.113  28.043  1.00  0.00     0.167 HD
ATOM     61  C   UNL A   1      43.328  31.391  29.224  1.00  0.00     0.074 A 
ATOM     62  C   UNL A   1      42.392  32.227  29.947  1.00  0.00     0.031 C 
ATOM     63  C   UNL A   1      44.535  31.813  28.774  1.00  0.00     0.034 A 
BRANCH  50  64
ATOM     64  C   UNL A   1      47.876  27.394  26.044  1.00  0.00     0.023 A 
ATOM     65  C   UNL A   1      48.917  26.797  26.785  1.00  0.00     0.012 A 
ATOM     66  C   UNL A   1      48.021  27.558  24.653  1.00  0.00     0.148 A 
ATOM     67  C   UNL A   1      50.091  26.387  26.156  1.00  0.00     0.002 A 
ATOM     68  C   UNL A   1      49.181  27.112  24.027  1.00  0.00     0.091 A 
ATOM     69  F   UNL A   1      47.029  28.146  23.972  1.00  0.00    -0.205 F 
ATOM     70  C   UNL A   1      50.218  26.534  24.778  1.00  0.00     0.022 A 
BRANCH  68  71
ATOM     71  S   UNL A   1      49.416  27.191  22.249  1.00  0.00     0.127 S 
ATOM     72  O   UNL A   1      48.893  28.522  21.940  1.00  0.00    -0.237 OA
ATOM     73  O   UNL A   1      50.868  27.063  22.124  1.00  0.00    -0.237 OA
ATOM     74  O   UNL A   1      48.657  26.079  21.692  1.00  0.00    -0.744 OA
ENDBRANCH  68  71
ENDBRANCH  50  64
BRANCH  51  75
ATOM     75  C   UNL A   1      39.271  29.474  30.660  1.00  0.00     0.023 A 
ATOM     76  C   UNL A   1      39.017  28.859  31.902  1.00  0.00     0.012 A 
ATOM     77  C   UNL A   1      38.326  30.377  30.137  1.00  0.00     0.148 A 
ATOM     78  C   UNL A   1      37.829  29.109  32.589  1.00  0.00     0.002 A 
ATOM     79  C   UNL A   1      37.171  30.667  30.854  1.00  0.00     0.091 A 
ATOM     80  F   UNL A   1      38.572  30.935  28.943  1.00  0.00    -0.205 F 
ATOM     81  C   UNL A   1      36.911  30.021  32.072  1.00  0.00     0.022 A 
BRANCH  79  82
ATOM     82  S   UNL A   1      36.013  31.931  30.318  1.00  0.00     0.127 S 
ATOM     83  O   UNL A   1      36.859  33.121  30.293  1.00  0.00    -0.237 OA
ATOM     84  O   UNL A   1      35.607  31.436  29.001  1.00  0.00    -0.237 OA
ATOM     85  O   UNL A   1      34.947  31.922  31.311  1.00  0.00    -0.744 OA
ENDBRANCH  79  82
ENDBRANCH  51  75
BRANCH  63  86
ATOM     86  C   UNL A   1      44.908  33.251  29.026  1.00  0.00     0.023 A 
ATOM     87  C   UNL A   1      45.722  33.576  30.130  1.00  0.00     0.012 A 
ATOM     88  C   UNL A   1      44.506  34.271  28.141  1.00  0.00     0.148 A 
ATOM     89  C   UNL A   1      46.097  34.898  30.371  1.00  0.00     0.002 A 
ATOM     90  C   UNL A   1      44.922  35.579  28.361  1.00  0.00     0.091 A 
ATOM     91  F   UNL A   1      43.716  33.947  27.106  1.00  0.00    -0.205 F 
ATOM     92  C   UNL A   1      45.707  35.896  29.481  1.00  0.00     0.022 A 
BRANCH  90  93
ATOM     93  S   UNL A   1      44.541  36.912  27.218  1.00  0.00     0.127 S 
ATOM     94  O   UNL A   1      45.738  36.938  26.380  1.00  0.00    -0.237 OA
ATOM     95  O   UNL A   1      43.338  36.416  26.548  1.00  0.00    -0.237 OA
ATOM     96  O   UNL A   1      44.324  38.093  28.044  1.00  0.00    -0.744 OA
ENDBRANCH  90  93
ENDBRANCH  63  86
ENDBRANCH  37  38
ENDBRANCH  30  32
ENDBRANCH  29  30
ENDBRANCH  28  29
ENDBRANCH  27  28
ENDBRANCH  26  27
ENDBRANCH   1  26
TORSDOF 21
ENDMDL
