MODEL 1
REMARK VINA RESULT:     -11.3      0.000      0.000
REMARK SMILES Cc1cccc(-c2cccnc2C(=O)OCCOCCOC(=O)c2ccc(-c3c4nc(c(-c5cccc(S(=O)(=O)[O-])c5F)c5ccc([nH]5)c(-c5cccc(S(=O)(=O)[O-])c5F)c5nc(c(-c6cccc(S(=O)(=O)[O-])c6F)c6ccc3[nH]6)C=C5)C=C4)cc2)c1
REMARK SMILES IDX 19 1 18 2 17 3 16 4 15 5 13 6 14 7 12 8 7 9 8 10 9 11 11 12
REMARK SMILES IDX 10 13 6 14 1 15 2 16 3 17 87 18 4 19 5 20 20 21 21 22 22 23
REMARK SMILES IDX 23 24 24 25 25 26 86 27 26 28 85 29 27 30 28 31 29 32 79 33
REMARK SMILES IDX 30 34 84 35 78 36 80 37 31 38 83 39 77 40 76 41 32 43 64 44
REMARK SMILES IDX 44 45 63 46 45 47 48 48 62 49 81 50 46 51 47 52 61 54 82 55
REMARK SMILES IDX 49 56 33 57 34 58 42 59 35 60 37 61 43 62 36 63 38 64 39 65
REMARK SMILES IDX 40 66 41 67 65 68 66 69 74 70 67 71 69 72 75 73 68 74 70 75
REMARK SMILES IDX 71 76 72 77 73 78 50 79 51 80 59 81 52 82 54 83 60 84 53 85
REMARK SMILES IDX 55 86 56 87 57 88 58 89
REMARK H PARENT 80 42 48 53
REMARK Flexibility Score: inf
ROOT
ATOM      1  C   UNL A   1      32.638  29.638  25.885  1.00  0.00     0.202 C 
ENDROOT
BRANCH   1   2
ATOM      2  O   UNL A   1      32.939  28.282  25.658  1.00  0.00    -0.374 OA
BRANCH   2   3
ATOM      3  C   UNL A   1      31.856  27.392  25.449  1.00  0.00     0.202 C 
BRANCH   3   4
ATOM      4  C   UNL A   1      31.993  26.351  26.524  1.00  0.00     0.261 C 
BRANCH   4   5
ATOM      5  O   UNL A   1      33.156  25.544  26.276  1.00  0.00    -0.458 OA
BRANCH   5   6
ATOM      6  C   UNL A   1      33.082  24.189  26.160  1.00  0.00     0.357 C 
ATOM      7  O   UNL A   1      32.875  23.399  27.049  1.00  0.00    -0.244 OA
BRANCH   6   8
ATOM      8  C   UNL A   1      33.155  23.808  24.695  1.00  0.00     0.156 A 
ATOM      9  C   UNL A   1      34.318  23.326  24.060  1.00  0.00     0.015 A 
ATOM     10  C   UNL A   1      34.257  23.151  22.669  1.00  0.00     0.013 A 
ATOM     11  C   UNL A   1      33.080  23.410  21.972  1.00  0.00     0.021 A 
ATOM     12  N   UNL A   1      31.997  24.064  24.011  1.00  0.00    -0.249 NA
ATOM     13  C   UNL A   1      31.981  23.847  22.684  1.00  0.00     0.112 A 
BRANCH   9  14
ATOM     14  C   UNL A   1      35.549  22.950  24.770  1.00  0.00    -0.016 A 
ATOM     15  C   UNL A   1      38.000  20.025  25.022  1.00  0.00     0.044 C 
ATOM     16  C   UNL A   1      37.366  21.374  25.195  1.00  0.00    -0.051 A 
ATOM     17  C   UNL A   1      38.093  22.401  25.807  1.00  0.00     0.003 A 
ATOM     18  C   UNL A   1      36.092  21.656  24.677  1.00  0.00     0.012 A 
ATOM     19  C   UNL A   1      37.546  23.674  25.938  1.00  0.00     0.001 A 
ATOM     20  C   UNL A   1      36.282  23.947  25.432  1.00  0.00     0.009 A 
ENDBRANCH   9  14
ENDBRANCH   6   8
ENDBRANCH   5   6
ENDBRANCH   4   5
ENDBRANCH   3   4
ENDBRANCH   2   3
ENDBRANCH   1   2
BRANCH   1  21
ATOM     21  C   UNL A   1      33.117  30.124  27.253  1.00  0.00     0.261 C 
BRANCH  21  22
ATOM     22  O   UNL A   1      34.126  31.140  27.084  1.00  0.00    -0.460 OA
BRANCH  22  23
ATOM     23  C   UNL A   1      34.849  31.426  28.207  1.00  0.00     0.338 C 
ATOM     24  O   UNL A   1      34.776  32.485  28.810  1.00  0.00    -0.246 OA
BRANCH  23  25
ATOM     25  C   UNL A   1      35.895  30.383  28.424  1.00  0.00     0.060 A 
ATOM     26  C   UNL A   1      36.055  29.801  29.694  1.00  0.00     0.016 A 
ATOM     27  C   UNL A   1      36.895  30.231  27.468  1.00  0.00     0.016 A 
ATOM     28  C   UNL A   1      37.286  29.238  30.063  1.00  0.00     0.010 A 
ATOM     29  C   UNL A   1      38.134  29.777  27.874  1.00  0.00     0.010 A 
ATOM     30  C   UNL A   1      38.358  29.327  29.190  1.00  0.00    -0.014 A 
BRANCH  30  31
ATOM     31  C   UNL A   1      39.749  28.955  29.470  1.00  0.00     0.031 A 
ATOM     32  C   UNL A   1      40.093  27.542  29.183  1.00  0.00     0.074 A 
ATOM     33  C   UNL A   1      40.751  29.866  29.588  1.00  0.00     0.049 A 
ATOM     34  N   UNL A   1      41.286  27.066  29.198  1.00  0.00    -0.248 NA
ATOM     35  C   UNL A   1      39.081  26.531  28.886  1.00  0.00     0.031 C 
ATOM     36  C   UNL A   1      42.094  29.727  29.016  1.00  0.00     0.029 A 
ATOM     37  N   UNL A   1      40.813  31.120  30.220  1.00  0.00    -0.354 N 
ATOM     38  C   UNL A   1      41.244  25.810  28.641  1.00  0.00     0.074 A 
ATOM     39  C   UNL A   1      39.844  25.479  28.585  1.00  0.00     0.031 C 
ATOM     40  C   UNL A   1      42.888  30.698  29.483  1.00  0.00     0.029 A 
ATOM     41  C   UNL A   1      42.161  31.370  30.539  1.00  0.00     0.049 A 
ATOM     42  H   UNL A   1      40.051  31.715  30.405  1.00  0.00     0.167 HD
ATOM     43  C   UNL A   1      42.415  25.274  28.198  1.00  0.00     0.034 A 
ATOM     44  C   UNL A   1      42.586  31.587  31.815  1.00  0.00     0.034 A 
ATOM     45  C   UNL A   1      43.560  26.121  28.611  1.00  0.00     0.049 A 
ATOM     46  C   UNL A   1      43.623  30.577  32.241  1.00  0.00     0.074 A 
ATOM     47  C   UNL A   1      44.418  27.013  27.990  1.00  0.00     0.029 A 
ATOM     48  N   UNL A   1      43.756  26.319  29.969  1.00  0.00    -0.354 N 
ATOM     49  N   UNL A   1      44.191  29.719  31.438  1.00  0.00    -0.248 NA
ATOM     50  C   UNL A   1      44.031  30.389  33.630  1.00  0.00     0.031 C 
ATOM     51  C   UNL A   1      45.136  27.727  29.009  1.00  0.00     0.029 A 
ATOM     52  C   UNL A   1      44.748  27.241  30.248  1.00  0.00     0.049 A 
ATOM     53  H   UNL A   1      43.239  25.852  30.665  1.00  0.00     0.167 HD
ATOM     54  C   UNL A   1      44.740  28.713  32.181  1.00  0.00     0.074 A 
ATOM     55  C   UNL A   1      44.708  29.231  33.544  1.00  0.00     0.031 C 
ATOM     56  C   UNL A   1      45.075  27.494  31.654  1.00  0.00     0.034 A 
BRANCH  43  57
ATOM     57  C   UNL A   1      42.567  24.053  27.298  1.00  0.00     0.023 A 
ATOM     58  C   UNL A   1      41.517  23.107  27.338  1.00  0.00     0.012 A 
ATOM     59  C   UNL A   1      43.659  23.710  26.459  1.00  0.00     0.148 A 
ATOM     60  C   UNL A   1      41.554  21.901  26.627  1.00  0.00     0.002 A 
ATOM     61  C   UNL A   1      43.696  22.513  25.735  1.00  0.00     0.091 A 
ATOM     62  F   UNL A   1      44.710  24.517  26.349  1.00  0.00    -0.205 F 
ATOM     63  C   UNL A   1      42.645  21.600  25.826  1.00  0.00     0.022 A 
BRANCH  61  64
ATOM     64  S   UNL A   1      45.086  22.046  24.678  1.00  0.00     0.127 S 
ATOM     65  O   UNL A   1      44.619  20.784  24.100  1.00  0.00    -0.237 OA
ATOM     66  O   UNL A   1      45.147  23.157  23.729  1.00  0.00    -0.237 OA
ATOM     67  O   UNL A   1      46.250  21.916  25.545  1.00  0.00    -0.744 OA
ENDBRANCH  61  64
ENDBRANCH  43  57
BRANCH  44  68
ATOM     68  C   UNL A   1      41.541  32.220  32.680  1.00  0.00     0.023 A 
ATOM     69  C   UNL A   1      41.317  33.604  32.508  1.00  0.00     0.012 A 
ATOM     70  C   UNL A   1      40.514  31.435  33.238  1.00  0.00     0.148 A 
ATOM     71  C   UNL A   1      40.047  34.155  32.695  1.00  0.00     0.002 A 
ATOM     72  C   UNL A   1      39.248  31.989  33.414  1.00  0.00     0.091 A 
ATOM     73  F   UNL A   1      40.772  30.147  33.496  1.00  0.00    -0.205 F 
ATOM     74  C   UNL A   1      39.000  33.334  33.094  1.00  0.00     0.022 A 
BRANCH  72  75
ATOM     75  S   UNL A   1      37.824  31.026  33.927  1.00  0.00     0.127 S 
ATOM     76  O   UNL A   1      37.484  31.663  35.197  1.00  0.00    -0.237 OA
ATOM     77  O   UNL A   1      36.873  31.284  32.845  1.00  0.00    -0.237 OA
ATOM     78  O   UNL A   1      38.285  29.650  34.017  1.00  0.00    -0.744 OA
ENDBRANCH  72  75
ENDBRANCH  44  68
BRANCH  56  79
ATOM     79  C   UNL A   1      45.672  26.393  32.511  1.00  0.00     0.023 A 
ATOM     80  C   UNL A   1      47.050  26.111  32.436  1.00  0.00     0.012 A 
ATOM     81  C   UNL A   1      44.895  25.548  33.341  1.00  0.00     0.148 A 
ATOM     82  C   UNL A   1      47.648  25.141  33.246  1.00  0.00     0.002 A 
ATOM     83  C   UNL A   1      45.476  24.517  34.068  1.00  0.00     0.091 A 
ATOM     84  F   UNL A   1      43.582  25.748  33.471  1.00  0.00    -0.205 F 
ATOM     85  C   UNL A   1      46.860  24.342  34.061  1.00  0.00     0.022 A 
BRANCH  83  86
ATOM     86  S   UNL A   1      44.498  23.310  34.975  1.00  0.00     0.127 S 
ATOM     87  O   UNL A   1      43.882  22.558  33.880  1.00  0.00    -0.237 OA
ATOM     88  O   UNL A   1      45.533  22.584  35.709  1.00  0.00    -0.237 OA
ATOM     89  O   UNL A   1      43.564  24.069  35.790  1.00  0.00    -0.744 OA
ENDBRANCH  83  86
ENDBRANCH  56  79
ENDBRANCH  30  31
ENDBRANCH  23  25
ENDBRANCH  22  23
ENDBRANCH  21  22
ENDBRANCH   1  21
TORSDOF 18
ENDMDL
MODEL 2
REMARK VINA RESULT:     -11.3      3.596      9.129
REMARK SMILES Cc1cccc(-c2cccnc2C(=O)OCCOCCOC(=O)c2ccc(-c3c4nc(c(-c5cccc(S(=O)(=O)[O-])c5F)c5ccc([nH]5)c(-c5cccc(S(=O)(=O)[O-])c5F)c5nc(c(-c6cccc(S(=O)(=O)[O-])c6F)c6ccc3[nH]6)C=C5)C=C4)cc2)c1
REMARK SMILES IDX 19 1 18 2 17 3 16 4 15 5 13 6 14 7 12 8 7 9 8 10 9 11 11 12
REMARK SMILES IDX 10 13 6 14 1 15 2 16 3 17 87 18 4 19 5 20 20 21 21 22 22 23
REMARK SMILES IDX 23 24 24 25 25 26 86 27 26 28 85 29 27 30 28 31 29 32 79 33
REMARK SMILES IDX 30 34 84 35 78 36 80 37 31 38 83 39 77 40 76 41 32 43 64 44
REMARK SMILES IDX 44 45 63 46 45 47 48 48 62 49 81 50 46 51 47 52 61 54 82 55
REMARK SMILES IDX 49 56 33 57 34 58 42 59 35 60 37 61 43 62 36 63 38 64 39 65
REMARK SMILES IDX 40 66 41 67 65 68 66 69 74 70 67 71 69 72 75 73 68 74 70 75
REMARK SMILES IDX 71 76 72 77 73 78 50 79 51 80 59 81 52 82 54 83 60 84 53 85
REMARK SMILES IDX 55 86 56 87 57 88 58 89
REMARK H PARENT 80 42 48 53
REMARK Flexibility Score: inf
ROOT
ATOM      1  C   UNL A   1      36.834  23.565  24.929  1.00  0.00     0.202 C 
ENDROOT
BRANCH   1   2
ATOM      2  O   UNL A   1      35.834  24.263  25.630  1.00  0.00    -0.374 OA
BRANCH   2   3
ATOM      3  C   UNL A   1      34.748  24.786  24.885  1.00  0.00     0.202 C 
BRANCH   3   4
ATOM      4  C   UNL A   1      33.894  25.506  25.892  1.00  0.00     0.261 C 
BRANCH   4   5
ATOM      5  O   UNL A   1      33.396  26.729  25.323  1.00  0.00    -0.458 OA
BRANCH   5   6
ATOM      6  C   UNL A   1      32.457  27.486  25.954  1.00  0.00     0.357 C 
ATOM      7  O   UNL A   1      32.529  27.946  27.067  1.00  0.00    -0.244 OA
BRANCH   6   8
ATOM      8  C   UNL A   1      31.335  27.800  24.983  1.00  0.00     0.156 A 
ATOM      9  C   UNL A   1      30.527  26.824  24.365  1.00  0.00     0.015 A 
ATOM     10  C   UNL A   1      29.626  27.272  23.387  1.00  0.00     0.013 A 
ATOM     11  C   UNL A   1      29.521  28.627  23.086  1.00  0.00     0.021 A 
ATOM     12  N   UNL A   1      31.234  29.133  24.688  1.00  0.00    -0.249 NA
ATOM     13  C   UNL A   1      30.330  29.513  23.768  1.00  0.00     0.112 A 
BRANCH   9  14
ATOM     14  C   UNL A   1      30.540  25.399  24.721  1.00  0.00    -0.016 A 
ATOM     15  C   UNL A   1      31.908  22.073  23.418  1.00  0.00     0.044 C 
ATOM     16  C   UNL A   1      31.256  23.102  24.294  1.00  0.00    -0.051 A 
ATOM     17  C   UNL A   1      30.906  22.765  25.606  1.00  0.00     0.003 A 
ATOM     18  C   UNL A   1      31.070  24.423  23.857  1.00  0.00     0.012 A 
ATOM     19  C   UNL A   1      30.343  23.715  26.454  1.00  0.00     0.001 A 
ATOM     20  C   UNL A   1      30.153  25.019  26.016  1.00  0.00     0.009 A 
ENDBRANCH   9  14
ENDBRANCH   6   8
ENDBRANCH   5   6
ENDBRANCH   4   5
ENDBRANCH   3   4
ENDBRANCH   2   3
ENDBRANCH   1   2
BRANCH   1  21
ATOM     21  C   UNL A   1      37.430  22.416  25.743  1.00  0.00     0.261 C 
BRANCH  21  22
ATOM     22  O   UNL A   1      38.856  22.362  25.540  1.00  0.00    -0.460 OA
BRANCH  22  23
ATOM     23  C   UNL A   1      39.606  22.666  26.641  1.00  0.00     0.338 C 
ATOM     24  O   UNL A   1      40.084  21.828  27.389  1.00  0.00    -0.246 OA
BRANCH  23  25
ATOM     25  C   UNL A   1      39.532  24.130  26.924  1.00  0.00     0.060 A 
ATOM     26  C   UNL A   1      40.280  25.034  26.148  1.00  0.00     0.016 A 
ATOM     27  C   UNL A   1      38.987  24.550  28.134  1.00  0.00     0.016 A 
ATOM     28  C   UNL A   1      40.637  26.286  26.671  1.00  0.00     0.010 A 
ATOM     29  C   UNL A   1      39.434  25.735  28.684  1.00  0.00     0.010 A 
ATOM     30  C   UNL A   1      40.307  26.589  27.982  1.00  0.00    -0.014 A 
BRANCH  30  31
ATOM     31  C   UNL A   1      40.742  27.764  28.746  1.00  0.00     0.031 A 
ATOM     32  C   UNL A   1      39.807  28.914  28.720  1.00  0.00     0.074 A 
ATOM     33  C   UNL A   1      41.688  27.706  29.720  1.00  0.00     0.049 A 
ATOM     34  N   UNL A   1      39.920  29.961  29.455  1.00  0.00    -0.248 NA
ATOM     35  C   UNL A   1      38.665  28.979  27.809  1.00  0.00     0.031 C 
ATOM     36  C   UNL A   1      41.613  28.390  31.016  1.00  0.00     0.029 A 
ATOM     37  N   UNL A   1      42.915  27.026  29.800  1.00  0.00    -0.354 N 
ATOM     38  C   UNL A   1      38.754  30.680  29.346  1.00  0.00     0.074 A 
ATOM     39  C   UNL A   1      38.068  30.099  28.221  1.00  0.00     0.031 C 
ATOM     40  C   UNL A   1      42.787  28.287  31.650  1.00  0.00     0.029 A 
ATOM     41  C   UNL A   1      43.732  27.727  30.708  1.00  0.00     0.049 A 
ATOM     42  H   UNL A   1      43.158  26.208  29.311  1.00  0.00     0.167 HD
ATOM     43  C   UNL A   1      38.485  31.603  30.310  1.00  0.00     0.034 A 
ATOM     44  C   UNL A   1      44.942  28.246  30.358  1.00  0.00     0.034 A 
ATOM     45  C   UNL A   1      39.658  31.776  31.201  1.00  0.00     0.049 A 
ATOM     46  C   UNL A   1      44.996  29.739  30.568  1.00  0.00     0.074 A 
ATOM     47  C   UNL A   1      39.999  31.398  32.488  1.00  0.00     0.029 A 
ATOM     48  N   UNL A   1      40.845  32.204  30.624  1.00  0.00    -0.354 N 
ATOM     49  N   UNL A   1      44.077  30.430  31.185  1.00  0.00    -0.248 NA
ATOM     50  C   UNL A   1      46.045  30.587  30.011  1.00  0.00     0.031 C 
ATOM     51  C   UNL A   1      41.407  31.629  32.665  1.00  0.00     0.029 A 
ATOM     52  C   UNL A   1      41.913  32.187  31.503  1.00  0.00     0.049 A 
ATOM     53  H   UNL A   1      40.919  32.489  29.686  1.00  0.00     0.167 HD
ATOM     54  C   UNL A   1      44.211  31.747  30.847  1.00  0.00     0.074 A 
ATOM     55  C   UNL A   1      45.517  31.808  30.200  1.00  0.00     0.031 C 
ATOM     56  C   UNL A   1      43.210  32.666  31.015  1.00  0.00     0.034 A 
BRANCH  43  57
ATOM     57  C   UNL A   1      37.147  32.291  30.556  1.00  0.00     0.023 A 
ATOM     58  C   UNL A   1      36.649  32.244  31.878  1.00  0.00     0.012 A 
ATOM     59  C   UNL A   1      36.302  32.932  29.612  1.00  0.00     0.148 A 
ATOM     60  C   UNL A   1      35.398  32.762  32.236  1.00  0.00     0.002 A 
ATOM     61  C   UNL A   1      35.057  33.464  29.968  1.00  0.00     0.091 A 
ATOM     62  F   UNL A   1      36.659  33.028  28.335  1.00  0.00    -0.205 F 
ATOM     63  C   UNL A   1      34.599  33.371  31.281  1.00  0.00     0.022 A 
BRANCH  61  64
ATOM     64  S   UNL A   1      33.955  34.264  28.780  1.00  0.00     0.127 S 
ATOM     65  O   UNL A   1      32.848  34.698  29.634  1.00  0.00    -0.237 OA
ATOM     66  O   UNL A   1      34.783  35.354  28.266  1.00  0.00    -0.237 OA
ATOM     67  O   UNL A   1      33.593  33.253  27.793  1.00  0.00    -0.744 OA
ENDBRANCH  61  64
ENDBRANCH  43  57
BRANCH  44  68
ATOM     68  C   UNL A   1      45.621  27.466  29.274  1.00  0.00     0.023 A 
ATOM     69  C   UNL A   1      46.228  26.246  29.645  1.00  0.00     0.012 A 
ATOM     70  C   UNL A   1      45.250  27.654  27.929  1.00  0.00     0.148 A 
ATOM     71  C   UNL A   1      46.280  25.171  28.755  1.00  0.00     0.002 A 
ATOM     72  C   UNL A   1      45.297  26.575  27.049  1.00  0.00     0.091 A 
ATOM     73  F   UNL A   1      44.774  28.852  27.566  1.00  0.00    -0.205 F 
ATOM     74  C   UNL A   1      45.763  25.320  27.475  1.00  0.00     0.022 A 
BRANCH  72  75
ATOM     75  S   UNL A   1      44.661  26.653  25.374  1.00  0.00     0.127 S 
ATOM     76  O   UNL A   1      45.877  26.451  24.591  1.00  0.00    -0.237 OA
ATOM     77  O   UNL A   1      43.728  25.525  25.347  1.00  0.00    -0.237 OA
ATOM     78  O   UNL A   1      44.039  27.961  25.245  1.00  0.00    -0.744 OA
ENDBRANCH  72  75
ENDBRANCH  44  68
BRANCH  56  79
ATOM     79  C   UNL A   1      43.388  34.119  30.616  1.00  0.00     0.023 A 
ATOM     80  C   UNL A   1      43.444  35.120  31.606  1.00  0.00     0.012 A 
ATOM     81  C   UNL A   1      43.415  34.557  29.269  1.00  0.00     0.148 A 
ATOM     82  C   UNL A   1      43.658  36.463  31.284  1.00  0.00     0.002 A 
ATOM     83  C   UNL A   1      43.526  35.904  28.949  1.00  0.00     0.091 A 
ATOM     84  F   UNL A   1      43.369  33.674  28.270  1.00  0.00    -0.205 F 
ATOM     85  C   UNL A   1      43.697  36.855  29.955  1.00  0.00     0.022 A 
BRANCH  83  86
ATOM     86  S   UNL A   1      43.369  36.508  27.263  1.00  0.00     0.127 S 
ATOM     87  O   UNL A   1      41.992  36.121  26.945  1.00  0.00    -0.237 OA
ATOM     88  O   UNL A   1      43.573  37.944  27.443  1.00  0.00    -0.237 OA
ATOM     89  O   UNL A   1      44.386  35.820  26.484  1.00  0.00    -0.744 OA
ENDBRANCH  83  86
ENDBRANCH  56  79
ENDBRANCH  30  31
ENDBRANCH  23  25
ENDBRANCH  22  23
ENDBRANCH  21  22
ENDBRANCH   1  21
TORSDOF 18
ENDMDL
MODEL 3
REMARK VINA RESULT:     -11.3      1.880      2.631
REMARK SMILES Cc1cccc(-c2cccnc2C(=O)OCCOCCOC(=O)c2ccc(-c3c4nc(c(-c5cccc(S(=O)(=O)[O-])c5F)c5ccc([nH]5)c(-c5cccc(S(=O)(=O)[O-])c5F)c5nc(c(-c6cccc(S(=O)(=O)[O-])c6F)c6ccc3[nH]6)C=C5)C=C4)cc2)c1
REMARK SMILES IDX 19 1 18 2 17 3 16 4 15 5 13 6 14 7 12 8 7 9 8 10 9 11 11 12
REMARK SMILES IDX 10 13 6 14 1 15 2 16 3 17 87 18 4 19 5 20 20 21 21 22 22 23
REMARK SMILES IDX 23 24 24 25 25 26 86 27 26 28 85 29 27 30 28 31 29 32 79 33
REMARK SMILES IDX 30 34 84 35 78 36 80 37 31 38 83 39 77 40 76 41 32 43 64 44
REMARK SMILES IDX 44 45 63 46 45 47 48 48 62 49 81 50 46 51 47 52 61 54 82 55
REMARK SMILES IDX 49 56 33 57 34 58 42 59 35 60 37 61 43 62 36 63 38 64 39 65
REMARK SMILES IDX 40 66 41 67 65 68 66 69 74 70 67 71 69 72 75 73 68 74 70 75
REMARK SMILES IDX 71 76 72 77 73 78 50 79 51 80 59 81 52 82 54 83 60 84 53 85
REMARK SMILES IDX 55 86 56 87 57 88 58 89
REMARK H PARENT 80 42 48 53
REMARK Flexibility Score: inf
ROOT
ATOM      1  C   UNL A   1      32.688  29.402  25.783  1.00  0.00     0.202 C 
ENDROOT
BRANCH   1   2
ATOM      2  O   UNL A   1      33.006  29.439  24.413  1.00  0.00    -0.374 OA
BRANCH   2   3
ATOM      3  C   UNL A   1      34.224  28.844  24.001  1.00  0.00     0.202 C 
BRANCH   3   4
ATOM      4  C   UNL A   1      33.969  28.357  22.602  1.00  0.00     0.261 C 
BRANCH   4   5
ATOM      5  O   UNL A   1      33.629  26.960  22.627  1.00  0.00    -0.458 OA
BRANCH   5   6
ATOM      6  C   UNL A   1      32.599  26.457  21.893  1.00  0.00     0.357 C 
ATOM      7  O   UNL A   1      32.685  25.803  20.883  1.00  0.00    -0.244 OA
BRANCH   6   8
ATOM      8  C   UNL A   1      31.293  26.719  22.618  1.00  0.00     0.156 A 
ATOM      9  C   UNL A   1      30.760  25.877  23.616  1.00  0.00     0.015 A 
ATOM     10  C   UNL A   1      29.476  26.187  24.089  1.00  0.00     0.013 A 
ATOM     11  C   UNL A   1      28.794  27.303  23.612  1.00  0.00     0.021 A 
ATOM     12  N   UNL A   1      30.624  27.815  22.147  1.00  0.00    -0.249 NA
ATOM     13  C   UNL A   1      29.411  28.088  22.659  1.00  0.00     0.112 A 
BRANCH   9  14
ATOM     14  C   UNL A   1      31.484  24.747  24.214  1.00  0.00    -0.016 A 
ATOM     15  C   UNL A   1      32.377  21.110  23.438  1.00  0.00     0.044 C 
ATOM     16  C   UNL A   1      32.318  22.453  24.104  1.00  0.00    -0.051 A 
ATOM     17  C   UNL A   1      33.193  22.737  25.157  1.00  0.00     0.003 A 
ATOM     18  C   UNL A   1      31.464  23.464  23.636  1.00  0.00     0.012 A 
ATOM     19  C   UNL A   1      33.191  23.991  25.761  1.00  0.00     0.001 A 
ATOM     20  C   UNL A   1      32.339  24.987  25.300  1.00  0.00     0.009 A 
ENDBRANCH   9  14
ENDBRANCH   6   8
ENDBRANCH   5   6
ENDBRANCH   4   5
ENDBRANCH   3   4
ENDBRANCH   2   3
ENDBRANCH   1   2
BRANCH   1  21
ATOM     21  C   UNL A   1      32.986  30.724  26.490  1.00  0.00     0.261 C 
BRANCH  21  22
ATOM     22  O   UNL A   1      33.687  30.471  27.725  1.00  0.00    -0.460 OA
BRANCH  22  23
ATOM     23  C   UNL A   1      34.897  31.094  27.837  1.00  0.00     0.338 C 
ATOM     24  O   UNL A   1      35.089  32.263  27.548  1.00  0.00    -0.246 OA
BRANCH  23  25
ATOM     25  C   UNL A   1      35.967  30.089  28.112  1.00  0.00     0.060 A 
ATOM     26  C   UNL A   1      36.151  29.597  29.416  1.00  0.00     0.016 A 
ATOM     27  C   UNL A   1      36.961  29.894  27.157  1.00  0.00     0.016 A 
ATOM     28  C   UNL A   1      37.397  29.084  29.808  1.00  0.00     0.010 A 
ATOM     29  C   UNL A   1      38.213  29.493  27.580  1.00  0.00     0.010 A 
ATOM     30  C   UNL A   1      38.459  29.137  28.920  1.00  0.00    -0.014 A 
BRANCH  30  31
ATOM     31  C   UNL A   1      39.860  28.813  29.209  1.00  0.00     0.031 A 
ATOM     32  C   UNL A   1      40.253  27.411  28.933  1.00  0.00     0.074 A 
ATOM     33  C   UNL A   1      40.830  29.757  29.327  1.00  0.00     0.049 A 
ATOM     34  N   UNL A   1      41.460  26.974  28.957  1.00  0.00    -0.248 NA
ATOM     35  C   UNL A   1      39.276  26.365  28.638  1.00  0.00     0.031 C 
ATOM     36  C   UNL A   1      42.181  29.660  28.761  1.00  0.00     0.029 A 
ATOM     37  N   UNL A   1      40.848  31.016  29.951  1.00  0.00    -0.354 N 
ATOM     38  C   UNL A   1      41.463  25.715  28.408  1.00  0.00     0.074 A 
ATOM     39  C   UNL A   1      40.075  25.336  28.347  1.00  0.00     0.031 C 
ATOM     40  C   UNL A   1      42.939  30.660  29.227  1.00  0.00     0.029 A 
ATOM     41  C   UNL A   1      42.186  31.314  30.275  1.00  0.00     0.049 A 
ATOM     42  H   UNL A   1      40.066  31.588  30.128  1.00  0.00     0.167 HD
ATOM     43  C   UNL A   1      42.653  25.215  27.974  1.00  0.00     0.034 A 
ATOM     44  C   UNL A   1      42.596  31.552  31.552  1.00  0.00     0.034 A 
ATOM     45  C   UNL A   1      43.768  26.102  28.387  1.00  0.00     0.049 A 
ATOM     46  C   UNL A   1      43.664  30.581  31.989  1.00  0.00     0.074 A 
ATOM     47  C   UNL A   1      44.598  27.018  27.764  1.00  0.00     0.029 A 
ATOM     48  N   UNL A   1      43.949  26.315  29.745  1.00  0.00    -0.354 N 
ATOM     49  N   UNL A   1      44.264  29.737  31.194  1.00  0.00    -0.248 NA
ATOM     50  C   UNL A   1      44.071  30.414  33.381  1.00  0.00     0.031 C 
ATOM     51  C   UNL A   1      45.288  27.762  28.783  1.00  0.00     0.029 A 
ATOM     52  C   UNL A   1      44.909  27.271  30.022  1.00  0.00     0.049 A 
ATOM     53  H   UNL A   1      43.445  25.835  30.441  1.00  0.00     0.167 HD
ATOM     54  C   UNL A   1      44.843  28.754  31.946  1.00  0.00     0.074 A 
ATOM     55  C   UNL A   1      44.786  29.279  33.305  1.00  0.00     0.031 C 
ATOM     56  C   UNL A   1      45.221  27.543  31.428  1.00  0.00     0.034 A 
BRANCH  43  57
ATOM     57  C   UNL A   1      42.850  23.994  27.082  1.00  0.00     0.023 A 
ATOM     58  C   UNL A   1      43.643  24.180  25.927  1.00  0.00     0.012 A 
ATOM     59  C   UNL A   1      42.292  22.697  27.232  1.00  0.00     0.148 A 
ATOM     60  C   UNL A   1      43.846  23.173  24.975  1.00  0.00     0.002 A 
ATOM     61  C   UNL A   1      42.504  21.682  26.291  1.00  0.00     0.091 A 
ATOM     62  F   UNL A   1      41.520  22.406  28.274  1.00  0.00    -0.205 F 
ATOM     63  C   UNL A   1      43.275  21.922  25.155  1.00  0.00     0.022 A 
BRANCH  61  64
ATOM     64  S   UNL A   1      41.786  20.031  26.450  1.00  0.00     0.127 S 
ATOM     65  O   UNL A   1      40.355  20.305  26.305  1.00  0.00    -0.237 OA
ATOM     66  O   UNL A   1      42.381  19.319  25.320  1.00  0.00    -0.237 OA
ATOM     67  O   UNL A   1      42.172  19.527  27.763  1.00  0.00    -0.744 OA
ENDBRANCH  61  64
ENDBRANCH  43  57
BRANCH  44  68
ATOM     68  C   UNL A   1      41.526  32.156  32.407  1.00  0.00     0.023 A 
ATOM     69  C   UNL A   1      41.212  33.514  32.180  1.00  0.00     0.012 A 
ATOM     70  C   UNL A   1      40.560  31.333  33.017  1.00  0.00     0.148 A 
ATOM     71  C   UNL A   1      39.913  33.991  32.366  1.00  0.00     0.002 A 
ATOM     72  C   UNL A   1      39.264  31.813  33.192  1.00  0.00     0.091 A 
ATOM     73  F   UNL A   1      40.904  30.076  33.325  1.00  0.00    -0.205 F 
ATOM     74  C   UNL A   1      38.927  33.124  32.818  1.00  0.00     0.022 A 
BRANCH  72  75
ATOM     75  S   UNL A   1      37.913  30.786  33.772  1.00  0.00     0.127 S 
ATOM     76  O   UNL A   1      38.237  30.651  35.190  1.00  0.00    -0.237 OA
ATOM     77  O   UNL A   1      36.747  31.627  33.494  1.00  0.00    -0.237 OA
ATOM     78  O   UNL A   1      37.980  29.561  32.991  1.00  0.00    -0.744 OA
ENDBRANCH  72  75
ENDBRANCH  44  68
BRANCH  56  79
ATOM     79  C   UNL A   1      45.849  26.468  32.296  1.00  0.00     0.023 A 
ATOM     80  C   UNL A   1      47.244  26.274  32.276  1.00  0.00     0.012 A 
ATOM     81  C   UNL A   1      45.093  25.563  33.081  1.00  0.00     0.148 A 
ATOM     82  C   UNL A   1      47.867  25.330  33.097  1.00  0.00     0.002 A 
ATOM     83  C   UNL A   1      45.707  24.559  33.817  1.00  0.00     0.091 A 
ATOM     84  F   UNL A   1      43.766  25.679  33.157  1.00  0.00    -0.205 F 
ATOM     85  C   UNL A   1      47.098  24.471  33.867  1.00  0.00     0.022 A 
BRANCH  83  86
ATOM     86  S   UNL A   1      44.770  23.280  34.666  1.00  0.00     0.127 S 
ATOM     87  O   UNL A   1      45.840  22.374  35.091  1.00  0.00    -0.237 OA
ATOM     88  O   UNL A   1      44.146  24.038  35.748  1.00  0.00    -0.237 OA
ATOM     89  O   UNL A   1      43.857  22.719  33.683  1.00  0.00    -0.744 OA
ENDBRANCH  83  86
ENDBRANCH  56  79
ENDBRANCH  30  31
ENDBRANCH  23  25
ENDBRANCH  22  23
ENDBRANCH  21  22
ENDBRANCH   1  21
TORSDOF 18
ENDMDL
