MODEL 1
REMARK VINA RESULT:     -10.9      0.000      0.000
REMARK SMILES Cc1nc(C[NH2+][C@@H](C(=O)OCCOCCOC(=O)c2ccc(-c3c4nc(c(-c5cccc(S(=O)(=O)[O-])c5F)c5ccc([nH]5)c(-c5cccc(S(=O)(=O)[O-])c5F)c5nc(c(-c6cccc(S(=O)(=O)[O-])c6F)c6ccc3[nH]6)C=C5)C=C4)cc2)c2ccccc2)sc1C
REMARK SMILES IDX 13 1 12 2 11 3 10 4 8 5 9 6 7 7 6 8 5 11 4 12 1 13 2 14 3 15
REMARK SMILES IDX 89 16 88 17 90 18 82 19 83 20 87 21 84 22 86 23 85 24 14 25
REMARK SMILES IDX 15 26 16 27 17 28 18 29 19 30 20 31 81 32 21 33 80 34 22 35
REMARK SMILES IDX 23 36 24 37 74 38 25 39 79 40 73 41 75 42 26 43 78 44 72 45
REMARK SMILES IDX 71 46 27 48 59 49 39 50 58 51 40 52 43 53 57 54 76 55 41 56
REMARK SMILES IDX 42 57 56 59 77 60 44 61 28 62 29 63 37 64 30 65 32 66 38 67
REMARK SMILES IDX 31 68 33 69 34 70 35 71 36 72 60 73 61 74 69 75 62 76 64 77
REMARK SMILES IDX 70 78 63 79 65 80 66 81 67 82 68 83 45 84 46 85 54 86 47 87
REMARK SMILES IDX 49 88 55 89 48 90 50 91 51 92 52 93 53 94
REMARK H PARENT 6 9 6 10 75 47 43 58
REMARK Flexibility Score: inf
ROOT
ATOM      1  O   UNL A   1      32.203  30.476  26.109  1.00  0.00    -0.374 OA
ENDROOT
BRANCH   1   2
ATOM      2  C   UNL A   1      32.496  29.440  27.050  1.00  0.00     0.202 C 
BRANCH   2   3
ATOM      3  C   UNL A   1      31.553  28.236  27.066  1.00  0.00     0.261 C 
BRANCH   3   4
ATOM      4  O   UNL A   1      31.391  27.722  25.732  1.00  0.00    -0.459 OA
BRANCH   4   5
ATOM      5  C   UNL A   1      30.729  26.538  25.631  1.00  0.00     0.369 C 
ATOM      6  O   UNL A   1      30.315  25.912  26.604  1.00  0.00    -0.245 OA
BRANCH   5   7
ATOM      7  C   UNL A   1      30.495  26.077  24.159  1.00  0.00     0.325 C 
BRANCH   7   8
ATOM      8  N   UNL A   1      31.639  25.429  23.474  1.00  0.00    -0.325 N 
ATOM      9  H   UNL A   1      31.435  25.402  22.475  1.00  0.00     0.347 HD
ATOM     10  H   UNL A   1      32.461  25.987  23.705  1.00  0.00     0.347 HD
BRANCH   8  11
ATOM     11  C   UNL A   1      31.936  24.059  23.916  1.00  0.00     0.330 C 
BRANCH  11  12
ATOM     12  C   UNL A   1      33.418  23.880  24.165  1.00  0.00     0.148 A 
ATOM     13  C   UNL A   1      36.672  22.880  22.996  1.00  0.00     0.068 C 
ATOM     14  C   UNL A   1      35.562  23.378  23.846  1.00  0.00     0.052 A 
ATOM     15  N   UNL A   1      34.297  23.461  23.276  1.00  0.00    -0.240 NA
ATOM     16  C   UNL A   1      35.633  23.774  25.170  1.00  0.00     0.025 A 
ATOM     17  S   UNL A   1      34.076  24.224  25.709  1.00  0.00    -0.118 S 
ATOM     18  C   UNL A   1      36.807  23.824  26.086  1.00  0.00     0.058 C 
ENDBRANCH  11  12
ENDBRANCH   8  11
ENDBRANCH   7   8
BRANCH   7  19
ATOM     19  C   UNL A   1      29.992  27.293  23.364  1.00  0.00     0.021 A 
ATOM     20  C   UNL A   1      30.856  28.159  22.669  1.00  0.00     0.010 A 
ATOM     21  C   UNL A   1      28.634  27.647  23.448  1.00  0.00     0.010 A 
ATOM     22  C   UNL A   1      30.387  29.355  22.119  1.00  0.00     0.001 A 
ATOM     23  C   UNL A   1      28.165  28.840  22.891  1.00  0.00     0.001 A 
ATOM     24  C   UNL A   1      29.044  29.700  22.240  1.00  0.00     0.000 A 
ENDBRANCH   7  19
ENDBRANCH   5   7
ENDBRANCH   4   5
ENDBRANCH   3   4
ENDBRANCH   2   3
ENDBRANCH   1   2
BRANCH   1  25
ATOM     25  C   UNL A   1      31.433  31.580  26.574  1.00  0.00     0.202 C 
BRANCH  25  26
ATOM     26  C   UNL A   1      32.152  32.923  26.761  1.00  0.00     0.261 C 
BRANCH  26  27
ATOM     27  O   UNL A   1      32.885  33.008  27.991  1.00  0.00    -0.460 OA
BRANCH  27  28
ATOM     28  C   UNL A   1      34.023  33.745  27.931  1.00  0.00     0.338 C 
ATOM     29  O   UNL A   1      34.119  34.942  27.697  1.00  0.00    -0.246 OA
BRANCH  28  30
ATOM     30  C   UNL A   1      35.158  32.918  28.378  1.00  0.00     0.060 A 
ATOM     31  C   UNL A   1      34.906  31.615  28.821  1.00  0.00     0.016 A 
ATOM     32  C   UNL A   1      36.453  33.429  28.385  1.00  0.00     0.016 A 
ATOM     33  C   UNL A   1      35.955  30.821  29.283  1.00  0.00     0.010 A 
ATOM     34  C   UNL A   1      37.507  32.624  28.816  1.00  0.00     0.010 A 
ATOM     35  C   UNL A   1      37.261  31.329  29.306  1.00  0.00    -0.014 A 
BRANCH  35  36
ATOM     36  C   UNL A   1      38.352  30.588  29.989  1.00  0.00     0.031 A 
ATOM     37  C   UNL A   1      38.699  30.965  31.405  1.00  0.00     0.074 A 
ATOM     38  C   UNL A   1      39.043  29.623  29.356  1.00  0.00     0.049 A 
ATOM     39  N   UNL A   1      39.678  30.541  32.160  1.00  0.00    -0.248 NA
ATOM     40  C   UNL A   1      37.837  31.971  32.049  1.00  0.00     0.031 C 
ATOM     41  C   UNL A   1      38.806  29.167  27.988  1.00  0.00     0.029 A 
ATOM     42  N   UNL A   1      40.114  28.873  29.779  1.00  0.00    -0.354 N 
ATOM     43  C   UNL A   1      39.579  31.262  33.344  1.00  0.00     0.074 A 
ATOM     44  C   UNL A   1      38.459  32.164  33.202  1.00  0.00     0.031 C 
ATOM     45  C   UNL A   1      39.719  28.232  27.674  1.00  0.00     0.029 A 
ATOM     46  C   UNL A   1      40.627  28.050  28.804  1.00  0.00     0.049 A 
ATOM     47  H   UNL A   1      40.478  28.920  30.692  1.00  0.00     0.167 HD
ATOM     48  C   UNL A   1      40.342  31.171  34.459  1.00  0.00     0.034 A 
ATOM     49  C   UNL A   1      41.722  27.262  28.815  1.00  0.00     0.034 A 
ATOM     50  C   UNL A   1      41.430  30.246  34.613  1.00  0.00     0.049 A 
ATOM     51  C   UNL A   1      42.561  27.185  30.065  1.00  0.00     0.074 A 
ATOM     52  C   UNL A   1      42.227  30.032  35.724  1.00  0.00     0.029 A 
ATOM     53  N   UNL A   1      41.884  29.387  33.625  1.00  0.00    -0.354 N 
ATOM     54  N   UNL A   1      42.393  27.795  31.213  1.00  0.00    -0.248 NA
ATOM     55  C   UNL A   1      43.724  26.286  30.031  1.00  0.00     0.031 C 
ATOM     56  C   UNL A   1      43.183  29.067  35.396  1.00  0.00     0.029 A 
ATOM     57  C   UNL A   1      42.955  28.648  34.095  1.00  0.00     0.049 A 
ATOM     58  H   UNL A   1      41.500  29.313  32.721  1.00  0.00     0.167 HD
ATOM     59  C   UNL A   1      43.399  27.321  32.050  1.00  0.00     0.074 A 
ATOM     60  C   UNL A   1      44.165  26.364  31.279  1.00  0.00     0.031 C 
ATOM     61  C   UNL A   1      43.671  27.656  33.335  1.00  0.00     0.034 A 
BRANCH  48  62
ATOM     62  C   UNL A   1      40.011  32.084  35.611  1.00  0.00     0.023 A 
ATOM     63  C   UNL A   1      40.663  33.327  35.733  1.00  0.00     0.012 A 
ATOM     64  C   UNL A   1      39.018  31.729  36.545  1.00  0.00     0.148 A 
ATOM     65  C   UNL A   1      40.360  34.187  36.789  1.00  0.00     0.002 A 
ATOM     66  C   UNL A   1      38.685  32.612  37.565  1.00  0.00     0.091 A 
ATOM     67  F   UNL A   1      38.426  30.532  36.426  1.00  0.00    -0.205 F 
ATOM     68  C   UNL A   1      39.364  33.835  37.696  1.00  0.00     0.022 A 
BRANCH  66  69
ATOM     69  S   UNL A   1      37.362  32.288  38.735  1.00  0.00     0.127 S 
ATOM     70  O   UNL A   1      37.783  33.089  39.884  1.00  0.00    -0.237 OA
ATOM     71  O   UNL A   1      36.193  32.807  38.026  1.00  0.00    -0.237 OA
ATOM     72  O   UNL A   1      37.357  30.848  38.947  1.00  0.00    -0.744 OA
ENDBRANCH  66  69
ENDBRANCH  48  62
BRANCH  49  73
ATOM     73  C   UNL A   1      42.076  26.457  27.611  1.00  0.00     0.023 A 
ATOM     74  C   UNL A   1      42.729  27.077  26.527  1.00  0.00     0.012 A 
ATOM     75  C   UNL A   1      41.776  25.083  27.535  1.00  0.00     0.148 A 
ATOM     76  C   UNL A   1      43.045  26.353  25.377  1.00  0.00     0.002 A 
ATOM     77  C   UNL A   1      42.145  24.355  26.411  1.00  0.00     0.091 A 
ATOM     78  F   UNL A   1      41.141  24.514  28.570  1.00  0.00    -0.205 F 
ATOM     79  C   UNL A   1      42.763  24.990  25.323  1.00  0.00     0.022 A 
BRANCH  77  80
ATOM     80  S   UNL A   1      41.938  22.574  26.304  1.00  0.00     0.127 S 
ATOM     81  O   UNL A   1      40.483  22.441  26.309  1.00  0.00    -0.237 OA
ATOM     82  O   UNL A   1      42.581  22.274  25.023  1.00  0.00    -0.237 OA
ATOM     83  O   UNL A   1      42.627  22.026  27.464  1.00  0.00    -0.744 OA
ENDBRANCH  77  80
ENDBRANCH  49  73
BRANCH  61  84
ATOM     84  C   UNL A   1      44.805  26.941  34.026  1.00  0.00     0.023 A 
ATOM     85  C   UNL A   1      46.080  27.536  34.095  1.00  0.00     0.012 A 
ATOM     86  C   UNL A   1      44.577  25.715  34.680  1.00  0.00     0.148 A 
ATOM     87  C   UNL A   1      47.119  26.904  34.777  1.00  0.00     0.002 A 
ATOM     88  C   UNL A   1      45.602  25.117  35.403  1.00  0.00     0.091 A 
ATOM     89  F   UNL A   1      43.360  25.158  34.589  1.00  0.00    -0.205 F 
ATOM     90  C   UNL A   1      46.877  25.703  35.441  1.00  0.00     0.022 A 
BRANCH  88  91
ATOM     91  S   UNL A   1      45.355  23.625  36.373  1.00  0.00     0.127 S 
ATOM     92  O   UNL A   1      46.686  23.020  36.330  1.00  0.00    -0.237 OA
ATOM     93  O   UNL A   1      44.972  24.164  37.677  1.00  0.00    -0.237 OA
ATOM     94  O   UNL A   1      44.307  22.873  35.697  1.00  0.00    -0.744 OA
ENDBRANCH  88  91
ENDBRANCH  61  84
ENDBRANCH  35  36
ENDBRANCH  28  30
ENDBRANCH  27  28
ENDBRANCH  26  27
ENDBRANCH  25  26
ENDBRANCH   1  25
TORSDOF 21
ENDMDL
MODEL 2
REMARK VINA RESULT:     -10.9      1.605      3.489
REMARK SMILES Cc1nc(C[NH2+][C@@H](C(=O)OCCOCCOC(=O)c2ccc(-c3c4nc(c(-c5cccc(S(=O)(=O)[O-])c5F)c5ccc([nH]5)c(-c5cccc(S(=O)(=O)[O-])c5F)c5nc(c(-c6cccc(S(=O)(=O)[O-])c6F)c6ccc3[nH]6)C=C5)C=C4)cc2)c2ccccc2)sc1C
REMARK SMILES IDX 13 1 12 2 11 3 10 4 8 5 9 6 7 7 6 8 5 11 4 12 1 13 2 14 3 15
REMARK SMILES IDX 89 16 88 17 90 18 82 19 83 20 87 21 84 22 86 23 85 24 14 25
REMARK SMILES IDX 15 26 16 27 17 28 18 29 19 30 20 31 81 32 21 33 80 34 22 35
REMARK SMILES IDX 23 36 24 37 74 38 25 39 79 40 73 41 75 42 26 43 78 44 72 45
REMARK SMILES IDX 71 46 27 48 59 49 39 50 58 51 40 52 43 53 57 54 76 55 41 56
REMARK SMILES IDX 42 57 56 59 77 60 44 61 28 62 29 63 37 64 30 65 32 66 38 67
REMARK SMILES IDX 31 68 33 69 34 70 35 71 36 72 60 73 61 74 69 75 62 76 64 77
REMARK SMILES IDX 70 78 63 79 65 80 66 81 67 82 68 83 45 84 46 85 54 86 47 87
REMARK SMILES IDX 49 88 55 89 48 90 50 91 51 92 52 93 53 94
REMARK H PARENT 6 9 6 10 75 47 43 58
REMARK Flexibility Score: inf
ROOT
ATOM      1  O   UNL A   1      32.701  30.772  26.377  1.00  0.00    -0.374 OA
ENDROOT
BRANCH   1   2
ATOM      2  C   UNL A   1      32.647  29.472  26.969  1.00  0.00     0.202 C 
BRANCH   2   3
ATOM      3  C   UNL A   1      32.395  28.294  26.027  1.00  0.00     0.261 C 
BRANCH   3   4
ATOM      4  O   UNL A   1      32.235  27.083  26.788  1.00  0.00    -0.459 OA
BRANCH   4   5
ATOM      5  C   UNL A   1      32.036  25.950  26.061  1.00  0.00     0.369 C 
ATOM      6  O   UNL A   1      31.371  24.999  26.463  1.00  0.00    -0.245 OA
BRANCH   5   7
ATOM      7  C   UNL A   1      32.687  25.995  24.644  1.00  0.00     0.325 C 
BRANCH   7   8
ATOM      8  N   UNL A   1      31.772  25.855  23.486  1.00  0.00    -0.325 N 
ATOM      9  H   UNL A   1      32.068  25.042  22.946  1.00  0.00     0.347 HD
ATOM     10  H   UNL A   1      30.834  25.764  23.874  1.00  0.00     0.347 HD
BRANCH   8  11
ATOM     11  C   UNL A   1      31.731  27.012  22.581  1.00  0.00     0.330 C 
BRANCH  11  12
ATOM     12  C   UNL A   1      30.375  27.683  22.622  1.00  0.00     0.148 A 
ATOM     13  C   UNL A   1      28.212  30.394  21.658  1.00  0.00     0.068 C 
ATOM     14  C   UNL A   1      28.736  29.145  22.265  1.00  0.00     0.052 A 
ATOM     15  N   UNL A   1      30.048  28.787  21.980  1.00  0.00    -0.240 NA
ATOM     16  C   UNL A   1      28.063  28.276  23.106  1.00  0.00     0.025 A 
ATOM     17  S   UNL A   1      29.113  27.011  23.567  1.00  0.00    -0.118 S 
ATOM     18  C   UNL A   1      26.664  28.337  23.615  1.00  0.00     0.058 C 
ENDBRANCH  11  12
ENDBRANCH   8  11
ENDBRANCH   7   8
BRANCH   7  19
ATOM     19  C   UNL A   1      33.793  24.928  24.605  1.00  0.00     0.021 A 
ATOM     20  C   UNL A   1      34.721  24.754  25.648  1.00  0.00     0.010 A 
ATOM     21  C   UNL A   1      33.987  24.191  23.423  1.00  0.00     0.010 A 
ATOM     22  C   UNL A   1      35.824  23.909  25.497  1.00  0.00     0.001 A 
ATOM     23  C   UNL A   1      35.087  23.341  23.277  1.00  0.00     0.001 A 
ATOM     24  C   UNL A   1      36.012  23.212  24.308  1.00  0.00     0.000 A 
ENDBRANCH   7  19
ENDBRANCH   5   7
ENDBRANCH   4   5
ENDBRANCH   3   4
ENDBRANCH   2   3
ENDBRANCH   1   2
BRANCH   1  25
ATOM     25  C   UNL A   1      31.584  31.631  26.589  1.00  0.00     0.202 C 
BRANCH  25  26
ATOM     26  C   UNL A   1      31.863  33.126  26.793  1.00  0.00     0.261 C 
BRANCH  26  27
ATOM     27  O   UNL A   1      32.511  33.417  28.040  1.00  0.00    -0.460 OA
BRANCH  27  28
ATOM     28  C   UNL A   1      33.666  34.122  27.934  1.00  0.00     0.338 C 
ATOM     29  O   UNL A   1      33.788  35.307  27.657  1.00  0.00    -0.246 OA
BRANCH  28  30
ATOM     30  C   UNL A   1      34.787  33.283  28.392  1.00  0.00     0.060 A 
ATOM     31  C   UNL A   1      34.505  32.033  28.954  1.00  0.00     0.016 A 
ATOM     32  C   UNL A   1      36.101  33.733  28.292  1.00  0.00     0.016 A 
ATOM     33  C   UNL A   1      35.543  31.231  29.427  1.00  0.00     0.010 A 
ATOM     34  C   UNL A   1      37.142  32.917  28.734  1.00  0.00     0.010 A 
ATOM     35  C   UNL A   1      36.868  31.678  29.343  1.00  0.00    -0.014 A 
BRANCH  35  36
ATOM     36  C   UNL A   1      37.962  30.946  30.029  1.00  0.00     0.031 A 
ATOM     37  C   UNL A   1      38.284  31.307  31.455  1.00  0.00     0.074 A 
ATOM     38  C   UNL A   1      38.677  30.001  29.393  1.00  0.00     0.049 A 
ATOM     39  N   UNL A   1      39.260  30.888  32.217  1.00  0.00    -0.248 NA
ATOM     40  C   UNL A   1      37.397  32.290  32.102  1.00  0.00     0.031 C 
ATOM     41  C   UNL A   1      38.467  29.561  28.015  1.00  0.00     0.029 A 
ATOM     42  N   UNL A   1      39.755  29.263  29.819  1.00  0.00    -0.354 N 
ATOM     43  C   UNL A   1      39.134  31.590  33.411  1.00  0.00     0.074 A 
ATOM     44  C   UNL A   1      38.001  32.476  33.266  1.00  0.00     0.031 C 
ATOM     45  C   UNL A   1      39.399  28.646  27.700  1.00  0.00     0.029 A 
ATOM     46  C   UNL A   1      40.295  28.462  28.839  1.00  0.00     0.049 A 
ATOM     47  H   UNL A   1      40.106  29.302  30.737  1.00  0.00     0.167 HD
ATOM     48  C   UNL A   1      39.883  31.495  34.534  1.00  0.00     0.034 A 
ATOM     49  C   UNL A   1      41.401  27.692  28.854  1.00  0.00     0.034 A 
ATOM     50  C   UNL A   1      40.984  30.586  34.689  1.00  0.00     0.049 A 
ATOM     51  C   UNL A   1      42.225  27.610  30.113  1.00  0.00     0.074 A 
ATOM     52  C   UNL A   1      41.769  30.369  35.808  1.00  0.00     0.029 A 
ATOM     53  N   UNL A   1      41.465  29.750  33.695  1.00  0.00    -0.354 N 
ATOM     54  N   UNL A   1      42.032  28.201  31.268  1.00  0.00    -0.248 NA
ATOM     55  C   UNL A   1      43.403  26.730  30.082  1.00  0.00     0.031 C 
ATOM     56  C   UNL A   1      42.745  29.425  35.479  1.00  0.00     0.029 A 
ATOM     57  C   UNL A   1      42.542  29.021  34.169  1.00  0.00     0.049 A 
ATOM     58  H   UNL A   1      41.094  29.682  32.785  1.00  0.00     0.167 HD
ATOM     59  C   UNL A   1      43.035  27.731  32.111  1.00  0.00     0.074 A 
ATOM     60  C   UNL A   1      43.826  26.797  31.337  1.00  0.00     0.031 C 
ATOM     61  C   UNL A   1      43.284  28.052  33.405  1.00  0.00     0.034 A 
BRANCH  48  62
ATOM     62  C   UNL A   1      39.522  32.386  35.694  1.00  0.00     0.023 A 
ATOM     63  C   UNL A   1      38.766  31.872  36.767  1.00  0.00     0.012 A 
ATOM     64  C   UNL A   1      39.972  33.720  35.742  1.00  0.00     0.148 A 
ATOM     65  C   UNL A   1      38.432  32.682  37.853  1.00  0.00     0.002 A 
ATOM     66  C   UNL A   1      39.679  34.506  36.850  1.00  0.00     0.091 A 
ATOM     67  F   UNL A   1      40.669  34.197  34.701  1.00  0.00    -0.205 F 
ATOM     68  C   UNL A   1      38.897  33.993  37.899  1.00  0.00     0.022 A 
BRANCH  66  69
ATOM     69  S   UNL A   1      40.299  36.180  37.043  1.00  0.00     0.127 S 
ATOM     70  O   UNL A   1      41.731  35.944  37.222  1.00  0.00    -0.237 OA
ATOM     71  O   UNL A   1      39.937  36.789  35.764  1.00  0.00    -0.237 OA
ATOM     72  O   UNL A   1      39.609  36.733  38.200  1.00  0.00    -0.744 OA
ENDBRANCH  66  69
ENDBRANCH  48  62
BRANCH  49  73
ATOM     73  C   UNL A   1      41.785  26.910  27.643  1.00  0.00     0.023 A 
ATOM     74  C   UNL A   1      42.358  27.573  26.540  1.00  0.00     0.012 A 
ATOM     75  C   UNL A   1      41.590  25.517  27.580  1.00  0.00     0.148 A 
ATOM     76  C   UNL A   1      42.700  26.869  25.385  1.00  0.00     0.002 A 
ATOM     77  C   UNL A   1      41.985  24.813  26.448  1.00  0.00     0.091 A 
ATOM     78  F   UNL A   1      41.029  24.906  28.633  1.00  0.00    -0.205 F 
ATOM     79  C   UNL A   1      42.522  25.489  25.342  1.00  0.00     0.022 A 
BRANCH  77  80
ATOM     80  S   UNL A   1      41.913  23.021  26.353  1.00  0.00     0.127 S 
ATOM     81  O   UNL A   1      40.474  22.777  26.391  1.00  0.00    -0.237 OA
ATOM     82  O   UNL A   1      42.549  22.765  25.059  1.00  0.00    -0.237 OA
ATOM     83  O   UNL A   1      42.668  22.535  27.500  1.00  0.00    -0.744 OA
ENDBRANCH  77  80
ENDBRANCH  49  73
BRANCH  61  84
ATOM     84  C   UNL A   1      44.420  27.346  34.100  1.00  0.00     0.023 A 
ATOM     85  C   UNL A   1      45.687  27.954  34.184  1.00  0.00     0.012 A 
ATOM     86  C   UNL A   1      44.201  26.112  34.745  1.00  0.00     0.148 A 
ATOM     87  C   UNL A   1      46.729  27.329  34.870  1.00  0.00     0.002 A 
ATOM     88  C   UNL A   1      45.226  25.521  35.473  1.00  0.00     0.091 A 
ATOM     89  F   UNL A   1      42.991  25.543  34.641  1.00  0.00    -0.205 F 
ATOM     90  C   UNL A   1      46.495  26.122  35.525  1.00  0.00     0.022 A 
BRANCH  88  91
ATOM     91  S   UNL A   1      44.989  24.021  36.432  1.00  0.00     0.127 S 
ATOM     92  O   UNL A   1      46.333  23.446  36.422  1.00  0.00    -0.237 OA
ATOM     93  O   UNL A   1      44.560  24.547  37.727  1.00  0.00    -0.237 OA
ATOM     94  O   UNL A   1      43.976  23.248  35.726  1.00  0.00    -0.744 OA
ENDBRANCH  88  91
ENDBRANCH  61  84
ENDBRANCH  35  36
ENDBRANCH  28  30
ENDBRANCH  27  28
ENDBRANCH  26  27
ENDBRANCH  25  26
ENDBRANCH   1  25
TORSDOF 21
ENDMDL
MODEL 3
REMARK VINA RESULT:     -10.1      1.623      2.126
REMARK SMILES Cc1nc(C[NH2+][C@@H](C(=O)OCCOCCOC(=O)c2ccc(-c3c4nc(c(-c5cccc(S(=O)(=O)[O-])c5F)c5ccc([nH]5)c(-c5cccc(S(=O)(=O)[O-])c5F)c5nc(c(-c6cccc(S(=O)(=O)[O-])c6F)c6ccc3[nH]6)C=C5)C=C4)cc2)c2ccccc2)sc1C
REMARK SMILES IDX 13 1 12 2 11 3 10 4 8 5 9 6 7 7 6 8 5 11 4 12 1 13 2 14 3 15
REMARK SMILES IDX 89 16 88 17 90 18 82 19 83 20 87 21 84 22 86 23 85 24 14 25
REMARK SMILES IDX 15 26 16 27 17 28 18 29 19 30 20 31 81 32 21 33 80 34 22 35
REMARK SMILES IDX 23 36 24 37 74 38 25 39 79 40 73 41 75 42 26 43 78 44 72 45
REMARK SMILES IDX 71 46 27 48 59 49 39 50 58 51 40 52 43 53 57 54 76 55 41 56
REMARK SMILES IDX 42 57 56 59 77 60 44 61 28 62 29 63 37 64 30 65 32 66 38 67
REMARK SMILES IDX 31 68 33 69 34 70 35 71 36 72 60 73 61 74 69 75 62 76 64 77
REMARK SMILES IDX 70 78 63 79 65 80 66 81 67 82 68 83 45 84 46 85 54 86 47 87
REMARK SMILES IDX 49 88 55 89 48 90 50 91 51 92 52 93 53 94
REMARK H PARENT 6 9 6 10 75 47 43 58
REMARK Flexibility Score: inf
ROOT
ATOM      1  O   UNL A   1      33.002  30.576  27.215  1.00  0.00    -0.374 OA
ENDROOT
BRANCH   1   2
ATOM      2  C   UNL A   1      32.686  29.182  27.173  1.00  0.00     0.202 C 
BRANCH   2   3
ATOM      3  C   UNL A   1      31.582  28.754  26.206  1.00  0.00     0.261 C 
BRANCH   3   4
ATOM      4  O   UNL A   1      32.105  27.813  25.251  1.00  0.00    -0.459 OA
BRANCH   4   5
ATOM      5  C   UNL A   1      32.235  28.275  23.977  1.00  0.00     0.369 C 
ATOM      6  O   UNL A   1      33.069  29.115  23.647  1.00  0.00    -0.245 OA
BRANCH   5   7
ATOM      7  C   UNL A   1      31.262  27.597  22.965  1.00  0.00     0.325 C 
BRANCH   7   8
ATOM      8  N   UNL A   1      31.829  27.215  21.648  1.00  0.00    -0.325 N 
ATOM      9  H   UNL A   1      31.264  27.656  20.922  1.00  0.00     0.347 HD
ATOM     10  H   UNL A   1      32.799  27.530  21.655  1.00  0.00     0.347 HD
BRANCH   8  11
ATOM     11  C   UNL A   1      31.868  25.771  21.383  1.00  0.00     0.330 C 
BRANCH  11  12
ATOM     12  C   UNL A   1      32.448  25.019  22.563  1.00  0.00     0.148 A 
ATOM     13  C   UNL A   1      35.280  24.112  24.588  1.00  0.00     0.068 C 
ATOM     14  C   UNL A   1      33.904  24.225  24.044  1.00  0.00     0.052 A 
ATOM     15  N   UNL A   1      33.707  25.058  22.950  1.00  0.00    -0.240 NA
ATOM     16  C   UNL A   1      32.767  23.580  24.500  1.00  0.00     0.025 A 
ATOM     17  S   UNL A   1      31.441  24.008  23.513  1.00  0.00    -0.118 S 
ATOM     18  C   UNL A   1      32.604  22.632  25.638  1.00  0.00     0.058 C 
ENDBRANCH  11  12
ENDBRANCH   8  11
ENDBRANCH   7   8
BRANCH   7  19
ATOM     19  C   UNL A   1      30.047  28.523  22.794  1.00  0.00     0.021 A 
ATOM     20  C   UNL A   1      28.749  28.160  23.199  1.00  0.00     0.010 A 
ATOM     21  C   UNL A   1      30.199  29.721  22.073  1.00  0.00     0.010 A 
ATOM     22  C   UNL A   1      27.642  28.943  22.857  1.00  0.00     0.001 A 
ATOM     23  C   UNL A   1      29.093  30.505  21.738  1.00  0.00     0.001 A 
ATOM     24  C   UNL A   1      27.814  30.109  22.118  1.00  0.00     0.000 A 
ENDBRANCH   7  19
ENDBRANCH   5   7
ENDBRANCH   4   5
ENDBRANCH   3   4
ENDBRANCH   2   3
ENDBRANCH   1   2
BRANCH   1  25
ATOM     25  C   UNL A   1      31.961  31.489  26.880  1.00  0.00     0.202 C 
BRANCH  25  26
ATOM     26  C   UNL A   1      32.288  32.989  26.919  1.00  0.00     0.261 C 
BRANCH  26  27
ATOM     27  O   UNL A   1      32.657  33.455  28.224  1.00  0.00    -0.460 OA
BRANCH  27  28
ATOM     28  C   UNL A   1      33.796  34.192  28.268  1.00  0.00     0.338 C 
ATOM     29  O   UNL A   1      33.900  35.404  28.135  1.00  0.00    -0.246 OA
BRANCH  28  30
ATOM     30  C   UNL A   1      34.913  33.330  28.692  1.00  0.00     0.060 A 
ATOM     31  C   UNL A   1      34.624  32.143  29.374  1.00  0.00     0.016 A 
ATOM     32  C   UNL A   1      36.233  33.699  28.443  1.00  0.00     0.016 A 
ATOM     33  C   UNL A   1      35.661  31.324  29.818  1.00  0.00     0.010 A 
ATOM     34  C   UNL A   1      37.270  32.863  28.858  1.00  0.00     0.010 A 
ATOM     35  C   UNL A   1      36.993  31.691  29.584  1.00  0.00    -0.014 A 
BRANCH  35  36
ATOM     36  C   UNL A   1      38.109  30.953  30.229  1.00  0.00     0.031 A 
ATOM     37  C   UNL A   1      38.483  31.311  31.644  1.00  0.00     0.074 A 
ATOM     38  C   UNL A   1      38.797  30.007  29.566  1.00  0.00     0.049 A 
ATOM     39  N   UNL A   1      39.484  30.887  32.369  1.00  0.00    -0.248 NA
ATOM     40  C   UNL A   1      37.623  32.295  32.324  1.00  0.00     0.031 C 
ATOM     41  C   UNL A   1      38.536  29.571  28.196  1.00  0.00     0.029 A 
ATOM     42  N   UNL A   1      39.887  29.265  29.952  1.00  0.00    -0.354 N 
ATOM     43  C   UNL A   1      39.403  31.587  33.568  1.00  0.00     0.074 A 
ATOM     44  C   UNL A   1      38.269  32.477  33.465  1.00  0.00     0.031 C 
ATOM     45  C   UNL A   1      39.453  28.653  27.846  1.00  0.00     0.029 A 
ATOM     46  C   UNL A   1      40.388  28.464  28.952  1.00  0.00     0.049 A 
ATOM     47  H   UNL A   1      40.271  29.301  30.857  1.00  0.00     0.167 HD
ATOM     48  C   UNL A   1      40.192  31.488  34.663  1.00  0.00     0.034 A 
ATOM     49  C   UNL A   1      41.492  27.691  28.925  1.00  0.00     0.034 A 
ATOM     50  C   UNL A   1      41.295  30.575  34.777  1.00  0.00     0.049 A 
ATOM     51  C   UNL A   1      42.361  27.604  30.154  1.00  0.00     0.074 A 
ATOM     52  C   UNL A   1      42.119  30.353  35.867  1.00  0.00     0.029 A 
ATOM     53  N   UNL A   1      41.737  29.739  33.765  1.00  0.00    -0.354 N 
ATOM     54  N   UNL A   1      42.212  28.193  31.316  1.00  0.00    -0.248 NA
ATOM     55  C   UNL A   1      43.534  26.720  30.079  1.00  0.00     0.031 C 
ATOM     56  C   UNL A   1      43.079  29.407  35.501  1.00  0.00     0.029 A 
ATOM     57  C   UNL A   1      42.828  29.006  34.198  1.00  0.00     0.049 A 
ATOM     58  H   UNL A   1      41.333  29.674  32.868  1.00  0.00     0.167 HD
ATOM     59  C   UNL A   1      43.242  27.718  32.122  1.00  0.00     0.074 A 
ATOM     60  C   UNL A   1      44.002  26.783  31.318  1.00  0.00     0.031 C 
ATOM     61  C   UNL A   1      43.539  28.036  33.407  1.00  0.00     0.034 A 
BRANCH  48  62
ATOM     62  C   UNL A   1      39.875  32.377  35.837  1.00  0.00     0.023 A 
ATOM     63  C   UNL A   1      40.521  33.623  35.970  1.00  0.00     0.012 A 
ATOM     64  C   UNL A   1      38.903  31.999  36.783  1.00  0.00     0.148 A 
ATOM     65  C   UNL A   1      40.231  34.462  37.046  1.00  0.00     0.002 A 
ATOM     66  C   UNL A   1      38.582  32.861  37.824  1.00  0.00     0.091 A 
ATOM     67  F   UNL A   1      38.317  30.800  36.652  1.00  0.00    -0.205 F 
ATOM     68  C   UNL A   1      39.255  34.087  37.965  1.00  0.00     0.022 A 
BRANCH  66  69
ATOM     69  S   UNL A   1      37.283  32.507  39.012  1.00  0.00     0.127 S 
ATOM     70  O   UNL A   1      37.579  31.119  39.367  1.00  0.00    -0.237 OA
ATOM     71  O   UNL A   1      37.561  33.479  40.069  1.00  0.00    -0.237 OA
ATOM     72  O   UNL A   1      36.026  32.715  38.307  1.00  0.00    -0.744 OA
ENDBRANCH  66  69
ENDBRANCH  48  62
BRANCH  49  73
ATOM     73  C   UNL A   1      41.830  26.910  27.700  1.00  0.00     0.023 A 
ATOM     74  C   UNL A   1      42.372  27.572  26.581  1.00  0.00     0.012 A 
ATOM     75  C   UNL A   1      41.622  25.518  27.639  1.00  0.00     0.148 A 
ATOM     76  C   UNL A   1      42.669  26.869  25.413  1.00  0.00     0.002 A 
ATOM     77  C   UNL A   1      41.973  24.815  26.493  1.00  0.00     0.091 A 
ATOM     78  F   UNL A   1      41.091  24.909  28.708  1.00  0.00    -0.205 F 
ATOM     79  C   UNL A   1      42.479  25.491  25.372  1.00  0.00     0.022 A 
BRANCH  77  80
ATOM     80  S   UNL A   1      41.884  23.024  26.394  1.00  0.00     0.127 S 
ATOM     81  O   UNL A   1      42.656  22.621  27.567  1.00  0.00    -0.237 OA
ATOM     82  O   UNL A   1      40.442  22.791  26.495  1.00  0.00    -0.237 OA
ATOM     83  O   UNL A   1      42.461  22.671  25.105  1.00  0.00    -0.744 OA
ENDBRANCH  77  80
ENDBRANCH  49  73
BRANCH  61  84
ATOM     84  C   UNL A   1      44.697  27.325  34.059  1.00  0.00     0.023 A 
ATOM     85  C   UNL A   1      44.487  26.114  34.749  1.00  0.00     0.012 A 
ATOM     86  C   UNL A   1      46.008  27.819  33.912  1.00  0.00     0.148 A 
ATOM     87  C   UNL A   1      45.562  25.425  35.310  1.00  0.00     0.002 A 
ATOM     88  C   UNL A   1      47.079  27.100  34.427  1.00  0.00     0.091 A 
ATOM     89  F   UNL A   1      46.184  28.981  33.265  1.00  0.00    -0.205 F 
ATOM     90  C   UNL A   1      46.857  25.910  35.138  1.00  0.00     0.022 A 
BRANCH  88  91
ATOM     91  S   UNL A   1      48.787  27.593  34.166  1.00  0.00     0.127 S 
ATOM     92  O   UNL A   1      49.263  27.753  35.539  1.00  0.00    -0.237 OA
ATOM     93  O   UNL A   1      49.338  26.436  33.460  1.00  0.00    -0.237 OA
ATOM     94  O   UNL A   1      48.737  28.816  33.377  1.00  0.00    -0.744 OA
ENDBRANCH  88  91
ENDBRANCH  61  84
ENDBRANCH  35  36
ENDBRANCH  28  30
ENDBRANCH  27  28
ENDBRANCH  26  27
ENDBRANCH  25  26
ENDBRANCH   1  25
TORSDOF 21
ENDMDL
