MODEL 1
REMARK VINA RESULT:     -11.3      0.000      0.000
REMARK SMILES Cc1ccc2c(c1)OCCN2c1sc(C(=O)OCCOCCOC(=O)c2ccc(-c3c4nc(c(-c5cccc(S(=O)(=O)[O-])c5F)c5ccc([nH]5)c(-c5cccc(S(=O)(=O)[O-])c5F)c5nc(c(-c6cccc(S(=O)(=O)[O-])c6F)c6ccc3[nH]6)C=C5)C=C4)cc2)cc1C
REMARK SMILES IDX 21 1 20 2 19 3 18 4 17 5 15 6 16 7 14 8 12 9 13 10 90 11
REMARK SMILES IDX 89 12 91 13 11 14 1 15 2 16 3 17 7 18 4 19 6 20 5 21 8 22
REMARK SMILES IDX 9 23 10 24 22 25 23 26 24 27 25 28 26 29 27 30 88 31 28 32
REMARK SMILES IDX 87 33 29 34 30 35 31 36 81 37 32 38 86 39 80 40 82 41 33 42
REMARK SMILES IDX 85 43 79 44 78 45 34 47 66 48 46 49 65 50 47 51 50 52 64 53
REMARK SMILES IDX 83 54 48 55 49 56 63 58 84 59 51 60 35 61 36 62 44 63 37 64
REMARK SMILES IDX 39 65 45 66 38 67 40 68 41 69 42 70 43 71 67 72 68 73 76 74
REMARK SMILES IDX 69 75 71 76 77 77 70 78 72 79 73 80 74 81 75 82 52 83 53 84
REMARK SMILES IDX 61 85 54 86 56 87 62 88 55 89 57 90 58 91 59 92 60 93
REMARK H PARENT 82 46 50 57
REMARK Flexibility Score: inf
ROOT
ATOM      1  C   UNL A   1      33.469  31.815  27.268  1.00  0.00     0.202 C 
ENDROOT
BRANCH   1   2
ATOM      2  O   UNL A   1      32.915  30.515  27.487  1.00  0.00    -0.374 OA
BRANCH   2   3
ATOM      3  C   UNL A   1      31.826  30.124  26.649  1.00  0.00     0.202 C 
BRANCH   3   4
ATOM      4  C   UNL A   1      32.166  29.153  25.514  1.00  0.00     0.261 C 
BRANCH   4   5
ATOM      5  O   UNL A   1      31.179  28.118  25.397  1.00  0.00    -0.459 OA
BRANCH   5   6
ATOM      6  C   UNL A   1      31.214  27.426  24.223  1.00  0.00     0.348 C 
ATOM      7  O   UNL A   1      31.184  27.939  23.111  1.00  0.00    -0.245 OA
BRANCH   6   8
ATOM      8  C   UNL A   1      31.418  26.008  24.440  1.00  0.00     0.114 A 
ATOM      9  C   UNL A   1      32.299  23.687  24.536  1.00  0.00     0.099 A 
ATOM     10  S   UNL A   1      32.278  24.986  23.388  1.00  0.00    -0.110 S 
ATOM     11  C   UNL A   1      31.379  23.939  25.553  1.00  0.00    -0.015 A 
ATOM     12  C   UNL A   1      30.915  25.291  25.504  1.00  0.00     0.033 A 
ATOM     13  C   UNL A   1      30.971  23.021  26.655  1.00  0.00     0.047 C 
BRANCH   9  14
ATOM     14  N   UNL A   1      33.101  22.586  24.393  1.00  0.00    -0.327 N 
ATOM     15  C   UNL A   1      38.648  22.131  25.939  1.00  0.00     0.044 C 
ATOM     16  C   UNL A   1      37.199  22.238  25.571  1.00  0.00    -0.047 A 
ATOM     17  C   UNL A   1      36.602  23.492  25.448  1.00  0.00     0.006 A 
ATOM     18  C   UNL A   1      36.435  21.103  25.297  1.00  0.00     0.052 A 
ATOM     19  C   UNL A   1      35.256  23.608  25.082  1.00  0.00     0.030 A 
ATOM     20  C   UNL A   1      35.089  21.223  24.923  1.00  0.00     0.143 A 
ATOM     21  C   UNL A   1      34.467  22.485  24.785  1.00  0.00     0.085 A 
ATOM     22  O   UNL A   1      34.439  20.025  24.716  1.00  0.00    -0.490 OA
ATOM     23  C   UNL A   1      33.017  20.174  24.747  1.00  0.00     0.251 C 
ATOM     24  C   UNL A   1      32.565  21.331  23.862  1.00  0.00     0.165 C 
ENDBRANCH   9  14
ENDBRANCH   6   8
ENDBRANCH   5   6
ENDBRANCH   4   5
ENDBRANCH   3   4
ENDBRANCH   2   3
ENDBRANCH   1   2
BRANCH   1  25
ATOM     25  C   UNL A   1      32.572  33.010  27.608  1.00  0.00     0.261 C 
BRANCH  25  26
ATOM     26  O   UNL A   1      33.313  34.243  27.580  1.00  0.00    -0.460 OA
BRANCH  26  27
ATOM     27  C   UNL A   1      33.349  34.924  28.752  1.00  0.00     0.338 C 
ATOM     28  O   UNL A   1      32.533  35.740  29.150  1.00  0.00    -0.246 OA
BRANCH  27  29
ATOM     29  C   UNL A   1      34.429  34.375  29.600  1.00  0.00     0.060 A 
ATOM     30  C   UNL A   1      34.164  33.738  30.815  1.00  0.00     0.016 A 
ATOM     31  C   UNL A   1      35.747  34.506  29.142  1.00  0.00     0.016 A 
ATOM     32  C   UNL A   1      35.224  33.201  31.553  1.00  0.00     0.010 A 
ATOM     33  C   UNL A   1      36.802  33.974  29.883  1.00  0.00     0.010 A 
ATOM     34  C   UNL A   1      36.547  33.300  31.084  1.00  0.00    -0.014 A 
BRANCH  34  35
ATOM     35  C   UNL A   1      37.641  32.573  31.771  1.00  0.00     0.031 A 
ATOM     36  C   UNL A   1      38.308  31.380  31.152  1.00  0.00     0.074 A 
ATOM     37  C   UNL A   1      38.001  32.981  33.003  1.00  0.00     0.049 A 
ATOM     38  N   UNL A   1      39.320  30.686  31.603  1.00  0.00    -0.248 NA
ATOM     39  C   UNL A   1      37.771  30.900  29.870  1.00  0.00     0.031 C 
ATOM     40  C   UNL A   1      37.373  34.081  33.738  1.00  0.00     0.029 A 
ATOM     41  N   UNL A   1      38.968  32.517  33.856  1.00  0.00    -0.354 N 
ATOM     42  C   UNL A   1      39.543  29.684  30.670  1.00  0.00     0.074 A 
ATOM     43  C   UNL A   1      38.546  29.847  29.632  1.00  0.00     0.031 C 
ATOM     44  C   UNL A   1      37.980  34.215  34.927  1.00  0.00     0.029 A 
ATOM     45  C   UNL A   1      39.030  33.209  35.043  1.00  0.00     0.049 A 
ATOM     46  H   UNL A   1      39.561  31.762  33.641  1.00  0.00     0.167 HD
ATOM     47  C   UNL A   1      40.508  28.734  30.669  1.00  0.00     0.034 A 
ATOM     48  C   UNL A   1      39.849  33.060  36.103  1.00  0.00     0.034 A 
ATOM     49  C   UNL A   1      41.508  28.588  31.693  1.00  0.00     0.049 A 
ATOM     50  C   UNL A   1      40.924  32.014  36.064  1.00  0.00     0.074 A 
ATOM     51  C   UNL A   1      42.571  27.701  31.733  1.00  0.00     0.029 A 
ATOM     52  N   UNL A   1      41.566  29.332  32.859  1.00  0.00    -0.354 N 
ATOM     53  N   UNL A   1      41.218  31.176  35.101  1.00  0.00    -0.248 NA
ATOM     54  C   UNL A   1      41.798  31.910  37.242  1.00  0.00     0.031 C 
ATOM     55  C   UNL A   1      43.264  27.900  32.930  1.00  0.00     0.029 A 
ATOM     56  C   UNL A   1      42.639  28.919  33.631  1.00  0.00     0.049 A 
ATOM     57  H   UNL A   1      40.937  30.049  33.105  1.00  0.00     0.167 HD
ATOM     58  C   UNL A   1      42.322  30.459  35.545  1.00  0.00     0.074 A 
ATOM     59  C   UNL A   1      42.654  30.970  36.859  1.00  0.00     0.031 C 
ATOM     60  C   UNL A   1      42.988  29.458  34.920  1.00  0.00     0.034 A 
BRANCH  47  61
ATOM     61  C   UNL A   1      40.591  27.810  29.485  1.00  0.00     0.023 A 
ATOM     62  C   UNL A   1      39.716  26.708  29.422  1.00  0.00     0.012 A 
ATOM     63  C   UNL A   1      41.432  28.095  28.392  1.00  0.00     0.148 A 
ATOM     64  C   UNL A   1      39.679  25.896  28.290  1.00  0.00     0.002 A 
ATOM     65  C   UNL A   1      41.371  27.296  27.255  1.00  0.00     0.091 A 
ATOM     66  F   UNL A   1      42.261  29.144  28.480  1.00  0.00    -0.205 F 
ATOM     67  C   UNL A   1      40.498  26.196  27.204  1.00  0.00     0.022 A 
BRANCH  65  68
ATOM     68  S   UNL A   1      42.342  27.622  25.780  1.00  0.00     0.127 S 
ATOM     69  O   UNL A   1      43.707  27.506  26.297  1.00  0.00    -0.237 OA
ATOM     70  O   UNL A   1      41.931  26.533  24.895  1.00  0.00    -0.237 OA
ATOM     71  O   UNL A   1      41.962  28.953  25.332  1.00  0.00    -0.744 OA
ENDBRANCH  65  68
ENDBRANCH  47  61
BRANCH  48  72
ATOM     72  C   UNL A   1      39.725  34.002  37.246  1.00  0.00     0.023 A 
ATOM     73  C   UNL A   1      40.146  35.335  37.083  1.00  0.00     0.012 A 
ATOM     74  C   UNL A   1      39.111  33.610  38.451  1.00  0.00     0.148 A 
ATOM     75  C   UNL A   1      39.965  36.264  38.107  1.00  0.00     0.002 A 
ATOM     76  C   UNL A   1      38.899  34.549  39.452  1.00  0.00     0.091 A 
ATOM     77  F   UNL A   1      38.719  32.334  38.576  1.00  0.00    -0.205 F 
ATOM     78  C   UNL A   1      39.333  35.875  39.286  1.00  0.00     0.022 A 
BRANCH  76  79
ATOM     79  S   UNL A   1      38.005  34.173  40.964  1.00  0.00     0.127 S 
ATOM     80  O   UNL A   1      36.827  33.478  40.448  1.00  0.00    -0.237 OA
ATOM     81  O   UNL A   1      38.962  33.322  41.671  1.00  0.00    -0.237 OA
ATOM     82  O   UNL A   1      37.745  35.456  41.602  1.00  0.00    -0.744 OA
ENDBRANCH  76  79
ENDBRANCH  48  72
BRANCH  60  83
ATOM     83  C   UNL A   1      44.153  28.830  35.634  1.00  0.00     0.023 A 
ATOM     84  C   UNL A   1      45.432  29.401  35.494  1.00  0.00     0.012 A 
ATOM     85  C   UNL A   1      43.960  27.765  36.535  1.00  0.00     0.148 A 
ATOM     86  C   UNL A   1      46.507  28.916  36.239  1.00  0.00     0.002 A 
ATOM     87  C   UNL A   1      45.027  27.309  37.297  1.00  0.00     0.091 A 
ATOM     88  F   UNL A   1      42.732  27.235  36.641  1.00  0.00    -0.205 F 
ATOM     89  C   UNL A   1      46.302  27.880  37.148  1.00  0.00     0.022 A 
BRANCH  87  90
ATOM     90  S   UNL A   1      44.851  26.031  38.548  1.00  0.00     0.127 S 
ATOM     91  O   UNL A   1      46.223  25.901  39.037  1.00  0.00    -0.237 OA
ATOM     92  O   UNL A   1      43.923  26.651  39.494  1.00  0.00    -0.237 OA
ATOM     93  O   UNL A   1      44.327  24.859  37.860  1.00  0.00    -0.744 OA
ENDBRANCH  87  90
ENDBRANCH  60  83
ENDBRANCH  34  35
ENDBRANCH  27  29
ENDBRANCH  26  27
ENDBRANCH  25  26
ENDBRANCH   1  25
TORSDOF 18
ENDMDL
MODEL 2
REMARK VINA RESULT:     -11.2      5.581      9.220
REMARK SMILES Cc1ccc2c(c1)OCCN2c1sc(C(=O)OCCOCCOC(=O)c2ccc(-c3c4nc(c(-c5cccc(S(=O)(=O)[O-])c5F)c5ccc([nH]5)c(-c5cccc(S(=O)(=O)[O-])c5F)c5nc(c(-c6cccc(S(=O)(=O)[O-])c6F)c6ccc3[nH]6)C=C5)C=C4)cc2)cc1C
REMARK SMILES IDX 21 1 20 2 19 3 18 4 17 5 15 6 16 7 14 8 12 9 13 10 90 11
REMARK SMILES IDX 89 12 91 13 11 14 1 15 2 16 3 17 7 18 4 19 6 20 5 21 8 22
REMARK SMILES IDX 9 23 10 24 22 25 23 26 24 27 25 28 26 29 27 30 88 31 28 32
REMARK SMILES IDX 87 33 29 34 30 35 31 36 81 37 32 38 86 39 80 40 82 41 33 42
REMARK SMILES IDX 85 43 79 44 78 45 34 47 66 48 46 49 65 50 47 51 50 52 64 53
REMARK SMILES IDX 83 54 48 55 49 56 63 58 84 59 51 60 35 61 36 62 44 63 37 64
REMARK SMILES IDX 39 65 45 66 38 67 40 68 41 69 42 70 43 71 67 72 68 73 76 74
REMARK SMILES IDX 69 75 71 76 77 77 70 78 72 79 73 80 74 81 75 82 52 83 53 84
REMARK SMILES IDX 61 85 54 86 56 87 62 88 55 89 57 90 58 91 59 92 60 93
REMARK H PARENT 82 46 50 57
REMARK Flexibility Score: inf
ROOT
ATOM      1  C   UNL A   1      35.903  20.094  25.324  1.00  0.00     0.202 C 
ENDROOT
BRANCH   1   2
ATOM      2  O   UNL A   1      35.120  19.117  24.633  1.00  0.00    -0.374 OA
BRANCH   2   3
ATOM      3  C   UNL A   1      33.736  19.032  24.979  1.00  0.00     0.202 C 
BRANCH   3   4
ATOM      4  C   UNL A   1      32.758  19.700  24.008  1.00  0.00     0.261 C 
BRANCH   4   5
ATOM      5  O   UNL A   1      33.193  21.019  23.652  1.00  0.00    -0.459 OA
BRANCH   5   6
ATOM      6  C   UNL A   1      32.285  21.748  22.942  1.00  0.00     0.348 C 
ATOM      7  O   UNL A   1      31.808  21.409  21.866  1.00  0.00    -0.245 OA
BRANCH   6   8
ATOM      8  C   UNL A   1      31.851  22.924  23.671  1.00  0.00     0.114 A 
ATOM      9  C   UNL A   1      31.089  25.185  24.362  1.00  0.00     0.099 A 
ATOM     10  S   UNL A   1      32.221  24.523  23.227  1.00  0.00    -0.110 S 
ATOM     11  C   UNL A   1      30.701  24.203  25.271  1.00  0.00    -0.015 A 
ATOM     12  C   UNL A   1      31.114  22.905  24.834  1.00  0.00     0.033 A 
ATOM     13  C   UNL A   1      29.863  24.376  26.493  1.00  0.00     0.047 C 
BRANCH   9  14
ATOM     14  N   UNL A   1      30.697  26.497  24.337  1.00  0.00    -0.327 N 
ATOM     15  C   UNL A   1      33.148  30.890  27.175  1.00  0.00     0.044 C 
ATOM     16  C   UNL A   1      32.534  29.757  26.411  1.00  0.00    -0.047 A 
ATOM     17  C   UNL A   1      32.801  28.440  26.784  1.00  0.00     0.006 A 
ATOM     18  C   UNL A   1      31.653  29.988  25.354  1.00  0.00     0.052 A 
ATOM     19  C   UNL A   1      32.217  27.371  26.094  1.00  0.00     0.030 A 
ATOM     20  C   UNL A   1      31.064  28.915  24.671  1.00  0.00     0.143 A 
ATOM     21  C   UNL A   1      31.315  27.572  25.037  1.00  0.00     0.085 A 
ATOM     22  O   UNL A   1      30.243  29.279  23.625  1.00  0.00    -0.490 OA
ATOM     23  C   UNL A   1      30.005  28.192  22.725  1.00  0.00     0.251 C 
ATOM     24  C   UNL A   1      29.592  26.933  23.481  1.00  0.00     0.165 C 
ENDBRANCH   9  14
ENDBRANCH   6   8
ENDBRANCH   5   6
ENDBRANCH   4   5
ENDBRANCH   3   4
ENDBRANCH   2   3
ENDBRANCH   1   2
BRANCH   1  25
ATOM     25  C   UNL A   1      37.276  20.420  24.727  1.00  0.00     0.261 C 
BRANCH  25  26
ATOM     26  O   UNL A   1      37.887  21.533  25.403  1.00  0.00    -0.460 OA
BRANCH  26  27
ATOM     27  C   UNL A   1      39.042  21.253  26.055  1.00  0.00     0.338 C 
ATOM     28  O   UNL A   1      39.631  20.184  26.073  1.00  0.00    -0.246 OA
BRANCH  27  29
ATOM     29  C   UNL A   1      39.617  22.507  26.586  1.00  0.00     0.060 A 
ATOM     30  C   UNL A   1      40.604  22.507  27.576  1.00  0.00     0.016 A 
ATOM     31  C   UNL A   1      39.144  23.716  26.058  1.00  0.00     0.016 A 
ATOM     32  C   UNL A   1      41.140  23.724  28.009  1.00  0.00     0.010 A 
ATOM     33  C   UNL A   1      39.678  24.928  26.495  1.00  0.00     0.010 A 
ATOM     34  C   UNL A   1      40.694  24.940  27.460  1.00  0.00    -0.014 A 
BRANCH  34  35
ATOM     35  C   UNL A   1      41.390  26.209  27.783  1.00  0.00     0.031 A 
ATOM     36  C   UNL A   1      42.805  26.465  27.355  1.00  0.00     0.074 A 
ATOM     37  C   UNL A   1      40.734  27.124  28.521  1.00  0.00     0.049 A 
ATOM     38  N   UNL A   1      43.519  27.550  27.508  1.00  0.00    -0.248 NA
ATOM     39  C   UNL A   1      43.512  25.368  26.678  1.00  0.00     0.031 C 
ATOM     40  C   UNL A   1      39.382  26.954  29.059  1.00  0.00     0.029 A 
ATOM     41  N   UNL A   1      41.112  28.368  28.955  1.00  0.00    -0.354 N 
ATOM     42  C   UNL A   1      44.760  27.272  26.953  1.00  0.00     0.074 A 
ATOM     43  C   UNL A   1      44.710  25.906  26.476  1.00  0.00     0.031 C 
ATOM     44  C   UNL A   1      39.040  28.058  29.740  1.00  0.00     0.029 A 
ATOM     45  C   UNL A   1      40.148  29.008  29.696  1.00  0.00     0.049 A 
ATOM     46  H   UNL A   1      41.992  28.765  28.757  1.00  0.00     0.167 HD
ATOM     47  C   UNL A   1      45.831  28.093  26.831  1.00  0.00     0.034 A 
ATOM     48  C   UNL A   1      40.146  30.229  30.267  1.00  0.00     0.034 A 
ATOM     49  C   UNL A   1      45.869  29.455  27.291  1.00  0.00     0.049 A 
ATOM     50  C   UNL A   1      41.337  31.125  30.096  1.00  0.00     0.074 A 
ATOM     51  C   UNL A   1      46.886  30.383  27.139  1.00  0.00     0.029 A 
ATOM     52  N   UNL A   1      44.858  30.084  27.999  1.00  0.00    -0.354 N 
ATOM     53  N   UNL A   1      42.444  30.900  29.431  1.00  0.00    -0.248 NA
ATOM     54  C   UNL A   1      41.272  32.452  30.726  1.00  0.00     0.031 C 
ATOM     55  C   UNL A   1      46.496  31.568  27.768  1.00  0.00     0.029 A 
ATOM     56  C   UNL A   1      45.230  31.383  28.302  1.00  0.00     0.049 A 
ATOM     57  H   UNL A   1      44.002  29.669  28.252  1.00  0.00     0.167 HD
ATOM     58  C   UNL A   1      43.198  32.061  29.544  1.00  0.00     0.074 A 
ATOM     59  C   UNL A   1      42.417  32.995  30.330  1.00  0.00     0.031 C 
ATOM     60  C   UNL A   1      44.432  32.319  29.050  1.00  0.00     0.034 A 
BRANCH  47  61
ATOM     61  C   UNL A   1      47.040  27.574  26.104  1.00  0.00     0.023 A 
ATOM     62  C   UNL A   1      47.923  26.712  26.784  1.00  0.00     0.012 A 
ATOM     63  C   UNL A   1      47.236  27.832  24.733  1.00  0.00     0.148 A 
ATOM     64  C   UNL A   1      48.990  26.117  26.112  1.00  0.00     0.002 A 
ATOM     65  C   UNL A   1      48.288  27.214  24.064  1.00  0.00     0.091 A 
ATOM     66  F   UNL A   1      46.388  28.662  24.112  1.00  0.00    -0.205 F 
ATOM     67  C   UNL A   1      49.166  26.360  24.753  1.00  0.00     0.022 A 
BRANCH  65  68
ATOM     68  S   UNL A   1      48.575  27.415  22.302  1.00  0.00     0.127 S 
ATOM     69  O   UNL A   1      49.775  28.253  22.294  1.00  0.00    -0.237 OA
ATOM     70  O   UNL A   1      48.791  26.035  21.868  1.00  0.00    -0.237 OA
ATOM     71  O   UNL A   1      47.377  28.045  21.767  1.00  0.00    -0.744 OA
ENDBRANCH  65  68
ENDBRANCH  47  61
BRANCH  48  72
ATOM     72  C   UNL A   1      38.923  30.692  30.973  1.00  0.00     0.023 A 
ATOM     73  C   UNL A   1      38.791  30.439  32.351  1.00  0.00     0.012 A 
ATOM     74  C   UNL A   1      37.943  31.455  30.310  1.00  0.00     0.148 A 
ATOM     75  C   UNL A   1      37.697  30.934  33.059  1.00  0.00     0.002 A 
ATOM     76  C   UNL A   1      36.875  31.977  31.029  1.00  0.00     0.091 A 
ATOM     77  F   UNL A   1      38.096  31.681  28.997  1.00  0.00    -0.205 F 
ATOM     78  C   UNL A   1      36.746  31.710  32.402  1.00  0.00     0.022 A 
BRANCH  76  79
ATOM     79  S   UNL A   1      35.654  33.072  30.298  1.00  0.00     0.127 S 
ATOM     80  O   UNL A   1      34.814  32.131  29.560  1.00  0.00    -0.237 OA
ATOM     81  O   UNL A   1      35.029  33.655  31.485  1.00  0.00    -0.237 OA
ATOM     82  O   UNL A   1      36.404  34.015  29.481  1.00  0.00    -0.744 OA
ENDBRANCH  76  79
ENDBRANCH  48  72
BRANCH  60  83
ATOM     83  C   UNL A   1      45.040  33.666  29.333  1.00  0.00     0.023 A 
ATOM     84  C   UNL A   1      45.817  33.838  30.494  1.00  0.00     0.012 A 
ATOM     85  C   UNL A   1      44.950  34.711  28.393  1.00  0.00     0.148 A 
ATOM     86  C   UNL A   1      46.492  35.037  30.720  1.00  0.00     0.002 A 
ATOM     87  C   UNL A   1      45.652  35.890  28.609  1.00  0.00     0.091 A 
ATOM     88  F   UNL A   1      44.196  34.522  27.300  1.00  0.00    -0.205 F 
ATOM     89  C   UNL A   1      46.420  36.056  29.773  1.00  0.00     0.022 A 
BRANCH  87  90
ATOM     90  S   UNL A   1      45.684  37.233  27.415  1.00  0.00     0.127 S 
ATOM     91  O   UNL A   1      46.063  36.532  26.189  1.00  0.00    -0.237 OA
ATOM     92  O   UNL A   1      44.299  37.705  27.444  1.00  0.00    -0.237 OA
ATOM     93  O   UNL A   1      46.665  38.191  27.908  1.00  0.00    -0.744 OA
ENDBRANCH  87  90
ENDBRANCH  60  83
ENDBRANCH  34  35
ENDBRANCH  27  29
ENDBRANCH  26  27
ENDBRANCH  25  26
ENDBRANCH   1  25
TORSDOF 18
ENDMDL
MODEL 3
REMARK VINA RESULT:     -11.2      5.333      9.951
REMARK SMILES Cc1ccc2c(c1)OCCN2c1sc(C(=O)OCCOCCOC(=O)c2ccc(-c3c4nc(c(-c5cccc(S(=O)(=O)[O-])c5F)c5ccc([nH]5)c(-c5cccc(S(=O)(=O)[O-])c5F)c5nc(c(-c6cccc(S(=O)(=O)[O-])c6F)c6ccc3[nH]6)C=C5)C=C4)cc2)cc1C
REMARK SMILES IDX 21 1 20 2 19 3 18 4 17 5 15 6 16 7 14 8 12 9 13 10 90 11
REMARK SMILES IDX 89 12 91 13 11 14 1 15 2 16 3 17 7 18 4 19 6 20 5 21 8 22
REMARK SMILES IDX 9 23 10 24 22 25 23 26 24 27 25 28 26 29 27 30 88 31 28 32
REMARK SMILES IDX 87 33 29 34 30 35 31 36 81 37 32 38 86 39 80 40 82 41 33 42
REMARK SMILES IDX 85 43 79 44 78 45 34 47 66 48 46 49 65 50 47 51 50 52 64 53
REMARK SMILES IDX 83 54 48 55 49 56 63 58 84 59 51 60 35 61 36 62 44 63 37 64
REMARK SMILES IDX 39 65 45 66 38 67 40 68 41 69 42 70 43 71 67 72 68 73 76 74
REMARK SMILES IDX 69 75 71 76 77 77 70 78 72 79 73 80 74 81 75 82 52 83 53 84
REMARK SMILES IDX 61 85 54 86 56 87 62 88 55 89 57 90 58 91 59 92 60 93
REMARK H PARENT 82 46 50 57
REMARK Flexibility Score: inf
ROOT
ATOM      1  C   UNL A   1      36.305  21.220  25.354  1.00  0.00     0.202 C 
ENDROOT
BRANCH   1   2
ATOM      2  O   UNL A   1      35.115  21.017  24.588  1.00  0.00    -0.374 OA
BRANCH   2   3
ATOM      3  C   UNL A   1      34.348  19.847  24.879  1.00  0.00     0.202 C 
BRANCH   3   4
ATOM      4  C   UNL A   1      33.059  19.670  24.071  1.00  0.00     0.261 C 
BRANCH   4   5
ATOM      5  O   UNL A   1      32.584  20.924  23.561  1.00  0.00    -0.459 OA
BRANCH   5   6
ATOM      6  C   UNL A   1      31.841  21.654  24.441  1.00  0.00     0.348 C 
ATOM      7  O   UNL A   1      31.420  21.235  25.513  1.00  0.00    -0.245 OA
BRANCH   6   8
ATOM      8  C   UNL A   1      31.709  23.034  24.018  1.00  0.00     0.114 A 
ATOM      9  C   UNL A   1      31.416  25.498  23.892  1.00  0.00     0.099 A 
ATOM     10  S   UNL A   1      30.718  24.184  24.783  1.00  0.00    -0.110 S 
ATOM     11  C   UNL A   1      32.145  25.003  22.812  1.00  0.00    -0.015 A 
ATOM     12  C   UNL A   1      32.336  23.589  22.925  1.00  0.00     0.033 A 
ATOM     13  C   UNL A   1      32.780  25.783  21.711  1.00  0.00     0.047 C 
BRANCH   9  14
ATOM     14  N   UNL A   1      31.219  26.810  24.231  1.00  0.00    -0.327 N 
ATOM     15  C   UNL A   1      34.699  30.105  27.455  1.00  0.00     0.044 C 
ATOM     16  C   UNL A   1      33.815  29.260  26.589  1.00  0.00    -0.047 A 
ATOM     17  C   UNL A   1      33.944  27.873  26.605  1.00  0.00     0.006 A 
ATOM     18  C   UNL A   1      32.819  29.831  25.795  1.00  0.00     0.052 A 
ATOM     19  C   UNL A   1      33.109  27.069  25.819  1.00  0.00     0.030 A 
ATOM     20  C   UNL A   1      31.980  29.023  25.015  1.00  0.00     0.143 A 
ATOM     21  C   UNL A   1      32.089  27.613  25.023  1.00  0.00     0.085 A 
ATOM     22  O   UNL A   1      31.064  29.713  24.250  1.00  0.00    -0.490 OA
ATOM     23  C   UNL A   1      30.531  28.908  23.194  1.00  0.00     0.251 C 
ATOM     24  C   UNL A   1      30.066  27.552  23.717  1.00  0.00     0.165 C 
ENDBRANCH   9  14
ENDBRANCH   6   8
ENDBRANCH   5   6
ENDBRANCH   4   5
ENDBRANCH   3   4
ENDBRANCH   2   3
ENDBRANCH   1   2
BRANCH   1  25
ATOM     25  C   UNL A   1      37.321  22.219  24.792  1.00  0.00     0.261 C 
BRANCH  25  26
ATOM     26  O   UNL A   1      37.716  23.178  25.789  1.00  0.00    -0.460 OA
BRANCH  26  27
ATOM     27  C   UNL A   1      38.888  22.914  26.416  1.00  0.00     0.338 C 
ATOM     28  O   UNL A   1      39.465  21.839  26.468  1.00  0.00    -0.246 OA
BRANCH  27  29
ATOM     29  C   UNL A   1      39.497  24.185  26.863  1.00  0.00     0.060 A 
ATOM     30  C   UNL A   1      40.079  25.082  25.964  1.00  0.00     0.016 A 
ATOM     31  C   UNL A   1      39.470  24.474  28.233  1.00  0.00     0.016 A 
ATOM     32  C   UNL A   1      40.602  26.289  26.440  1.00  0.00     0.010 A 
ATOM     33  C   UNL A   1      39.996  25.676  28.707  1.00  0.00     0.010 A 
ATOM     34  C   UNL A   1      40.548  26.601  27.811  1.00  0.00    -0.014 A 
BRANCH  34  35
ATOM     35  C   UNL A   1      40.932  27.951  28.288  1.00  0.00     0.031 A 
ATOM     36  C   UNL A   1      39.910  28.944  28.758  1.00  0.00     0.074 A 
ATOM     37  C   UNL A   1      42.233  28.295  28.246  1.00  0.00     0.049 A 
ATOM     38  N   UNL A   1      40.102  30.135  29.263  1.00  0.00    -0.248 NA
ATOM     39  C   UNL A   1      38.495  28.558  28.644  1.00  0.00     0.031 C 
ATOM     40  C   UNL A   1      43.309  27.442  27.736  1.00  0.00     0.029 A 
ATOM     41  N   UNL A   1      42.871  29.448  28.623  1.00  0.00    -0.354 N 
ATOM     42  C   UNL A   1      38.839  30.647  29.524  1.00  0.00     0.074 A 
ATOM     43  C   UNL A   1      37.883  29.644  29.102  1.00  0.00     0.031 C 
ATOM     44  C   UNL A   1      44.475  28.096  27.845  1.00  0.00     0.029 A 
ATOM     45  C   UNL A   1      44.230  29.414  28.422  1.00  0.00     0.049 A 
ATOM     46  H   UNL A   1      42.401  30.226  29.002  1.00  0.00     0.167 HD
ATOM     47  C   UNL A   1      38.511  31.835  30.087  1.00  0.00     0.034 A 
ATOM     48  C   UNL A   1      45.179  30.335  28.683  1.00  0.00     0.034 A 
ATOM     49  C   UNL A   1      39.465  32.820  30.521  1.00  0.00     0.049 A 
ATOM     50  C   UNL A   1      44.790  31.632  29.329  1.00  0.00     0.074 A 
ATOM     51  C   UNL A   1      39.224  34.018  31.173  1.00  0.00     0.029 A 
ATOM     52  N   UNL A   1      40.836  32.734  30.340  1.00  0.00    -0.354 N 
ATOM     53  N   UNL A   1      43.604  32.034  29.712  1.00  0.00    -0.248 NA
ATOM     54  C   UNL A   1      45.870  32.591  29.606  1.00  0.00     0.031 C 
ATOM     55  C   UNL A   1      40.448  34.663  31.374  1.00  0.00     0.029 A 
ATOM     56  C   UNL A   1      41.453  33.861  30.857  1.00  0.00     0.049 A 
ATOM     57  H   UNL A   1      41.303  31.983  29.906  1.00  0.00     0.167 HD
ATOM     58  C   UNL A   1      43.794  33.281  30.293  1.00  0.00     0.074 A 
ATOM     59  C   UNL A   1      45.214  33.565  30.225  1.00  0.00     0.031 C 
ATOM     60  C   UNL A   1      42.869  34.118  30.822  1.00  0.00     0.034 A 
BRANCH  47  61
ATOM     61  C   UNL A   1      37.058  32.119  30.345  1.00  0.00     0.023 A 
ATOM     62  C   UNL A   1      36.506  31.756  31.589  1.00  0.00     0.012 A 
ATOM     63  C   UNL A   1      36.280  32.846  29.423  1.00  0.00     0.148 A 
ATOM     64  C   UNL A   1      35.195  32.106  31.912  1.00  0.00     0.002 A 
ATOM     65  C   UNL A   1      34.982  33.214  29.763  1.00  0.00     0.091 A 
ATOM     66  F   UNL A   1      36.825  33.171  28.243  1.00  0.00    -0.205 F 
ATOM     67  C   UNL A   1      34.439  32.843  31.004  1.00  0.00     0.022 A 
BRANCH  65  68
ATOM     68  S   UNL A   1      33.938  34.208  28.691  1.00  0.00     0.127 S 
ATOM     69  O   UNL A   1      34.849  35.291  28.318  1.00  0.00    -0.237 OA
ATOM     70  O   UNL A   1      33.629  33.272  27.610  1.00  0.00    -0.237 OA
ATOM     71  O   UNL A   1      32.796  34.610  29.498  1.00  0.00    -0.744 OA
ENDBRANCH  65  68
ENDBRANCH  47  61
BRANCH  48  72
ATOM     72  C   UNL A   1      46.601  30.001  28.409  1.00  0.00     0.023 A 
ATOM     73  C   UNL A   1      47.188  30.436  27.206  1.00  0.00     0.012 A 
ATOM     74  C   UNL A   1      47.393  29.340  29.369  1.00  0.00     0.148 A 
ATOM     75  C   UNL A   1      48.541  30.213  26.958  1.00  0.00     0.002 A 
ATOM     76  C   UNL A   1      48.749  29.155  29.131  1.00  0.00     0.091 A 
ATOM     77  F   UNL A   1      46.807  28.939  30.506  1.00  0.00    -0.205 F 
ATOM     78  C   UNL A   1      49.324  29.583  27.923  1.00  0.00     0.022 A 
BRANCH  76  79
ATOM     79  S   UNL A   1      49.861  28.447  30.351  1.00  0.00     0.127 S 
ATOM     80  O   UNL A   1      49.750  29.406  31.448  1.00  0.00    -0.237 OA
ATOM     81  O   UNL A   1      49.238  27.148  30.602  1.00  0.00    -0.237 OA
ATOM     82  O   UNL A   1      51.167  28.381  29.708  1.00  0.00    -0.744 OA
ENDBRANCH  76  79
ENDBRANCH  48  72
BRANCH  60  83
ATOM     83  C   UNL A   1      43.341  35.434  31.378  1.00  0.00     0.023 A 
ATOM     84  C   UNL A   1      43.711  35.512  32.734  1.00  0.00     0.012 A 
ATOM     85  C   UNL A   1      43.539  36.545  30.536  1.00  0.00     0.148 A 
ATOM     86  C   UNL A   1      44.267  36.683  33.247  1.00  0.00     0.002 A 
ATOM     87  C   UNL A   1      44.124  37.697  31.047  1.00  0.00     0.091 A 
ATOM     88  F   UNL A   1      43.170  36.445  29.251  1.00  0.00    -0.205 F 
ATOM     89  C   UNL A   1      44.485  37.770  32.402  1.00  0.00     0.022 A 
BRANCH  87  90
ATOM     90  S   UNL A   1      44.514  39.123  30.025  1.00  0.00     0.127 S 
ATOM     91  O   UNL A   1      43.191  39.509  29.536  1.00  0.00    -0.237 OA
ATOM     92  O   UNL A   1      45.099  40.048  30.995  1.00  0.00    -0.237 OA
ATOM     93  O   UNL A   1      45.437  38.648  29.002  1.00  0.00    -0.744 OA
ENDBRANCH  87  90
ENDBRANCH  60  83
ENDBRANCH  34  35
ENDBRANCH  27  29
ENDBRANCH  26  27
ENDBRANCH  25  26
ENDBRANCH   1  25
TORSDOF 18
ENDMDL
