MODEL 1
REMARK VINA RESULT:      -9.2      0.000      0.000
REMARK SMILES C[C@H](CCC[C@@H](C)[NH3+])C(=O)N[C@H]1C=C[C@@H](C(=O)OCCOCCOC(=O)c2ccc(-c3c4nc(c(-c5cccc(S(=O)(=O)[O-])c5F)c5ccc([nH]5)c(-c5cccc(S(=O)(=O)[O-])c5F)c5nc(c(-c6cccc(S(=O)(=O)[O-])c6F)c6ccc3[nH]6)C=C5)C=C4)cc2)C1
REMARK SMILES IDX 19 1 18 2 16 3 17 4 15 5 12 6 13 7 90 8 14 9 11 10 9 11
REMARK SMILES IDX 10 12 2 14 1 15 3 16 4 17 5 18 6 19 7 20 8 21 20 25 21 26
REMARK SMILES IDX 22 27 23 28 24 29 25 30 26 31 27 32 28 33 89 34 29 35 88 36
REMARK SMILES IDX 30 37 31 38 32 39 82 40 33 41 87 42 81 43 83 44 34 45 86 46
REMARK SMILES IDX 80 47 79 48 35 50 67 51 47 52 66 53 48 54 51 55 65 56 84 57
REMARK SMILES IDX 49 58 50 59 64 61 85 62 52 63 36 64 37 65 45 66 38 67 40 68
REMARK SMILES IDX 46 69 39 70 41 71 42 72 43 73 44 74 68 75 69 76 77 77 70 78
REMARK SMILES IDX 72 79 78 80 71 81 73 82 74 83 75 84 76 85 53 86 54 87 62 88
REMARK SMILES IDX 55 89 57 90 63 91 56 92 58 93 59 94 60 95 61 96
REMARK H PARENT 11 13 8 22 8 23 8 24 83 49 51 60
REMARK Flexibility Score: inf
ROOT
ATOM      1  C   UNL A   1      35.788  23.092  25.997  1.00  0.00     0.261 C 
ENDROOT
BRANCH   1   2
ATOM      2  O   UNL A   1      34.868  22.110  25.501  1.00  0.00    -0.463 OA
BRANCH   2   3
ATOM      3  C   UNL A   1      33.767  21.850  26.253  1.00  0.00     0.312 C 
ATOM      4  O   UNL A   1      33.755  21.776  27.475  1.00  0.00    -0.252 OA
BRANCH   3   5
ATOM      5  C   UNL A   1      32.503  21.842  25.387  1.00  0.00     0.124 C 
ATOM      6  C   UNL A   1      31.487  23.240  23.649  1.00  0.00     0.106 C 
ATOM      7  C   UNL A   1      32.207  22.090  23.059  1.00  0.00    -0.006 C 
ATOM      8  C   UNL A   1      31.868  23.219  25.128  1.00  0.00     0.048 C 
ATOM      9  C   UNL A   1      32.750  21.312  24.004  1.00  0.00    -0.014 C 
BRANCH   6  10
ATOM     10  N   UNL A   1      31.706  24.531  23.035  1.00  0.00    -0.350 N 
ATOM     11  C   UNL A   1      31.110  25.746  23.054  1.00  0.00     0.223 C 
ATOM     12  O   UNL A   1      31.346  26.456  22.070  1.00  0.00    -0.275 OA
ATOM     13  H   UNL A   1      32.497  24.523  22.448  1.00  0.00     0.164 HD
BRANCH  11  14
ATOM     14  C   UNL A   1      30.302  26.312  24.219  1.00  0.00     0.075 C 
ATOM     15  C   UNL A   1      28.810  26.334  23.877  1.00  0.00     0.018 C 
BRANCH  14  16
ATOM     16  C   UNL A   1      30.854  27.614  24.815  1.00  0.00     0.013 C 
BRANCH  16  17
ATOM     17  C   UNL A   1      31.753  27.443  26.050  1.00  0.00     0.007 C 
BRANCH  17  18
ATOM     18  C   UNL A   1      31.784  28.647  26.996  1.00  0.00     0.064 C 
BRANCH  18  19
ATOM     19  C   UNL A   1      33.091  29.459  26.954  1.00  0.00     0.177 C 
ATOM     20  C   UNL A   1      34.332  28.568  26.966  1.00  0.00     0.075 C 
BRANCH  19  21
ATOM     21  N   UNL A   1      33.059  30.280  25.756  1.00  0.00    -0.355 N 
ATOM     22  H   UNL A   1      33.574  31.146  25.923  1.00  0.00     0.344 HD
ATOM     23  H   UNL A   1      32.092  30.500  25.520  1.00  0.00     0.344 HD
ATOM     24  H   UNL A   1      33.491  29.773  24.984  1.00  0.00     0.344 HD
ENDBRANCH  19  21
ENDBRANCH  18  19
ENDBRANCH  17  18
ENDBRANCH  16  17
ENDBRANCH  14  16
ENDBRANCH  11  14
ENDBRANCH   6  10
ENDBRANCH   3   5
ENDBRANCH   2   3
ENDBRANCH   1   2
BRANCH   1  25
ATOM     25  C   UNL A   1      36.940  23.246  24.997  1.00  0.00     0.202 C 
BRANCH  25  26
ATOM     26  O   UNL A   1      38.109  22.464  25.268  1.00  0.00    -0.374 OA
BRANCH  26  27
ATOM     27  C   UNL A   1      37.930  21.068  25.505  1.00  0.00     0.202 C 
BRANCH  27  28
ATOM     28  C   UNL A   1      39.176  20.176  25.439  1.00  0.00     0.261 C 
BRANCH  28  29
ATOM     29  O   UNL A   1      39.958  20.211  26.642  1.00  0.00    -0.460 OA
BRANCH  29  30
ATOM     30  C   UNL A   1      41.271  19.933  26.453  1.00  0.00     0.338 C 
ATOM     31  O   UNL A   1      41.751  18.852  26.133  1.00  0.00    -0.246 OA
BRANCH  30  32
ATOM     32  C   UNL A   1      42.087  21.158  26.518  1.00  0.00     0.060 A 
ATOM     33  C   UNL A   1      42.378  21.655  27.795  1.00  0.00     0.016 A 
ATOM     34  C   UNL A   1      42.479  21.862  25.376  1.00  0.00     0.016 A 
ATOM     35  C   UNL A   1      42.994  22.895  27.936  1.00  0.00     0.010 A 
ATOM     36  C   UNL A   1      43.098  23.111  25.522  1.00  0.00     0.010 A 
ATOM     37  C   UNL A   1      43.313  23.653  26.802  1.00  0.00    -0.014 A 
BRANCH  37  38
ATOM     38  C   UNL A   1      43.733  25.065  26.985  1.00  0.00     0.031 A 
ATOM     39  C   UNL A   1      42.742  26.065  27.518  1.00  0.00     0.074 A 
ATOM     40  C   UNL A   1      45.002  25.438  26.743  1.00  0.00     0.049 A 
ATOM     41  N   UNL A   1      42.924  27.319  27.844  1.00  0.00    -0.248 NA
ATOM     42  C   UNL A   1      41.362  25.590  27.715  1.00  0.00     0.031 C 
ATOM     43  C   UNL A   1      46.052  24.565  26.221  1.00  0.00     0.029 A 
ATOM     44  N   UNL A   1      45.620  26.653  26.901  1.00  0.00    -0.354 N 
ATOM     45  C   UNL A   1      41.685  27.787  28.264  1.00  0.00     0.074 A 
ATOM     46  C   UNL A   1      40.752  26.689  28.134  1.00  0.00     0.031 C 
ATOM     47  C   UNL A   1      47.186  25.276  26.092  1.00  0.00     0.029 A 
ATOM     48  C   UNL A   1      46.938  26.655  26.509  1.00  0.00     0.049 A 
ATOM     49  H   UNL A   1      45.163  27.447  27.260  1.00  0.00     0.167 HD
ATOM     50  C   UNL A   1      41.356  29.013  28.737  1.00  0.00     0.034 A 
ATOM     51  C   UNL A   1      47.840  27.657  26.487  1.00  0.00     0.034 A 
ATOM     52  C   UNL A   1      42.288  30.099  28.886  1.00  0.00     0.049 A 
ATOM     53  C   UNL A   1      47.446  29.013  27.014  1.00  0.00     0.074 A 
ATOM     54  C   UNL A   1      42.060  31.363  29.401  1.00  0.00     0.029 A 
ATOM     55  N   UNL A   1      43.621  30.053  28.512  1.00  0.00    -0.354 N 
ATOM     56  N   UNL A   1      46.306  29.399  27.536  1.00  0.00    -0.248 NA
ATOM     57  C   UNL A   1      48.477  30.061  26.989  1.00  0.00     0.031 C 
ATOM     58  C   UNL A   1      43.253  32.090  29.317  1.00  0.00     0.029 A 
ATOM     59  C   UNL A   1      44.230  31.269  28.775  1.00  0.00     0.049 A 
ATOM     60  H   UNL A   1      44.069  29.271  28.117  1.00  0.00     0.167 HD
ATOM     61  C   UNL A   1      46.495  30.718  27.935  1.00  0.00     0.074 A 
ATOM     62  C   UNL A   1      47.866  31.058  27.615  1.00  0.00     0.031 C 
ATOM     63  C   UNL A   1      45.610  31.576  28.504  1.00  0.00     0.034 A 
BRANCH  50  64
ATOM     64  C   UNL A   1      39.928  29.236  29.166  1.00  0.00     0.023 A 
ATOM     65  C   UNL A   1      38.926  29.401  28.187  1.00  0.00     0.012 A 
ATOM     66  C   UNL A   1      39.569  29.228  30.528  1.00  0.00     0.148 A 
ATOM     67  C   UNL A   1      37.595  29.585  28.558  1.00  0.00     0.002 A 
ATOM     68  C   UNL A   1      38.234  29.369  30.887  1.00  0.00     0.091 A 
ATOM     69  F   UNL A   1      40.538  29.093  31.444  1.00  0.00    -0.205 F 
ATOM     70  C   UNL A   1      37.248  29.557  29.905  1.00  0.00     0.022 A 
BRANCH  68  71
ATOM     71  S   UNL A   1      37.675  29.273  32.593  1.00  0.00     0.127 S 
ATOM     72  O   UNL A   1      36.303  29.764  32.482  1.00  0.00    -0.237 OA
ATOM     73  O   UNL A   1      37.790  27.841  32.875  1.00  0.00    -0.237 OA
ATOM     74  O   UNL A   1      38.583  30.116  33.359  1.00  0.00    -0.744 OA
ENDBRANCH  68  71
ENDBRANCH  50  64
BRANCH  51  75
ATOM     75  C   UNL A   1      49.225  27.400  26.000  1.00  0.00     0.023 A 
ATOM     76  C   UNL A   1      49.485  27.377  24.616  1.00  0.00     0.012 A 
ATOM     77  C   UNL A   1      50.288  27.196  26.901  1.00  0.00     0.148 A 
ATOM     78  C   UNL A   1      50.772  27.127  24.138  1.00  0.00     0.002 A 
ATOM     79  C   UNL A   1      51.578  27.007  26.420  1.00  0.00     0.091 A 
ATOM     80  F   UNL A   1      50.017  27.208  28.213  1.00  0.00    -0.205 F 
ATOM     81  C   UNL A   1      51.820  26.952  25.039  1.00  0.00     0.022 A 
BRANCH  79  82
ATOM     82  S   UNL A   1      53.008  26.921  27.501  1.00  0.00     0.127 S 
ATOM     83  O   UNL A   1      53.103  28.295  27.985  1.00  0.00    -0.237 OA
ATOM     84  O   UNL A   1      52.572  25.942  28.497  1.00  0.00    -0.237 OA
ATOM     85  O   UNL A   1      54.105  26.466  26.661  1.00  0.00    -0.744 OA
ENDBRANCH  79  82
ENDBRANCH  51  75
BRANCH  63  86
ATOM     86  C   UNL A   1      46.102  32.958  28.853  1.00  0.00     0.023 A 
ATOM     87  C   UNL A   1      46.681  33.198  30.115  1.00  0.00     0.012 A 
ATOM     88  C   UNL A   1      46.048  34.001  27.908  1.00  0.00     0.148 A 
ATOM     89  C   UNL A   1      47.162  34.465  30.446  1.00  0.00     0.002 A 
ATOM     90  C   UNL A   1      46.574  35.249  28.227  1.00  0.00     0.091 A 
ATOM     91  F   UNL A   1      45.477  33.762  26.719  1.00  0.00    -0.205 F 
ATOM     92  C   UNL A   1      47.119  35.486  29.499  1.00  0.00     0.022 A 
BRANCH  90  93
ATOM     93  S   UNL A   1      46.644  36.590  27.034  1.00  0.00     0.127 S 
ATOM     94  O   UNL A   1      47.556  36.049  26.029  1.00  0.00    -0.237 OA
ATOM     95  O   UNL A   1      45.250  36.697  26.598  1.00  0.00    -0.237 OA
ATOM     96  O   UNL A   1      47.132  37.750  27.769  1.00  0.00    -0.744 OA
ENDBRANCH  90  93
ENDBRANCH  63  86
ENDBRANCH  37  38
ENDBRANCH  30  32
ENDBRANCH  29  30
ENDBRANCH  28  29
ENDBRANCH  27  28
ENDBRANCH  26  27
ENDBRANCH  25  26
ENDBRANCH   1  25
TORSDOF 24
ENDMDL
MODEL 2
REMARK VINA RESULT:      -9.0      2.086      3.294
REMARK SMILES C[C@H](CCC[C@@H](C)[NH3+])C(=O)N[C@H]1C=C[C@@H](C(=O)OCCOCCOC(=O)c2ccc(-c3c4nc(c(-c5cccc(S(=O)(=O)[O-])c5F)c5ccc([nH]5)c(-c5cccc(S(=O)(=O)[O-])c5F)c5nc(c(-c6cccc(S(=O)(=O)[O-])c6F)c6ccc3[nH]6)C=C5)C=C4)cc2)C1
REMARK SMILES IDX 19 1 18 2 16 3 17 4 15 5 12 6 13 7 90 8 14 9 11 10 9 11
REMARK SMILES IDX 10 12 2 14 1 15 3 16 4 17 5 18 6 19 7 20 8 21 20 25 21 26
REMARK SMILES IDX 22 27 23 28 24 29 25 30 26 31 27 32 28 33 89 34 29 35 88 36
REMARK SMILES IDX 30 37 31 38 32 39 82 40 33 41 87 42 81 43 83 44 34 45 86 46
REMARK SMILES IDX 80 47 79 48 35 50 67 51 47 52 66 53 48 54 51 55 65 56 84 57
REMARK SMILES IDX 49 58 50 59 64 61 85 62 52 63 36 64 37 65 45 66 38 67 40 68
REMARK SMILES IDX 46 69 39 70 41 71 42 72 43 73 44 74 68 75 69 76 77 77 70 78
REMARK SMILES IDX 72 79 78 80 71 81 73 82 74 83 75 84 76 85 53 86 54 87 62 88
REMARK SMILES IDX 55 89 57 90 63 91 56 92 58 93 59 94 60 95 61 96
REMARK H PARENT 11 13 8 22 8 23 8 24 83 49 51 60
REMARK Flexibility Score: inf
ROOT
ATOM      1  C   UNL A   1      39.751  21.625  25.948  1.00  0.00     0.261 C 
ENDROOT
BRANCH   1   2
ATOM      2  O   UNL A   1      39.056  22.452  26.892  1.00  0.00    -0.463 OA
BRANCH   2   3
ATOM      3  C   UNL A   1      38.439  23.563  26.413  1.00  0.00     0.312 C 
ATOM      4  O   UNL A   1      38.842  24.710  26.568  1.00  0.00    -0.252 OA
BRANCH   3   5
ATOM      5  C   UNL A   1      37.272  23.188  25.494  1.00  0.00     0.124 C 
ATOM      6  C   UNL A   1      34.913  22.562  25.722  1.00  0.00     0.106 C 
ATOM      7  C   UNL A   1      35.057  23.995  25.381  1.00  0.00    -0.006 C 
ATOM      8  C   UNL A   1      36.334  22.092  26.027  1.00  0.00     0.048 C 
ATOM      9  C   UNL A   1      36.343  24.340  25.237  1.00  0.00    -0.014 C 
BRANCH   6  10
ATOM     10  N   UNL A   1      33.979  22.234  26.776  1.00  0.00    -0.350 N 
ATOM     11  C   UNL A   1      32.726  22.604  27.132  1.00  0.00     0.223 C 
ATOM     12  O   UNL A   1      32.450  22.422  28.323  1.00  0.00    -0.275 OA
ATOM     13  H   UNL A   1      34.352  21.568  27.398  1.00  0.00     0.164 HD
BRANCH  11  14
ATOM     14  C   UNL A   1      31.646  23.094  26.171  1.00  0.00     0.075 C 
ATOM     15  C   UNL A   1      30.289  23.160  26.878  1.00  0.00     0.018 C 
BRANCH  14  16
ATOM     16  C   UNL A   1      31.635  22.401  24.803  1.00  0.00     0.013 C 
BRANCH  16  17
ATOM     17  C   UNL A   1      31.348  23.318  23.603  1.00  0.00     0.007 C 
BRANCH  17  18
ATOM     18  C   UNL A   1      32.557  23.605  22.708  1.00  0.00     0.064 C 
BRANCH  18  19
ATOM     19  C   UNL A   1      32.863  25.100  22.507  1.00  0.00     0.177 C 
ATOM     20  C   UNL A   1      32.537  25.577  21.093  1.00  0.00     0.075 C 
BRANCH  19  21
ATOM     21  N   UNL A   1      32.094  25.842  23.491  1.00  0.00    -0.355 N 
ATOM     22  H   UNL A   1      31.259  25.311  23.741  1.00  0.00     0.344 HD
ATOM     23  H   UNL A   1      31.819  26.742  23.099  1.00  0.00     0.344 HD
ATOM     24  H   UNL A   1      32.662  25.993  24.324  1.00  0.00     0.344 HD
ENDBRANCH  19  21
ENDBRANCH  18  19
ENDBRANCH  17  18
ENDBRANCH  16  17
ENDBRANCH  14  16
ENDBRANCH  11  14
ENDBRANCH   6  10
ENDBRANCH   3   5
ENDBRANCH   2   3
ENDBRANCH   1   2
BRANCH   1  25
ATOM     25  C   UNL A   1      40.987  21.024  26.628  1.00  0.00     0.202 C 
BRANCH  25  26
ATOM     26  O   UNL A   1      41.965  20.452  25.751  1.00  0.00    -0.374 OA
BRANCH  26  27
ATOM     27  C   UNL A   1      42.361  19.102  25.994  1.00  0.00     0.202 C 
BRANCH  27  28
ATOM     28  C   UNL A   1      43.692  18.638  25.391  1.00  0.00     0.261 C 
BRANCH  28  29
ATOM     29  O   UNL A   1      44.059  19.366  24.209  1.00  0.00    -0.460 OA
BRANCH  29  30
ATOM     30  C   UNL A   1      45.264  19.979  24.293  1.00  0.00     0.338 C 
ATOM     31  O   UNL A   1      46.331  19.558  23.858  1.00  0.00    -0.246 OA
BRANCH  30  32
ATOM     32  C   UNL A   1      45.132  21.339  24.843  1.00  0.00     0.060 A 
ATOM     33  C   UNL A   1      44.862  22.366  23.929  1.00  0.00     0.016 A 
ATOM     34  C   UNL A   1      45.359  21.631  26.191  1.00  0.00     0.016 A 
ATOM     35  C   UNL A   1      44.893  23.694  24.344  1.00  0.00     0.010 A 
ATOM     36  C   UNL A   1      45.391  22.969  26.605  1.00  0.00     0.010 A 
ATOM     37  C   UNL A   1      45.206  24.006  25.673  1.00  0.00    -0.014 A 
BRANCH  37  38
ATOM     38  C   UNL A   1      45.479  25.422  26.025  1.00  0.00     0.031 A 
ATOM     39  C   UNL A   1      44.351  26.291  26.513  1.00  0.00     0.074 A 
ATOM     40  C   UNL A   1      46.732  25.910  25.975  1.00  0.00     0.049 A 
ATOM     41  N   UNL A   1      44.386  27.519  26.962  1.00  0.00    -0.248 NA
ATOM     42  C   UNL A   1      43.003  25.698  26.496  1.00  0.00     0.031 C 
ATOM     43  C   UNL A   1      47.907  25.171  25.517  1.00  0.00     0.029 A 
ATOM     44  N   UNL A   1      47.221  27.148  26.310  1.00  0.00    -0.354 N 
ATOM     45  C   UNL A   1      43.070  27.852  27.262  1.00  0.00     0.074 A 
ATOM     46  C   UNL A   1      42.257  26.704  26.926  1.00  0.00     0.031 C 
ATOM     47  C   UNL A   1      48.983  25.973  25.590  1.00  0.00     0.029 A 
ATOM     48  C   UNL A   1      48.570  27.285  26.087  1.00  0.00     0.049 A 
ATOM     49  H   UNL A   1      46.659  27.869  26.675  1.00  0.00     0.167 HD
ATOM     50  C   UNL A   1      42.584  29.000  27.792  1.00  0.00     0.034 A 
ATOM     51  C   UNL A   1      49.379  28.350  26.261  1.00  0.00     0.034 A 
ATOM     52  C   UNL A   1      43.396  30.134  28.147  1.00  0.00     0.049 A 
ATOM     53  C   UNL A   1      48.812  29.616  26.847  1.00  0.00     0.074 A 
ATOM     54  C   UNL A   1      43.002  31.324  28.733  1.00  0.00     0.029 A 
ATOM     55  N   UNL A   1      44.762  30.223  27.939  1.00  0.00    -0.354 N 
ATOM     56  N   UNL A   1      47.590  29.866  27.254  1.00  0.00    -0.248 NA
ATOM     57  C   UNL A   1      49.745  30.737  27.038  1.00  0.00     0.031 C 
ATOM     58  C   UNL A   1      44.130  32.142  28.860  1.00  0.00     0.029 A 
ATOM     59  C   UNL A   1      45.230  31.451  28.377  1.00  0.00     0.049 A 
ATOM     60  H   UNL A   1      45.320  29.517  27.538  1.00  0.00     0.167 HD
ATOM     61  C   UNL A   1      47.617  31.152  27.782  1.00  0.00     0.074 A 
ATOM     62  C   UNL A   1      48.982  31.622  27.665  1.00  0.00     0.031 C 
ATOM     63  C   UNL A   1      46.601  31.885  28.306  1.00  0.00     0.034 A 
BRANCH  50  64
ATOM     64  C   UNL A   1      41.102  29.075  28.057  1.00  0.00     0.023 A 
ATOM     65  C   UNL A   1      40.211  29.249  26.978  1.00  0.00     0.012 A 
ATOM     66  C   UNL A   1      40.588  28.919  29.359  1.00  0.00     0.148 A 
ATOM     67  C   UNL A   1      38.835  29.296  27.194  1.00  0.00     0.002 A 
ATOM     68  C   UNL A   1      39.213  28.925  29.560  1.00  0.00     0.091 A 
ATOM     69  F   UNL A   1      41.451  28.779  30.375  1.00  0.00    -0.205 F 
ATOM     70  C   UNL A   1      38.336  29.124  28.482  1.00  0.00     0.022 A 
BRANCH  68  71
ATOM     71  S   UNL A   1      38.469  28.637  31.171  1.00  0.00     0.127 S 
ATOM     72  O   UNL A   1      38.771  27.224  31.388  1.00  0.00    -0.237 OA
ATOM     73  O   UNL A   1      39.219  29.559  32.026  1.00  0.00    -0.237 OA
ATOM     74  O   UNL A   1      37.057  28.962  31.024  1.00  0.00    -0.744 OA
ENDBRANCH  68  71
ENDBRANCH  50  64
BRANCH  51  75
ATOM     75  C   UNL A   1      50.829  28.243  25.930  1.00  0.00     0.023 A 
ATOM     76  C   UNL A   1      51.277  28.579  24.638  1.00  0.00     0.012 A 
ATOM     77  C   UNL A   1      51.768  27.829  26.896  1.00  0.00     0.148 A 
ATOM     78  C   UNL A   1      52.628  28.475  24.304  1.00  0.00     0.002 A 
ATOM     79  C   UNL A   1      53.119  27.786  26.574  1.00  0.00     0.091 A 
ATOM     80  F   UNL A   1      51.320  27.501  28.116  1.00  0.00    -0.205 F 
ATOM     81  C   UNL A   1      53.549  28.089  25.273  1.00  0.00     0.022 A 
BRANCH  79  82
ATOM     82  S   UNL A   1      54.391  27.445  27.794  1.00  0.00     0.127 S 
ATOM     83  O   UNL A   1      55.597  27.414  26.972  1.00  0.00    -0.237 OA
ATOM     84  O   UNL A   1      54.274  28.603  28.681  1.00  0.00    -0.237 OA
ATOM     85  O   UNL A   1      54.010  26.184  28.412  1.00  0.00    -0.744 OA
ENDBRANCH  79  82
ENDBRANCH  51  75
BRANCH  63  86
ATOM     86  C   UNL A   1      46.929  33.260  28.829  1.00  0.00     0.023 A 
ATOM     87  C   UNL A   1      47.374  33.419  30.156  1.00  0.00     0.012 A 
ATOM     88  C   UNL A   1      46.856  34.387  27.986  1.00  0.00     0.148 A 
ATOM     89  C   UNL A   1      47.703  34.682  30.648  1.00  0.00     0.002 A 
ATOM     90  C   UNL A   1      47.232  35.636  28.468  1.00  0.00     0.091 A 
ATOM     91  F   UNL A   1      46.412  34.222  26.731  1.00  0.00    -0.205 F 
ATOM     92  C   UNL A   1      47.643  35.787  29.802  1.00  0.00     0.022 A 
BRANCH  90  93
ATOM     93  S   UNL A   1      47.276  37.094  27.419  1.00  0.00     0.127 S 
ATOM     94  O   UNL A   1      45.860  37.280  27.108  1.00  0.00    -0.237 OA
ATOM     95  O   UNL A   1      47.842  38.106  28.312  1.00  0.00    -0.237 OA
ATOM     96  O   UNL A   1      48.129  36.745  26.291  1.00  0.00    -0.744 OA
ENDBRANCH  90  93
ENDBRANCH  63  86
ENDBRANCH  37  38
ENDBRANCH  30  32
ENDBRANCH  29  30
ENDBRANCH  28  29
ENDBRANCH  27  28
ENDBRANCH  26  27
ENDBRANCH  25  26
ENDBRANCH   1  25
TORSDOF 24
ENDMDL
MODEL 3
REMARK VINA RESULT:      -8.9      1.969      7.918
REMARK SMILES C[C@H](CCC[C@@H](C)[NH3+])C(=O)N[C@H]1C=C[C@@H](C(=O)OCCOCCOC(=O)c2ccc(-c3c4nc(c(-c5cccc(S(=O)(=O)[O-])c5F)c5ccc([nH]5)c(-c5cccc(S(=O)(=O)[O-])c5F)c5nc(c(-c6cccc(S(=O)(=O)[O-])c6F)c6ccc3[nH]6)C=C5)C=C4)cc2)C1
REMARK SMILES IDX 19 1 18 2 16 3 17 4 15 5 12 6 13 7 90 8 14 9 11 10 9 11
REMARK SMILES IDX 10 12 2 14 1 15 3 16 4 17 5 18 6 19 7 20 8 21 20 25 21 26
REMARK SMILES IDX 22 27 23 28 24 29 25 30 26 31 27 32 28 33 89 34 29 35 88 36
REMARK SMILES IDX 30 37 31 38 32 39 82 40 33 41 87 42 81 43 83 44 34 45 86 46
REMARK SMILES IDX 80 47 79 48 35 50 67 51 47 52 66 53 48 54 51 55 65 56 84 57
REMARK SMILES IDX 49 58 50 59 64 61 85 62 52 63 36 64 37 65 45 66 38 67 40 68
REMARK SMILES IDX 46 69 39 70 41 71 42 72 43 73 44 74 68 75 69 76 77 77 70 78
REMARK SMILES IDX 72 79 78 80 71 81 73 82 74 83 75 84 76 85 53 86 54 87 62 88
REMARK SMILES IDX 55 89 57 90 63 91 56 92 58 93 59 94 60 95 61 96
REMARK H PARENT 11 13 8 22 8 23 8 24 83 49 51 60
REMARK Flexibility Score: inf
ROOT
ATOM      1  C   UNL A   1      38.235  21.631  25.630  1.00  0.00     0.261 C 
ENDROOT
BRANCH   1   2
ATOM      2  O   UNL A   1      37.756  22.941  25.295  1.00  0.00    -0.463 OA
BRANCH   2   3
ATOM      3  C   UNL A   1      36.461  23.226  25.588  1.00  0.00     0.312 C 
ATOM      4  O   UNL A   1      36.011  24.354  25.749  1.00  0.00    -0.252 OA
BRANCH   3   5
ATOM      5  C   UNL A   1      35.592  21.966  25.511  1.00  0.00     0.124 C 
ATOM      6  C   UNL A   1      33.254  21.349  25.912  1.00  0.00     0.106 C 
ATOM      7  C   UNL A   1      33.511  21.571  24.471  1.00  0.00    -0.006 C 
ATOM      8  C   UNL A   1      34.524  21.829  26.610  1.00  0.00     0.048 C 
ATOM      9  C   UNL A   1      34.791  21.891  24.243  1.00  0.00    -0.014 C 
BRANCH   6  10
ATOM     10  N   UNL A   1      32.056  21.948  26.459  1.00  0.00    -0.350 N 
ATOM     11  C   UNL A   1      31.528  23.191  26.547  1.00  0.00     0.223 C 
ATOM     12  O   UNL A   1      30.706  23.343  27.458  1.00  0.00    -0.275 OA
ATOM     13  H   UNL A   1      31.472  21.275  26.876  1.00  0.00     0.164 HD
BRANCH  11  14
ATOM     14  C   UNL A   1      31.783  24.329  25.562  1.00  0.00     0.075 C 
ATOM     15  C   UNL A   1      32.835  25.293  26.117  1.00  0.00     0.018 C 
BRANCH  14  16
ATOM     16  C   UNL A   1      30.519  24.995  25.003  1.00  0.00     0.013 C 
BRANCH  16  17
ATOM     17  C   UNL A   1      30.563  26.529  24.925  1.00  0.00     0.007 C 
BRANCH  17  18
ATOM     18  C   UNL A   1      30.079  27.121  23.599  1.00  0.00     0.064 C 
BRANCH  18  19
ATOM     19  C   UNL A   1      31.198  27.681  22.703  1.00  0.00     0.177 C 
ATOM     20  C   UNL A   1      32.488  27.947  23.478  1.00  0.00     0.075 C 
BRANCH  19  21
ATOM     21  N   UNL A   1      31.427  26.723  21.635  1.00  0.00    -0.355 N 
ATOM     22  H   UNL A   1      32.382  26.822  21.288  1.00  0.00     0.344 HD
ATOM     23  H   UNL A   1      30.769  26.896  20.876  1.00  0.00     0.344 HD
ATOM     24  H   UNL A   1      31.293  25.777  21.993  1.00  0.00     0.344 HD
ENDBRANCH  19  21
ENDBRANCH  18  19
ENDBRANCH  17  18
ENDBRANCH  16  17
ENDBRANCH  14  16
ENDBRANCH  11  14
ENDBRANCH   6  10
ENDBRANCH   3   5
ENDBRANCH   2   3
ENDBRANCH   1   2
BRANCH   1  25
ATOM     25  C   UNL A   1      39.543  21.765  26.419  1.00  0.00     0.202 C 
BRANCH  25  26
ATOM     26  O   UNL A   1      40.089  20.545  26.932  1.00  0.00    -0.374 OA
BRANCH  26  27
ATOM     27  C   UNL A   1      41.099  19.897  26.159  1.00  0.00     0.202 C 
BRANCH  27  28
ATOM     28  C   UNL A   1      42.551  20.338  26.382  1.00  0.00     0.261 C 
BRANCH  28  29
ATOM     29  O   UNL A   1      43.506  19.466  25.760  1.00  0.00    -0.460 OA
BRANCH  29  30
ATOM     30  C   UNL A   1      44.131  20.010  24.688  1.00  0.00     0.338 C 
ATOM     31  O   UNL A   1      44.229  19.517  23.570  1.00  0.00    -0.246 OA
BRANCH  30  32
ATOM     32  C   UNL A   1      44.564  21.390  24.970  1.00  0.00     0.060 A 
ATOM     33  C   UNL A   1      45.339  21.586  26.120  1.00  0.00     0.016 A 
ATOM     34  C   UNL A   1      44.151  22.480  24.199  1.00  0.00     0.016 A 
ATOM     35  C   UNL A   1      45.640  22.876  26.546  1.00  0.00     0.010 A 
ATOM     36  C   UNL A   1      44.455  23.778  24.631  1.00  0.00     0.010 A 
ATOM     37  C   UNL A   1      45.159  23.980  25.832  1.00  0.00    -0.014 A 
BRANCH  37  38
ATOM     38  C   UNL A   1      45.279  25.328  26.442  1.00  0.00     0.031 A 
ATOM     39  C   UNL A   1      46.584  26.071  26.339  1.00  0.00     0.074 A 
ATOM     40  C   UNL A   1      44.216  25.912  27.024  1.00  0.00     0.049 A 
ATOM     41  N   UNL A   1      46.875  27.290  26.714  1.00  0.00    -0.248 NA
ATOM     42  C   UNL A   1      47.711  25.346  25.729  1.00  0.00     0.031 C 
ATOM     43  C   UNL A   1      42.900  25.296  27.189  1.00  0.00     0.029 A 
ATOM     44  N   UNL A   1      44.079  27.157  27.587  1.00  0.00    -0.354 N 
ATOM     45  C   UNL A   1      48.218  27.472  26.405  1.00  0.00     0.074 A 
ATOM     46  C   UNL A   1      48.691  26.232  25.829  1.00  0.00     0.031 C 
ATOM     47  C   UNL A   1      42.090  26.162  27.822  1.00  0.00     0.029 A 
ATOM     48  C   UNL A   1      42.832  27.386  28.118  1.00  0.00     0.049 A 
ATOM     49  H   UNL A   1      44.805  27.821  27.608  1.00  0.00     0.167 HD
ATOM     50  C   UNL A   1      48.984  28.578  26.563  1.00  0.00     0.034 A 
ATOM     51  C   UNL A   1      42.346  28.462  28.771  1.00  0.00     0.034 A 
ATOM     52  C   UNL A   1      48.508  29.818  27.116  1.00  0.00     0.049 A 
ATOM     53  C   UNL A   1      43.221  29.677  28.938  1.00  0.00     0.074 A 
ATOM     54  C   UNL A   1      49.194  31.010  27.274  1.00  0.00     0.029 A 
ATOM     55  N   UNL A   1      47.230  30.024  27.611  1.00  0.00    -0.354 N 
ATOM     56  N   UNL A   1      44.446  29.880  28.516  1.00  0.00    -0.248 NA
ATOM     57  C   UNL A   1      42.631  30.829  29.636  1.00  0.00     0.031 C 
ATOM     58  C   UNL A   1      48.336  31.931  27.885  1.00  0.00     0.029 A 
ATOM     59  C   UNL A   1      47.107  31.320  28.083  1.00  0.00     0.049 A 
ATOM     60  H   UNL A   1      46.515  29.348  27.625  1.00  0.00     0.167 HD
ATOM     61  C   UNL A   1      44.759  31.191  28.861  1.00  0.00     0.074 A 
ATOM     62  C   UNL A   1      43.585  31.742  29.508  1.00  0.00     0.031 C 
ATOM     63  C   UNL A   1      45.916  31.874  28.673  1.00  0.00     0.034 A 
BRANCH  50  64
ATOM     64  C   UNL A   1      50.416  28.510  26.097  1.00  0.00     0.023 A 
ATOM     65  C   UNL A   1      50.735  28.892  24.777  1.00  0.00     0.012 A 
ATOM     66  C   UNL A   1      51.447  28.124  26.974  1.00  0.00     0.148 A 
ATOM     67  C   UNL A   1      52.055  28.861  24.329  1.00  0.00     0.002 A 
ATOM     68  C   UNL A   1      52.766  28.138  26.532  1.00  0.00     0.091 A 
ATOM     69  F   UNL A   1      51.121  27.743  28.217  1.00  0.00    -0.205 F 
ATOM     70  C   UNL A   1      53.070  28.495  25.209  1.00  0.00     0.022 A 
BRANCH  68  71
ATOM     71  S   UNL A   1      54.151  27.754  27.610  1.00  0.00     0.127 S 
ATOM     72  O   UNL A   1      54.085  28.848  28.577  1.00  0.00    -0.237 OA
ATOM     73  O   UNL A   1      53.773  26.445  28.144  1.00  0.00    -0.237 OA
ATOM     74  O   UNL A   1      55.331  27.741  26.756  1.00  0.00    -0.744 OA
ENDBRANCH  68  71
ENDBRANCH  50  64
BRANCH  51  75
ATOM     75  C   UNL A   1      40.939  28.458  29.264  1.00  0.00     0.023 A 
ATOM     76  C   UNL A   1      40.626  27.816  30.477  1.00  0.00     0.012 A 
ATOM     77  C   UNL A   1      39.915  29.106  28.546  1.00  0.00     0.148 A 
ATOM     78  C   UNL A   1      39.314  27.791  30.951  1.00  0.00     0.002 A 
ATOM     79  C   UNL A   1      38.622  29.129  29.054  1.00  0.00     0.091 A 
ATOM     80  F   UNL A   1      40.231  29.700  27.387  1.00  0.00    -0.205 F 
ATOM     81  C   UNL A   1      38.314  28.456  30.246  1.00  0.00     0.022 A 
BRANCH  79  82
ATOM     82  S   UNL A   1      37.304  30.082  28.293  1.00  0.00     0.127 S 
ATOM     83  O   UNL A   1      36.140  29.654  29.064  1.00  0.00    -0.237 OA
ATOM     84  O   UNL A   1      37.743  31.455  28.545  1.00  0.00    -0.237 OA
ATOM     85  O   UNL A   1      37.310  29.704  26.889  1.00  0.00    -0.744 OA
ENDBRANCH  79  82
ENDBRANCH  51  75
BRANCH  63  86
ATOM     86  C   UNL A   1      45.965  33.308  29.137  1.00  0.00     0.023 A 
ATOM     87  C   UNL A   1      46.446  33.612  30.426  1.00  0.00     0.012 A 
ATOM     88  C   UNL A   1      45.594  34.357  28.273  1.00  0.00     0.148 A 
ATOM     89  C   UNL A   1      46.518  34.935  30.862  1.00  0.00     0.002 A 
ATOM     90  C   UNL A   1      45.715  35.676  28.698  1.00  0.00     0.091 A 
ATOM     91  F   UNL A   1      45.120  34.050  27.057  1.00  0.00    -0.205 F 
ATOM     92  C   UNL A   1      46.164  35.966  29.995  1.00  0.00     0.022 A 
BRANCH  90  93
ATOM     93  S   UNL A   1      45.371  37.065  27.611  1.00  0.00     0.127 S 
ATOM     94  O   UNL A   1      43.948  36.886  27.338  1.00  0.00    -0.237 OA
ATOM     95  O   UNL A   1      45.689  38.214  28.462  1.00  0.00    -0.237 OA
ATOM     96  O   UNL A   1      46.259  36.904  26.468  1.00  0.00    -0.744 OA
ENDBRANCH  90  93
ENDBRANCH  63  86
ENDBRANCH  37  38
ENDBRANCH  30  32
ENDBRANCH  29  30
ENDBRANCH  28  29
ENDBRANCH  27  28
ENDBRANCH  26  27
ENDBRANCH  25  26
ENDBRANCH   1  25
TORSDOF 24
ENDMDL
