MODEL 1
REMARK VINA RESULT:      -9.4      0.000      0.000
REMARK SMILES O=C(/C=C/c1ccc(Br)cc1-n1ccnc1)OCCOCCOC(=O)c1ccc(-c2c3nc(c(-c4cccc(S(=O)(=O)[O-])c4F)c4ccc([nH]4)c(-c4cccc(S(=O)(=O)[O-])c4F)c4nc(c(-c5cccc(S(=O)(=O)[O-])c5F)c5ccc2[nH]5)C=C4)C=C3)cc1
REMARK SMILES IDX 21 1 20 2 19 3 18 4 17 5 2 6 1 7 3 8 4 9 5 10 6 11 11 12
REMARK SMILES IDX 7 13 10 14 8 15 9 16 12 17 13 18 16 19 14 20 15 21 22 22
REMARK SMILES IDX 23 23 24 24 25 25 26 26 27 27 88 28 28 29 87 30 29 31 30 32
REMARK SMILES IDX 31 33 81 34 32 35 86 36 80 37 82 38 33 39 85 40 79 41 78 42
REMARK SMILES IDX 34 44 66 45 46 46 65 47 47 48 50 49 64 50 83 51 48 52 49 53
REMARK SMILES IDX 63 55 84 56 51 57 35 58 36 59 44 60 37 61 39 62 45 63 38 64
REMARK SMILES IDX 40 65 41 66 42 67 43 68 67 69 68 70 76 71 69 72 71 73 77 74
REMARK SMILES IDX 70 75 72 76 73 77 74 78 75 79 52 80 53 81 61 82 54 83 56 84
REMARK SMILES IDX 62 85 55 86 57 87 58 88 59 89 60 90
REMARK H PARENT 82 43 50 54
REMARK Flexibility Score: inf
ROOT
ATOM      1  C   UNL A   1      41.198  20.051  26.311  1.00  0.00     0.202 C 
ENDROOT
BRANCH   1   2
ATOM      2  O   UNL A   1      41.975  19.313  25.360  1.00  0.00    -0.374 OA
BRANCH   2   3
ATOM      3  C   UNL A   1      43.274  18.874  25.752  1.00  0.00     0.202 C 
BRANCH   3   4
ATOM      4  C   UNL A   1      44.426  19.214  24.809  1.00  0.00     0.261 C 
BRANCH   4   5
ATOM      5  O   UNL A   1      44.560  20.610  24.516  1.00  0.00    -0.460 OA
BRANCH   5   6
ATOM      6  C   UNL A   1      45.476  21.459  25.020  1.00  0.00     0.330 C 
ATOM      7  O   UNL A   1      46.569  21.570  24.465  1.00  0.00    -0.247 OA
BRANCH   6   8
ATOM      8  C   UNL A   1      45.294  22.180  26.298  1.00  0.00     0.094 C 
ATOM      9  C   UNL A   1      45.896  23.260  26.829  1.00  0.00     0.018 C 
BRANCH   9  10
ATOM     10  C   UNL A   1      45.477  23.867  28.103  1.00  0.00    -0.001 A 
ATOM     11  C   UNL A   1      44.639  23.100  28.929  1.00  0.00     0.011 A 
ATOM     12  C   UNL A   1      45.951  25.098  28.605  1.00  0.00     0.055 A 
ATOM     13  C   UNL A   1      44.308  23.526  30.215  1.00  0.00     0.016 A 
ATOM     14  C   UNL A   1      45.624  25.524  29.902  1.00  0.00     0.043 A 
ATOM     15  C   UNL A   1      44.816  24.726  30.701  1.00  0.00     0.020 A 
ATOM     16  Br  UNL A   1      44.426  25.260  32.469  1.00  0.00    -0.051 Br
BRANCH  12  17
ATOM     17  N   UNL A   1      46.761  25.983  27.858  1.00  0.00    -0.306 N 
ATOM     18  C   UNL A   1      48.059  25.742  27.480  1.00  0.00     0.113 A 
ATOM     19  C   UNL A   1      46.290  26.936  26.982  1.00  0.00     0.204 A 
ATOM     20  C   UNL A   1      48.335  26.648  26.479  1.00  0.00     0.131 A 
ATOM     21  N   UNL A   1      47.223  27.386  26.172  1.00  0.00    -0.245 NA
ENDBRANCH  12  17
ENDBRANCH   9  10
ENDBRANCH   6   8
ENDBRANCH   5   6
ENDBRANCH   4   5
ENDBRANCH   3   4
ENDBRANCH   2   3
ENDBRANCH   1   2
BRANCH   1  22
ATOM     22  C   UNL A   1      41.955  21.184  26.984  1.00  0.00     0.261 C 
BRANCH  22  23
ATOM     23  O   UNL A   1      41.649  22.364  26.275  1.00  0.00    -0.460 OA
BRANCH  23  24
ATOM     24  C   UNL A   1      40.893  23.248  26.966  1.00  0.00     0.338 C 
ATOM     25  O   UNL A   1      40.047  23.002  27.796  1.00  0.00    -0.246 OA
BRANCH  24  26
ATOM     26  C   UNL A   1      41.229  24.601  26.475  1.00  0.00     0.060 A 
ATOM     27  C   UNL A   1      42.476  25.010  26.928  1.00  0.00     0.016 A 
ATOM     28  C   UNL A   1      40.142  25.475  26.335  1.00  0.00     0.016 A 
ATOM     29  C   UNL A   1      42.474  26.108  27.739  1.00  0.00     0.010 A 
ATOM     30  C   UNL A   1      40.119  26.537  27.189  1.00  0.00     0.010 A 
ATOM     31  C   UNL A   1      41.256  26.764  27.957  1.00  0.00    -0.014 A 
BRANCH  31  32
ATOM     32  C   UNL A   1      41.260  27.884  28.856  1.00  0.00     0.031 A 
ATOM     33  C   UNL A   1      42.363  28.788  28.473  1.00  0.00     0.074 A 
ATOM     34  C   UNL A   1      40.327  28.054  29.807  1.00  0.00     0.049 A 
ATOM     35  N   UNL A   1      43.525  28.872  29.033  1.00  0.00    -0.248 NA
ATOM     36  C   UNL A   1      42.304  29.380  27.123  1.00  0.00     0.031 C 
ATOM     37  C   UNL A   1      39.075  27.321  30.007  1.00  0.00     0.029 A 
ATOM     38  N   UNL A   1      40.247  29.042  30.730  1.00  0.00    -0.354 N 
ATOM     39  C   UNL A   1      44.212  29.782  28.239  1.00  0.00     0.074 A 
ATOM     40  C   UNL A   1      43.574  29.747  26.958  1.00  0.00     0.031 C 
ATOM     41  C   UNL A   1      38.256  28.061  30.793  1.00  0.00     0.029 A 
ATOM     42  C   UNL A   1      38.969  29.248  31.234  1.00  0.00     0.049 A 
ATOM     43  H   UNL A   1      41.027  29.568  31.019  1.00  0.00     0.167 HD
ATOM     44  C   UNL A   1      44.933  30.777  28.824  1.00  0.00     0.034 A 
ATOM     45  C   UNL A   1      38.538  30.377  31.856  1.00  0.00     0.034 A 
ATOM     46  C   UNL A   1      45.238  30.433  30.197  1.00  0.00     0.049 A 
ATOM     47  C   UNL A   1      39.748  31.134  32.274  1.00  0.00     0.074 A 
ATOM     48  C   UNL A   1      45.872  29.374  30.816  1.00  0.00     0.029 A 
ATOM     49  N   UNL A   1      44.468  31.036  31.164  1.00  0.00    -0.354 N 
ATOM     50  N   UNL A   1      40.588  30.702  33.172  1.00  0.00    -0.248 NA
ATOM     51  C   UNL A   1      40.279  32.120  31.343  1.00  0.00     0.031 C 
ATOM     52  C   UNL A   1      45.117  29.128  32.001  1.00  0.00     0.029 A 
ATOM     53  C   UNL A   1      44.115  30.097  32.094  1.00  0.00     0.049 A 
ATOM     54  H   UNL A   1      44.212  31.986  31.185  1.00  0.00     0.167 HD
ATOM     55  C   UNL A   1      41.840  30.984  32.636  1.00  0.00     0.074 A 
ATOM     56  C   UNL A   1      41.586  31.944  31.560  1.00  0.00     0.031 C 
ATOM     57  C   UNL A   1      42.911  30.176  32.895  1.00  0.00     0.034 A 
BRANCH  44  58
ATOM     58  C   UNL A   1      44.918  32.223  28.346  1.00  0.00     0.023 A 
ATOM     59  C   UNL A   1      46.162  32.748  27.933  1.00  0.00     0.012 A 
ATOM     60  C   UNL A   1      43.873  33.163  28.538  1.00  0.00     0.148 A 
ATOM     61  C   UNL A   1      46.383  34.126  27.834  1.00  0.00     0.002 A 
ATOM     62  C   UNL A   1      44.081  34.528  28.395  1.00  0.00     0.091 A 
ATOM     63  F   UNL A   1      42.670  32.782  28.954  1.00  0.00    -0.205 F 
ATOM     64  C   UNL A   1      45.345  35.017  28.076  1.00  0.00     0.022 A 
BRANCH  62  65
ATOM     65  S   UNL A   1      42.762  35.720  28.683  1.00  0.00     0.127 S 
ATOM     66  O   UNL A   1      41.861  35.427  27.573  1.00  0.00    -0.237 OA
ATOM     67  O   UNL A   1      42.281  35.311  30.002  1.00  0.00    -0.237 OA
ATOM     68  O   UNL A   1      43.389  37.036  28.657  1.00  0.00    -0.744 OA
ENDBRANCH  62  65
ENDBRANCH  44  58
BRANCH  45  69
ATOM     69  C   UNL A   1      37.202  31.025  31.816  1.00  0.00     0.023 A 
ATOM     70  C   UNL A   1      36.633  31.530  33.004  1.00  0.00     0.012 A 
ATOM     71  C   UNL A   1      36.616  31.409  30.589  1.00  0.00     0.148 A 
ATOM     72  C   UNL A   1      35.540  32.406  32.969  1.00  0.00     0.002 A 
ATOM     73  C   UNL A   1      35.525  32.273  30.559  1.00  0.00     0.091 A 
ATOM     74  F   UNL A   1      37.186  31.003  29.447  1.00  0.00    -0.205 F 
ATOM     75  C   UNL A   1      34.990  32.784  31.748  1.00  0.00     0.022 A 
BRANCH  73  76
ATOM     76  S   UNL A   1      34.782  32.826  29.016  1.00  0.00     0.127 S 
ATOM     77  O   UNL A   1      34.259  31.575  28.469  1.00  0.00    -0.237 OA
ATOM     78  O   UNL A   1      33.765  33.761  29.488  1.00  0.00    -0.237 OA
ATOM     79  O   UNL A   1      35.867  33.413  28.239  1.00  0.00    -0.744 OA
ENDBRANCH  73  76
ENDBRANCH  45  69
BRANCH  57  80
ATOM     80  C   UNL A   1      42.762  29.134  33.976  1.00  0.00     0.023 A 
ATOM     81  C   UNL A   1      42.058  27.925  33.792  1.00  0.00     0.012 A 
ATOM     82  C   UNL A   1      43.502  29.315  35.155  1.00  0.00     0.148 A 
ATOM     83  C   UNL A   1      42.081  26.927  34.774  1.00  0.00     0.002 A 
ATOM     84  C   UNL A   1      43.562  28.304  36.104  1.00  0.00     0.091 A 
ATOM     85  F   UNL A   1      44.166  30.470  35.311  1.00  0.00    -0.205 F 
ATOM     86  C   UNL A   1      42.845  27.111  35.924  1.00  0.00     0.022 A 
BRANCH  84  87
ATOM     87  S   UNL A   1      44.628  28.440  37.539  1.00  0.00     0.127 S 
ATOM     88  O   UNL A   1      44.298  27.223  38.279  1.00  0.00    -0.237 OA
ATOM     89  O   UNL A   1      45.964  28.449  36.938  1.00  0.00    -0.237 OA
ATOM     90  O   UNL A   1      44.263  29.689  38.195  1.00  0.00    -0.744 OA
ENDBRANCH  84  87
ENDBRANCH  57  80
ENDBRANCH  31  32
ENDBRANCH  24  26
ENDBRANCH  23  24
ENDBRANCH  22  23
ENDBRANCH   1  22
TORSDOF 19
ENDMDL
MODEL 2
REMARK VINA RESULT:      -9.4      4.013      6.095
REMARK SMILES O=C(/C=C/c1ccc(Br)cc1-n1ccnc1)OCCOCCOC(=O)c1ccc(-c2c3nc(c(-c4cccc(S(=O)(=O)[O-])c4F)c4ccc([nH]4)c(-c4cccc(S(=O)(=O)[O-])c4F)c4nc(c(-c5cccc(S(=O)(=O)[O-])c5F)c5ccc2[nH]5)C=C4)C=C3)cc1
REMARK SMILES IDX 21 1 20 2 19 3 18 4 17 5 2 6 1 7 3 8 4 9 5 10 6 11 11 12
REMARK SMILES IDX 7 13 10 14 8 15 9 16 12 17 13 18 16 19 14 20 15 21 22 22
REMARK SMILES IDX 23 23 24 24 25 25 26 26 27 27 88 28 28 29 87 30 29 31 30 32
REMARK SMILES IDX 31 33 81 34 32 35 86 36 80 37 82 38 33 39 85 40 79 41 78 42
REMARK SMILES IDX 34 44 66 45 46 46 65 47 47 48 50 49 64 50 83 51 48 52 49 53
REMARK SMILES IDX 63 55 84 56 51 57 35 58 36 59 44 60 37 61 39 62 45 63 38 64
REMARK SMILES IDX 40 65 41 66 42 67 43 68 67 69 68 70 76 71 69 72 71 73 77 74
REMARK SMILES IDX 70 75 72 76 73 77 74 78 75 79 52 80 53 81 61 82 54 83 56 84
REMARK SMILES IDX 62 85 55 86 57 87 58 88 59 89 60 90
REMARK H PARENT 82 43 50 54
REMARK Flexibility Score: inf
ROOT
ATOM      1  C   UNL A   1      42.724  21.176  26.082  1.00  0.00     0.202 C 
ENDROOT
BRANCH   1   2
ATOM      2  O   UNL A   1      42.180  21.204  27.407  1.00  0.00    -0.374 OA
BRANCH   2   3
ATOM      3  C   UNL A   1      40.789  21.488  27.555  1.00  0.00     0.202 C 
BRANCH   3   4
ATOM      4  C   UNL A   1      39.907  21.249  26.332  1.00  0.00     0.261 C 
BRANCH   4   5
ATOM      5  O   UNL A   1      38.671  21.974  26.342  1.00  0.00    -0.460 OA
BRANCH   5   6
ATOM      6  C   UNL A   1      37.630  21.811  25.503  1.00  0.00     0.330 C 
ATOM      7  O   UNL A   1      37.744  21.058  24.536  1.00  0.00    -0.247 OA
BRANCH   6   8
ATOM      8  C   UNL A   1      36.381  22.596  25.602  1.00  0.00     0.094 C 
ATOM      9  C   UNL A   1      35.731  23.387  24.729  1.00  0.00     0.018 C 
BRANCH   9  10
ATOM     10  C   UNL A   1      34.428  24.005  25.024  1.00  0.00    -0.001 A 
ATOM     11  C   UNL A   1      34.446  25.299  25.569  1.00  0.00     0.011 A 
ATOM     12  C   UNL A   1      33.176  23.448  24.687  1.00  0.00     0.055 A 
ATOM     13  C   UNL A   1      33.267  26.024  25.746  1.00  0.00     0.016 A 
ATOM     14  C   UNL A   1      31.989  24.179  24.858  1.00  0.00     0.043 A 
ATOM     15  C   UNL A   1      32.048  25.467  25.373  1.00  0.00     0.020 A 
ATOM     16  Br  UNL A   1      30.465  26.481  25.545  1.00  0.00    -0.051 Br
BRANCH  12  17
ATOM     17  N   UNL A   1      33.018  22.140  24.176  1.00  0.00    -0.306 N 
ATOM     18  C   UNL A   1      32.906  21.000  24.933  1.00  0.00     0.113 A 
ATOM     19  C   UNL A   1      32.458  21.832  22.955  1.00  0.00     0.204 A 
ATOM     20  C   UNL A   1      32.398  20.036  24.090  1.00  0.00     0.131 A 
ATOM     21  N   UNL A   1      32.117  20.566  22.859  1.00  0.00    -0.245 NA
ENDBRANCH  12  17
ENDBRANCH   9  10
ENDBRANCH   6   8
ENDBRANCH   5   6
ENDBRANCH   4   5
ENDBRANCH   3   4
ENDBRANCH   2   3
ENDBRANCH   1   2
BRANCH   1  22
ATOM     22  C   UNL A   1      43.580  22.382  25.737  1.00  0.00     0.261 C 
BRANCH  22  23
ATOM     23  O   UNL A   1      42.700  23.459  25.499  1.00  0.00    -0.460 OA
BRANCH  23  24
ATOM     24  C   UNL A   1      43.044  24.607  26.125  1.00  0.00     0.338 C 
ATOM     25  O   UNL A   1      43.950  25.358  25.840  1.00  0.00    -0.246 OA
BRANCH  24  26
ATOM     26  C   UNL A   1      42.152  24.762  27.293  1.00  0.00     0.060 A 
ATOM     27  C   UNL A   1      40.988  25.440  26.957  1.00  0.00     0.016 A 
ATOM     28  C   UNL A   1      42.800  24.923  28.526  1.00  0.00     0.016 A 
ATOM     29  C   UNL A   1      40.802  26.637  27.586  1.00  0.00     0.010 A 
ATOM     30  C   UNL A   1      42.657  26.142  29.119  1.00  0.00     0.010 A 
ATOM     31  C   UNL A   1      41.731  27.019  28.563  1.00  0.00    -0.014 A 
BRANCH  31  32
ATOM     32  C   UNL A   1      41.553  28.304  29.177  1.00  0.00     0.031 A 
ATOM     33  C   UNL A   1      42.539  29.239  28.599  1.00  0.00     0.074 A 
ATOM     34  C   UNL A   1      40.572  28.558  30.057  1.00  0.00     0.049 A 
ATOM     35  N   UNL A   1      43.658  29.608  29.130  1.00  0.00    -0.248 NA
ATOM     36  C   UNL A   1      42.452  29.492  27.149  1.00  0.00     0.031 C 
ATOM     37  C   UNL A   1      39.422  27.725  30.417  1.00  0.00     0.029 A 
ATOM     38  N   UNL A   1      40.327  29.711  30.725  1.00  0.00    -0.354 N 
ATOM     39  C   UNL A   1      44.248  30.397  28.150  1.00  0.00     0.074 A 
ATOM     40  C   UNL A   1      43.668  29.982  26.909  1.00  0.00     0.031 C 
ATOM     41  C   UNL A   1      38.483  28.506  31.005  1.00  0.00     0.029 A 
ATOM     42  C   UNL A   1      39.016  29.849  31.161  1.00  0.00     0.049 A 
ATOM     43  H   UNL A   1      41.020  30.391  30.888  1.00  0.00     0.167 HD
ATOM     44  C   UNL A   1      44.808  31.590  28.491  1.00  0.00     0.034 A 
ATOM     45  C   UNL A   1      38.416  31.021  31.502  1.00  0.00     0.034 A 
ATOM     46  C   UNL A   1      45.105  31.615  29.907  1.00  0.00     0.049 A 
ATOM     47  C   UNL A   1      39.499  32.012  31.738  1.00  0.00     0.074 A 
ATOM     48  C   UNL A   1      45.852  30.824  30.759  1.00  0.00     0.029 A 
ATOM     49  N   UNL A   1      44.228  32.312  30.705  1.00  0.00    -0.354 N 
ATOM     50  N   UNL A   1      40.356  31.918  32.716  1.00  0.00    -0.248 NA
ATOM     51  C   UNL A   1      39.928  32.821  30.606  1.00  0.00     0.031 C 
ATOM     52  C   UNL A   1      45.093  30.756  31.965  1.00  0.00     0.029 A 
ATOM     53  C   UNL A   1      43.968  31.572  31.825  1.00  0.00     0.049 A 
ATOM     54  H   UNL A   1      43.848  33.198  30.502  1.00  0.00     0.167 HD
ATOM     55  C   UNL A   1      41.578  32.239  32.135  1.00  0.00     0.074 A 
ATOM     56  C   UNL A   1      41.238  32.882  30.864  1.00  0.00     0.031 C 
ATOM     57  C   UNL A   1      42.736  31.667  32.580  1.00  0.00     0.034 A 
BRANCH  44  58
ATOM     58  C   UNL A   1      44.619  32.871  27.689  1.00  0.00     0.023 A 
ATOM     59  C   UNL A   1      45.691  33.233  26.844  1.00  0.00     0.012 A 
ATOM     60  C   UNL A   1      43.633  33.865  27.912  1.00  0.00     0.148 A 
ATOM     61  C   UNL A   1      45.832  34.534  26.350  1.00  0.00     0.002 A 
ATOM     62  C   UNL A   1      43.750  35.144  27.384  1.00  0.00     0.091 A 
ATOM     63  F   UNL A   1      42.596  33.643  28.714  1.00  0.00    -0.205 F 
ATOM     64  C   UNL A   1      44.867  35.494  26.630  1.00  0.00     0.022 A 
BRANCH  62  65
ATOM     65  S   UNL A   1      42.516  36.417  27.706  1.00  0.00     0.127 S 
ATOM     66  O   UNL A   1      42.899  36.857  29.043  1.00  0.00    -0.237 OA
ATOM     67  O   UNL A   1      42.792  37.370  26.632  1.00  0.00    -0.237 OA
ATOM     68  O   UNL A   1      41.219  35.761  27.604  1.00  0.00    -0.744 OA
ENDBRANCH  62  65
ENDBRANCH  44  58
BRANCH  45  69
ATOM     69  C   UNL A   1      37.008  31.452  31.305  1.00  0.00     0.023 A 
ATOM     70  C   UNL A   1      36.268  31.945  32.401  1.00  0.00     0.012 A 
ATOM     71  C   UNL A   1      36.484  31.655  30.009  1.00  0.00     0.148 A 
ATOM     72  C   UNL A   1      35.066  32.638  32.210  1.00  0.00     0.002 A 
ATOM     73  C   UNL A   1      35.284  32.337  29.825  1.00  0.00     0.091 A 
ATOM     74  F   UNL A   1      37.205  31.263  28.952  1.00  0.00    -0.205 F 
ATOM     75  C   UNL A   1      34.577  32.842  30.923  1.00  0.00     0.022 A 
BRANCH  73  76
ATOM     76  S   UNL A   1      34.608  32.662  28.189  1.00  0.00     0.127 S 
ATOM     77  O   UNL A   1      35.749  33.275  27.509  1.00  0.00    -0.237 OA
ATOM     78  O   UNL A   1      34.272  31.317  27.729  1.00  0.00    -0.237 OA
ATOM     79  O   UNL A   1      33.479  33.560  28.395  1.00  0.00    -0.744 OA
ENDBRANCH  73  76
ENDBRANCH  45  69
BRANCH  57  80
ATOM     80  C   UNL A   1      42.687  30.891  33.873  1.00  0.00     0.023 A 
ATOM     81  C   UNL A   1      42.755  31.502  35.144  1.00  0.00     0.012 A 
ATOM     82  C   UNL A   1      42.394  29.521  33.794  1.00  0.00     0.148 A 
ATOM     83  C   UNL A   1      42.550  30.753  36.309  1.00  0.00     0.002 A 
ATOM     84  C   UNL A   1      42.144  28.793  34.949  1.00  0.00     0.091 A 
ATOM     85  F   UNL A   1      42.332  28.959  32.578  1.00  0.00    -0.205 F 
ATOM     86  C   UNL A   1      42.231  29.401  36.211  1.00  0.00     0.022 A 
BRANCH  84  87
ATOM     87  S   UNL A   1      41.607  27.084  34.871  1.00  0.00     0.127 S 
ATOM     88  O   UNL A   1      40.445  27.170  33.989  1.00  0.00    -0.237 OA
ATOM     89  O   UNL A   1      42.772  26.415  34.286  1.00  0.00    -0.237 OA
ATOM     90  O   UNL A   1      41.323  26.688  36.244  1.00  0.00    -0.744 OA
ENDBRANCH  84  87
ENDBRANCH  57  80
ENDBRANCH  31  32
ENDBRANCH  24  26
ENDBRANCH  23  24
ENDBRANCH  22  23
ENDBRANCH   1  22
TORSDOF 19
ENDMDL
MODEL 3
REMARK VINA RESULT:      -9.2      4.713     11.192
REMARK SMILES O=C(/C=C/c1ccc(Br)cc1-n1ccnc1)OCCOCCOC(=O)c1ccc(-c2c3nc(c(-c4cccc(S(=O)(=O)[O-])c4F)c4ccc([nH]4)c(-c4cccc(S(=O)(=O)[O-])c4F)c4nc(c(-c5cccc(S(=O)(=O)[O-])c5F)c5ccc2[nH]5)C=C4)C=C3)cc1
REMARK SMILES IDX 21 1 20 2 19 3 18 4 17 5 2 6 1 7 3 8 4 9 5 10 6 11 11 12
REMARK SMILES IDX 7 13 10 14 8 15 9 16 12 17 13 18 16 19 14 20 15 21 22 22
REMARK SMILES IDX 23 23 24 24 25 25 26 26 27 27 88 28 28 29 87 30 29 31 30 32
REMARK SMILES IDX 31 33 81 34 32 35 86 36 80 37 82 38 33 39 85 40 79 41 78 42
REMARK SMILES IDX 34 44 66 45 46 46 65 47 47 48 50 49 64 50 83 51 48 52 49 53
REMARK SMILES IDX 63 55 84 56 51 57 35 58 36 59 44 60 37 61 39 62 45 63 38 64
REMARK SMILES IDX 40 65 41 66 42 67 43 68 67 69 68 70 76 71 69 72 71 73 77 74
REMARK SMILES IDX 70 75 72 76 73 77 74 78 75 79 52 80 53 81 61 82 54 83 56 84
REMARK SMILES IDX 62 85 55 86 57 87 58 88 59 89 60 90
REMARK H PARENT 82 43 50 54
REMARK Flexibility Score: inf
ROOT
ATOM      1  C   UNL A   1      34.418  34.157  31.040  1.00  0.00     0.202 C 
ENDROOT
BRANCH   1   2
ATOM      2  O   UNL A   1      34.908  34.156  29.694  1.00  0.00    -0.374 OA
BRANCH   2   3
ATOM      3  C   UNL A   1      34.242  33.331  28.739  1.00  0.00     0.202 C 
BRANCH   3   4
ATOM      4  C   UNL A   1      35.116  32.373  27.933  1.00  0.00     0.261 C 
BRANCH   4   5
ATOM      5  O   UNL A   1      34.479  31.136  27.590  1.00  0.00    -0.460 OA
BRANCH   5   6
ATOM      6  C   UNL A   1      35.084  29.968  27.300  1.00  0.00     0.330 C 
ATOM      7  O   UNL A   1      36.312  29.893  27.347  1.00  0.00    -0.247 OA
BRANCH   6   8
ATOM      8  C   UNL A   1      34.357  28.785  26.793  1.00  0.00     0.094 C 
ATOM      9  C   UNL A   1      33.914  28.444  25.569  1.00  0.00     0.018 C 
BRANCH   9  10
ATOM     10  C   UNL A   1      33.283  27.146  25.278  1.00  0.00    -0.001 A 
ATOM     11  C   UNL A   1      33.824  26.017  25.915  1.00  0.00     0.011 A 
ATOM     12  C   UNL A   1      32.110  26.973  24.512  1.00  0.00     0.055 A 
ATOM     13  C   UNL A   1      33.208  24.770  25.818  1.00  0.00     0.016 A 
ATOM     14  C   UNL A   1      31.485  25.719  24.420  1.00  0.00     0.043 A 
ATOM     15  C   UNL A   1      32.033  24.631  25.086  1.00  0.00     0.020 A 
ATOM     16  Br  UNL A   1      31.163  22.957  25.021  1.00  0.00    -0.051 Br
BRANCH  12  17
ATOM     17  N   UNL A   1      31.494  28.017  23.785  1.00  0.00    -0.306 N 
ATOM     18  C   UNL A   1      31.017  27.917  22.502  1.00  0.00     0.113 A 
ATOM     19  C   UNL A   1      30.826  29.083  24.348  1.00  0.00     0.204 A 
ATOM     20  C   UNL A   1      30.182  28.998  22.324  1.00  0.00     0.131 A 
ATOM     21  N   UNL A   1      30.065  29.717  23.484  1.00  0.00    -0.245 NA
ENDBRANCH  12  17
ENDBRANCH   9  10
ENDBRANCH   6   8
ENDBRANCH   5   6
ENDBRANCH   4   5
ENDBRANCH   3   4
ENDBRANCH   2   3
ENDBRANCH   1   2
BRANCH   1  22
ATOM     22  C   UNL A   1      35.296  33.398  32.020  1.00  0.00     0.261 C 
BRANCH  22  23
ATOM     23  O   UNL A   1      35.707  32.213  31.375  1.00  0.00    -0.460 OA
BRANCH  23  24
ATOM     24  C   UNL A   1      36.979  31.843  31.651  1.00  0.00     0.338 C 
ATOM     25  O   UNL A   1      37.592  32.023  32.679  1.00  0.00    -0.246 OA
BRANCH  24  26
ATOM     26  C   UNL A   1      37.537  31.226  30.430  1.00  0.00     0.060 A 
ATOM     27  C   UNL A   1      37.378  29.847  30.438  1.00  0.00     0.016 A 
ATOM     28  C   UNL A   1      38.670  31.861  29.901  1.00  0.00     0.016 A 
ATOM     29  C   UNL A   1      38.535  29.122  30.444  1.00  0.00     0.010 A 
ATOM     30  C   UNL A   1      39.833  31.152  29.964  1.00  0.00     0.010 A 
ATOM     31  C   UNL A   1      39.748  29.816  30.344  1.00  0.00    -0.014 A 
BRANCH  31  32
ATOM     32  C   UNL A   1      40.958  29.046  30.406  1.00  0.00     0.031 A 
ATOM     33  C   UNL A   1      41.371  28.938  31.818  1.00  0.00     0.074 A 
ATOM     34  C   UNL A   1      41.511  28.475  29.323  1.00  0.00     0.049 A 
ATOM     35  N   UNL A   1      42.283  29.635  32.413  1.00  0.00    -0.248 NA
ATOM     36  C   UNL A   1      40.438  28.261  32.739  1.00  0.00     0.031 C 
ATOM     37  C   UNL A   1      40.957  28.336  27.974  1.00  0.00     0.029 A 
ATOM     38  N   UNL A   1      42.660  27.762  29.251  1.00  0.00    -0.354 N 
ATOM     39  C   UNL A   1      42.206  29.223  33.738  1.00  0.00     0.074 A 
ATOM     40  C   UNL A   1      40.883  28.707  33.914  1.00  0.00     0.031 C 
ATOM     41  C   UNL A   1      41.635  27.360  27.322  1.00  0.00     0.029 A 
ATOM     42  C   UNL A   1      42.728  26.901  28.164  1.00  0.00     0.049 A 
ATOM     43  H   UNL A   1      43.384  27.847  29.912  1.00  0.00     0.167 HD
ATOM     44  C   UNL A   1      43.348  28.938  34.423  1.00  0.00     0.034 A 
ATOM     45  C   UNL A   1      43.556  25.828  28.056  1.00  0.00     0.034 A 
ATOM     46  C   UNL A   1      44.484  29.567  33.783  1.00  0.00     0.049 A 
ATOM     47  C   UNL A   1      44.629  26.003  29.070  1.00  0.00     0.074 A 
ATOM     48  C   UNL A   1      44.810  30.864  33.436  1.00  0.00     0.029 A 
ATOM     49  N   UNL A   1      45.280  28.754  33.010  1.00  0.00    -0.354 N 
ATOM     50  N   UNL A   1      45.512  26.961  29.020  1.00  0.00    -0.248 NA
ATOM     51  C   UNL A   1      44.412  25.420  30.386  1.00  0.00     0.031 C 
ATOM     52  C   UNL A   1      45.459  30.759  32.170  1.00  0.00     0.029 A 
ATOM     53  C   UNL A   1      45.576  29.406  31.845  1.00  0.00     0.049 A 
ATOM     54  H   UNL A   1      45.585  27.850  33.255  1.00  0.00     0.167 HD
ATOM     55  C   UNL A   1      45.602  27.415  30.331  1.00  0.00     0.074 A 
ATOM     56  C   UNL A   1      44.980  26.365  31.141  1.00  0.00     0.031 C 
ATOM     57  C   UNL A   1      45.872  28.727  30.601  1.00  0.00     0.034 A 
BRANCH  44  58
ATOM     58  C   UNL A   1      43.509  27.722  35.326  1.00  0.00     0.023 A 
ATOM     59  C   UNL A   1      43.971  27.983  36.634  1.00  0.00     0.012 A 
ATOM     60  C   UNL A   1      43.523  26.364  34.915  1.00  0.00     0.148 A 
ATOM     61  C   UNL A   1      44.519  26.977  37.436  1.00  0.00     0.002 A 
ATOM     62  C   UNL A   1      44.026  25.359  35.729  1.00  0.00     0.091 A 
ATOM     63  F   UNL A   1      43.139  26.008  33.693  1.00  0.00    -0.205 F 
ATOM     64  C   UNL A   1      44.557  25.666  36.979  1.00  0.00     0.022 A 
BRANCH  62  65
ATOM     65  S   UNL A   1      44.082  23.642  35.186  1.00  0.00     0.127 S 
ATOM     66  O   UNL A   1      42.662  23.342  35.035  1.00  0.00    -0.237 OA
ATOM     67  O   UNL A   1      44.832  23.755  33.936  1.00  0.00    -0.237 OA
ATOM     68  O   UNL A   1      44.776  22.906  36.235  1.00  0.00    -0.744 OA
ENDBRANCH  62  65
ENDBRANCH  44  58
BRANCH  45  69
ATOM     69  C   UNL A   1      43.316  24.513  27.409  1.00  0.00     0.023 A 
ATOM     70  C   UNL A   1      42.016  23.964  27.401  1.00  0.00     0.012 A 
ATOM     71  C   UNL A   1      44.282  23.935  26.555  1.00  0.00     0.148 A 
ATOM     72  C   UNL A   1      41.685  22.898  26.553  1.00  0.00     0.002 A 
ATOM     73  C   UNL A   1      43.950  22.870  25.721  1.00  0.00     0.091 A 
ATOM     74  F   UNL A   1      45.500  24.487  26.491  1.00  0.00    -0.205 F 
ATOM     75  C   UNL A   1      42.648  22.356  25.708  1.00  0.00     0.022 A 
BRANCH  73  76
ATOM     76  S   UNL A   1      45.137  22.140  24.583  1.00  0.00     0.127 S 
ATOM     77  O   UNL A   1      45.472  23.278  23.726  1.00  0.00    -0.237 OA
ATOM     78  O   UNL A   1      46.204  21.720  25.486  1.00  0.00    -0.237 OA
ATOM     79  O   UNL A   1      44.427  21.065  23.901  1.00  0.00    -0.744 OA
ENDBRANCH  73  76
ENDBRANCH  45  69
BRANCH  57  80
ATOM     80  C   UNL A   1      46.326  29.602  29.459  1.00  0.00     0.023 A 
ATOM     81  C   UNL A   1      47.648  29.600  28.962  1.00  0.00     0.012 A 
ATOM     82  C   UNL A   1      45.342  30.319  28.762  1.00  0.00     0.148 A 
ATOM     83  C   UNL A   1      47.978  30.314  27.804  1.00  0.00     0.002 A 
ATOM     84  C   UNL A   1      45.663  30.987  27.588  1.00  0.00     0.091 A 
ATOM     85  F   UNL A   1      44.092  30.307  29.248  1.00  0.00    -0.205 F 
ATOM     86  C   UNL A   1      46.982  30.996  27.109  1.00  0.00     0.022 A 
BRANCH  84  87
ATOM     87  S   UNL A   1      44.397  31.773  26.591  1.00  0.00     0.127 S 
ATOM     88  O   UNL A   1      43.917  32.826  27.484  1.00  0.00    -0.237 OA
ATOM     89  O   UNL A   1      45.160  32.250  25.435  1.00  0.00    -0.237 OA
ATOM     90  O   UNL A   1      43.429  30.730  26.274  1.00  0.00    -0.744 OA
ENDBRANCH  84  87
ENDBRANCH  57  80
ENDBRANCH  31  32
ENDBRANCH  24  26
ENDBRANCH  23  24
ENDBRANCH  22  23
ENDBRANCH   1  22
TORSDOF 19
ENDMDL
