MODEL 1
REMARK VINA RESULT:     -12.0      0.000      0.000
REMARK SMILES C[C@@]1(CN2C(=O)c3ccc(C(=O)OCCOCCOC(=O)c4ccc(-c5c6nc(c(-c7cccc(S(=O)(=O)[O-])c7F)c7ccc([nH]7)c(-c7cccc(S(=O)(=O)[O-])c7F)c7nc(c(-c8cccc(S(=O)(=O)[O-])c8F)c8ccc5[nH]8)C=C7)C=C6)cc4)cc3C2=O)CCCO1
REMARK SMILES IDX 17 1 16 2 15 3 14 4 13 5 11 6 12 7 10 8 4 9 5 10 87 11 6 12
REMARK SMILES IDX 7 13 86 14 88 15 8 16 85 17 9 18 3 19 2 20 1 21 89 22 92 23
REMARK SMILES IDX 90 24 91 25 18 26 19 27 20 28 21 29 22 30 23 31 84 32 24 33
REMARK SMILES IDX 83 34 25 35 26 36 27 37 77 38 28 39 82 40 76 41 78 42 29 43
REMARK SMILES IDX 81 44 75 45 74 46 30 48 62 49 42 50 61 51 43 52 46 53 60 54
REMARK SMILES IDX 79 55 44 56 45 57 59 59 80 60 47 61 31 62 32 63 40 64 33 65
REMARK SMILES IDX 35 66 41 67 34 68 36 69 37 70 38 71 39 72 63 73 64 74 72 75
REMARK SMILES IDX 65 76 67 77 73 78 66 79 68 80 69 81 70 82 71 83 48 84 49 85
REMARK SMILES IDX 57 86 50 87 52 88 58 89 51 90 53 91 54 92 55 93 56 94
REMARK H PARENT 78 47 46 58
REMARK Flexibility Score: inf
ROOT
ATOM      1  C   UNL A   1      36.160  19.799  24.924  1.00  0.00     0.202 C 
ENDROOT
BRANCH   1   2
ATOM      2  O   UNL A   1      35.510  21.060  25.080  1.00  0.00    -0.374 OA
BRANCH   2   3
ATOM      3  C   UNL A   1      34.892  21.341  26.335  1.00  0.00     0.202 C 
BRANCH   3   4
ATOM      4  C   UNL A   1      34.395  22.769  26.580  1.00  0.00     0.261 C 
BRANCH   4   5
ATOM      5  O   UNL A   1      33.804  23.335  25.402  1.00  0.00    -0.460 OA
BRANCH   5   6
ATOM      6  C   UNL A   1      34.513  24.342  24.841  1.00  0.00     0.338 C 
ATOM      7  O   UNL A   1      35.584  24.256  24.264  1.00  0.00    -0.246 OA
BRANCH   6   8
ATOM      8  C   UNL A   1      33.714  25.591  24.846  1.00  0.00     0.060 A 
ATOM      9  N   UNL A   1      30.990  28.799  23.053  1.00  0.00    -0.271 N 
ATOM     10  C   UNL A   1      31.406  29.050  24.334  1.00  0.00     0.261 C 
ATOM     11  C   UNL A   1      31.340  27.545  22.642  1.00  0.00     0.261 C 
ATOM     12  O   UNL A   1      31.191  30.020  25.030  1.00  0.00    -0.269 OA
ATOM     13  C   UNL A   1      32.218  27.902  24.736  1.00  0.00     0.053 A 
ATOM     14  C   UNL A   1      32.178  26.989  23.698  1.00  0.00     0.054 A 
ATOM     15  O   UNL A   1      31.027  26.942  21.629  1.00  0.00    -0.269 OA
ATOM     16  C   UNL A   1      32.984  27.691  25.868  1.00  0.00     0.015 A 
ATOM     17  C   UNL A   1      32.903  25.818  23.724  1.00  0.00     0.030 A 
ATOM     18  C   UNL A   1      33.742  26.513  25.920  1.00  0.00     0.016 A 
BRANCH   9  19
ATOM     19  C   UNL A   1      30.326  29.772  22.202  1.00  0.00     0.164 C 
BRANCH  19  20
ATOM     20  C   UNL A   1      28.802  29.897  22.506  1.00  0.00     0.084 C 
ATOM     21  C   UNL A   1      28.191  28.581  22.988  1.00  0.00     0.044 C 
ATOM     22  C   UNL A   1      28.042  30.428  21.287  1.00  0.00     0.039 C 
ATOM     23  O   UNL A   1      28.603  30.883  23.542  1.00  0.00    -0.373 OA
ATOM     24  C   UNL A   1      28.116  31.924  21.466  1.00  0.00     0.031 C 
ATOM     25  C   UNL A   1      28.060  32.079  22.969  1.00  0.00     0.161 C 
ENDBRANCH  19  20
ENDBRANCH   9  19
ENDBRANCH   6   8
ENDBRANCH   5   6
ENDBRANCH   4   5
ENDBRANCH   3   4
ENDBRANCH   2   3
ENDBRANCH   1   2
BRANCH   1  26
ATOM     26  C   UNL A   1      37.694  19.762  24.956  1.00  0.00     0.261 C 
BRANCH  26  27
ATOM     27  O   UNL A   1      38.281  21.006  25.369  1.00  0.00    -0.460 OA
BRANCH  27  28
ATOM     28  C   UNL A   1      39.434  20.875  26.072  1.00  0.00     0.338 C 
ATOM     29  O   UNL A   1      40.159  19.896  26.120  1.00  0.00    -0.246 OA
BRANCH  28  30
ATOM     30  C   UNL A   1      39.820  22.176  26.649  1.00  0.00     0.060 A 
ATOM     31  C   UNL A   1      39.191  23.321  26.146  1.00  0.00     0.016 A 
ATOM     32  C   UNL A   1      40.827  22.279  27.610  1.00  0.00     0.016 A 
ATOM     33  C   UNL A   1      39.602  24.584  26.564  1.00  0.00     0.010 A 
ATOM     34  C   UNL A   1      41.242  23.549  28.025  1.00  0.00     0.010 A 
ATOM     35  C   UNL A   1      40.658  24.706  27.476  1.00  0.00    -0.014 A 
BRANCH  35  36
ATOM     36  C   UNL A   1      41.237  26.043  27.754  1.00  0.00     0.031 A 
ATOM     37  C   UNL A   1      42.639  26.343  27.299  1.00  0.00     0.074 A 
ATOM     38  C   UNL A   1      40.521  26.979  28.402  1.00  0.00     0.049 A 
ATOM     39  N   UNL A   1      43.352  27.426  27.472  1.00  0.00    -0.248 NA
ATOM     40  C   UNL A   1      43.333  25.280  26.553  1.00  0.00     0.031 C 
ATOM     41  C   UNL A   1      39.151  26.811  28.884  1.00  0.00     0.029 A 
ATOM     42  N   UNL A   1      40.861  28.251  28.789  1.00  0.00    -0.354 N 
ATOM     43  C   UNL A   1      44.587  27.164  26.892  1.00  0.00     0.074 A 
ATOM     44  C   UNL A   1      44.532  25.815  26.370  1.00  0.00     0.031 C 
ATOM     45  C   UNL A   1      38.776  27.930  29.527  1.00  0.00     0.029 A 
ATOM     46  C   UNL A   1      39.888  28.878  29.529  1.00  0.00     0.049 A 
ATOM     47  H   UNL A   1      41.719  28.676  28.557  1.00  0.00     0.167 HD
ATOM     48  C   UNL A   1      45.665  27.976  26.789  1.00  0.00     0.034 A 
ATOM     49  C   UNL A   1      39.903  30.067  30.162  1.00  0.00     0.034 A 
ATOM     50  C   UNL A   1      45.712  29.322  27.295  1.00  0.00     0.049 A 
ATOM     51  C   UNL A   1      41.127  30.939  30.062  1.00  0.00     0.074 A 
ATOM     52  C   UNL A   1      46.739  30.242  27.195  1.00  0.00     0.029 A 
ATOM     53  N   UNL A   1      44.695  29.934  28.010  1.00  0.00    -0.354 N 
ATOM     54  N   UNL A   1      42.246  30.722  29.413  1.00  0.00    -0.248 NA
ATOM     55  C   UNL A   1      41.079  32.236  30.754  1.00  0.00     0.031 C 
ATOM     56  C   UNL A   1      46.361  31.396  27.888  1.00  0.00     0.029 A 
ATOM     57  C   UNL A   1      45.078  31.214  28.377  1.00  0.00     0.049 A 
ATOM     58  H   UNL A   1      43.828  29.521  28.227  1.00  0.00     0.167 HD
ATOM     59  C   UNL A   1      43.016  31.868  29.585  1.00  0.00     0.074 A 
ATOM     60  C   UNL A   1      42.228  32.784  30.384  1.00  0.00     0.031 C 
ATOM     61  C   UNL A   1      44.266  32.135  29.132  1.00  0.00     0.034 A 
BRANCH  48  62
ATOM     62  C   UNL A   1      46.889  27.435  26.095  1.00  0.00     0.023 A 
ATOM     63  C   UNL A   1      47.073  27.660  24.716  1.00  0.00     0.012 A 
ATOM     64  C   UNL A   1      47.884  26.752  26.822  1.00  0.00     0.148 A 
ATOM     65  C   UNL A   1      48.211  27.183  24.064  1.00  0.00     0.002 A 
ATOM     66  C   UNL A   1      49.037  26.323  26.177  1.00  0.00     0.091 A 
ATOM     67  F   UNL A   1      47.682  26.530  28.129  1.00  0.00    -0.205 F 
ATOM     68  C   UNL A   1      49.196  26.527  24.796  1.00  0.00     0.022 A 
BRANCH  66  69
ATOM     69  S   UNL A   1      50.400  25.540  27.045  1.00  0.00     0.127 S 
ATOM     70  O   UNL A   1      51.348  25.307  25.956  1.00  0.00    -0.237 OA
ATOM     71  O   UNL A   1      50.802  26.584  27.989  1.00  0.00    -0.237 OA
ATOM     72  O   UNL A   1      49.851  24.341  27.661  1.00  0.00    -0.744 OA
ENDBRANCH  66  69
ENDBRANCH  48  62
BRANCH  49  73
ATOM     73  C   UNL A   1      38.711  30.516  30.936  1.00  0.00     0.023 A 
ATOM     74  C   UNL A   1      38.627  30.240  32.314  1.00  0.00     0.012 A 
ATOM     75  C   UNL A   1      37.663  31.222  30.312  1.00  0.00     0.148 A 
ATOM     76  C   UNL A   1      37.506  30.626  33.050  1.00  0.00     0.002 A 
ATOM     77  C   UNL A   1      36.577  31.654  31.062  1.00  0.00     0.091 A 
ATOM     78  F   UNL A   1      37.756  31.463  28.997  1.00  0.00    -0.205 F 
ATOM     79  C   UNL A   1      36.486  31.340  32.427  1.00  0.00     0.022 A 
BRANCH  77  80
ATOM     80  S   UNL A   1      35.281  32.690  30.374  1.00  0.00     0.127 S 
ATOM     81  O   UNL A   1      36.020  33.897  30.017  1.00  0.00    -0.237 OA
ATOM     82  O   UNL A   1      34.825  31.885  29.240  1.00  0.00    -0.237 OA
ATOM     83  O   UNL A   1      34.295  32.845  31.435  1.00  0.00    -0.744 OA
ENDBRANCH  77  80
ENDBRANCH  49  73
BRANCH  61  84
ATOM     84  C   UNL A   1      44.851  33.491  29.438  1.00  0.00     0.023 A 
ATOM     85  C   UNL A   1      45.496  33.723  30.669  1.00  0.00     0.012 A 
ATOM     86  C   UNL A   1      44.824  34.514  28.469  1.00  0.00     0.148 A 
ATOM     87  C   UNL A   1      46.069  34.964  30.946  1.00  0.00     0.002 A 
ATOM     88  C   UNL A   1      45.445  35.730  28.730  1.00  0.00     0.091 A 
ATOM     89  F   UNL A   1      44.194  34.280  27.309  1.00  0.00    -0.205 F 
ATOM     90  C   UNL A   1      46.056  35.961  29.973  1.00  0.00     0.022 A 
BRANCH  88  91
ATOM     91  S   UNL A   1      45.565  37.036  27.504  1.00  0.00     0.127 S 
ATOM     92  O   UNL A   1      44.196  37.551  27.483  1.00  0.00    -0.237 OA
ATOM     93  O   UNL A   1      46.547  37.938  28.108  1.00  0.00    -0.237 OA
ATOM     94  O   UNL A   1      46.007  36.396  26.273  1.00  0.00    -0.744 OA
ENDBRANCH  88  91
ENDBRANCH  61  84
ENDBRANCH  35  36
ENDBRANCH  28  30
ENDBRANCH  27  28
ENDBRANCH  26  27
ENDBRANCH   1  26
TORSDOF 19
ENDMDL
MODEL 2
REMARK VINA RESULT:     -11.6      4.707     10.541
REMARK SMILES C[C@@]1(CN2C(=O)c3ccc(C(=O)OCCOCCOC(=O)c4ccc(-c5c6nc(c(-c7cccc(S(=O)(=O)[O-])c7F)c7ccc([nH]7)c(-c7cccc(S(=O)(=O)[O-])c7F)c7nc(c(-c8cccc(S(=O)(=O)[O-])c8F)c8ccc5[nH]8)C=C7)C=C6)cc4)cc3C2=O)CCCO1
REMARK SMILES IDX 17 1 16 2 15 3 14 4 13 5 11 6 12 7 10 8 4 9 5 10 87 11 6 12
REMARK SMILES IDX 7 13 86 14 88 15 8 16 85 17 9 18 3 19 2 20 1 21 89 22 92 23
REMARK SMILES IDX 90 24 91 25 18 26 19 27 20 28 21 29 22 30 23 31 84 32 24 33
REMARK SMILES IDX 83 34 25 35 26 36 27 37 77 38 28 39 82 40 76 41 78 42 29 43
REMARK SMILES IDX 81 44 75 45 74 46 30 48 62 49 42 50 61 51 43 52 46 53 60 54
REMARK SMILES IDX 79 55 44 56 45 57 59 59 80 60 47 61 31 62 32 63 40 64 33 65
REMARK SMILES IDX 35 66 41 67 34 68 36 69 37 70 38 71 39 72 63 73 64 74 72 75
REMARK SMILES IDX 65 76 67 77 73 78 66 79 68 80 69 81 70 82 71 83 48 84 49 85
REMARK SMILES IDX 57 86 50 87 52 88 58 89 51 90 53 91 54 92 55 93 56 94
REMARK H PARENT 78 47 46 58
REMARK Flexibility Score: inf
ROOT
ATOM      1  C   UNL A   1      31.438  31.051  26.292  1.00  0.00     0.202 C 
ENDROOT
BRANCH   1   2
ATOM      2  O   UNL A   1      30.803  30.771  25.045  1.00  0.00    -0.374 OA
BRANCH   2   3
ATOM      3  C   UNL A   1      29.751  31.638  24.623  1.00  0.00     0.202 C 
BRANCH   3   4
ATOM      4  C   UNL A   1      28.984  31.259  23.351  1.00  0.00     0.261 C 
BRANCH   4   5
ATOM      5  O   UNL A   1      28.819  29.839  23.234  1.00  0.00    -0.460 OA
BRANCH   5   6
ATOM      6  C   UNL A   1      29.641  29.246  22.337  1.00  0.00     0.338 C 
ATOM      7  O   UNL A   1      30.127  29.750  21.338  1.00  0.00    -0.246 OA
BRANCH   6   8
ATOM      8  C   UNL A   1      30.049  27.908  22.828  1.00  0.00     0.060 A 
ATOM      9  N   UNL A   1      32.716  24.199  23.077  1.00  0.00    -0.271 N 
ATOM     10  C   UNL A   1      31.574  24.136  23.831  1.00  0.00     0.261 C 
ATOM     11  C   UNL A   1      32.903  25.441  22.542  1.00  0.00     0.261 C 
ATOM     12  O   UNL A   1      31.155  23.221  24.509  1.00  0.00    -0.269 OA
ATOM     13  C   UNL A   1      30.891  25.418  23.653  1.00  0.00     0.053 A 
ATOM     14  C   UNL A   1      31.705  26.208  22.862  1.00  0.00     0.054 A 
ATOM     15  O   UNL A   1      33.862  25.891  21.938  1.00  0.00    -0.269 OA
ATOM     16  C   UNL A   1      29.644  25.842  24.075  1.00  0.00     0.015 A 
ATOM     17  C   UNL A   1      31.322  27.462  22.441  1.00  0.00     0.030 A 
ATOM     18  C   UNL A   1      29.221  27.111  23.654  1.00  0.00     0.016 A 
BRANCH   9  19
ATOM     19  C   UNL A   1      33.585  23.065  22.812  1.00  0.00     0.164 C 
BRANCH  19  20
ATOM     20  C   UNL A   1      34.830  23.029  23.747  1.00  0.00     0.084 C 
ATOM     21  C   UNL A   1      36.148  23.100  22.974  1.00  0.00     0.044 C 
ATOM     22  C   UNL A   1      34.803  21.791  24.649  1.00  0.00     0.039 C 
ATOM     23  O   UNL A   1      34.783  24.159  24.646  1.00  0.00    -0.373 OA
ATOM     24  C   UNL A   1      34.018  22.261  25.849  1.00  0.00     0.031 C 
ATOM     25  C   UNL A   1      34.427  23.713  25.960  1.00  0.00     0.161 C 
ENDBRANCH  19  20
ENDBRANCH   9  19
ENDBRANCH   6   8
ENDBRANCH   5   6
ENDBRANCH   4   5
ENDBRANCH   3   4
ENDBRANCH   2   3
ENDBRANCH   1   2
BRANCH   1  26
ATOM     26  C   UNL A   1      31.500  32.509  26.766  1.00  0.00     0.261 C 
BRANCH  26  27
ATOM     27  O   UNL A   1      32.808  33.090  26.643  1.00  0.00    -0.460 OA
BRANCH  27  28
ATOM     28  C   UNL A   1      33.303  33.604  27.796  1.00  0.00     0.338 C 
ATOM     29  O   UNL A   1      32.770  34.423  28.525  1.00  0.00    -0.246 OA
BRANCH  28  30
ATOM     30  C   UNL A   1      34.534  32.887  28.178  1.00  0.00     0.060 A 
ATOM     31  C   UNL A   1      34.411  31.545  28.560  1.00  0.00     0.016 A 
ATOM     32  C   UNL A   1      35.770  33.532  28.230  1.00  0.00     0.016 A 
ATOM     33  C   UNL A   1      35.517  30.854  29.047  1.00  0.00     0.010 A 
ATOM     34  C   UNL A   1      36.878  32.838  28.724  1.00  0.00     0.010 A 
ATOM     35  C   UNL A   1      36.749  31.509  29.170  1.00  0.00    -0.014 A 
BRANCH  35  36
ATOM     36  C   UNL A   1      37.865  30.845  29.886  1.00  0.00     0.031 A 
ATOM     37  C   UNL A   1      38.124  31.197  31.326  1.00  0.00     0.074 A 
ATOM     38  C   UNL A   1      38.637  29.938  29.263  1.00  0.00     0.049 A 
ATOM     39  N   UNL A   1      39.066  30.770  32.126  1.00  0.00    -0.248 NA
ATOM     40  C   UNL A   1      37.200  32.161  31.946  1.00  0.00     0.031 C 
ATOM     41  C   UNL A   1      38.480  29.508  27.874  1.00  0.00     0.029 A 
ATOM     42  N   UNL A   1      39.726  29.235  29.712  1.00  0.00    -0.354 N 
ATOM     43  C   UNL A   1      38.874  31.439  33.329  1.00  0.00     0.074 A 
ATOM     44  C   UNL A   1      37.731  32.308  33.152  1.00  0.00     0.031 C 
ATOM     45  C   UNL A   1      39.456  28.633  27.576  1.00  0.00     0.029 A 
ATOM     46  C   UNL A   1      40.323  28.467  28.741  1.00  0.00     0.049 A 
ATOM     47  H   UNL A   1      40.049  29.275  30.642  1.00  0.00     0.167 HD
ATOM     48  C   UNL A   1      39.576  31.329  34.482  1.00  0.00     0.034 A 
ATOM     49  C   UNL A   1      41.455  27.738  28.778  1.00  0.00     0.034 A 
ATOM     50  C   UNL A   1      40.702  30.451  34.659  1.00  0.00     0.049 A 
ATOM     51  C   UNL A   1      42.238  27.658  30.063  1.00  0.00     0.074 A 
ATOM     52  C   UNL A   1      41.447  30.231  35.804  1.00  0.00     0.029 A 
ATOM     53  N   UNL A   1      41.257  29.664  33.663  1.00  0.00    -0.354 N 
ATOM     54  N   UNL A   1      41.978  28.208  31.225  1.00  0.00    -0.248 NA
ATOM     55  C   UNL A   1      43.453  26.829  30.052  1.00  0.00     0.031 C 
ATOM     56  C   UNL A   1      42.479  29.343  35.488  1.00  0.00     0.029 A 
ATOM     57  C   UNL A   1      42.348  28.971  34.160  1.00  0.00     0.049 A 
ATOM     58  H   UNL A   1      40.925  29.606  32.738  1.00  0.00     0.167 HD
ATOM     59  C   UNL A   1      42.972  27.761  32.090  1.00  0.00     0.074 A 
ATOM     60  C   UNL A   1      43.828  26.880  31.322  1.00  0.00     0.031 C 
ATOM     61  C   UNL A   1      43.165  28.060  33.399  1.00  0.00     0.034 A 
BRANCH  48  62
ATOM     62  C   UNL A   1      39.142  32.175  35.652  1.00  0.00     0.023 A 
ATOM     63  C   UNL A   1      38.270  31.641  36.622  1.00  0.00     0.012 A 
ATOM     64  C   UNL A   1      39.645  33.480  35.819  1.00  0.00     0.148 A 
ATOM     65  C   UNL A   1      37.877  32.406  37.721  1.00  0.00     0.002 A 
ATOM     66  C   UNL A   1      39.288  34.218  36.941  1.00  0.00     0.091 A 
ATOM     67  F   UNL A   1      40.457  33.978  34.875  1.00  0.00    -0.205 F 
ATOM     68  C   UNL A   1      38.395  33.687  37.885  1.00  0.00     0.022 A 
BRANCH  66  69
ATOM     69  S   UNL A   1      39.963  35.846  37.286  1.00  0.00     0.127 S 
ATOM     70  O   UNL A   1      39.158  36.261  38.434  1.00  0.00    -0.237 OA
ATOM     71  O   UNL A   1      41.359  35.538  37.600  1.00  0.00    -0.237 OA
ATOM     72  O   UNL A   1      39.770  36.628  36.074  1.00  0.00    -0.744 OA
ENDBRANCH  66  69
ENDBRANCH  48  62
BRANCH  49  73
ATOM     73  C   UNL A   1      41.912  27.007  27.563  1.00  0.00     0.023 A 
ATOM     74  C   UNL A   1      42.505  27.716  26.502  1.00  0.00     0.012 A 
ATOM     75  C   UNL A   1      41.767  25.609  27.458  1.00  0.00     0.148 A 
ATOM     76  C   UNL A   1      42.913  27.053  25.343  1.00  0.00     0.002 A 
ATOM     77  C   UNL A   1      42.228  24.948  26.327  1.00  0.00     0.091 A 
ATOM     78  F   UNL A   1      41.187  24.954  28.474  1.00  0.00    -0.205 F 
ATOM     79  C   UNL A   1      42.783  25.670  25.260  1.00  0.00     0.022 A 
BRANCH  77  80
ATOM     80  S   UNL A   1      42.220  23.157  26.186  1.00  0.00     0.127 S 
ATOM     81  O   UNL A   1      43.088  22.766  27.293  1.00  0.00    -0.237 OA
ATOM     82  O   UNL A   1      40.802  22.849  26.373  1.00  0.00    -0.237 OA
ATOM     83  O   UNL A   1      42.728  22.865  24.852  1.00  0.00    -0.744 OA
ENDBRANCH  77  80
ENDBRANCH  49  73
BRANCH  61  84
ATOM     84  C   UNL A   1      44.315  27.393  34.111  1.00  0.00     0.023 A 
ATOM     85  C   UNL A   1      45.517  28.096  34.328  1.00  0.00     0.012 A 
ATOM     86  C   UNL A   1      44.173  26.090  34.629  1.00  0.00     0.148 A 
ATOM     87  C   UNL A   1      46.573  27.498  35.015  1.00  0.00     0.002 A 
ATOM     88  C   UNL A   1      45.210  25.522  35.361  1.00  0.00     0.091 A 
ATOM     89  F   UNL A   1      43.028  25.432  34.400  1.00  0.00    -0.205 F 
ATOM     90  C   UNL A   1      46.415  26.218  35.542  1.00  0.00     0.022 A 
BRANCH  88  91
ATOM     91  S   UNL A   1      45.062  23.920  36.161  1.00  0.00     0.127 S 
ATOM     92  O   UNL A   1      46.306  23.268  35.754  1.00  0.00    -0.237 OA
ATOM     93  O   UNL A   1      44.998  24.287  37.576  1.00  0.00    -0.237 OA
ATOM     94  O   UNL A   1      43.844  23.318  35.636  1.00  0.00    -0.744 OA
ENDBRANCH  88  91
ENDBRANCH  61  84
ENDBRANCH  35  36
ENDBRANCH  28  30
ENDBRANCH  27  28
ENDBRANCH  26  27
ENDBRANCH   1  26
TORSDOF 19
ENDMDL
MODEL 3
REMARK VINA RESULT:     -11.4      5.103      8.461
REMARK SMILES C[C@@]1(CN2C(=O)c3ccc(C(=O)OCCOCCOC(=O)c4ccc(-c5c6nc(c(-c7cccc(S(=O)(=O)[O-])c7F)c7ccc([nH]7)c(-c7cccc(S(=O)(=O)[O-])c7F)c7nc(c(-c8cccc(S(=O)(=O)[O-])c8F)c8ccc5[nH]8)C=C7)C=C6)cc4)cc3C2=O)CCCO1
REMARK SMILES IDX 17 1 16 2 15 3 14 4 13 5 11 6 12 7 10 8 4 9 5 10 87 11 6 12
REMARK SMILES IDX 7 13 86 14 88 15 8 16 85 17 9 18 3 19 2 20 1 21 89 22 92 23
REMARK SMILES IDX 90 24 91 25 18 26 19 27 20 28 21 29 22 30 23 31 84 32 24 33
REMARK SMILES IDX 83 34 25 35 26 36 27 37 77 38 28 39 82 40 76 41 78 42 29 43
REMARK SMILES IDX 81 44 75 45 74 46 30 48 62 49 42 50 61 51 43 52 46 53 60 54
REMARK SMILES IDX 79 55 44 56 45 57 59 59 80 60 47 61 31 62 32 63 40 64 33 65
REMARK SMILES IDX 35 66 41 67 34 68 36 69 37 70 38 71 39 72 63 73 64 74 72 75
REMARK SMILES IDX 65 76 67 77 73 78 66 79 68 80 69 81 70 82 71 83 48 84 49 85
REMARK SMILES IDX 57 86 50 87 52 88 58 89 51 90 53 91 54 92 55 93 56 94
REMARK H PARENT 78 47 46 58
REMARK Flexibility Score: inf
ROOT
ATOM      1  C   UNL A   1      30.722  30.649  25.277  1.00  0.00     0.202 C 
ENDROOT
BRANCH   1   2
ATOM      2  O   UNL A   1      29.968  30.975  24.110  1.00  0.00    -0.374 OA
BRANCH   2   3
ATOM      3  C   UNL A   1      29.893  30.001  23.070  1.00  0.00     0.202 C 
BRANCH   3   4
ATOM      4  C   UNL A   1      30.282  28.559  23.416  1.00  0.00     0.261 C 
BRANCH   4   5
ATOM      5  O   UNL A   1      31.256  28.039  22.500  1.00  0.00    -0.460 OA
BRANCH   5   6
ATOM      6  C   UNL A   1      32.542  28.263  22.856  1.00  0.00     0.338 C 
ATOM      7  O   UNL A   1      33.176  29.296  22.715  1.00  0.00    -0.246 OA
BRANCH   6   8
ATOM      8  C   UNL A   1      33.060  27.117  23.641  1.00  0.00     0.060 A 
ATOM      9  N   UNL A   1      34.177  22.742  24.380  1.00  0.00    -0.271 N 
ATOM     10  C   UNL A   1      34.344  23.567  25.461  1.00  0.00     0.261 C 
ATOM     11  C   UNL A   1      33.875  23.443  23.248  1.00  0.00     0.261 C 
ATOM     12  O   UNL A   1      34.696  23.289  26.587  1.00  0.00    -0.269 OA
ATOM     13  C   UNL A   1      33.980  24.912  25.013  1.00  0.00     0.053 A 
ATOM     14  C   UNL A   1      33.691  24.829  23.663  1.00  0.00     0.054 A 
ATOM     15  O   UNL A   1      33.791  23.058  22.094  1.00  0.00    -0.269 OA
ATOM     16  C   UNL A   1      33.841  26.092  25.721  1.00  0.00     0.015 A 
ATOM     17  C   UNL A   1      33.241  25.913  22.943  1.00  0.00     0.030 A 
ATOM     18  C   UNL A   1      33.374  27.211  25.018  1.00  0.00     0.016 A 
BRANCH   9  19
ATOM     19  C   UNL A   1      34.237  21.292  24.441  1.00  0.00     0.164 C 
BRANCH  19  20
ATOM     20  C   UNL A   1      32.831  20.637  24.591  1.00  0.00     0.084 C 
ATOM     21  C   UNL A   1      31.816  21.571  25.251  1.00  0.00     0.044 C 
ATOM     22  C   UNL A   1      32.921  19.314  25.358  1.00  0.00     0.039 C 
ATOM     23  O   UNL A   1      32.325  20.288  23.284  1.00  0.00    -0.373 OA
ATOM     24  C   UNL A   1      33.183  18.306  24.267  1.00  0.00     0.031 C 
ATOM     25  C   UNL A   1      32.397  18.869  23.104  1.00  0.00     0.161 C 
ENDBRANCH  19  20
ENDBRANCH   9  19
ENDBRANCH   6   8
ENDBRANCH   5   6
ENDBRANCH   4   5
ENDBRANCH   3   4
ENDBRANCH   2   3
ENDBRANCH   1   2
BRANCH   1  26
ATOM     26  C   UNL A   1      31.156  31.791  26.205  1.00  0.00     0.261 C 
BRANCH  26  27
ATOM     27  O   UNL A   1      32.329  31.481  26.974  1.00  0.00    -0.460 OA
BRANCH  27  28
ATOM     28  C   UNL A   1      33.017  32.566  27.409  1.00  0.00     0.338 C 
ATOM     29  O   UNL A   1      32.587  33.698  27.559  1.00  0.00    -0.246 OA
BRANCH  28  30
ATOM     30  C   UNL A   1      34.355  32.159  27.874  1.00  0.00     0.060 A 
ATOM     31  C   UNL A   1      34.575  30.795  28.102  1.00  0.00     0.016 A 
ATOM     32  C   UNL A   1      35.350  33.098  28.151  1.00  0.00     0.016 A 
ATOM     33  C   UNL A   1      35.778  30.365  28.657  1.00  0.00     0.010 A 
ATOM     34  C   UNL A   1      36.555  32.664  28.713  1.00  0.00     0.010 A 
ATOM     35  C   UNL A   1      36.759  31.303  29.004  1.00  0.00    -0.014 A 
BRANCH  35  36
ATOM     36  C   UNL A   1      37.941  30.872  29.790  1.00  0.00     0.031 A 
ATOM     37  C   UNL A   1      38.899  29.880  29.187  1.00  0.00     0.074 A 
ATOM     38  C   UNL A   1      38.161  31.359  31.023  1.00  0.00     0.049 A 
ATOM     39  N   UNL A   1      39.968  29.338  29.710  1.00  0.00    -0.248 NA
ATOM     40  C   UNL A   1      38.611  29.436  27.813  1.00  0.00     0.031 C 
ATOM     41  C   UNL A   1      37.310  32.331  31.711  1.00  0.00     0.029 A 
ATOM     42  N   UNL A   1      39.154  31.081  31.927  1.00  0.00    -0.354 N 
ATOM     43  C   UNL A   1      40.460  28.464  28.748  1.00  0.00     0.074 A 
ATOM     44  C   UNL A   1      39.566  28.540  27.612  1.00  0.00     0.031 C 
ATOM     45  C   UNL A   1      37.805  32.547  32.941  1.00  0.00     0.029 A 
ATOM     46  C   UNL A   1      38.985  31.708  33.138  1.00  0.00     0.049 A 
ATOM     47  H   UNL A   1      39.917  30.490  31.728  1.00  0.00     0.167 HD
ATOM     48  C   UNL A   1      41.563  27.681  28.798  1.00  0.00     0.034 A 
ATOM     49  C   UNL A   1      39.684  31.595  34.285  1.00  0.00     0.034 A 
ATOM     50  C   UNL A   1      42.458  27.621  29.923  1.00  0.00     0.049 A 
ATOM     51  C   UNL A   1      40.888  30.691  34.327  1.00  0.00     0.074 A 
ATOM     52  C   UNL A   1      43.629  26.897  30.051  1.00  0.00     0.029 A 
ATOM     53  N   UNL A   1      42.272  28.295  31.119  1.00  0.00    -0.354 N 
ATOM     54  N   UNL A   1      41.405  29.957  33.372  1.00  0.00    -0.248 NA
ATOM     55  C   UNL A   1      41.626  30.624  35.598  1.00  0.00     0.031 C 
ATOM     56  C   UNL A   1      44.130  27.100  31.340  1.00  0.00     0.029 A 
ATOM     57  C   UNL A   1      43.297  27.989  31.999  1.00  0.00     0.049 A 
ATOM     58  H   UNL A   1      41.522  28.902  31.316  1.00  0.00     0.167 HD
ATOM     59  C   UNL A   1      42.547  29.374  33.911  1.00  0.00     0.074 A 
ATOM     60  C   UNL A   1      42.656  29.857  35.273  1.00  0.00     0.031 C 
ATOM     61  C   UNL A   1      43.421  28.512  33.336  1.00  0.00     0.034 A 
BRANCH  48  62
ATOM     62  C   UNL A   1      41.872  26.825  27.597  1.00  0.00     0.023 A 
ATOM     63  C   UNL A   1      42.522  27.388  26.480  1.00  0.00     0.012 A 
ATOM     64  C   UNL A   1      41.569  25.449  27.598  1.00  0.00     0.148 A 
ATOM     65  C   UNL A   1      42.833  26.603  25.369  1.00  0.00     0.002 A 
ATOM     66  C   UNL A   1      41.927  24.664  26.509  1.00  0.00     0.091 A 
ATOM     67  F   UNL A   1      40.934  24.936  28.661  1.00  0.00    -0.205 F 
ATOM     68  C   UNL A   1      42.547  25.242  25.389  1.00  0.00     0.022 A 
BRANCH  66  69
ATOM     69  S   UNL A   1      41.675  22.886  26.471  1.00  0.00     0.127 S 
ATOM     70  O   UNL A   1      42.286  22.475  27.735  1.00  0.00    -0.237 OA
ATOM     71  O   UNL A   1      40.215  22.785  26.439  1.00  0.00    -0.237 OA
ATOM     72  O   UNL A   1      42.345  22.408  25.271  1.00  0.00    -0.744 OA
ENDBRANCH  66  69
ENDBRANCH  48  62
BRANCH  49  73
ATOM     73  C   UNL A   1      39.275  32.374  35.488  1.00  0.00     0.023 A 
ATOM     74  C   UNL A   1      39.663  33.721  35.614  1.00  0.00     0.012 A 
ATOM     75  C   UNL A   1      38.499  31.785  36.505  1.00  0.00     0.148 A 
ATOM     76  C   UNL A   1      39.315  34.458  36.747  1.00  0.00     0.002 A 
ATOM     77  C   UNL A   1      38.106  32.540  37.603  1.00  0.00     0.091 A 
ATOM     78  F   UNL A   1      38.152  30.497  36.373  1.00  0.00    -0.205 F 
ATOM     79  C   UNL A   1      38.530  33.872  37.736  1.00  0.00     0.022 A 
BRANCH  77  80
ATOM     80  S   UNL A   1      36.990  31.909  38.860  1.00  0.00     0.127 S 
ATOM     81  O   UNL A   1      36.986  30.479  38.566  1.00  0.00    -0.237 OA
ATOM     82  O   UNL A   1      37.684  32.285  40.092  1.00  0.00    -0.237 OA
ATOM     83  O   UNL A   1      35.725  32.600  38.648  1.00  0.00    -0.744 OA
ENDBRANCH  77  80
ENDBRANCH  49  73
BRANCH  61  84
ATOM     84  C   UNL A   1      44.609  28.066  34.152  1.00  0.00     0.023 A 
ATOM     85  C   UNL A   1      45.795  28.827  34.151  1.00  0.00     0.012 A 
ATOM     86  C   UNL A   1      44.520  26.926  34.976  1.00  0.00     0.148 A 
ATOM     87  C   UNL A   1      46.887  28.439  34.928  1.00  0.00     0.002 A 
ATOM     88  C   UNL A   1      45.592  26.577  35.790  1.00  0.00     0.091 A 
ATOM     89  F   UNL A   1      43.390  26.207  34.952  1.00  0.00    -0.205 F 
ATOM     90  C   UNL A   1      46.781  27.324  35.756  1.00  0.00     0.022 A 
BRANCH  88  91
ATOM     91  S   UNL A   1      45.513  25.217  36.960  1.00  0.00     0.127 S 
ATOM     92  O   UNL A   1      46.876  25.200  37.489  1.00  0.00    -0.237 OA
ATOM     93  O   UNL A   1      44.497  25.683  37.906  1.00  0.00    -0.237 OA
ATOM     94  O   UNL A   1      45.129  24.043  36.189  1.00  0.00    -0.744 OA
ENDBRANCH  88  91
ENDBRANCH  61  84
ENDBRANCH  35  36
ENDBRANCH  28  30
ENDBRANCH  27  28
ENDBRANCH  26  27
ENDBRANCH   1  26
TORSDOF 19
ENDMDL
