MODEL 1
REMARK VINA RESULT:     -11.9      0.000      0.000
REMARK SMILES CC1=Nc2ncnn2[C@H](c2ccc(F)cc2)[C@@H]1C(=O)OCCOCCOC(=O)c1ccc(-c2c3nc(c(-c4cccc(S(=O)(=O)[O-])c4F)c4ccc([nH]4)c(-c4cccc(S(=O)(=O)[O-])c4F)c4nc(c(-c5cccc(S(=O)(=O)[O-])c5F)c5ccc2[nH]5)C=C4)C=C3)cc1
REMARK SMILES IDX 24 1 23 2 22 3 21 4 20 5 18 6 19 7 17 8 1 9 2 10 3 11 4 12
REMARK SMILES IDX 9 13 5 14 8 15 6 16 7 17 10 18 11 19 16 20 12 21 15 22 13 23
REMARK SMILES IDX 14 24 25 25 26 26 27 27 28 28 29 29 30 30 91 31 31 32 90 33
REMARK SMILES IDX 32 34 33 35 34 36 84 37 35 38 89 39 83 40 85 41 36 42 88 43
REMARK SMILES IDX 82 44 81 45 37 47 69 48 49 49 68 50 50 51 53 52 67 53 86 54
REMARK SMILES IDX 51 55 52 56 66 58 87 59 54 60 38 61 39 62 47 63 40 64 42 65
REMARK SMILES IDX 48 66 41 67 43 68 44 69 45 70 46 71 70 72 71 73 79 74 72 75
REMARK SMILES IDX 74 76 80 77 73 78 75 79 76 80 77 81 78 82 55 83 56 84 64 85
REMARK SMILES IDX 57 86 59 87 65 88 58 89 60 90 61 91 62 92 63 93
REMARK H PARENT 85 46 53 57
REMARK Flexibility Score: inf
ROOT
ATOM      1  C   UNL A   1      33.790  32.733  28.032  1.00  0.00     0.202 C 
ENDROOT
BRANCH   1   2
ATOM      2  O   UNL A   1      34.193  31.490  27.474  1.00  0.00    -0.374 OA
BRANCH   2   3
ATOM      3  C   UNL A   1      33.251  30.427  27.344  1.00  0.00     0.202 C 
BRANCH   3   4
ATOM      4  C   UNL A   1      31.972  30.699  26.559  1.00  0.00     0.261 C 
BRANCH   4   5
ATOM      5  O   UNL A   1      31.424  29.528  25.922  1.00  0.00    -0.463 OA
BRANCH   5   6
ATOM      6  C   UNL A   1      32.170  28.996  24.916  1.00  0.00     0.317 C 
ATOM      7  O   UNL A   1      32.931  29.626  24.193  1.00  0.00    -0.251 OA
BRANCH   6   8
ATOM      8  C   UNL A   1      31.925  27.518  24.771  1.00  0.00     0.173 C 
ATOM      9  C   UNL A   1      34.057  26.849  26.110  1.00  0.00     0.063 C 
ATOM     10  C   UNL A   1      33.263  26.784  24.824  1.00  0.00     0.036 C 
ATOM     11  N   UNL A   1      33.818  26.149  23.840  1.00  0.00    -0.220 NA
ATOM     12  C   UNL A   1      33.172  26.082  22.658  1.00  0.00     0.248 A 
ATOM     13  C   UNL A   1      31.097  27.168  23.513  1.00  0.00     0.161 C 
ATOM     14  N   UNL A   1      33.549  25.484  21.548  1.00  0.00    -0.198 NA
ATOM     15  N   UNL A   1      31.923  26.607  22.453  1.00  0.00    -0.221 N 
ATOM     16  C   UNL A   1      32.466  25.602  20.729  1.00  0.00     0.248 A 
ATOM     17  N   UNL A   1      31.430  26.266  21.243  1.00  0.00    -0.157 NA
BRANCH  13  18
ATOM     18  C   UNL A   1      30.138  28.231  22.965  1.00  0.00    -0.022 A 
ATOM     19  C   UNL A   1      28.771  28.163  23.288  1.00  0.00     0.009 A 
ATOM     20  C   UNL A   1      30.562  29.269  22.110  1.00  0.00     0.009 A 
ATOM     21  C   UNL A   1      27.877  29.138  22.834  1.00  0.00     0.039 A 
ATOM     22  C   UNL A   1      29.680  30.272  21.703  1.00  0.00     0.039 A 
ATOM     23  C   UNL A   1      28.346  30.199  22.072  1.00  0.00     0.123 A 
ATOM     24  F   UNL A   1      27.499  31.157  21.672  1.00  0.00    -0.207 F 
ENDBRANCH  13  18
ENDBRANCH   6   8
ENDBRANCH   5   6
ENDBRANCH   4   5
ENDBRANCH   3   4
ENDBRANCH   2   3
ENDBRANCH   1   2
BRANCH   1  25
ATOM     25  C   UNL A   1      34.082  33.010  29.503  1.00  0.00     0.261 C 
BRANCH  25  26
ATOM     26  O   UNL A   1      35.465  33.082  29.806  1.00  0.00    -0.460 OA
BRANCH  26  27
ATOM     27  C   UNL A   1      35.904  31.987  30.459  1.00  0.00     0.338 C 
ATOM     28  O   UNL A   1      35.478  31.555  31.537  1.00  0.00    -0.246 OA
BRANCH  27  29
ATOM     29  C   UNL A   1      37.070  31.426  29.788  1.00  0.00     0.060 A 
ATOM     30  C   UNL A   1      36.998  30.066  29.472  1.00  0.00     0.016 A 
ATOM     31  C   UNL A   1      38.280  32.134  29.772  1.00  0.00     0.016 A 
ATOM     32  C   UNL A   1      38.171  29.360  29.363  1.00  0.00     0.010 A 
ATOM     33  C   UNL A   1      39.454  31.423  29.671  1.00  0.00     0.010 A 
ATOM     34  C   UNL A   1      39.377  30.036  29.560  1.00  0.00    -0.014 A 
BRANCH  34  35
ATOM     35  C   UNL A   1      40.567  29.226  29.671  1.00  0.00     0.031 A 
ATOM     36  C   UNL A   1      40.974  28.919  31.054  1.00  0.00     0.074 A 
ATOM     37  C   UNL A   1      41.186  28.728  28.587  1.00  0.00     0.049 A 
ATOM     38  N   UNL A   1      42.064  29.260  31.656  1.00  0.00    -0.248 NA
ATOM     39  C   UNL A   1      39.983  28.246  31.905  1.00  0.00     0.031 C 
ATOM     40  C   UNL A   1      40.674  28.696  27.212  1.00  0.00     0.029 A 
ATOM     41  N   UNL A   1      42.334  27.998  28.517  1.00  0.00    -0.354 N 
ATOM     42  C   UNL A   1      41.991  28.635  32.895  1.00  0.00     0.074 A 
ATOM     43  C   UNL A   1      40.632  28.193  33.065  1.00  0.00     0.031 C 
ATOM     44  C   UNL A   1      41.367  27.770  26.513  1.00  0.00     0.029 A 
ATOM     45  C   UNL A   1      42.433  27.249  27.353  1.00  0.00     0.049 A 
ATOM     46  H   UNL A   1      43.023  28.003  29.220  1.00  0.00     0.167 HD
ATOM     47  C   UNL A   1      43.108  28.269  33.575  1.00  0.00     0.034 A 
ATOM     48  C   UNL A   1      43.259  26.197  27.153  1.00  0.00     0.034 A 
ATOM     49  C   UNL A   1      44.283  28.957  33.122  1.00  0.00     0.049 A 
ATOM     50  C   UNL A   1      44.344  26.276  28.159  1.00  0.00     0.074 A 
ATOM     51  C   UNL A   1      44.672  30.276  33.024  1.00  0.00     0.029 A 
ATOM     52  N   UNL A   1      45.168  28.234  32.365  1.00  0.00    -0.354 N 
ATOM     53  N   UNL A   1      45.267  27.197  28.182  1.00  0.00    -0.248 NA
ATOM     54  C   UNL A   1      44.231  25.475  29.369  1.00  0.00     0.031 C 
ATOM     55  C   UNL A   1      45.539  30.332  31.896  1.00  0.00     0.029 A 
ATOM     56  C   UNL A   1      45.633  29.044  31.364  1.00  0.00     0.049 A 
ATOM     57  H   UNL A   1      45.425  27.295  32.516  1.00  0.00     0.167 HD
ATOM     58  C   UNL A   1      45.559  27.368  29.529  1.00  0.00     0.074 A 
ATOM     59  C   UNL A   1      45.018  26.182  30.182  1.00  0.00     0.031 C 
ATOM     60  C   UNL A   1      45.942  28.581  30.023  1.00  0.00     0.034 A 
BRANCH  47  61
ATOM     61  C   UNL A   1      43.180  27.024  34.414  1.00  0.00     0.023 A 
ATOM     62  C   UNL A   1      42.930  27.139  35.796  1.00  0.00     0.012 A 
ATOM     63  C   UNL A   1      43.712  25.796  33.956  1.00  0.00     0.148 A 
ATOM     64  C   UNL A   1      43.196  26.082  36.674  1.00  0.00     0.002 A 
ATOM     65  C   UNL A   1      43.869  24.716  34.814  1.00  0.00     0.091 A 
ATOM     66  F   UNL A   1      44.205  25.696  32.715  1.00  0.00    -0.205 F 
ATOM     67  C   UNL A   1      43.640  24.861  36.180  1.00  0.00     0.022 A 
BRANCH  65  68
ATOM     68  S   UNL A   1      44.322  23.108  34.159  1.00  0.00     0.127 S 
ATOM     69  O   UNL A   1      43.381  22.959  33.055  1.00  0.00    -0.237 OA
ATOM     70  O   UNL A   1      45.716  23.315  33.764  1.00  0.00    -0.237 OA
ATOM     71  O   UNL A   1      44.158  22.198  35.288  1.00  0.00    -0.744 OA
ENDBRANCH  65  68
ENDBRANCH  47  61
BRANCH  48  72
ATOM     72  C   UNL A   1      43.043  24.988  26.324  1.00  0.00     0.023 A 
ATOM     73  C   UNL A   1      43.938  24.710  25.274  1.00  0.00     0.012 A 
ATOM     74  C   UNL A   1      42.132  23.978  26.707  1.00  0.00     0.148 A 
ATOM     75  C   UNL A   1      43.948  23.457  24.648  1.00  0.00     0.002 A 
ATOM     76  C   UNL A   1      42.130  22.743  26.067  1.00  0.00     0.091 A 
ATOM     77  F   UNL A   1      41.332  24.185  27.763  1.00  0.00    -0.205 F 
ATOM     78  C   UNL A   1      43.048  22.473  25.046  1.00  0.00     0.022 A 
BRANCH  76  79
ATOM     79  S   UNL A   1      40.982  21.438  26.530  1.00  0.00     0.127 S 
ATOM     80  O   UNL A   1      41.464  20.307  25.735  1.00  0.00    -0.237 OA
ATOM     81  O   UNL A   1      41.215  21.321  27.966  1.00  0.00    -0.237 OA
ATOM     82  O   UNL A   1      39.663  21.919  26.134  1.00  0.00    -0.744 OA
ENDBRANCH  76  79
ENDBRANCH  48  72
BRANCH  60  83
ATOM     83  C   UNL A   1      46.407  29.642  29.056  1.00  0.00     0.023 A 
ATOM     84  C   UNL A   1      47.740  29.698  28.599  1.00  0.00     0.012 A 
ATOM     85  C   UNL A   1      45.443  30.461  28.439  1.00  0.00     0.148 A 
ATOM     86  C   UNL A   1      48.106  30.562  27.563  1.00  0.00     0.002 A 
ATOM     87  C   UNL A   1      45.801  31.278  27.371  1.00  0.00     0.091 A 
ATOM     88  F   UNL A   1      44.177  30.398  28.880  1.00  0.00    -0.205 F 
ATOM     89  C   UNL A   1      47.134  31.338  26.938  1.00  0.00     0.022 A 
BRANCH  87  90
ATOM     90  S   UNL A   1      44.570  32.179  26.423  1.00  0.00     0.127 S 
ATOM     91  O   UNL A   1      45.362  32.712  25.317  1.00  0.00    -0.237 OA
ATOM     92  O   UNL A   1      43.626  31.125  26.047  1.00  0.00    -0.237 OA
ATOM     93  O   UNL A   1      44.015  33.171  27.336  1.00  0.00    -0.744 OA
ENDBRANCH  87  90
ENDBRANCH  60  83
ENDBRANCH  34  35
ENDBRANCH  27  29
ENDBRANCH  26  27
ENDBRANCH  25  26
ENDBRANCH   1  25
TORSDOF 18
ENDMDL
MODEL 2
REMARK VINA RESULT:     -11.9      1.406      1.845
REMARK SMILES CC1=Nc2ncnn2[C@H](c2ccc(F)cc2)[C@@H]1C(=O)OCCOCCOC(=O)c1ccc(-c2c3nc(c(-c4cccc(S(=O)(=O)[O-])c4F)c4ccc([nH]4)c(-c4cccc(S(=O)(=O)[O-])c4F)c4nc(c(-c5cccc(S(=O)(=O)[O-])c5F)c5ccc2[nH]5)C=C4)C=C3)cc1
REMARK SMILES IDX 24 1 23 2 22 3 21 4 20 5 18 6 19 7 17 8 1 9 2 10 3 11 4 12
REMARK SMILES IDX 9 13 5 14 8 15 6 16 7 17 10 18 11 19 16 20 12 21 15 22 13 23
REMARK SMILES IDX 14 24 25 25 26 26 27 27 28 28 29 29 30 30 91 31 31 32 90 33
REMARK SMILES IDX 32 34 33 35 34 36 84 37 35 38 89 39 83 40 85 41 36 42 88 43
REMARK SMILES IDX 82 44 81 45 37 47 69 48 49 49 68 50 50 51 53 52 67 53 86 54
REMARK SMILES IDX 51 55 52 56 66 58 87 59 54 60 38 61 39 62 47 63 40 64 42 65
REMARK SMILES IDX 48 66 41 67 43 68 44 69 45 70 46 71 70 72 71 73 79 74 72 75
REMARK SMILES IDX 74 76 80 77 73 78 75 79 76 80 77 81 78 82 55 83 56 84 64 85
REMARK SMILES IDX 57 86 59 87 65 88 58 89 60 90 61 91 62 92 63 93
REMARK H PARENT 85 46 53 57
REMARK Flexibility Score: inf
ROOT
ATOM      1  C   UNL A   1      33.522  31.508  27.595  1.00  0.00     0.202 C 
ENDROOT
BRANCH   1   2
ATOM      2  O   UNL A   1      33.841  30.124  27.646  1.00  0.00    -0.374 OA
BRANCH   2   3
ATOM      3  C   UNL A   1      34.045  29.394  26.438  1.00  0.00     0.202 C 
BRANCH   3   4
ATOM      4  C   UNL A   1      32.992  29.522  25.341  1.00  0.00     0.261 C 
BRANCH   4   5
ATOM      5  O   UNL A   1      32.626  28.263  24.741  1.00  0.00    -0.463 OA
BRANCH   5   6
ATOM      6  C   UNL A   1      31.642  27.568  25.375  1.00  0.00     0.317 C 
ATOM      7  O   UNL A   1      31.019  27.961  26.353  1.00  0.00    -0.251 OA
BRANCH   6   8
ATOM      8  C   UNL A   1      31.424  26.221  24.741  1.00  0.00     0.173 C 
ATOM      9  C   UNL A   1      33.374  25.090  26.046  1.00  0.00     0.063 C 
ATOM     10  C   UNL A   1      32.749  25.461  24.720  1.00  0.00     0.036 C 
ATOM     11  N   UNL A   1      33.426  25.150  23.660  1.00  0.00    -0.220 NA
ATOM     12  C   UNL A   1      32.934  25.481  22.448  1.00  0.00     0.248 A 
ATOM     13  C   UNL A   1      30.763  26.314  23.346  1.00  0.00     0.161 C 
ATOM     14  N   UNL A   1      33.450  25.251  21.260  1.00  0.00    -0.198 NA
ATOM     15  N   UNL A   1      31.718  26.087  22.271  1.00  0.00    -0.221 N 
ATOM     16  C   UNL A   1      32.478  25.659  20.396  1.00  0.00     0.248 A 
ATOM     17  N   UNL A   1      31.383  26.163  20.965  1.00  0.00    -0.157 NA
BRANCH  13  18
ATOM     18  C   UNL A   1      29.875  27.529  23.052  1.00  0.00    -0.022 A 
ATOM     19  C   UNL A   1      30.429  28.654  22.414  1.00  0.00     0.009 A 
ATOM     20  C   UNL A   1      28.518  27.588  23.428  1.00  0.00     0.009 A 
ATOM     21  C   UNL A   1      29.638  29.763  22.099  1.00  0.00     0.039 A 
ATOM     22  C   UNL A   1      27.716  28.671  23.063  1.00  0.00     0.039 A 
ATOM     23  C   UNL A   1      28.283  29.748  22.399  1.00  0.00     0.123 A 
ATOM     24  F   UNL A   1      27.514  30.792  22.060  1.00  0.00    -0.207 F 
ENDBRANCH  13  18
ENDBRANCH   6   8
ENDBRANCH   5   6
ENDBRANCH   4   5
ENDBRANCH   3   4
ENDBRANCH   2   3
ENDBRANCH   1   2
BRANCH   1  25
ATOM     25  C   UNL A   1      34.519  32.516  28.156  1.00  0.00     0.261 C 
BRANCH  25  26
ATOM     26  O   UNL A   1      35.874  32.169  27.921  1.00  0.00    -0.460 OA
BRANCH  26  27
ATOM     27  C   UNL A   1      36.716  32.783  28.777  1.00  0.00     0.338 C 
ATOM     28  O   UNL A   1      36.908  34.000  28.872  1.00  0.00    -0.246 OA
BRANCH  27  29
ATOM     29  C   UNL A   1      37.500  31.799  29.514  1.00  0.00     0.060 A 
ATOM     30  C   UNL A   1      38.659  32.279  30.131  1.00  0.00     0.016 A 
ATOM     31  C   UNL A   1      37.266  30.429  29.325  1.00  0.00     0.016 A 
ATOM     32  C   UNL A   1      39.690  31.400  30.354  1.00  0.00     0.010 A 
ATOM     33  C   UNL A   1      38.304  29.552  29.540  1.00  0.00     0.010 A 
ATOM     34  C   UNL A   1      39.527  30.068  29.965  1.00  0.00    -0.014 A 
BRANCH  34  35
ATOM     35  C   UNL A   1      40.704  29.232  29.995  1.00  0.00     0.031 A 
ATOM     36  C   UNL A   1      41.205  28.927  31.347  1.00  0.00     0.074 A 
ATOM     37  C   UNL A   1      41.229  28.711  28.873  1.00  0.00     0.049 A 
ATOM     38  N   UNL A   1      42.344  29.247  31.864  1.00  0.00    -0.248 NA
ATOM     39  C   UNL A   1      40.265  28.283  32.275  1.00  0.00     0.031 C 
ATOM     40  C   UNL A   1      40.616  28.680  27.540  1.00  0.00     0.029 A 
ATOM     41  N   UNL A   1      42.352  27.955  28.726  1.00  0.00    -0.354 N 
ATOM     42  C   UNL A   1      42.349  28.634  33.111  1.00  0.00     0.074 A 
ATOM     43  C   UNL A   1      40.996  28.225  33.385  1.00  0.00     0.031 C 
ATOM     44  C   UNL A   1      41.235  27.734  26.801  1.00  0.00     0.029 A 
ATOM     45  C   UNL A   1      42.348  27.195  27.565  1.00  0.00     0.049 A 
ATOM     46  H   UNL A   1      43.091  27.950  29.376  1.00  0.00     0.167 HD
ATOM     47  C   UNL A   1      43.504  28.248  33.710  1.00  0.00     0.034 A 
ATOM     48  C   UNL A   1      43.133  26.123  27.315  1.00  0.00     0.034 A 
ATOM     49  C   UNL A   1      44.658  28.906  33.165  1.00  0.00     0.049 A 
ATOM     50  C   UNL A   1      44.291  26.184  28.236  1.00  0.00     0.074 A 
ATOM     51  C   UNL A   1      45.068  30.215  33.026  1.00  0.00     0.029 A 
ATOM     52  N   UNL A   1      45.468  28.156  32.352  1.00  0.00    -0.354 N 
ATOM     53  N   UNL A   1      45.234  27.084  28.183  1.00  0.00    -0.248 NA
ATOM     54  C   UNL A   1      44.250  25.396  29.459  1.00  0.00     0.031 C 
ATOM     55  C   UNL A   1      45.850  30.241  31.837  1.00  0.00     0.029 A 
ATOM     56  C   UNL A   1      45.876  28.947  31.311  1.00  0.00     0.049 A 
ATOM     57  H   UNL A   1      45.715  27.212  32.492  1.00  0.00     0.167 HD
ATOM     58  C   UNL A   1      45.629  27.259  29.503  1.00  0.00     0.074 A 
ATOM     59  C   UNL A   1      45.111  26.091  30.205  1.00  0.00     0.031 C 
ATOM     60  C   UNL A   1      46.074  28.467  29.956  1.00  0.00     0.034 A 
BRANCH  47  61
ATOM     61  C   UNL A   1      43.611  27.008  34.553  1.00  0.00     0.023 A 
ATOM     62  C   UNL A   1      43.052  25.815  34.054  1.00  0.00     0.012 A 
ATOM     63  C   UNL A   1      44.021  27.010  35.906  1.00  0.00     0.148 A 
ATOM     64  C   UNL A   1      42.910  24.682  34.864  1.00  0.00     0.002 A 
ATOM     65  C   UNL A   1      43.980  25.852  36.671  1.00  0.00     0.091 A 
ATOM     66  F   UNL A   1      44.326  28.162  36.518  1.00  0.00    -0.205 F 
ATOM     67  C   UNL A   1      43.400  24.692  36.166  1.00  0.00     0.022 A 
BRANCH  65  68
ATOM     68  S   UNL A   1      44.723  25.829  38.305  1.00  0.00     0.127 S 
ATOM     69  O   UNL A   1      45.984  26.522  38.071  1.00  0.00    -0.237 OA
ATOM     70  O   UNL A   1      43.744  26.572  39.101  1.00  0.00    -0.237 OA
ATOM     71  O   UNL A   1      44.805  24.412  38.645  1.00  0.00    -0.744 OA
ENDBRANCH  65  68
ENDBRANCH  47  61
BRANCH  48  72
ATOM     72  C   UNL A   1      42.830  24.913  26.515  1.00  0.00     0.023 A 
ATOM     73  C   UNL A   1      43.692  24.554  25.462  1.00  0.00     0.012 A 
ATOM     74  C   UNL A   1      41.860  23.972  26.931  1.00  0.00     0.148 A 
ATOM     75  C   UNL A   1      43.614  23.290  24.864  1.00  0.00     0.002 A 
ATOM     76  C   UNL A   1      41.770  22.726  26.318  1.00  0.00     0.091 A 
ATOM     77  F   UNL A   1      41.088  24.253  27.990  1.00  0.00    -0.205 F 
ATOM     78  C   UNL A   1      42.657  22.376  25.294  1.00  0.00     0.022 A 
BRANCH  76  79
ATOM     79  S   UNL A   1      40.546  21.509  26.823  1.00  0.00     0.127 S 
ATOM     80  O   UNL A   1      39.289  22.169  26.466  1.00  0.00    -0.237 OA
ATOM     81  O   UNL A   1      40.895  20.362  25.988  1.00  0.00    -0.237 OA
ATOM     82  O   UNL A   1      40.736  21.335  28.258  1.00  0.00    -0.744 OA
ENDBRANCH  76  79
ENDBRANCH  48  72
BRANCH  60  83
ATOM     83  C   UNL A   1      46.490  29.510  28.947  1.00  0.00     0.023 A 
ATOM     84  C   UNL A   1      47.785  29.528  28.387  1.00  0.00     0.012 A 
ATOM     85  C   UNL A   1      45.502  30.349  28.399  1.00  0.00     0.148 A 
ATOM     86  C   UNL A   1      48.091  30.375  27.320  1.00  0.00     0.002 A 
ATOM     87  C   UNL A   1      45.797  31.150  27.300  1.00  0.00     0.091 A 
ATOM     88  F   UNL A   1      44.273  30.322  28.938  1.00  0.00    -0.205 F 
ATOM     89  C   UNL A   1      47.094  31.173  26.765  1.00  0.00     0.022 A 
BRANCH  87  90
ATOM     90  S   UNL A   1      44.519  32.077  26.442  1.00  0.00     0.127 S 
ATOM     91  O   UNL A   1      45.244  32.604  25.288  1.00  0.00    -0.237 OA
ATOM     92  O   UNL A   1      43.535  31.041  26.125  1.00  0.00    -0.237 OA
ATOM     93  O   UNL A   1      44.043  33.071  27.396  1.00  0.00    -0.744 OA
ENDBRANCH  87  90
ENDBRANCH  60  83
ENDBRANCH  34  35
ENDBRANCH  27  29
ENDBRANCH  26  27
ENDBRANCH  25  26
ENDBRANCH   1  25
TORSDOF 18
ENDMDL
MODEL 3
REMARK VINA RESULT:     -11.8      3.943      7.806
REMARK SMILES CC1=Nc2ncnn2[C@H](c2ccc(F)cc2)[C@@H]1C(=O)OCCOCCOC(=O)c1ccc(-c2c3nc(c(-c4cccc(S(=O)(=O)[O-])c4F)c4ccc([nH]4)c(-c4cccc(S(=O)(=O)[O-])c4F)c4nc(c(-c5cccc(S(=O)(=O)[O-])c5F)c5ccc2[nH]5)C=C4)C=C3)cc1
REMARK SMILES IDX 24 1 23 2 22 3 21 4 20 5 18 6 19 7 17 8 1 9 2 10 3 11 4 12
REMARK SMILES IDX 9 13 5 14 8 15 6 16 7 17 10 18 11 19 16 20 12 21 15 22 13 23
REMARK SMILES IDX 14 24 25 25 26 26 27 27 28 28 29 29 30 30 91 31 31 32 90 33
REMARK SMILES IDX 32 34 33 35 34 36 84 37 35 38 89 39 83 40 85 41 36 42 88 43
REMARK SMILES IDX 82 44 81 45 37 47 69 48 49 49 68 50 50 51 53 52 67 53 86 54
REMARK SMILES IDX 51 55 52 56 66 58 87 59 54 60 38 61 39 62 47 63 40 64 42 65
REMARK SMILES IDX 48 66 41 67 43 68 44 69 45 70 46 71 70 72 71 73 79 74 72 75
REMARK SMILES IDX 74 76 80 77 73 78 75 79 76 80 77 81 78 82 55 83 56 84 64 85
REMARK SMILES IDX 57 86 59 87 65 88 58 89 60 90 61 91 62 92 63 93
REMARK H PARENT 85 46 53 57
REMARK Flexibility Score: inf
ROOT
ATOM      1  C   UNL A   1      31.452  30.792  25.847  1.00  0.00     0.202 C 
ENDROOT
BRANCH   1   2
ATOM      2  O   UNL A   1      32.631  30.035  25.610  1.00  0.00    -0.374 OA
BRANCH   2   3
ATOM      3  C   UNL A   1      32.535  28.694  25.135  1.00  0.00     0.202 C 
BRANCH   3   4
ATOM      4  C   UNL A   1      33.658  28.172  24.243  1.00  0.00     0.261 C 
BRANCH   4   5
ATOM      5  O   UNL A   1      33.752  26.734  24.215  1.00  0.00    -0.463 OA
BRANCH   5   6
ATOM      6  C   UNL A   1      33.596  26.153  22.993  1.00  0.00     0.317 C 
ATOM      7  O   UNL A   1      34.215  26.461  21.982  1.00  0.00    -0.251 OA
BRANCH   6   8
ATOM      8  C   UNL A   1      32.533  25.089  23.021  1.00  0.00     0.173 C 
ATOM      9  C   UNL A   1      30.618  26.728  22.365  1.00  0.00     0.063 C 
ATOM     10  C   UNL A   1      31.190  25.736  23.353  1.00  0.00     0.036 C 
ATOM     11  N   UNL A   1      30.511  25.555  24.442  1.00  0.00    -0.220 NA
ATOM     12  C   UNL A   1      30.984  24.704  25.374  1.00  0.00     0.248 A 
ATOM     13  C   UNL A   1      32.883  23.915  23.965  1.00  0.00     0.161 C 
ATOM     14  N   UNL A   1      30.452  24.372  26.531  1.00  0.00    -0.198 NA
ATOM     15  N   UNL A   1      32.130  23.969  25.209  1.00  0.00    -0.221 N 
ATOM     16  C   UNL A   1      31.263  23.378  26.992  1.00  0.00     0.248 A 
ATOM     17  N   UNL A   1      32.298  23.076  26.207  1.00  0.00    -0.157 NA
BRANCH  13  18
ATOM     18  C   UNL A   1      34.366  23.622  24.227  1.00  0.00    -0.022 A 
ATOM     19  C   UNL A   1      34.931  23.966  25.469  1.00  0.00     0.009 A 
ATOM     20  C   UNL A   1      35.210  23.049  23.256  1.00  0.00     0.009 A 
ATOM     21  C   UNL A   1      36.269  23.679  25.753  1.00  0.00     0.039 A 
ATOM     22  C   UNL A   1      36.531  22.712  23.559  1.00  0.00     0.039 A 
ATOM     23  C   UNL A   1      37.048  23.028  24.807  1.00  0.00     0.123 A 
ATOM     24  F   UNL A   1      38.319  22.714  25.092  1.00  0.00    -0.207 F 
ENDBRANCH  13  18
ENDBRANCH   6   8
ENDBRANCH   5   6
ENDBRANCH   4   5
ENDBRANCH   3   4
ENDBRANCH   2   3
ENDBRANCH   1   2
BRANCH   1  25
ATOM     25  C   UNL A   1      31.524  31.994  26.784  1.00  0.00     0.261 C 
BRANCH  25  26
ATOM     26  O   UNL A   1      32.797  32.178  27.379  1.00  0.00    -0.460 OA
BRANCH  26  27
ATOM     27  C   UNL A   1      32.917  33.384  27.969  1.00  0.00     0.338 C 
ATOM     28  O   UNL A   1      32.109  34.318  27.903  1.00  0.00    -0.246 OA
BRANCH  27  29
ATOM     29  C   UNL A   1      34.220  33.512  28.609  1.00  0.00     0.060 A 
ATOM     30  C   UNL A   1      35.281  33.871  27.771  1.00  0.00     0.016 A 
ATOM     31  C   UNL A   1      34.427  32.989  29.894  1.00  0.00     0.016 A 
ATOM     32  C   UNL A   1      36.550  33.492  28.129  1.00  0.00     0.010 A 
ATOM     33  C   UNL A   1      35.699  32.603  30.247  1.00  0.00     0.010 A 
ATOM     34  C   UNL A   1      36.724  32.780  29.318  1.00  0.00    -0.014 A 
BRANCH  34  35
ATOM     35  C   UNL A   1      38.026  32.198  29.545  1.00  0.00     0.031 A 
ATOM     36  C   UNL A   1      38.132  30.772  29.188  1.00  0.00     0.074 A 
ATOM     37  C   UNL A   1      39.067  32.938  29.963  1.00  0.00     0.049 A 
ATOM     38  N   UNL A   1      38.386  29.774  29.967  1.00  0.00    -0.248 NA
ATOM     39  C   UNL A   1      37.794  30.405  27.806  1.00  0.00     0.031 C 
ATOM     40  C   UNL A   1      39.146  34.402  30.019  1.00  0.00     0.029 A 
ATOM     41  N   UNL A   1      40.332  32.538  30.271  1.00  0.00    -0.354 N 
ATOM     42  C   UNL A   1      38.472  28.678  29.117  1.00  0.00     0.074 A 
ATOM     43  C   UNL A   1      37.920  29.082  27.851  1.00  0.00     0.031 C 
ATOM     44  C   UNL A   1      40.446  34.763  30.082  1.00  0.00     0.029 A 
ATOM     45  C   UNL A   1      41.262  33.565  30.194  1.00  0.00     0.049 A 
ATOM     46  H   UNL A   1      40.562  31.615  30.523  1.00  0.00     0.167 HD
ATOM     47  C   UNL A   1      39.246  27.604  29.417  1.00  0.00     0.034 A 
ATOM     48  C   UNL A   1      42.603  33.418  30.109  1.00  0.00     0.034 A 
ATOM     49  C   UNL A   1      39.578  27.531  30.811  1.00  0.00     0.049 A 
ATOM     50  C   UNL A   1      42.941  32.056  30.584  1.00  0.00     0.074 A 
ATOM     51  C   UNL A   1      38.865  27.451  31.988  1.00  0.00     0.029 A 
ATOM     52  N   UNL A   1      40.862  27.866  31.157  1.00  0.00    -0.354 N 
ATOM     53  N   UNL A   1      42.817  31.651  31.818  1.00  0.00    -0.248 NA
ATOM     54  C   UNL A   1      43.140  31.004  29.599  1.00  0.00     0.031 C 
ATOM     55  C   UNL A   1      39.658  28.126  32.958  1.00  0.00     0.029 A 
ATOM     56  C   UNL A   1      40.815  28.583  32.322  1.00  0.00     0.049 A 
ATOM     57  H   UNL A   1      41.676  27.630  30.655  1.00  0.00     0.167 HD
ATOM     58  C   UNL A   1      42.508  30.300  31.714  1.00  0.00     0.074 A 
ATOM     59  C   UNL A   1      42.880  29.935  30.353  1.00  0.00     0.031 C 
ATOM     60  C   UNL A   1      41.709  29.684  32.634  1.00  0.00     0.034 A 
BRANCH  47  61
ATOM     61  C   UNL A   1      39.989  26.818  28.373  1.00  0.00     0.023 A 
ATOM     62  C   UNL A   1      39.769  25.428  28.307  1.00  0.00     0.012 A 
ATOM     63  C   UNL A   1      41.064  27.336  27.615  1.00  0.00     0.148 A 
ATOM     64  C   UNL A   1      40.580  24.598  27.524  1.00  0.00     0.002 A 
ATOM     65  C   UNL A   1      41.794  26.526  26.756  1.00  0.00     0.091 A 
ATOM     66  F   UNL A   1      41.490  28.589  27.817  1.00  0.00    -0.205 F 
ATOM     67  C   UNL A   1      41.576  25.151  26.726  1.00  0.00     0.022 A 
BRANCH  65  68
ATOM     68  S   UNL A   1      42.994  27.255  25.637  1.00  0.00     0.127 S 
ATOM     69  O   UNL A   1      43.548  26.075  24.983  1.00  0.00    -0.237 OA
ATOM     70  O   UNL A   1      42.152  28.099  24.787  1.00  0.00    -0.237 OA
ATOM     71  O   UNL A   1      43.893  28.005  26.508  1.00  0.00    -0.744 OA
ENDBRANCH  65  68
ENDBRANCH  47  61
BRANCH  48  72
ATOM     72  C   UNL A   1      43.591  34.272  29.408  1.00  0.00     0.023 A 
ATOM     73  C   UNL A   1      44.333  35.210  30.150  1.00  0.00     0.012 A 
ATOM     74  C   UNL A   1      43.996  34.003  28.081  1.00  0.00     0.148 A 
ATOM     75  C   UNL A   1      45.459  35.835  29.602  1.00  0.00     0.002 A 
ATOM     76  C   UNL A   1      45.101  34.645  27.532  1.00  0.00     0.091 A 
ATOM     77  F   UNL A   1      43.363  33.050  27.384  1.00  0.00    -0.205 F 
ATOM     78  C   UNL A   1      45.846  35.551  28.295  1.00  0.00     0.022 A 
BRANCH  76  79
ATOM     79  S   UNL A   1      45.640  34.327  25.845  1.00  0.00     0.127 S 
ATOM     80  O   UNL A   1      44.400  34.500  25.087  1.00  0.00    -0.237 OA
ATOM     81  O   UNL A   1      46.635  35.376  25.640  1.00  0.00    -0.237 OA
ATOM     82  O   UNL A   1      46.146  32.959  25.848  1.00  0.00    -0.744 OA
ENDBRANCH  76  79
ENDBRANCH  48  72
BRANCH  60  83
ATOM     83  C   UNL A   1      41.467  30.368  33.957  1.00  0.00     0.023 A 
ATOM     84  C   UNL A   1      42.350  30.215  35.046  1.00  0.00     0.012 A 
ATOM     85  C   UNL A   1      40.455  31.343  34.037  1.00  0.00     0.148 A 
ATOM     86  C   UNL A   1      42.217  31.002  36.193  1.00  0.00     0.002 A 
ATOM     87  C   UNL A   1      40.361  32.162  35.157  1.00  0.00     0.091 A 
ATOM     88  F   UNL A   1      39.621  31.482  32.994  1.00  0.00    -0.205 F 
ATOM     89  C   UNL A   1      41.234  31.987  36.241  1.00  0.00     0.022 A 
BRANCH  87  90
ATOM     90  S   UNL A   1      39.222  33.551  35.213  1.00  0.00     0.127 S 
ATOM     91  O   UNL A   1      39.582  34.293  34.007  1.00  0.00    -0.237 OA
ATOM     92  O   UNL A   1      37.916  32.892  35.159  1.00  0.00    -0.237 OA
ATOM     93  O   UNL A   1      39.489  34.230  36.475  1.00  0.00    -0.744 OA
ENDBRANCH  87  90
ENDBRANCH  60  83
ENDBRANCH  34  35
ENDBRANCH  27  29
ENDBRANCH  26  27
ENDBRANCH  25  26
ENDBRANCH   1  25
TORSDOF 18
ENDMDL
