MODEL 1
REMARK VINA RESULT:     -10.0      0.000      0.000
REMARK SMILES N#C[C@@H](c1ccccc1)[C@H](CC(=O)OCCOCCOC(=O)c1ccc(-c2c3nc(c(-c4cccc(S(=O)(=O)[O-])c4F)c4ccc([nH]4)c(-c4cccc(S(=O)(=O)[O-])c4F)c4nc(c(-c5cccc(S(=O)(=O)[O-])c5F)c5ccc2[nH]5)C=C4)C=C3)cc1)c1ccccc1
REMARK SMILES IDX 17 1 16 2 15 3 14 4 12 5 13 6 11 7 10 8 3 9 2 10 1 11 4 12
REMARK SMILES IDX 5 13 9 14 6 15 8 16 7 17 86 18 87 19 91 20 88 21 90 22 89 23
REMARK SMILES IDX 18 24 19 25 20 26 21 27 22 28 23 29 24 30 85 31 25 32 84 33
REMARK SMILES IDX 26 34 27 35 28 36 78 37 29 38 83 39 77 40 79 41 30 42 82 43
REMARK SMILES IDX 76 44 75 45 31 47 63 48 43 49 62 50 44 51 47 52 61 53 80 54
REMARK SMILES IDX 45 55 46 56 60 58 81 59 48 60 32 61 33 62 41 63 34 64 36 65
REMARK SMILES IDX 42 66 35 67 37 68 38 69 39 70 40 71 64 72 65 73 73 74 66 75
REMARK SMILES IDX 68 76 74 77 67 78 69 79 70 80 71 81 72 82 49 83 50 84 58 85
REMARK SMILES IDX 51 86 53 87 59 88 52 89 54 90 55 91 56 92 57 93
REMARK H PARENT 79 46 47 57
REMARK Flexibility Score: inf
ROOT
ATOM      1  O   UNL A   1      30.541  27.657  24.463  1.00  0.00    -0.374 OA
ENDROOT
BRANCH   1   2
ATOM      2  C   UNL A   1      30.537  26.272  24.079  1.00  0.00     0.202 C 
BRANCH   2   3
ATOM      3  C   UNL A   1      31.622  25.881  23.065  1.00  0.00     0.261 C 
BRANCH   3   4
ATOM      4  O   UNL A   1      32.247  24.633  23.452  1.00  0.00    -0.463 OA
BRANCH   4   5
ATOM      5  C   UNL A   1      33.534  24.663  23.860  1.00  0.00     0.306 C 
ATOM      6  O   UNL A   1      34.506  24.634  23.111  1.00  0.00    -0.252 OA
BRANCH   5   7
ATOM      7  C   UNL A   1      33.700  24.600  25.373  1.00  0.00     0.132 C 
BRANCH   7   8
ATOM      8  C   UNL A   1      34.044  23.257  26.100  1.00  0.00     0.052 C 
BRANCH   8   9
ATOM      9  C   UNL A   1      32.777  22.320  26.200  1.00  0.00     0.130 C 
BRANCH   9  10
ATOM     10  C   UNL A   1      31.460  23.035  26.454  1.00  0.00     0.071 C 
ATOM     11  N   UNL A   1      30.367  23.627  26.663  1.00  0.00    -0.198 NA
ENDBRANCH   9  10
BRANCH   9  12
ATOM     12  C   UNL A   1      32.560  21.139  25.254  1.00  0.00    -0.030 A 
ATOM     13  C   UNL A   1      32.788  19.807  25.657  1.00  0.00     0.005 A 
ATOM     14  C   UNL A   1      32.274  21.367  23.898  1.00  0.00     0.005 A 
ATOM     15  C   UNL A   1      32.685  18.745  24.755  1.00  0.00     0.000 A 
ATOM     16  C   UNL A   1      32.214  20.306  22.987  1.00  0.00     0.000 A 
ATOM     17  C   UNL A   1      32.407  18.996  23.419  1.00  0.00     0.000 A 
ENDBRANCH   9  12
ENDBRANCH   8   9
BRANCH   8  18
ATOM     18  C   UNL A   1      35.458  22.771  25.790  1.00  0.00    -0.043 A 
ATOM     19  C   UNL A   1      36.548  23.648  26.004  1.00  0.00     0.004 A 
ATOM     20  C   UNL A   1      35.766  21.497  25.326  1.00  0.00     0.004 A 
ATOM     21  C   UNL A   1      37.866  23.279  25.718  1.00  0.00     0.000 A 
ATOM     22  C   UNL A   1      37.090  21.101  25.119  1.00  0.00     0.000 A 
ATOM     23  C   UNL A   1      38.140  21.995  25.279  1.00  0.00     0.000 A 
ENDBRANCH   8  18
ENDBRANCH   7   8
ENDBRANCH   5   7
ENDBRANCH   4   5
ENDBRANCH   3   4
ENDBRANCH   2   3
ENDBRANCH   1   2
BRANCH   1  24
ATOM     24  C   UNL A   1      31.528  28.015  25.428  1.00  0.00     0.202 C 
BRANCH  24  25
ATOM     25  C   UNL A   1      31.910  29.501  25.468  1.00  0.00     0.261 C 
BRANCH  25  26
ATOM     26  O   UNL A   1      33.191  29.707  26.040  1.00  0.00    -0.460 OA
BRANCH  26  27
ATOM     27  C   UNL A   1      33.249  30.820  26.809  1.00  0.00     0.338 C 
ATOM     28  O   UNL A   1      32.432  31.704  26.930  1.00  0.00    -0.246 OA
BRANCH  27  29
ATOM     29  C   UNL A   1      34.454  30.677  27.623  1.00  0.00     0.060 A 
ATOM     30  C   UNL A   1      35.282  31.791  27.750  1.00  0.00     0.016 A 
ATOM     31  C   UNL A   1      34.724  29.480  28.284  1.00  0.00     0.016 A 
ATOM     32  C   UNL A   1      36.439  31.682  28.503  1.00  0.00     0.010 A 
ATOM     33  C   UNL A   1      35.855  29.392  29.084  1.00  0.00     0.010 A 
ATOM     34  C   UNL A   1      36.748  30.471  29.142  1.00  0.00    -0.014 A 
BRANCH  34  35
ATOM     35  C   UNL A   1      38.103  30.280  29.692  1.00  0.00     0.031 A 
ATOM     36  C   UNL A   1      38.403  30.835  31.057  1.00  0.00     0.074 A 
ATOM     37  C   UNL A   1      39.016  29.568  29.008  1.00  0.00     0.049 A 
ATOM     38  N   UNL A   1      39.475  30.692  31.788  1.00  0.00    -0.248 NA
ATOM     39  C   UNL A   1      37.369  31.684  31.679  1.00  0.00     0.031 C 
ATOM     40  C   UNL A   1      38.836  29.035  27.656  1.00  0.00     0.029 A 
ATOM     41  N   UNL A   1      40.271  29.156  29.368  1.00  0.00    -0.354 N 
ATOM     42  C   UNL A   1      39.254  31.453  32.930  1.00  0.00     0.074 A 
ATOM     43  C   UNL A   1      37.979  32.106  32.773  1.00  0.00     0.031 C 
ATOM     44  C   UNL A   1      39.932  28.337  27.314  1.00  0.00     0.029 A 
ATOM     45  C   UNL A   1      40.891  28.385  28.415  1.00  0.00     0.049 A 
ATOM     46  H   UNL A   1      40.689  29.391  30.228  1.00  0.00     0.167 HD
ATOM     47  C   UNL A   1      40.022  31.557  34.037  1.00  0.00     0.034 A 
ATOM     48  C   UNL A   1      42.089  27.773  28.449  1.00  0.00     0.034 A 
ATOM     49  C   UNL A   1      41.255  30.848  34.206  1.00  0.00     0.049 A 
ATOM     50  C   UNL A   1      42.906  27.863  29.712  1.00  0.00     0.074 A 
ATOM     51  C   UNL A   1      42.091  30.820  35.305  1.00  0.00     0.029 A 
ATOM     52  N   UNL A   1      41.829  30.036  33.238  1.00  0.00    -0.354 N 
ATOM     53  N   UNL A   1      42.620  28.474  30.837  1.00  0.00    -0.248 NA
ATOM     54  C   UNL A   1      44.187  27.146  29.727  1.00  0.00     0.031 C 
ATOM     55  C   UNL A   1      43.184  30.006  34.995  1.00  0.00     0.029 A 
ATOM     56  C   UNL A   1      43.012  29.503  33.713  1.00  0.00     0.049 A 
ATOM     57  H   UNL A   1      41.449  29.864  32.347  1.00  0.00     0.167 HD
ATOM     58  C   UNL A   1      43.668  28.188  31.705  1.00  0.00     0.074 A 
ATOM     59  C   UNL A   1      44.581  27.328  30.981  1.00  0.00     0.031 C 
ATOM     60  C   UNL A   1      43.870  28.607  32.979  1.00  0.00     0.034 A 
BRANCH  47  61
ATOM     61  C   UNL A   1      39.515  32.432  35.152  1.00  0.00     0.023 A 
ATOM     62  C   UNL A   1      38.505  31.957  36.016  1.00  0.00     0.012 A 
ATOM     63  C   UNL A   1      40.039  33.724  35.348  1.00  0.00     0.148 A 
ATOM     64  C   UNL A   1      37.992  32.769  37.026  1.00  0.00     0.002 A 
ATOM     65  C   UNL A   1      39.559  34.508  36.390  1.00  0.00     0.091 A 
ATOM     66  F   UNL A   1      40.977  34.168  34.500  1.00  0.00    -0.205 F 
ATOM     67  C   UNL A   1      38.526  34.040  37.218  1.00  0.00     0.022 A 
BRANCH  65  68
ATOM     68  S   UNL A   1      40.234  36.128  36.770  1.00  0.00     0.127 S 
ATOM     69  O   UNL A   1      41.649  35.819  36.972  1.00  0.00    -0.237 OA
ATOM     70  O   UNL A   1      39.941  36.875  35.546  1.00  0.00    -0.237 OA
ATOM     71  O   UNL A   1      39.523  36.594  37.951  1.00  0.00    -0.744 OA
ENDBRANCH  65  68
ENDBRANCH  47  61
BRANCH  48  72
ATOM     72  C   UNL A   1      42.550  26.964  27.285  1.00  0.00     0.023 A 
ATOM     73  C   UNL A   1      43.253  27.585  26.234  1.00  0.00     0.012 A 
ATOM     74  C   UNL A   1      42.312  25.577  27.224  1.00  0.00     0.148 A 
ATOM     75  C   UNL A   1      43.680  26.846  25.129  1.00  0.00     0.002 A 
ATOM     76  C   UNL A   1      42.787  24.838  26.147  1.00  0.00     0.091 A 
ATOM     77  F   UNL A   1      41.632  25.005  28.228  1.00  0.00    -0.205 F 
ATOM     78  C   UNL A   1      43.455  25.473  25.089  1.00  0.00     0.022 A 
BRANCH  76  79
ATOM     79  S   UNL A   1      42.657  23.047  26.079  1.00  0.00     0.127 S 
ATOM     80  O   UNL A   1      43.103  22.767  24.717  1.00  0.00    -0.237 OA
ATOM     81  O   UNL A   1      43.588  22.636  27.131  1.00  0.00    -0.237 OA
ATOM     82  O   UNL A   1      41.261  22.744  26.364  1.00  0.00    -0.744 OA
ENDBRANCH  76  79
ENDBRANCH  48  72
BRANCH  60  83
ATOM     83  C   UNL A   1      45.105  28.118  33.685  1.00  0.00     0.023 A 
ATOM     84  C   UNL A   1      45.066  26.913  34.410  1.00  0.00     0.012 A 
ATOM     85  C   UNL A   1      46.325  28.809  33.549  1.00  0.00     0.148 A 
ATOM     86  C   UNL A   1      46.218  26.416  35.018  1.00  0.00     0.002 A 
ATOM     87  C   UNL A   1      47.479  28.282  34.111  1.00  0.00     0.091 A 
ATOM     88  F   UNL A   1      46.334  29.964  32.867  1.00  0.00    -0.205 F 
ATOM     89  C   UNL A   1      47.426  27.093  34.857  1.00  0.00     0.022 A 
BRANCH  87  90
ATOM     90  S   UNL A   1      49.094  29.027  33.864  1.00  0.00     0.127 S 
ATOM     91  O   UNL A   1      49.940  28.190  34.712  1.00  0.00    -0.237 OA
ATOM     92  O   UNL A   1      49.302  28.848  32.426  1.00  0.00    -0.237 OA
ATOM     93  O   UNL A   1      48.963  30.416  34.285  1.00  0.00    -0.744 OA
ENDBRANCH  87  90
ENDBRANCH  60  83
ENDBRANCH  34  35
ENDBRANCH  27  29
ENDBRANCH  26  27
ENDBRANCH  25  26
ENDBRANCH  24  25
ENDBRANCH   1  24
TORSDOF 22
ENDMDL
MODEL 2
REMARK VINA RESULT:      -9.8      2.293      2.839
REMARK SMILES N#C[C@@H](c1ccccc1)[C@H](CC(=O)OCCOCCOC(=O)c1ccc(-c2c3nc(c(-c4cccc(S(=O)(=O)[O-])c4F)c4ccc([nH]4)c(-c4cccc(S(=O)(=O)[O-])c4F)c4nc(c(-c5cccc(S(=O)(=O)[O-])c5F)c5ccc2[nH]5)C=C4)C=C3)cc1)c1ccccc1
REMARK SMILES IDX 17 1 16 2 15 3 14 4 12 5 13 6 11 7 10 8 3 9 2 10 1 11 4 12
REMARK SMILES IDX 5 13 9 14 6 15 8 16 7 17 86 18 87 19 91 20 88 21 90 22 89 23
REMARK SMILES IDX 18 24 19 25 20 26 21 27 22 28 23 29 24 30 85 31 25 32 84 33
REMARK SMILES IDX 26 34 27 35 28 36 78 37 29 38 83 39 77 40 79 41 30 42 82 43
REMARK SMILES IDX 76 44 75 45 31 47 63 48 43 49 62 50 44 51 47 52 61 53 80 54
REMARK SMILES IDX 45 55 46 56 60 58 81 59 48 60 32 61 33 62 41 63 34 64 36 65
REMARK SMILES IDX 42 66 35 67 37 68 38 69 39 70 40 71 64 72 65 73 73 74 66 75
REMARK SMILES IDX 68 76 74 77 67 78 69 79 70 80 71 81 72 82 49 83 50 84 58 85
REMARK SMILES IDX 51 86 53 87 59 88 52 89 54 90 55 91 56 92 57 93
REMARK H PARENT 79 46 47 57
REMARK Flexibility Score: inf
ROOT
ATOM      1  O   UNL A   1      31.515  28.427  24.895  1.00  0.00    -0.374 OA
ENDROOT
BRANCH   1   2
ATOM      2  C   UNL A   1      30.943  27.148  24.574  1.00  0.00     0.202 C 
BRANCH   2   3
ATOM      3  C   UNL A   1      31.685  26.367  23.480  1.00  0.00     0.261 C 
BRANCH   3   4
ATOM      4  O   UNL A   1      32.052  25.051  23.960  1.00  0.00    -0.463 OA
BRANCH   4   5
ATOM      5  C   UNL A   1      33.350  24.814  24.247  1.00  0.00     0.306 C 
ATOM      6  O   UNL A   1      34.223  24.608  23.409  1.00  0.00    -0.252 OA
BRANCH   5   7
ATOM      7  C   UNL A   1      33.637  24.686  25.737  1.00  0.00     0.132 C 
BRANCH   7   8
ATOM      8  C   UNL A   1      34.040  23.314  26.374  1.00  0.00     0.052 C 
BRANCH   8   9
ATOM      9  C   UNL A   1      32.806  22.332  26.444  1.00  0.00     0.130 C 
BRANCH   9  10
ATOM     10  C   UNL A   1      31.480  22.980  26.806  1.00  0.00     0.071 C 
ATOM     11  N   UNL A   1      30.380  23.517  27.106  1.00  0.00    -0.198 NA
ENDBRANCH   9  10
BRANCH   9  12
ATOM     12  C   UNL A   1      32.586  21.225  25.412  1.00  0.00    -0.030 A 
ATOM     13  C   UNL A   1      32.855  19.872  25.700  1.00  0.00     0.005 A 
ATOM     14  C   UNL A   1      32.255  21.555  24.088  1.00  0.00     0.005 A 
ATOM     15  C   UNL A   1      32.747  18.883  24.719  1.00  0.00     0.000 A 
ATOM     16  C   UNL A   1      32.190  20.569  23.097  1.00  0.00     0.000 A 
ATOM     17  C   UNL A   1      32.423  19.234  23.415  1.00  0.00     0.000 A 
ENDBRANCH   9  12
ENDBRANCH   8   9
BRANCH   8  18
ATOM     18  C   UNL A   1      35.461  22.895  26.006  1.00  0.00    -0.043 A 
ATOM     19  C   UNL A   1      36.511  23.835  26.138  1.00  0.00     0.004 A 
ATOM     20  C   UNL A   1      35.816  21.624  25.565  1.00  0.00     0.004 A 
ATOM     21  C   UNL A   1      37.832  23.528  25.796  1.00  0.00     0.000 A 
ATOM     22  C   UNL A   1      37.148  21.293  25.303  1.00  0.00     0.000 A 
ATOM     23  C   UNL A   1      38.153  22.247  25.381  1.00  0.00     0.000 A 
ENDBRANCH   8  18
ENDBRANCH   7   8
ENDBRANCH   5   7
ENDBRANCH   4   5
ENDBRANCH   3   4
ENDBRANCH   2   3
ENDBRANCH   1   2
BRANCH   1  24
ATOM     24  C   UNL A   1      32.504  28.408  25.923  1.00  0.00     0.202 C 
BRANCH  24  25
ATOM     25  C   UNL A   1      32.952  29.781  26.441  1.00  0.00     0.261 C 
BRANCH  25  26
ATOM     26  O   UNL A   1      34.301  29.772  26.879  1.00  0.00    -0.460 OA
BRANCH  26  27
ATOM     27  C   UNL A   1      34.631  30.883  27.579  1.00  0.00     0.338 C 
ATOM     28  O   UNL A   1      34.001  31.905  27.727  1.00  0.00    -0.246 OA
BRANCH  27  29
ATOM     29  C   UNL A   1      35.865  30.551  28.288  1.00  0.00     0.060 A 
ATOM     30  C   UNL A   1      36.983  31.347  28.043  1.00  0.00     0.016 A 
ATOM     31  C   UNL A   1      35.893  29.506  29.211  1.00  0.00     0.016 A 
ATOM     32  C   UNL A   1      38.171  31.049  28.689  1.00  0.00     0.010 A 
ATOM     33  C   UNL A   1      37.070  29.247  29.898  1.00  0.00     0.010 A 
ATOM     34  C   UNL A   1      38.228  29.974  29.590  1.00  0.00    -0.014 A 
BRANCH  34  35
ATOM     35  C   UNL A   1      39.547  29.493  30.044  1.00  0.00     0.031 A 
ATOM     36  C   UNL A   1      40.189  30.175  31.220  1.00  0.00     0.074 A 
ATOM     37  C   UNL A   1      40.116  28.427  29.454  1.00  0.00     0.049 A 
ATOM     38  N   UNL A   1      41.279  29.857  31.864  1.00  0.00    -0.248 NA
ATOM     39  C   UNL A   1      39.532  31.394  31.730  1.00  0.00     0.031 C 
ATOM     40  C   UNL A   1      39.596  27.731  28.275  1.00  0.00     0.029 A 
ATOM     41  N   UNL A   1      41.250  27.734  29.781  1.00  0.00    -0.354 N 
ATOM     42  C   UNL A   1      41.448  30.847  32.825  1.00  0.00     0.074 A 
ATOM     43  C   UNL A   1      40.392  31.810  32.644  1.00  0.00     0.031 C 
ATOM     44  C   UNL A   1      40.395  26.687  27.998  1.00  0.00     0.029 A 
ATOM     45  C   UNL A   1      41.485  26.650  28.970  1.00  0.00     0.049 A 
ATOM     46  H   UNL A   1      41.842  27.987  30.526  1.00  0.00     0.167 HD
ATOM     47  C   UNL A   1      42.373  30.920  33.807  1.00  0.00     0.034 A 
ATOM     48  C   UNL A   1      42.462  25.725  29.029  1.00  0.00     0.034 A 
ATOM     49  C   UNL A   1      43.377  29.920  34.016  1.00  0.00     0.049 A 
ATOM     50  C   UNL A   1      43.452  25.800  30.162  1.00  0.00     0.074 A 
ATOM     51  C   UNL A   1      44.329  29.848  35.014  1.00  0.00     0.029 A 
ATOM     52  N   UNL A   1      43.555  28.809  33.204  1.00  0.00    -0.354 N 
ATOM     53  N   UNL A   1      43.518  26.666  31.146  1.00  0.00    -0.248 NA
ATOM     54  C   UNL A   1      44.476  24.749  30.219  1.00  0.00     0.031 C 
ATOM     55  C   UNL A   1      45.098  28.701  34.794  1.00  0.00     0.029 A 
ATOM     56  C   UNL A   1      44.604  28.044  33.675  1.00  0.00     0.049 A 
ATOM     57  H   UNL A   1      43.012  28.596  32.411  1.00  0.00     0.167 HD
ATOM     58  C   UNL A   1      44.566  26.246  31.957  1.00  0.00     0.074 A 
ATOM     59  C   UNL A   1      45.090  25.033  31.361  1.00  0.00     0.031 C 
ATOM     60  C   UNL A   1      45.064  26.814  33.083  1.00  0.00     0.034 A 
BRANCH  47  61
ATOM     61  C   UNL A   1      42.298  32.097  34.743  1.00  0.00     0.023 A 
ATOM     62  C   UNL A   1      43.056  33.258  34.475  1.00  0.00     0.012 A 
ATOM     63  C   UNL A   1      41.476  32.058  35.884  1.00  0.00     0.148 A 
ATOM     64  C   UNL A   1      43.033  34.341  35.352  1.00  0.00     0.002 A 
ATOM     65  C   UNL A   1      41.419  33.162  36.726  1.00  0.00     0.091 A 
ATOM     66  F   UNL A   1      40.786  30.937  36.136  1.00  0.00    -0.205 F 
ATOM     67  C   UNL A   1      42.207  34.296  36.472  1.00  0.00     0.022 A 
BRANCH  65  68
ATOM     68  S   UNL A   1      40.330  33.234  38.152  1.00  0.00     0.127 S 
ATOM     69  O   UNL A   1      40.377  34.657  38.488  1.00  0.00    -0.237 OA
ATOM     70  O   UNL A   1      39.057  32.783  37.587  1.00  0.00    -0.237 OA
ATOM     71  O   UNL A   1      40.905  32.340  39.145  1.00  0.00    -0.744 OA
ENDBRANCH  65  68
ENDBRANCH  47  61
BRANCH  48  72
ATOM     72  C   UNL A   1      42.503  24.615  28.036  1.00  0.00     0.023 A 
ATOM     73  C   UNL A   1      41.481  23.645  28.026  1.00  0.00     0.012 A 
ATOM     74  C   UNL A   1      43.539  24.527  27.085  1.00  0.00     0.148 A 
ATOM     75  C   UNL A   1      41.509  22.589  27.113  1.00  0.00     0.002 A 
ATOM     76  C   UNL A   1      43.532  23.505  26.145  1.00  0.00     0.091 A 
ATOM     77  F   UNL A   1      44.507  25.453  27.116  1.00  0.00    -0.205 F 
ATOM     78  C   UNL A   1      42.529  22.523  26.168  1.00  0.00     0.022 A 
BRANCH  76  79
ATOM     79  S   UNL A   1      44.732  23.420  24.810  1.00  0.00     0.127 S 
ATOM     80  O   UNL A   1      45.890  22.842  25.486  1.00  0.00    -0.237 OA
ATOM     81  O   UNL A   1      44.065  22.531  23.858  1.00  0.00    -0.237 OA
ATOM     82  O   UNL A   1      44.892  24.790  24.339  1.00  0.00    -0.744 OA
ENDBRANCH  76  79
ENDBRANCH  48  72
BRANCH  60  83
ATOM     83  C   UNL A   1      46.211  26.118  33.765  1.00  0.00     0.023 A 
ATOM     84  C   UNL A   1      47.534  26.488  33.462  1.00  0.00     0.012 A 
ATOM     85  C   UNL A   1      45.968  25.165  34.773  1.00  0.00     0.148 A 
ATOM     86  C   UNL A   1      48.604  25.896  34.131  1.00  0.00     0.002 A 
ATOM     87  C   UNL A   1      47.035  24.617  35.472  1.00  0.00     0.091 A 
ATOM     88  F   UNL A   1      44.699  24.816  35.033  1.00  0.00    -0.205 F 
ATOM     89  C   UNL A   1      48.354  24.971  35.143  1.00  0.00     0.022 A 
BRANCH  87  90
ATOM     90  S   UNL A   1      46.803  23.504  36.861  1.00  0.00     0.127 S 
ATOM     91  O   UNL A   1      48.181  23.264  37.284  1.00  0.00    -0.237 OA
ATOM     92  O   UNL A   1      46.014  24.321  37.785  1.00  0.00    -0.237 OA
ATOM     93  O   UNL A   1      46.099  22.343  36.331  1.00  0.00    -0.744 OA
ENDBRANCH  87  90
ENDBRANCH  60  83
ENDBRANCH  34  35
ENDBRANCH  27  29
ENDBRANCH  26  27
ENDBRANCH  25  26
ENDBRANCH  24  25
ENDBRANCH   1  24
TORSDOF 22
ENDMDL
MODEL 3
REMARK VINA RESULT:      -9.5      1.956      2.611
REMARK SMILES N#C[C@@H](c1ccccc1)[C@H](CC(=O)OCCOCCOC(=O)c1ccc(-c2c3nc(c(-c4cccc(S(=O)(=O)[O-])c4F)c4ccc([nH]4)c(-c4cccc(S(=O)(=O)[O-])c4F)c4nc(c(-c5cccc(S(=O)(=O)[O-])c5F)c5ccc2[nH]5)C=C4)C=C3)cc1)c1ccccc1
REMARK SMILES IDX 17 1 16 2 15 3 14 4 12 5 13 6 11 7 10 8 3 9 2 10 1 11 4 12
REMARK SMILES IDX 5 13 9 14 6 15 8 16 7 17 86 18 87 19 91 20 88 21 90 22 89 23
REMARK SMILES IDX 18 24 19 25 20 26 21 27 22 28 23 29 24 30 85 31 25 32 84 33
REMARK SMILES IDX 26 34 27 35 28 36 78 37 29 38 83 39 77 40 79 41 30 42 82 43
REMARK SMILES IDX 76 44 75 45 31 47 63 48 43 49 62 50 44 51 47 52 61 53 80 54
REMARK SMILES IDX 45 55 46 56 60 58 81 59 48 60 32 61 33 62 41 63 34 64 36 65
REMARK SMILES IDX 42 66 35 67 37 68 38 69 39 70 40 71 64 72 65 73 73 74 66 75
REMARK SMILES IDX 68 76 74 77 67 78 69 79 70 80 71 81 72 82 49 83 50 84 58 85
REMARK SMILES IDX 51 86 53 87 59 88 52 89 54 90 55 91 56 92 57 93
REMARK H PARENT 79 46 47 57
REMARK Flexibility Score: inf
ROOT
ATOM      1  O   UNL A   1      31.395  28.854  25.401  1.00  0.00    -0.374 OA
ENDROOT
BRANCH   1   2
ATOM      2  C   UNL A   1      30.896  27.535  25.125  1.00  0.00     0.202 C 
BRANCH   2   3
ATOM      3  C   UNL A   1      31.460  26.887  23.852  1.00  0.00     0.261 C 
BRANCH   3   4
ATOM      4  O   UNL A   1      31.888  25.530  24.125  1.00  0.00    -0.463 OA
BRANCH   4   5
ATOM      5  C   UNL A   1      33.168  25.328  24.506  1.00  0.00     0.306 C 
ATOM      6  O   UNL A   1      34.136  25.369  23.753  1.00  0.00    -0.252 OA
BRANCH   5   7
ATOM      7  C   UNL A   1      33.315  24.901  25.961  1.00  0.00     0.132 C 
BRANCH   7   8
ATOM      8  C   UNL A   1      33.737  23.443  26.343  1.00  0.00     0.052 C 
BRANCH   8   9
ATOM      9  C   UNL A   1      32.520  22.445  26.220  1.00  0.00     0.130 C 
BRANCH   9  10
ATOM     10  C   UNL A   1      31.187  22.982  26.715  1.00  0.00     0.071 C 
ATOM     11  N   UNL A   1      30.082  23.427  27.127  1.00  0.00    -0.198 NA
ENDBRANCH   9  10
BRANCH   9  12
ATOM     12  C   UNL A   1      32.307  21.567  24.986  1.00  0.00    -0.030 A 
ATOM     13  C   UNL A   1      32.439  20.165  25.035  1.00  0.00     0.005 A 
ATOM     14  C   UNL A   1      32.124  22.159  23.726  1.00  0.00     0.005 A 
ATOM     15  C   UNL A   1      32.342  19.383  23.882  1.00  0.00     0.000 A 
ATOM     16  C   UNL A   1      32.071  21.378  22.566  1.00  0.00     0.000 A 
ATOM     17  C   UNL A   1      32.167  19.991  22.646  1.00  0.00     0.000 A 
ENDBRANCH   9  12
ENDBRANCH   8   9
BRANCH   8  18
ATOM     18  C   UNL A   1      35.168  23.119  25.920  1.00  0.00    -0.043 A 
ATOM     19  C   UNL A   1      35.446  21.856  25.345  1.00  0.00     0.004 A 
ATOM     20  C   UNL A   1      36.239  24.000  26.036  1.00  0.00     0.004 A 
ATOM     21  C   UNL A   1      36.738  21.484  24.959  1.00  0.00     0.000 A 
ATOM     22  C   UNL A   1      37.512  23.658  25.573  1.00  0.00     0.000 A 
ATOM     23  C   UNL A   1      37.776  22.392  25.067  1.00  0.00     0.000 A 
ENDBRANCH   8  18
ENDBRANCH   7   8
ENDBRANCH   5   7
ENDBRANCH   4   5
ENDBRANCH   3   4
ENDBRANCH   2   3
ENDBRANCH   1   2
BRANCH   1  24
ATOM     24  C   UNL A   1      32.192  28.966  26.579  1.00  0.00     0.202 C 
BRANCH  24  25
ATOM     25  C   UNL A   1      33.218  30.108  26.582  1.00  0.00     0.261 C 
BRANCH  25  26
ATOM     26  O   UNL A   1      34.188  29.951  27.605  1.00  0.00    -0.460 OA
BRANCH  26  27
ATOM     27  C   UNL A   1      34.873  31.091  27.857  1.00  0.00     0.338 C 
ATOM     28  O   UNL A   1      34.517  32.239  27.717  1.00  0.00    -0.246 OA
BRANCH  27  29
ATOM     29  C   UNL A   1      36.112  30.673  28.509  1.00  0.00     0.060 A 
ATOM     30  C   UNL A   1      37.242  31.463  28.310  1.00  0.00     0.016 A 
ATOM     31  C   UNL A   1      36.133  29.551  29.337  1.00  0.00     0.016 A 
ATOM     32  C   UNL A   1      38.436  31.084  28.903  1.00  0.00     0.010 A 
ATOM     33  C   UNL A   1      37.317  29.208  29.974  1.00  0.00     0.010 A 
ATOM     34  C   UNL A   1      38.485  29.935  29.706  1.00  0.00    -0.014 A 
BRANCH  34  35
ATOM     35  C   UNL A   1      39.801  29.388  30.089  1.00  0.00     0.031 A 
ATOM     36  C   UNL A   1      40.441  29.889  31.354  1.00  0.00     0.074 A 
ATOM     37  C   UNL A   1      40.369  28.417  29.352  1.00  0.00     0.049 A 
ATOM     38  N   UNL A   1      41.528  29.477  31.948  1.00  0.00    -0.248 NA
ATOM     39  C   UNL A   1      39.786  31.023  32.034  1.00  0.00     0.031 C 
ATOM     40  C   UNL A   1      39.851  27.902  28.083  1.00  0.00     0.029 A 
ATOM     41  N   UNL A   1      41.500  27.679  29.578  1.00  0.00    -0.354 N 
ATOM     42  C   UNL A   1      41.697  30.315  33.043  1.00  0.00     0.074 A 
ATOM     43  C   UNL A   1      40.644  31.298  33.001  1.00  0.00     0.031 C 
ATOM     44  C   UNL A   1      40.648  26.907  27.658  1.00  0.00     0.029 A 
ATOM     45  C   UNL A   1      41.734  26.725  28.618  1.00  0.00     0.049 A 
ATOM     46  H   UNL A   1      42.089  27.820  30.354  1.00  0.00     0.167 HD
ATOM     47  C   UNL A   1      42.618  30.241  34.029  1.00  0.00     0.034 A 
ATOM     48  C   UNL A   1      42.708  25.798  28.545  1.00  0.00     0.034 A 
ATOM     49  C   UNL A   1      43.619  29.218  34.092  1.00  0.00     0.049 A 
ATOM     50  C   UNL A   1      43.695  25.703  29.679  1.00  0.00     0.074 A 
ATOM     51  C   UNL A   1      44.567  28.998  35.072  1.00  0.00     0.029 A 
ATOM     52  N   UNL A   1      43.796  28.236  33.127  1.00  0.00    -0.354 N 
ATOM     53  N   UNL A   1      43.759  26.416  30.779  1.00  0.00    -0.248 NA
ATOM     54  C   UNL A   1      44.715  24.651  29.586  1.00  0.00     0.031 C 
ATOM     55  C   UNL A   1      45.333  27.892  34.689  1.00  0.00     0.029 A 
ATOM     56  C   UNL A   1      44.841  27.407  33.486  1.00  0.00     0.049 A 
ATOM     57  H   UNL A   1      43.255  28.143  32.311  1.00  0.00     0.167 HD
ATOM     58  C   UNL A   1      44.803  25.879  31.523  1.00  0.00     0.074 A 
ATOM     59  C   UNL A   1      45.326  24.764  30.759  1.00  0.00     0.031 C 
ATOM     60  C   UNL A   1      45.299  26.275  32.722  1.00  0.00     0.034 A 
BRANCH  47  61
ATOM     61  C   UNL A   1      42.544  31.270  35.125  1.00  0.00     0.023 A 
ATOM     62  C   UNL A   1      41.795  31.002  36.291  1.00  0.00     0.012 A 
ATOM     63  C   UNL A   1      43.217  32.500  35.004  1.00  0.00     0.148 A 
ATOM     64  C   UNL A   1      41.679  31.960  37.298  1.00  0.00     0.002 A 
ATOM     65  C   UNL A   1      43.140  33.428  36.035  1.00  0.00     0.091 A 
ATOM     66  F   UNL A   1      43.900  32.747  33.878  1.00  0.00    -0.205 F 
ATOM     67  C   UNL A   1      42.359  33.168  37.173  1.00  0.00     0.022 A 
BRANCH  65  68
ATOM     68  S   UNL A   1      44.040  34.982  36.007  1.00  0.00     0.127 S 
ATOM     69  O   UNL A   1      45.112  34.684  35.058  1.00  0.00    -0.237 OA
ATOM     70  O   UNL A   1      43.026  35.912  35.509  1.00  0.00    -0.237 OA
ATOM     71  O   UNL A   1      44.469  35.225  37.376  1.00  0.00    -0.744 OA
ENDBRANCH  65  68
ENDBRANCH  47  61
BRANCH  48  72
ATOM     72  C   UNL A   1      42.749  24.844  27.401  1.00  0.00     0.023 A 
ATOM     73  C   UNL A   1      43.348  25.232  26.186  1.00  0.00     0.012 A 
ATOM     74  C   UNL A   1      42.216  23.545  27.517  1.00  0.00     0.148 A 
ATOM     75  C   UNL A   1      43.383  24.357  25.098  1.00  0.00     0.002 A 
ATOM     76  C   UNL A   1      42.304  22.661  26.449  1.00  0.00     0.091 A 
ATOM     77  F   UNL A   1      41.642  23.197  28.677  1.00  0.00    -0.205 F 
ATOM     78  C   UNL A   1      42.869  23.070  25.231  1.00  0.00     0.022 A 
BRANCH  76  79
ATOM     79  S   UNL A   1      41.787  20.945  26.578  1.00  0.00     0.127 S 
ATOM     80  O   UNL A   1      42.512  20.330  25.468  1.00  0.00    -0.237 OA
ATOM     81  O   UNL A   1      42.273  20.582  27.909  1.00  0.00    -0.237 OA
ATOM     82  O   UNL A   1      40.335  20.962  26.454  1.00  0.00    -0.744 OA
ENDBRANCH  76  79
ENDBRANCH  48  72
BRANCH  60  83
ATOM     83  C   UNL A   1      46.441  25.483  33.298  1.00  0.00     0.023 A 
ATOM     84  C   UNL A   1      46.183  24.453  34.222  1.00  0.00     0.012 A 
ATOM     85  C   UNL A   1      47.759  25.702  32.851  1.00  0.00     0.148 A 
ATOM     86  C   UNL A   1      47.225  23.671  34.717  1.00  0.00     0.002 A 
ATOM     87  C   UNL A   1      48.784  24.886  33.307  1.00  0.00     0.091 A 
ATOM     88  F   UNL A   1      47.982  26.701  31.983  1.00  0.00    -0.205 F 
ATOM     89  C   UNL A   1      48.522  23.878  34.250  1.00  0.00     0.022 A 
BRANCH  87  90
ATOM     90  S   UNL A   1      50.462  25.010  32.680  1.00  0.00     0.127 S 
ATOM     91  O   UNL A   1      50.840  26.355  33.107  1.00  0.00    -0.237 OA
ATOM     92  O   UNL A   1      51.141  23.928  33.395  1.00  0.00    -0.237 OA
ATOM     93  O   UNL A   1      50.366  24.813  31.239  1.00  0.00    -0.744 OA
ENDBRANCH  87  90
ENDBRANCH  60  83
ENDBRANCH  34  35
ENDBRANCH  27  29
ENDBRANCH  26  27
ENDBRANCH  25  26
ENDBRANCH  24  25
ENDBRANCH   1  24
TORSDOF 22
ENDMDL
