MODEL 1
REMARK VINA RESULT:     -12.1      0.000      0.000
REMARK SMILES Cc1cc(=O)n2cc(-c3ccccc3)nc2n1[C@H](C)C(=O)OCCOCCOC(=O)c1ccc(-c2c3nc(c(-c4cccc(S(=O)(=O)[O-])c4F)c4ccc([nH]4)c(-c4cccc(S(=O)(=O)[O-])c4F)c4nc(c(-c5cccc(S(=O)(=O)[O-])c5F)c5ccc2[nH]5)C=C4)C=C3)cc1
REMARK SMILES IDX 26 1 25 2 24 3 23 4 22 5 20 6 21 7 18 8 19 9 17 10 1 11 2 12
REMARK SMILES IDX 3 13 4 14 16 15 5 16 6 17 15 18 7 19 8 20 9 21 10 22 14 23
REMARK SMILES IDX 11 24 13 25 12 26 27 27 28 28 29 29 30 30 31 31 32 32 93 33
REMARK SMILES IDX 33 34 92 35 34 36 35 37 36 38 86 39 37 40 91 41 85 42 87 43
REMARK SMILES IDX 38 44 90 45 84 46 83 47 39 49 71 50 51 51 70 52 52 53 55 54
REMARK SMILES IDX 69 55 88 56 53 57 54 58 68 60 89 61 56 62 40 63 41 64 49 65
REMARK SMILES IDX 42 66 44 67 50 68 43 69 45 70 46 71 47 72 48 73 72 74 73 75
REMARK SMILES IDX 81 76 74 77 76 78 82 79 75 80 77 81 78 82 79 83 80 84 57 85
REMARK SMILES IDX 58 86 66 87 59 88 61 89 67 90 60 91 62 92 63 93 64 94 65 95
REMARK H PARENT 87 48 55 59
REMARK Flexibility Score: inf
ROOT
ATOM      1  C   UNL A   1      32.183  29.583  26.484  1.00  0.00     0.202 C 
ENDROOT
BRANCH   1   2
ATOM      2  O   UNL A   1      32.619  29.140  25.201  1.00  0.00    -0.374 OA
BRANCH   2   3
ATOM      3  C   UNL A   1      33.599  28.109  25.067  1.00  0.00     0.202 C 
BRANCH   3   4
ATOM      4  C   UNL A   1      33.795  27.126  26.218  1.00  0.00     0.261 C 
BRANCH   4   5
ATOM      5  O   UNL A   1      32.679  26.245  26.366  1.00  0.00    -0.462 OA
BRANCH   5   6
ATOM      6  C   UNL A   1      32.951  24.947  26.085  1.00  0.00     0.329 C 
ATOM      7  O   UNL A   1      34.019  24.390  26.339  1.00  0.00    -0.250 OA
BRANCH   6   8
ATOM      8  C   UNL A   1      31.801  24.199  25.405  1.00  0.00     0.197 C 
ATOM      9  C   UNL A   1      30.365  24.466  25.872  1.00  0.00     0.044 C 
BRANCH   8  10
ATOM     10  N   UNL A   1      32.008  24.327  23.940  1.00  0.00    -0.301 N 
ATOM     11  C   UNL A   1      33.605  22.367  23.883  1.00  0.00     0.065 C 
ATOM     12  C   UNL A   1      32.941  23.554  23.224  1.00  0.00     0.024 A 
ATOM     13  C   UNL A   1      33.298  23.875  21.966  1.00  0.00     0.093 A 
ATOM     14  C   UNL A   1      32.727  25.069  21.304  1.00  0.00     0.259 A 
ATOM     15  C   UNL A   1      31.501  25.472  23.381  1.00  0.00     0.218 A 
ATOM     16  O   UNL A   1      33.019  25.430  20.175  1.00  0.00    -0.269 OA
ATOM     17  N   UNL A   1      31.836  25.798  22.085  1.00  0.00    -0.251 N 
ATOM     18  N   UNL A   1      30.738  26.396  23.919  1.00  0.00    -0.212 NA
ATOM     19  C   UNL A   1      31.150  26.949  21.769  1.00  0.00     0.127 A 
ATOM     20  C   UNL A   1      30.455  27.278  22.911  1.00  0.00     0.091 A 
BRANCH  20  21
ATOM     21  C   UNL A   1      29.537  28.386  23.062  1.00  0.00     0.002 A 
ATOM     22  C   UNL A   1      28.154  28.172  23.003  1.00  0.00     0.010 A 
ATOM     23  C   UNL A   1      30.022  29.674  23.325  1.00  0.00     0.010 A 
ATOM     24  C   UNL A   1      27.268  29.236  23.190  1.00  0.00     0.001 A 
ATOM     25  C   UNL A   1      29.133  30.739  23.497  1.00  0.00     0.001 A 
ATOM     26  C   UNL A   1      27.758  30.519  23.428  1.00  0.00     0.000 A 
ENDBRANCH  20  21
ENDBRANCH   8  10
ENDBRANCH   6   8
ENDBRANCH   5   6
ENDBRANCH   4   5
ENDBRANCH   3   4
ENDBRANCH   2   3
ENDBRANCH   1   2
BRANCH   1  27
ATOM     27  C   UNL A   1      31.964  31.071  26.723  1.00  0.00     0.261 C 
BRANCH  27  28
ATOM     28  O   UNL A   1      33.099  31.660  27.331  1.00  0.00    -0.460 OA
BRANCH  28  29
ATOM     29  C   UNL A   1      32.911  32.939  27.720  1.00  0.00     0.338 C 
ATOM     30  O   UNL A   1      31.995  33.678  27.403  1.00  0.00    -0.246 OA
BRANCH  29  31
ATOM     31  C   UNL A   1      34.047  33.353  28.546  1.00  0.00     0.060 A 
ATOM     32  C   UNL A   1      35.077  33.997  27.858  1.00  0.00     0.016 A 
ATOM     33  C   UNL A   1      34.232  32.740  29.791  1.00  0.00     0.016 A 
ATOM     34  C   UNL A   1      36.362  33.734  28.254  1.00  0.00     0.010 A 
ATOM     35  C   UNL A   1      35.513  32.459  30.172  1.00  0.00     0.010 A 
ATOM     36  C   UNL A   1      36.544  32.860  29.327  1.00  0.00    -0.014 A 
BRANCH  36  37
ATOM     37  C   UNL A   1      37.873  32.362  29.578  1.00  0.00     0.031 A 
ATOM     38  C   UNL A   1      38.004  30.938  29.214  1.00  0.00     0.074 A 
ATOM     39  C   UNL A   1      38.850  33.197  29.982  1.00  0.00     0.049 A 
ATOM     40  N   UNL A   1      38.201  29.940  30.009  1.00  0.00    -0.248 NA
ATOM     41  C   UNL A   1      37.656  30.554  27.835  1.00  0.00     0.031 C 
ATOM     42  C   UNL A   1      38.809  34.662  30.076  1.00  0.00     0.029 A 
ATOM     43  N   UNL A   1      40.153  32.919  30.241  1.00  0.00    -0.354 N 
ATOM     44  C   UNL A   1      38.244  28.830  29.174  1.00  0.00     0.074 A 
ATOM     45  C   UNL A   1      37.658  29.226  27.923  1.00  0.00     0.031 C 
ATOM     46  C   UNL A   1      40.077  35.137  30.078  1.00  0.00     0.029 A 
ATOM     47  C   UNL A   1      40.999  34.017  30.105  1.00  0.00     0.049 A 
ATOM     48  H   UNL A   1      40.470  32.024  30.499  1.00  0.00     0.167 HD
ATOM     49  C   UNL A   1      39.029  27.761  29.459  1.00  0.00     0.034 A 
ATOM     50  C   UNL A   1      42.341  33.964  29.897  1.00  0.00     0.034 A 
ATOM     51  C   UNL A   1      39.476  27.774  30.824  1.00  0.00     0.049 A 
ATOM     52  C   UNL A   1      42.786  32.600  30.279  1.00  0.00     0.074 A 
ATOM     53  C   UNL A   1      38.844  27.731  32.050  1.00  0.00     0.029 A 
ATOM     54  N   UNL A   1      40.738  28.265  31.056  1.00  0.00    -0.354 N 
ATOM     55  N   UNL A   1      42.743  32.142  31.499  1.00  0.00    -0.248 NA
ATOM     56  C   UNL A   1      42.826  31.589  29.231  1.00  0.00     0.031 C 
ATOM     57  C   UNL A   1      39.593  28.614  32.881  1.00  0.00     0.029 A 
ATOM     58  C   UNL A   1      40.674  29.098  32.142  1.00  0.00     0.049 A 
ATOM     59  H   UNL A   1      41.545  28.056  30.533  1.00  0.00     0.167 HD
ATOM     60  C   UNL A   1      42.288  30.836  31.362  1.00  0.00     0.074 A 
ATOM     61  C   UNL A   1      42.450  30.522  29.942  1.00  0.00     0.031 C 
ATOM     62  C   UNL A   1      41.539  30.244  32.338  1.00  0.00     0.034 A 
BRANCH  49  63
ATOM     63  C   UNL A   1      39.680  26.908  28.408  1.00  0.00     0.023 A 
ATOM     64  C   UNL A   1      39.383  25.532  28.405  1.00  0.00     0.012 A 
ATOM     65  C   UNL A   1      40.740  27.345  27.578  1.00  0.00     0.148 A 
ATOM     66  C   UNL A   1      40.112  24.635  27.619  1.00  0.00     0.002 A 
ATOM     67  C   UNL A   1      41.396  26.467  26.728  1.00  0.00     0.091 A 
ATOM     68  F   UNL A   1      41.217  28.589  27.701  1.00  0.00    -0.205 F 
ATOM     69  C   UNL A   1      41.105  25.103  26.766  1.00  0.00     0.022 A 
BRANCH  67  70
ATOM     70  S   UNL A   1      42.634  27.036  25.556  1.00  0.00     0.127 S 
ATOM     71  O   UNL A   1      43.770  27.300  26.433  1.00  0.00    -0.237 OA
ATOM     72  O   UNL A   1      42.778  25.869  24.686  1.00  0.00    -0.237 OA
ATOM     73  O   UNL A   1      42.046  28.197  24.900  1.00  0.00    -0.744 OA
ENDBRANCH  67  70
ENDBRANCH  49  63
BRANCH  50  74
ATOM     74  C   UNL A   1      43.194  34.843  29.053  1.00  0.00     0.023 A 
ATOM     75  C   UNL A   1      43.291  34.594  27.667  1.00  0.00     0.012 A 
ATOM     76  C   UNL A   1      43.662  36.087  29.534  1.00  0.00     0.148 A 
ATOM     77  C   UNL A   1      43.798  35.563  26.790  1.00  0.00     0.002 A 
ATOM     78  C   UNL A   1      44.166  37.047  28.659  1.00  0.00     0.091 A 
ATOM     79  F   UNL A   1      43.525  36.371  30.836  1.00  0.00    -0.205 F 
ATOM     80  C   UNL A   1      44.225  36.792  27.284  1.00  0.00     0.022 A 
BRANCH  78  81
ATOM     81  S   UNL A   1      44.689  38.674  29.219  1.00  0.00     0.127 S 
ATOM     82  O   UNL A   1      45.878  38.355  30.010  1.00  0.00    -0.237 OA
ATOM     83  O   UNL A   1      44.959  39.354  27.955  1.00  0.00    -0.237 OA
ATOM     84  O   UNL A   1      43.577  39.206  29.996  1.00  0.00    -0.744 OA
ENDBRANCH  78  81
ENDBRANCH  50  74
BRANCH  62  85
ATOM     85  C   UNL A   1      41.394  30.963  33.660  1.00  0.00     0.023 A 
ATOM     86  C   UNL A   1      42.394  30.927  34.657  1.00  0.00     0.012 A 
ATOM     87  C   UNL A   1      40.322  31.856  33.810  1.00  0.00     0.148 A 
ATOM     88  C   UNL A   1      42.317  31.756  35.780  1.00  0.00     0.002 A 
ATOM     89  C   UNL A   1      40.276  32.714  34.902  1.00  0.00     0.091 A 
ATOM     90  F   UNL A   1      39.381  31.880  32.854  1.00  0.00    -0.205 F 
ATOM     91  C   UNL A   1      41.267  32.661  35.895  1.00  0.00     0.022 A 
BRANCH  89  92
ATOM     92  S   UNL A   1      39.031  33.999  35.030  1.00  0.00     0.127 S 
ATOM     93  O   UNL A   1      37.803  33.220  35.175  1.00  0.00    -0.237 OA
ATOM     94  O   UNL A   1      39.445  34.718  36.236  1.00  0.00    -0.237 OA
ATOM     95  O   UNL A   1      39.135  34.784  33.806  1.00  0.00    -0.744 OA
ENDBRANCH  89  92
ENDBRANCH  62  85
ENDBRANCH  36  37
ENDBRANCH  29  31
ENDBRANCH  28  29
ENDBRANCH  27  28
ENDBRANCH   1  27
TORSDOF 19
ENDMDL
MODEL 2
REMARK VINA RESULT:     -11.9      1.660      3.720
REMARK SMILES Cc1cc(=O)n2cc(-c3ccccc3)nc2n1[C@H](C)C(=O)OCCOCCOC(=O)c1ccc(-c2c3nc(c(-c4cccc(S(=O)(=O)[O-])c4F)c4ccc([nH]4)c(-c4cccc(S(=O)(=O)[O-])c4F)c4nc(c(-c5cccc(S(=O)(=O)[O-])c5F)c5ccc2[nH]5)C=C4)C=C3)cc1
REMARK SMILES IDX 26 1 25 2 24 3 23 4 22 5 20 6 21 7 18 8 19 9 17 10 1 11 2 12
REMARK SMILES IDX 3 13 4 14 16 15 5 16 6 17 15 18 7 19 8 20 9 21 10 22 14 23
REMARK SMILES IDX 11 24 13 25 12 26 27 27 28 28 29 29 30 30 31 31 32 32 93 33
REMARK SMILES IDX 33 34 92 35 34 36 35 37 36 38 86 39 37 40 91 41 85 42 87 43
REMARK SMILES IDX 38 44 90 45 84 46 83 47 39 49 71 50 51 51 70 52 52 53 55 54
REMARK SMILES IDX 69 55 88 56 53 57 54 58 68 60 89 61 56 62 40 63 41 64 49 65
REMARK SMILES IDX 42 66 44 67 50 68 43 69 45 70 46 71 47 72 48 73 72 74 73 75
REMARK SMILES IDX 81 76 74 77 76 78 82 79 75 80 77 81 78 82 79 83 80 84 57 85
REMARK SMILES IDX 58 86 66 87 59 88 61 89 67 90 60 91 62 92 63 93 64 94 65 95
REMARK H PARENT 87 48 55 59
REMARK Flexibility Score: inf
ROOT
ATOM      1  C   UNL A   1      31.810  29.356  27.251  1.00  0.00     0.202 C 
ENDROOT
BRANCH   1   2
ATOM      2  O   UNL A   1      32.158  28.288  26.372  1.00  0.00    -0.374 OA
BRANCH   2   3
ATOM      3  C   UNL A   1      33.496  28.126  25.898  1.00  0.00     0.202 C 
BRANCH   3   4
ATOM      4  C   UNL A   1      33.837  28.583  24.483  1.00  0.00     0.261 C 
BRANCH   4   5
ATOM      5  O   UNL A   1      32.742  28.399  23.582  1.00  0.00    -0.462 OA
BRANCH   5   6
ATOM      6  C   UNL A   1      33.051  27.697  22.465  1.00  0.00     0.329 C 
ATOM      7  O   UNL A   1      34.136  27.754  21.885  1.00  0.00    -0.250 OA
BRANCH   6   8
ATOM      8  C   UNL A   1      31.918  26.801  21.955  1.00  0.00     0.197 C 
ATOM      9  C   UNL A   1      32.203  25.831  20.803  1.00  0.00     0.044 C 
BRANCH   8  10
ATOM     10  N   UNL A   1      31.290  26.178  23.148  1.00  0.00    -0.301 N 
ATOM     11  C   UNL A   1      29.290  27.722  23.038  1.00  0.00     0.065 C 
ATOM     12  C   UNL A   1      30.115  26.671  23.745  1.00  0.00     0.024 A 
ATOM     13  C   UNL A   1      29.724  26.261  24.966  1.00  0.00     0.093 A 
ATOM     14  C   UNL A   1      30.537  25.286  25.727  1.00  0.00     0.259 A 
ATOM     15  C   UNL A   1      32.098  25.318  23.845  1.00  0.00     0.218 A 
ATOM     16  O   UNL A   1      30.254  24.885  26.845  1.00  0.00    -0.269 OA
ATOM     17  N   UNL A   1      31.697  24.868  25.085  1.00  0.00    -0.251 N 
ATOM     18  N   UNL A   1      33.287  24.854  23.535  1.00  0.00    -0.212 NA
ATOM     19  C   UNL A   1      32.660  23.986  25.523  1.00  0.00     0.127 A 
ATOM     20  C   UNL A   1      33.614  23.973  24.530  1.00  0.00     0.091 A 
BRANCH  20  21
ATOM     21  C   UNL A   1      34.805  23.151  24.502  1.00  0.00     0.002 A 
ATOM     22  C   UNL A   1      35.689  23.226  23.419  1.00  0.00     0.010 A 
ATOM     23  C   UNL A   1      35.112  22.316  25.583  1.00  0.00     0.010 A 
ATOM     24  C   UNL A   1      36.859  22.463  23.411  1.00  0.00     0.001 A 
ATOM     25  C   UNL A   1      36.277  21.542  25.566  1.00  0.00     0.001 A 
ATOM     26  C   UNL A   1      37.147  21.616  24.480  1.00  0.00     0.000 A 
ENDBRANCH  20  21
ENDBRANCH   8  10
ENDBRANCH   6   8
ENDBRANCH   5   6
ENDBRANCH   4   5
ENDBRANCH   3   4
ENDBRANCH   2   3
ENDBRANCH   1   2
BRANCH   1  27
ATOM     27  C   UNL A   1      31.916  30.791  26.755  1.00  0.00     0.261 C 
BRANCH  27  28
ATOM     28  O   UNL A   1      33.055  31.433  27.298  1.00  0.00    -0.460 OA
BRANCH  28  29
ATOM     29  C   UNL A   1      32.848  32.723  27.637  1.00  0.00     0.338 C 
ATOM     30  O   UNL A   1      31.921  33.436  27.293  1.00  0.00    -0.246 OA
BRANCH  29  31
ATOM     31  C   UNL A   1      33.979  33.186  28.444  1.00  0.00     0.060 A 
ATOM     32  C   UNL A   1      34.990  33.836  27.732  1.00  0.00     0.016 A 
ATOM     33  C   UNL A   1      34.186  32.612  29.704  1.00  0.00     0.016 A 
ATOM     34  C   UNL A   1      36.283  33.614  28.127  1.00  0.00     0.010 A 
ATOM     35  C   UNL A   1      35.476  32.371  30.084  1.00  0.00     0.010 A 
ATOM     36  C   UNL A   1      36.492  32.773  29.222  1.00  0.00    -0.014 A 
BRANCH  36  37
ATOM     37  C   UNL A   1      37.834  32.314  29.477  1.00  0.00     0.031 A 
ATOM     38  C   UNL A   1      38.003  30.890  29.129  1.00  0.00     0.074 A 
ATOM     39  C   UNL A   1      38.789  33.179  29.872  1.00  0.00     0.049 A 
ATOM     40  N   UNL A   1      38.227  29.906  29.934  1.00  0.00    -0.248 NA
ATOM     41  C   UNL A   1      37.665  30.482  27.754  1.00  0.00     0.031 C 
ATOM     42  C   UNL A   1      38.709  34.643  29.950  1.00  0.00     0.029 A 
ATOM     43  N   UNL A   1      40.098  32.939  30.133  1.00  0.00    -0.354 N 
ATOM     44  C   UNL A   1      38.299  28.789  29.111  1.00  0.00     0.074 A 
ATOM     45  C   UNL A   1      37.702  29.155  27.856  1.00  0.00     0.031 C 
ATOM     46  C   UNL A   1      39.963  35.153  29.946  1.00  0.00     0.029 A 
ATOM     47  C   UNL A   1      40.915  34.057  29.984  1.00  0.00     0.049 A 
ATOM     48  H   UNL A   1      40.440  32.055  30.401  1.00  0.00     0.167 HD
ATOM     49  C   UNL A   1      39.113  27.744  29.408  1.00  0.00     0.034 A 
ATOM     50  C   UNL A   1      42.257  34.038  29.776  1.00  0.00     0.034 A 
ATOM     51  C   UNL A   1      39.559  27.784  30.772  1.00  0.00     0.049 A 
ATOM     52  C   UNL A   1      42.739  32.690  30.173  1.00  0.00     0.074 A 
ATOM     53  C   UNL A   1      38.929  27.738  31.999  1.00  0.00     0.029 A 
ATOM     54  N   UNL A   1      40.808  28.311  30.998  1.00  0.00    -0.354 N 
ATOM     55  N   UNL A   1      42.708  32.245  31.398  1.00  0.00    -0.248 NA
ATOM     56  C   UNL A   1      42.806  31.670  29.136  1.00  0.00     0.031 C 
ATOM     57  C   UNL A   1      39.654  28.649  32.819  1.00  0.00     0.029 A 
ATOM     58  C   UNL A   1      40.722  29.154  32.075  1.00  0.00     0.049 A 
ATOM     59  H   UNL A   1      41.620  28.118  30.477  1.00  0.00     0.167 HD
ATOM     60  C   UNL A   1      42.289  30.926  31.275  1.00  0.00     0.074 A 
ATOM     61  C   UNL A   1      42.459  30.601  29.859  1.00  0.00     0.031 C 
ATOM     62  C   UNL A   1      41.556  30.324  32.257  1.00  0.00     0.034 A 
BRANCH  49  63
ATOM     63  C   UNL A   1      39.786  26.898  28.365  1.00  0.00     0.023 A 
ATOM     64  C   UNL A   1      39.508  25.518  28.363  1.00  0.00     0.012 A 
ATOM     65  C   UNL A   1      40.848  27.347  27.544  1.00  0.00     0.148 A 
ATOM     66  C   UNL A   1      40.257  24.629  27.587  1.00  0.00     0.002 A 
ATOM     67  C   UNL A   1      41.524  26.476  26.703  1.00  0.00     0.091 A 
ATOM     68  F   UNL A   1      41.306  28.598  27.669  1.00  0.00    -0.205 F 
ATOM     69  C   UNL A   1      41.252  25.109  26.743  1.00  0.00     0.022 A 
BRANCH  67  70
ATOM     70  S   UNL A   1      42.766  27.060  25.542  1.00  0.00     0.127 S 
ATOM     71  O   UNL A   1      42.059  28.152  24.880  1.00  0.00    -0.237 OA
ATOM     72  O   UNL A   1      43.843  27.472  26.442  1.00  0.00    -0.237 OA
ATOM     73  O   UNL A   1      43.094  25.909  24.710  1.00  0.00    -0.744 OA
ENDBRANCH  67  70
ENDBRANCH  49  63
BRANCH  50  74
ATOM     74  C   UNL A   1      43.087  34.930  28.923  1.00  0.00     0.023 A 
ATOM     75  C   UNL A   1      43.056  34.774  27.520  1.00  0.00     0.012 A 
ATOM     76  C   UNL A   1      43.660  36.113  29.442  1.00  0.00     0.148 A 
ATOM     77  C   UNL A   1      43.544  35.776  26.669  1.00  0.00     0.002 A 
ATOM     78  C   UNL A   1      44.144  37.105  28.593  1.00  0.00     0.091 A 
ATOM     79  F   UNL A   1      43.645  36.311  30.767  1.00  0.00    -0.205 F 
ATOM     80  C   UNL A   1      44.077  36.945  27.204  1.00  0.00     0.022 A 
BRANCH  78  81
ATOM     81  S   UNL A   1      44.800  38.662  29.212  1.00  0.00     0.127 S 
ATOM     82  O   UNL A   1      43.647  39.214  29.925  1.00  0.00    -0.237 OA
ATOM     83  O   UNL A   1      45.891  38.209  30.069  1.00  0.00    -0.237 OA
ATOM     84  O   UNL A   1      45.197  39.424  28.035  1.00  0.00    -0.744 OA
ENDBRANCH  78  81
ENDBRANCH  50  74
BRANCH  62  85
ATOM     85  C   UNL A   1      41.392  31.053  33.572  1.00  0.00     0.023 A 
ATOM     86  C   UNL A   1      40.224  31.779  33.896  1.00  0.00     0.012 A 
ATOM     87  C   UNL A   1      42.346  30.827  34.574  1.00  0.00     0.148 A 
ATOM     88  C   UNL A   1      40.022  32.275  35.188  1.00  0.00     0.002 A 
ATOM     89  C   UNL A   1      42.118  31.277  35.869  1.00  0.00     0.091 A 
ATOM     90  F   UNL A   1      43.449  30.135  34.253  1.00  0.00    -0.205 F 
ATOM     91  C   UNL A   1      40.962  32.010  36.179  1.00  0.00     0.022 A 
BRANCH  89  92
ATOM     92  S   UNL A   1      43.219  30.842  37.218  1.00  0.00     0.127 S 
ATOM     93  O   UNL A   1      44.430  31.587  36.876  1.00  0.00    -0.237 OA
ATOM     94  O   UNL A   1      42.498  31.350  38.387  1.00  0.00    -0.237 OA
ATOM     95  O   UNL A   1      43.345  29.390  37.182  1.00  0.00    -0.744 OA
ENDBRANCH  89  92
ENDBRANCH  62  85
ENDBRANCH  36  37
ENDBRANCH  29  31
ENDBRANCH  28  29
ENDBRANCH  27  28
ENDBRANCH   1  27
TORSDOF 19
ENDMDL
MODEL 3
REMARK VINA RESULT:     -11.3      3.901      8.488
REMARK SMILES Cc1cc(=O)n2cc(-c3ccccc3)nc2n1[C@H](C)C(=O)OCCOCCOC(=O)c1ccc(-c2c3nc(c(-c4cccc(S(=O)(=O)[O-])c4F)c4ccc([nH]4)c(-c4cccc(S(=O)(=O)[O-])c4F)c4nc(c(-c5cccc(S(=O)(=O)[O-])c5F)c5ccc2[nH]5)C=C4)C=C3)cc1
REMARK SMILES IDX 26 1 25 2 24 3 23 4 22 5 20 6 21 7 18 8 19 9 17 10 1 11 2 12
REMARK SMILES IDX 3 13 4 14 16 15 5 16 6 17 15 18 7 19 8 20 9 21 10 22 14 23
REMARK SMILES IDX 11 24 13 25 12 26 27 27 28 28 29 29 30 30 31 31 32 32 93 33
REMARK SMILES IDX 33 34 92 35 34 36 35 37 36 38 86 39 37 40 91 41 85 42 87 43
REMARK SMILES IDX 38 44 90 45 84 46 83 47 39 49 71 50 51 51 70 52 52 53 55 54
REMARK SMILES IDX 69 55 88 56 53 57 54 58 68 60 89 61 56 62 40 63 41 64 49 65
REMARK SMILES IDX 42 66 44 67 50 68 43 69 45 70 46 71 47 72 48 73 72 74 73 75
REMARK SMILES IDX 81 76 74 77 76 78 82 79 75 80 77 81 78 82 79 83 80 84 57 85
REMARK SMILES IDX 58 86 66 87 59 88 61 89 67 90 60 91 62 92 63 93 64 94 65 95
REMARK H PARENT 87 48 55 59
REMARK Flexibility Score: inf
ROOT
ATOM      1  C   UNL A   1      34.342  32.055  28.135  1.00  0.00     0.202 C 
ENDROOT
BRANCH   1   2
ATOM      2  O   UNL A   1      33.515  30.948  27.785  1.00  0.00    -0.374 OA
BRANCH   2   3
ATOM      3  C   UNL A   1      34.071  29.757  27.226  1.00  0.00     0.202 C 
BRANCH   3   4
ATOM      4  C   UNL A   1      33.327  29.058  26.092  1.00  0.00     0.261 C 
BRANCH   4   5
ATOM      5  O   UNL A   1      33.230  27.647  26.304  1.00  0.00    -0.462 OA
BRANCH   5   6
ATOM      6  C   UNL A   1      31.987  27.215  26.631  1.00  0.00     0.329 C 
ATOM      7  O   UNL A   1      31.278  27.729  27.497  1.00  0.00    -0.250 OA
BRANCH   6   8
ATOM      8  C   UNL A   1      31.513  26.004  25.824  1.00  0.00     0.197 C 
ATOM      9  C   UNL A   1      30.040  25.585  25.912  1.00  0.00     0.044 C 
BRANCH   8  10
ATOM     10  N   UNL A   1      32.025  26.179  24.440  1.00  0.00    -0.301 N 
ATOM     11  C   UNL A   1      30.443  28.097  23.979  1.00  0.00     0.065 C 
ATOM     12  C   UNL A   1      31.457  27.076  23.517  1.00  0.00     0.024 A 
ATOM     13  C   UNL A   1      31.761  27.018  22.207  1.00  0.00     0.093 A 
ATOM     14  C   UNL A   1      32.694  25.990  21.696  1.00  0.00     0.259 A 
ATOM     15  C   UNL A   1      32.849  25.177  23.997  1.00  0.00     0.218 A 
ATOM     16  O   UNL A   1      33.000  25.867  20.521  1.00  0.00    -0.269 OA
ATOM     17  N   UNL A   1      33.191  25.122  22.663  1.00  0.00    -0.251 N 
ATOM     18  N   UNL A   1      33.367  24.167  24.660  1.00  0.00    -0.212 NA
ATOM     19  C   UNL A   1      34.061  24.066  22.513  1.00  0.00     0.127 A 
ATOM     20  C   UNL A   1      34.176  23.513  23.770  1.00  0.00     0.091 A 
BRANCH  20  21
ATOM     21  C   UNL A   1      35.028  22.404  24.140  1.00  0.00     0.002 A 
ATOM     22  C   UNL A   1      36.417  22.499  23.989  1.00  0.00     0.010 A 
ATOM     23  C   UNL A   1      34.475  21.247  24.704  1.00  0.00     0.010 A 
ATOM     24  C   UNL A   1      37.242  21.444  24.386  1.00  0.00     0.001 A 
ATOM     25  C   UNL A   1      35.302  20.186  25.085  1.00  0.00     0.001 A 
ATOM     26  C   UNL A   1      36.683  20.286  24.925  1.00  0.00     0.000 A 
ENDBRANCH  20  21
ENDBRANCH   8  10
ENDBRANCH   6   8
ENDBRANCH   5   6
ENDBRANCH   4   5
ENDBRANCH   3   4
ENDBRANCH   2   3
ENDBRANCH   1   2
BRANCH   1  27
ATOM     27  C   UNL A   1      34.233  32.653  29.531  1.00  0.00     0.261 C 
BRANCH  27  28
ATOM     28  O   UNL A   1      35.513  32.832  30.108  1.00  0.00    -0.460 OA
BRANCH  28  29
ATOM     29  C   UNL A   1      36.058  31.698  30.597  1.00  0.00     0.338 C 
ATOM     30  O   UNL A   1      35.748  31.113  31.620  1.00  0.00    -0.246 OA
BRANCH  29  31
ATOM     31  C   UNL A   1      37.168  31.296  29.730  1.00  0.00     0.060 A 
ATOM     32  C   UNL A   1      37.099  29.988  29.246  1.00  0.00     0.016 A 
ATOM     33  C   UNL A   1      38.362  32.023  29.786  1.00  0.00     0.016 A 
ATOM     34  C   UNL A   1      38.274  29.292  29.137  1.00  0.00     0.010 A 
ATOM     35  C   UNL A   1      39.532  31.323  29.700  1.00  0.00     0.010 A 
ATOM     36  C   UNL A   1      39.453  29.948  29.497  1.00  0.00    -0.014 A 
BRANCH  36  37
ATOM     37  C   UNL A   1      40.648  29.159  29.650  1.00  0.00     0.031 A 
ATOM     38  C   UNL A   1      40.945  28.881  31.069  1.00  0.00     0.074 A 
ATOM     39  C   UNL A   1      41.289  28.672  28.570  1.00  0.00     0.049 A 
ATOM     40  N   UNL A   1      41.944  29.316  31.762  1.00  0.00    -0.248 NA
ATOM     41  C   UNL A   1      39.894  28.226  31.868  1.00  0.00     0.031 C 
ATOM     42  C   UNL A   1      40.851  28.700  27.168  1.00  0.00     0.029 A 
ATOM     43  N   UNL A   1      42.402  27.897  28.519  1.00  0.00    -0.354 N 
ATOM     44  C   UNL A   1      41.757  28.772  33.027  1.00  0.00     0.074 A 
ATOM     45  C   UNL A   1      40.387  28.344  33.099  1.00  0.00     0.031 C 
ATOM     46  C   UNL A   1      41.520  27.745  26.481  1.00  0.00     0.029 A 
ATOM     47  C   UNL A   1      42.500  27.132  27.359  1.00  0.00     0.049 A 
ATOM     48  H   UNL A   1      43.076  27.878  29.235  1.00  0.00     0.167 HD
ATOM     49  C   UNL A   1      42.810  28.432  33.813  1.00  0.00     0.034 A 
ATOM     50  C   UNL A   1      43.243  26.004  27.213  1.00  0.00     0.034 A 
ATOM     51  C   UNL A   1      44.035  29.022  33.350  1.00  0.00     0.049 A 
ATOM     52  C   UNL A   1      44.239  25.994  28.316  1.00  0.00     0.074 A 
ATOM     53  C   UNL A   1      44.484  30.315  33.179  1.00  0.00     0.029 A 
ATOM     54  N   UNL A   1      44.854  28.223  32.587  1.00  0.00    -0.354 N 
ATOM     55  N   UNL A   1      45.199  26.869  28.428  1.00  0.00    -0.248 NA
ATOM     56  C   UNL A   1      43.871  25.305  29.544  1.00  0.00     0.031 C 
ATOM     57  C   UNL A   1      45.255  30.282  31.982  1.00  0.00     0.029 A 
ATOM     58  C   UNL A   1      45.289  28.965  31.520  1.00  0.00     0.049 A 
ATOM     59  H   UNL A   1      45.084  27.285  32.773  1.00  0.00     0.167 HD
ATOM     60  C   UNL A   1      45.234  27.170  29.785  1.00  0.00     0.074 A 
ATOM     61  C   UNL A   1      44.463  26.109  30.432  1.00  0.00     0.031 C 
ATOM     62  C   UNL A   1      45.613  28.407  30.222  1.00  0.00     0.034 A 
BRANCH  49  63
ATOM     63  C   UNL A   1      42.784  27.282  34.778  1.00  0.00     0.023 A 
ATOM     64  C   UNL A   1      41.721  26.365  34.675  1.00  0.00     0.012 A 
ATOM     65  C   UNL A   1      43.614  27.187  35.921  1.00  0.00     0.148 A 
ATOM     66  C   UNL A   1      41.492  25.406  35.666  1.00  0.00     0.002 A 
ATOM     67  C   UNL A   1      43.442  26.174  36.852  1.00  0.00     0.091 A 
ATOM     68  F   UNL A   1      44.494  28.158  36.191  1.00  0.00    -0.205 F 
ATOM     69  C   UNL A   1      42.363  25.297  36.744  1.00  0.00     0.022 A 
BRANCH  67  70
ATOM     70  S   UNL A   1      44.584  25.948  38.221  1.00  0.00     0.127 S 
ATOM     71  O   UNL A   1      45.825  26.469  37.658  1.00  0.00    -0.237 OA
ATOM     72  O   UNL A   1      43.973  26.781  39.257  1.00  0.00    -0.237 OA
ATOM     73  O   UNL A   1      44.562  24.521  38.516  1.00  0.00    -0.744 OA
ENDBRANCH  67  70
ENDBRANCH  49  63
BRANCH  50  74
ATOM     74  C   UNL A   1      42.930  24.767  26.449  1.00  0.00     0.023 A 
ATOM     75  C   UNL A   1      43.868  24.268  25.520  1.00  0.00     0.012 A 
ATOM     76  C   UNL A   1      41.872  23.915  26.840  1.00  0.00     0.148 A 
ATOM     77  C   UNL A   1      43.776  22.958  25.030  1.00  0.00     0.002 A 
ATOM     78  C   UNL A   1      41.784  22.615  26.350  1.00  0.00     0.091 A 
ATOM     79  F   UNL A   1      41.005  24.344  27.766  1.00  0.00    -0.205 F 
ATOM     80  C   UNL A   1      42.742  22.128  25.452  1.00  0.00     0.022 A 
BRANCH  78  81
ATOM     81  S   UNL A   1      40.506  21.470  26.889  1.00  0.00     0.127 S 
ATOM     82  O   UNL A   1      40.726  20.329  25.999  1.00  0.00    -0.237 OA
ATOM     83  O   UNL A   1      40.876  21.240  28.283  1.00  0.00    -0.237 OA
ATOM     84  O   UNL A   1      39.238  22.158  26.678  1.00  0.00    -0.744 OA
ENDBRANCH  78  81
ENDBRANCH  50  74
BRANCH  62  85
ATOM     85  C   UNL A   1      46.196  29.372  29.215  1.00  0.00     0.023 A 
ATOM     86  C   UNL A   1      47.532  29.283  28.765  1.00  0.00     0.012 A 
ATOM     87  C   UNL A   1      45.320  30.251  28.562  1.00  0.00     0.148 A 
ATOM     88  C   UNL A   1      47.982  30.062  27.695  1.00  0.00     0.002 A 
ATOM     89  C   UNL A   1      45.757  30.985  27.466  1.00  0.00     0.091 A 
ATOM     90  F   UNL A   1      44.054  30.323  28.999  1.00  0.00    -0.205 F 
ATOM     91  C   UNL A   1      47.090  30.902  27.035  1.00  0.00     0.022 A 
BRANCH  89  92
ATOM     92  S   UNL A   1      44.621  31.970  26.487  1.00  0.00     0.127 S 
ATOM     93  O   UNL A   1      43.600  30.987  26.124  1.00  0.00    -0.237 OA
ATOM     94  O   UNL A   1      44.179  32.985  27.445  1.00  0.00    -0.237 OA
ATOM     95  O   UNL A   1      45.402  32.501  25.376  1.00  0.00    -0.744 OA
ENDBRANCH  89  92
ENDBRANCH  62  85
ENDBRANCH  36  37
ENDBRANCH  29  31
ENDBRANCH  28  29
ENDBRANCH  27  28
ENDBRANCH   1  27
TORSDOF 19
ENDMDL
