MODEL 1
REMARK VINA RESULT:     -11.0      0.000      0.000
REMARK SMILES COc1ccc(CCN2/C(=[NH+]/C(=O)CCC(=O)OCCOCCOC(=O)c3ccc(-c4c5nc(c(-c6cccc(S(=O)(=O)[O-])c6F)c6ccc([nH]6)c(-c6cccc(S(=O)(=O)[O-])c6F)c6nc(c(-c7cccc(S(=O)(=O)[O-])c7F)c7ccc4[nH]7)C=C6)C=C5)cc3)S[C@@H]3CS(=O)(=O)C[C@@H]32)cc1
REMARK SMILES IDX 19 1 18 2 16 3 17 4 15 5 14 6 12 7 9 8 10 9 97 10 11 11
REMARK SMILES IDX 90 12 91 13 96 14 92 16 93 17 13 18 94 19 95 20 8 21 7 22
REMARK SMILES IDX 6 23 3 24 4 25 99 26 5 27 98 28 2 29 1 30 20 31 21 32 22 33
REMARK SMILES IDX 23 34 24 35 25 36 26 37 27 38 28 39 89 40 29 41 88 42 30 43
REMARK SMILES IDX 31 44 32 45 82 46 33 47 87 48 81 49 83 50 34 51 86 52 80 53
REMARK SMILES IDX 79 54 35 56 67 57 47 58 66 59 48 60 51 61 65 62 84 63 49 64
REMARK SMILES IDX 50 65 64 67 85 68 52 69 36 70 37 71 45 72 38 73 40 74 46 75
REMARK SMILES IDX 39 76 41 77 42 78 43 79 44 80 68 81 69 82 77 83 70 84 72 85
REMARK SMILES IDX 78 86 71 87 73 88 74 89 75 90 76 91 53 92 54 93 62 94 55 95
REMARK SMILES IDX 57 96 63 97 56 98 58 99 59 100 60 101 61 102
REMARK H PARENT 11 15 83 55 51 66
REMARK Flexibility Score: inf
ROOT
ATOM      1  C   UNL A   1      34.200  31.786  28.167  1.00  0.00     0.261 C 
ENDROOT
BRANCH   1   2
ATOM      2  O   UNL A   1      34.038  30.898  27.057  1.00  0.00    -0.463 OA
BRANCH   2   3
ATOM      3  C   UNL A   1      34.537  29.653  27.176  1.00  0.00     0.306 C 
ATOM      4  O   UNL A   1      35.402  29.316  27.972  1.00  0.00    -0.252 OA
BRANCH   3   5
ATOM      5  C   UNL A   1      33.884  28.707  26.193  1.00  0.00     0.135 C 
BRANCH   5   6
ATOM      6  C   UNL A   1      33.218  27.467  26.777  1.00  0.00     0.139 C 
BRANCH   6   7
ATOM      7  C   UNL A   1      33.272  26.240  25.868  1.00  0.00     0.308 C 
ATOM      8  N   UNL A   1      35.753  23.552  24.874  1.00  0.00    -0.251 N 
ATOM      9  C   UNL A   1      34.685  24.518  25.025  1.00  0.00     0.314 C 
ATOM     10  C   UNL A   1      35.179  22.293  24.229  1.00  0.00     0.206 C 
ATOM     11  N   UNL A   1      34.449  25.477  25.862  1.00  0.00    -0.205 N 
ATOM     12  S   UNL A   1      33.496  24.223  23.692  1.00  0.00    -0.030 SA
ATOM     13  C   UNL A   1      33.705  22.474  23.798  1.00  0.00     0.120 C 
ATOM     14  C   UNL A   1      35.216  21.022  25.048  1.00  0.00     0.187 C 
ATOM     15  H   UNL A   1      35.136  25.683  26.536  1.00  0.00     0.316 HD
ATOM     16  C   UNL A   1      32.734  21.994  24.862  1.00  0.00     0.156 C 
ATOM     17  S   UNL A   1      33.596  20.695  25.682  1.00  0.00     0.155 S 
ATOM     18  O   UNL A   1      32.223  26.017  25.261  1.00  0.00    -0.247 OA
ATOM     19  O   UNL A   1      33.630  20.981  27.114  1.00  0.00    -0.229 OA
ATOM     20  O   UNL A   1      33.175  19.426  25.163  1.00  0.00    -0.229 OA
BRANCH   8  21
ATOM     21  C   UNL A   1      37.441  23.582  25.090  1.00  0.00     0.242 C 
BRANCH  21  22
ATOM     22  C   UNL A   1      38.670  23.335  26.492  1.00  0.00     0.081 C 
BRANCH  22  23
ATOM     23  C   UNL A   1      40.218  22.670  26.783  1.00  0.00    -0.044 A 
ATOM     24  C   UNL A   1      42.536  21.018  26.222  1.00  0.00     0.118 A 
ATOM     25  C   UNL A   1      41.600  20.647  27.174  1.00  0.00     0.046 A 
ATOM     26  C   UNL A   1      42.496  22.348  25.813  1.00  0.00     0.046 A 
ATOM     27  C   UNL A   1      40.552  21.527  27.555  1.00  0.00     0.007 A 
ATOM     28  C   UNL A   1      41.329  23.153  26.062  1.00  0.00     0.007 A 
BRANCH  24  29
ATOM     29  O   UNL A   1      43.290  19.986  25.744  1.00  0.00    -0.497 OA
ATOM     30  C   UNL A   1      42.914  18.626  25.912  1.00  0.00     0.278 C 
ENDBRANCH  24  29
ENDBRANCH  22  23
ENDBRANCH  21  22
ENDBRANCH   8  21
ENDBRANCH   6   7
ENDBRANCH   5   6
ENDBRANCH   3   5
ENDBRANCH   2   3
ENDBRANCH   1   2
BRANCH   1  31
ATOM     31  C   UNL A   1      35.261  32.881  27.912  1.00  0.00     0.202 C 
BRANCH  31  32
ATOM     32  O   UNL A   1      35.100  34.276  28.207  1.00  0.00    -0.374 OA
BRANCH  32  33
ATOM     33  C   UNL A   1      33.778  34.824  28.049  1.00  0.00     0.202 C 
BRANCH  33  34
ATOM     34  C   UNL A   1      32.809  35.385  29.219  1.00  0.00     0.261 C 
BRANCH  34  35
ATOM     35  O   UNL A   1      33.091  36.020  30.586  1.00  0.00    -0.460 OA
BRANCH  35  36
ATOM     36  C   UNL A   1      33.434  35.101  31.529  1.00  0.00     0.338 C 
ATOM     37  O   UNL A   1      32.546  35.033  32.361  1.00  0.00    -0.246 OA
BRANCH  36  38
ATOM     38  C   UNL A   1      34.635  34.057  31.756  1.00  0.00     0.060 A 
ATOM     39  C   UNL A   1      35.899  34.382  31.165  1.00  0.00     0.016 A 
ATOM     40  C   UNL A   1      34.746  32.944  32.567  1.00  0.00     0.016 A 
ATOM     41  C   UNL A   1      37.171  33.881  31.421  1.00  0.00     0.010 A 
ATOM     42  C   UNL A   1      36.056  32.392  32.876  1.00  0.00     0.010 A 
ATOM     43  C   UNL A   1      37.278  32.908  32.362  1.00  0.00    -0.014 A 
BRANCH  43  44
ATOM     44  C   UNL A   1      38.641  32.397  32.641  1.00  0.00     0.031 A 
ATOM     45  C   UNL A   1      39.179  31.343  31.743  1.00  0.00     0.074 A 
ATOM     46  C   UNL A   1      39.526  32.984  33.475  1.00  0.00     0.049 A 
ATOM     47  N   UNL A   1      40.189  30.551  31.931  1.00  0.00    -0.248 NA
ATOM     48  C   UNL A   1      38.541  31.221  30.420  1.00  0.00     0.031 C 
ATOM     49  C   UNL A   1      39.479  34.347  33.975  1.00  0.00     0.029 A 
ATOM     50  N   UNL A   1      40.595  32.458  34.156  1.00  0.00    -0.354 N 
ATOM     51  C   UNL A   1      40.271  29.785  30.783  1.00  0.00     0.074 A 
ATOM     52  C   UNL A   1      39.244  30.240  29.877  1.00  0.00     0.031 C 
ATOM     53  C   UNL A   1      40.226  34.459  35.086  1.00  0.00     0.029 A 
ATOM     54  C   UNL A   1      40.859  33.173  35.315  1.00  0.00     0.049 A 
ATOM     55  H   UNL A   1      41.108  31.672  33.861  1.00  0.00     0.167 HD
ATOM     56  C   UNL A   1      41.126  28.768  30.553  1.00  0.00     0.034 A 
ATOM     57  C   UNL A   1      41.490  32.782  36.437  1.00  0.00     0.034 A 
ATOM     58  C   UNL A   1      42.096  28.361  31.527  1.00  0.00     0.049 A 
ATOM     59  C   UNL A   1      42.230  31.479  36.328  1.00  0.00     0.074 A 
ATOM     60  C   UNL A   1      42.984  27.307  31.485  1.00  0.00     0.029 A 
ATOM     61  N   UNL A   1      42.280  29.000  32.750  1.00  0.00    -0.354 N 
ATOM     62  N   UNL A   1      42.251  30.653  35.306  1.00  0.00    -0.248 NA
ATOM     63  C   UNL A   1      43.116  31.103  37.431  1.00  0.00     0.031 C 
ATOM     64  C   UNL A   1      43.663  27.276  32.709  1.00  0.00     0.029 A 
ATOM     65  C   UNL A   1      43.245  28.349  33.488  1.00  0.00     0.049 A 
ATOM     66  H   UNL A   1      41.790  29.801  33.047  1.00  0.00     0.167 HD
ATOM     67  C   UNL A   1      43.244  29.733  35.580  1.00  0.00     0.074 A 
ATOM     68  C   UNL A   1      43.754  30.065  36.902  1.00  0.00     0.031 C 
ATOM     69  C   UNL A   1      43.727  28.742  34.792  1.00  0.00     0.034 A 
BRANCH  56  70
ATOM     70  C   UNL A   1      40.927  27.995  29.284  1.00  0.00     0.023 A 
ATOM     71  C   UNL A   1      39.959  26.973  29.202  1.00  0.00     0.012 A 
ATOM     72  C   UNL A   1      41.771  28.241  28.186  1.00  0.00     0.148 A 
ATOM     73  C   UNL A   1      39.862  26.184  28.054  1.00  0.00     0.002 A 
ATOM     74  C   UNL A   1      41.637  27.485  27.030  1.00  0.00     0.091 A 
ATOM     75  F   UNL A   1      42.712  29.188  28.307  1.00  0.00    -0.205 F 
ATOM     76  C   UNL A   1      40.695  26.445  26.968  1.00  0.00     0.022 A 
BRANCH  74  77
ATOM     77  S   UNL A   1      42.629  27.776  25.565  1.00  0.00     0.127 S 
ATOM     78  O   UNL A   1      42.273  26.627  24.731  1.00  0.00    -0.237 OA
ATOM     79  O   UNL A   1      42.101  29.058  25.098  1.00  0.00    -0.237 OA
ATOM     80  O   UNL A   1      44.015  27.804  26.011  1.00  0.00    -0.744 OA
ENDBRANCH  74  77
ENDBRANCH  56  70
BRANCH  57  81
ATOM     81  C   UNL A   1      41.490  33.604  37.685  1.00  0.00     0.023 A 
ATOM     82  C   UNL A   1      40.540  33.359  38.694  1.00  0.00     0.012 A 
ATOM     83  C   UNL A   1      42.413  34.662  37.865  1.00  0.00     0.148 A 
ATOM     84  C   UNL A   1      40.483  34.163  39.836  1.00  0.00     0.002 A 
ATOM     85  C   UNL A   1      42.359  35.453  39.014  1.00  0.00     0.091 A 
ATOM     86  F   UNL A   1      43.307  34.895  36.894  1.00  0.00    -0.205 F 
ATOM     87  C   UNL A   1      41.389  35.209  39.997  1.00  0.00     0.022 A 
BRANCH  85  88
ATOM     88  S   UNL A   1      43.489  36.823  39.315  1.00  0.00     0.127 S 
ATOM     89  O   UNL A   1      42.758  37.593  40.320  1.00  0.00    -0.237 OA
ATOM     90  O   UNL A   1      44.682  36.143  39.821  1.00  0.00    -0.237 OA
ATOM     91  O   UNL A   1      43.665  37.479  38.025  1.00  0.00    -0.744 OA
ENDBRANCH  85  88
ENDBRANCH  57  81
BRANCH  69  92
ATOM     92  C   UNL A   1      44.919  27.998  35.302  1.00  0.00     0.023 A 
ATOM     93  C   UNL A   1      46.215  28.501  35.089  1.00  0.00     0.012 A 
ATOM     94  C   UNL A   1      44.724  26.859  36.107  1.00  0.00     0.148 A 
ATOM     95  C   UNL A   1      47.310  27.862  35.660  1.00  0.00     0.002 A 
ATOM     96  C   UNL A   1      45.812  26.271  36.726  1.00  0.00     0.091 A 
ATOM     97  F   UNL A   1      43.476  26.394  36.266  1.00  0.00    -0.205 F 
ATOM     98  C   UNL A   1      47.107  26.761  36.493  1.00  0.00     0.022 A 
BRANCH  96  99
ATOM     99  S   UNL A   1      45.628  24.942  37.917  1.00  0.00     0.127 S 
ATOM    100  O   UNL A   1      44.793  25.572  38.938  1.00  0.00    -0.237 OA
ATOM    101  O   UNL A   1      44.955  23.914  37.123  1.00  0.00    -0.237 OA
ATOM    102  O   UNL A   1      46.975  24.591  38.346  1.00  0.00    -0.744 OA
ENDBRANCH  96  99
ENDBRANCH  69  92
ENDBRANCH  43  44
ENDBRANCH  36  38
ENDBRANCH  35  36
ENDBRANCH  34  35
ENDBRANCH  33  34
ENDBRANCH  32  33
ENDBRANCH  31  32
ENDBRANCH   1  31
TORSDOF 23
ENDMDL
MODEL 2
REMARK VINA RESULT:     -10.2      4.491     11.035
REMARK SMILES COc1ccc(CCN2/C(=[NH+]/C(=O)CCC(=O)OCCOCCOC(=O)c3ccc(-c4c5nc(c(-c6cccc(S(=O)(=O)[O-])c6F)c6ccc([nH]6)c(-c6cccc(S(=O)(=O)[O-])c6F)c6nc(c(-c7cccc(S(=O)(=O)[O-])c7F)c7ccc4[nH]7)C=C6)C=C5)cc3)S[C@@H]3CS(=O)(=O)C[C@@H]32)cc1
REMARK SMILES IDX 19 1 18 2 16 3 17 4 15 5 14 6 12 7 9 8 10 9 97 10 11 11
REMARK SMILES IDX 90 12 91 13 96 14 92 16 93 17 13 18 94 19 95 20 8 21 7 22
REMARK SMILES IDX 6 23 3 24 4 25 99 26 5 27 98 28 2 29 1 30 20 31 21 32 22 33
REMARK SMILES IDX 23 34 24 35 25 36 26 37 27 38 28 39 89 40 29 41 88 42 30 43
REMARK SMILES IDX 31 44 32 45 82 46 33 47 87 48 81 49 83 50 34 51 86 52 80 53
REMARK SMILES IDX 79 54 35 56 67 57 47 58 66 59 48 60 51 61 65 62 84 63 49 64
REMARK SMILES IDX 50 65 64 67 85 68 52 69 36 70 37 71 45 72 38 73 40 74 46 75
REMARK SMILES IDX 39 76 41 77 42 78 43 79 44 80 68 81 69 82 77 83 70 84 72 85
REMARK SMILES IDX 78 86 71 87 73 88 74 89 75 90 76 91 53 92 54 93 62 94 55 95
REMARK SMILES IDX 57 96 63 97 56 98 58 99 59 100 60 101 61 102
REMARK H PARENT 11 15 83 55 51 66
REMARK Flexibility Score: inf
ROOT
ATOM      1  C   UNL A   1      41.783  27.622  28.848  1.00  0.00     0.261 C 
ENDROOT
BRANCH   1   2
ATOM      2  O   UNL A   1      40.655  26.885  29.331  1.00  0.00    -0.463 OA
BRANCH   2   3
ATOM      3  C   UNL A   1      39.454  27.493  29.305  1.00  0.00     0.306 C 
ATOM      4  O   UNL A   1      38.907  27.923  28.299  1.00  0.00    -0.252 OA
BRANCH   3   5
ATOM      5  C   UNL A   1      38.853  27.575  30.690  1.00  0.00     0.135 C 
BRANCH   5   6
ATOM      6  C   UNL A   1      39.273  28.762  31.549  1.00  0.00     0.139 C 
BRANCH   6   7
ATOM      7  C   UNL A   1      38.778  30.112  31.036  1.00  0.00     0.308 C 
ATOM      8  N   UNL A   1      36.088  31.462  28.731  1.00  0.00    -0.251 N 
ATOM      9  C   UNL A   1      37.238  31.177  29.563  1.00  0.00     0.314 C 
ATOM     10  C   UNL A   1      35.745  32.942  28.870  1.00  0.00     0.206 C 
ATOM     11  N   UNL A   1      37.656  30.127  30.194  1.00  0.00    -0.205 N 
ATOM     12  S   UNL A   1      38.228  32.690  29.655  1.00  0.00    -0.030 SA
ATOM     13  C   UNL A   1      36.790  33.711  29.713  1.00  0.00     0.120 C 
ATOM     14  C   UNL A   1      34.400  33.284  29.471  1.00  0.00     0.187 C 
ATOM     15  H   UNL A   1      37.157  29.287  30.077  1.00  0.00     0.316 HD
ATOM     16  C   UNL A   1      36.393  33.803  31.174  1.00  0.00     0.156 C 
ATOM     17  S   UNL A   1      34.631  33.810  31.146  1.00  0.00     0.155 S 
ATOM     18  O   UNL A   1      39.407  31.078  31.475  1.00  0.00    -0.247 OA
ATOM     19  O   UNL A   1      34.139  32.735  32.004  1.00  0.00    -0.229 OA
ATOM     20  O   UNL A   1      34.147  35.156  31.248  1.00  0.00    -0.229 OA
BRANCH   8  21
ATOM     21  C   UNL A   1      35.199  30.591  27.570  1.00  0.00     0.242 C 
BRANCH  21  22
ATOM     22  C   UNL A   1      33.616  29.578  27.501  1.00  0.00     0.081 C 
BRANCH  22  23
ATOM     23  C   UNL A   1      32.999  28.149  26.794  1.00  0.00    -0.044 A 
ATOM     24  C   UNL A   1      31.893  26.512  24.669  1.00  0.00     0.118 A 
ATOM     25  C   UNL A   1      31.097  26.996  25.694  1.00  0.00     0.046 A 
ATOM     26  C   UNL A   1      33.266  26.556  24.891  1.00  0.00     0.046 A 
ATOM     27  C   UNL A   1      31.665  27.665  26.812  1.00  0.00     0.007 A 
ATOM     28  C   UNL A   1      33.813  27.397  25.922  1.00  0.00     0.007 A 
BRANCH  24  29
ATOM     29  O   UNL A   1      31.206  26.167  23.541  1.00  0.00    -0.497 OA
ATOM     30  C   UNL A   1      30.995  24.814  23.161  1.00  0.00     0.278 C 
ENDBRANCH  24  29
ENDBRANCH  22  23
ENDBRANCH  21  22
ENDBRANCH   8  21
ENDBRANCH   6   7
ENDBRANCH   5   6
ENDBRANCH   3   5
ENDBRANCH   2   3
ENDBRANCH   1   2
BRANCH   1  31
ATOM     31  C   UNL A   1      42.281  27.126  27.471  1.00  0.00     0.202 C 
BRANCH  31  32
ATOM     32  O   UNL A   1      41.440  26.794  26.357  1.00  0.00    -0.374 OA
BRANCH  32  33
ATOM     33  C   UNL A   1      40.990  25.429  26.270  1.00  0.00     0.202 C 
BRANCH  33  34
ATOM     34  C   UNL A   1      41.876  24.093  26.507  1.00  0.00     0.261 C 
BRANCH  34  35
ATOM     35  O   UNL A   1      43.277  23.680  26.042  1.00  0.00    -0.460 OA
BRANCH  35  36
ATOM     36  C   UNL A   1      44.236  23.943  26.971  1.00  0.00     0.338 C 
ATOM     37  O   UNL A   1      45.170  24.511  26.432  1.00  0.00    -0.246 OA
BRANCH  36  38
ATOM     38  C   UNL A   1      44.393  23.778  28.562  1.00  0.00     0.060 A 
ATOM     39  C   UNL A   1      45.267  24.696  29.229  1.00  0.00     0.016 A 
ATOM     40  C   UNL A   1      43.710  23.000  29.478  1.00  0.00     0.016 A 
ATOM     41  C   UNL A   1      45.378  25.019  30.577  1.00  0.00     0.010 A 
ATOM     42  C   UNL A   1      43.783  23.308  30.898  1.00  0.00     0.010 A 
ATOM     43  C   UNL A   1      44.560  24.367  31.443  1.00  0.00    -0.014 A 
BRANCH  43  44
ATOM     44  C   UNL A   1      44.674  24.735  32.874  1.00  0.00     0.031 A 
ATOM     45  C   UNL A   1      44.090  26.032  33.301  1.00  0.00     0.074 A 
ATOM     46  C   UNL A   1      45.031  23.884  33.861  1.00  0.00     0.049 A 
ATOM     47  N   UNL A   1      44.298  26.698  34.394  1.00  0.00    -0.248 NA
ATOM     48  C   UNL A   1      43.073  26.617  32.410  1.00  0.00     0.031 C 
ATOM     49  C   UNL A   1      45.034  22.432  33.799  1.00  0.00     0.029 A 
ATOM     50  N   UNL A   1      45.585  24.127  35.092  1.00  0.00    -0.354 N 
ATOM     51  C   UNL A   1      43.492  27.818  34.298  1.00  0.00     0.074 A 
ATOM     52  C   UNL A   1      42.749  27.720  33.066  1.00  0.00     0.031 C 
ATOM     53  C   UNL A   1      45.838  21.930  34.752  1.00  0.00     0.029 A 
ATOM     54  C   UNL A   1      46.338  23.048  35.532  1.00  0.00     0.049 A 
ATOM     55  H   UNL A   1      45.464  24.962  35.599  1.00  0.00     0.167 HD
ATOM     56  C   UNL A   1      43.432  28.843  35.172  1.00  0.00     0.034 A 
ATOM     57  C   UNL A   1      47.349  23.015  36.419  1.00  0.00     0.034 A 
ATOM     58  C   UNL A   1      44.235  28.873  36.360  1.00  0.00     0.049 A 
ATOM     59  C   UNL A   1      47.521  24.266  37.233  1.00  0.00     0.074 A 
ATOM     60  C   UNL A   1      44.350  29.866  37.309  1.00  0.00     0.029 A 
ATOM     61  N   UNL A   1      45.091  27.843  36.742  1.00  0.00    -0.354 N 
ATOM     62  N   UNL A   1      46.865  25.397  37.109  1.00  0.00    -0.248 NA
ATOM     63  C   UNL A   1      48.451  24.222  38.363  1.00  0.00     0.031 C 
ATOM     64  C   UNL A   1      45.320  29.459  38.232  1.00  0.00     0.029 A 
ATOM     65  C   UNL A   1      45.762  28.184  37.896  1.00  0.00     0.049 A 
ATOM     66  H   UNL A   1      45.202  26.993  36.257  1.00  0.00     0.167 HD
ATOM     67  C   UNL A   1      47.199  26.154  38.216  1.00  0.00     0.074 A 
ATOM     68  C   UNL A   1      48.174  25.374  38.963  1.00  0.00     0.031 C 
ATOM     69  C   UNL A   1      46.706  27.354  38.607  1.00  0.00     0.034 A 
BRANCH  56  70
ATOM     70  C   UNL A   1      42.584  30.014  34.777  1.00  0.00     0.023 A 
ATOM     71  C   UNL A   1      43.129  31.092  34.050  1.00  0.00     0.012 A 
ATOM     72  C   UNL A   1      41.245  30.073  35.206  1.00  0.00     0.148 A 
ATOM     73  C   UNL A   1      42.360  32.228  33.789  1.00  0.00     0.002 A 
ATOM     74  C   UNL A   1      40.472  31.184  34.902  1.00  0.00     0.091 A 
ATOM     75  F   UNL A   1      40.765  29.054  35.934  1.00  0.00    -0.205 F 
ATOM     76  C   UNL A   1      41.032  32.270  34.208  1.00  0.00     0.022 A 
BRANCH  74  77
ATOM     77  S   UNL A   1      38.741  31.310  35.355  1.00  0.00     0.127 S 
ATOM     78  O   UNL A   1      38.420  32.672  34.927  1.00  0.00    -0.237 OA
ATOM     79  O   UNL A   1      38.141  30.255  34.539  1.00  0.00    -0.237 OA
ATOM     80  O   UNL A   1      38.680  31.089  36.793  1.00  0.00    -0.744 OA
ENDBRANCH  74  77
ENDBRANCH  56  70
BRANCH  57  81
ATOM     81  C   UNL A   1      48.206  21.806  36.612  1.00  0.00     0.023 A 
ATOM     82  C   UNL A   1      47.917  20.890  37.640  1.00  0.00     0.012 A 
ATOM     83  C   UNL A   1      49.339  21.573  35.796  1.00  0.00     0.148 A 
ATOM     84  C   UNL A   1      48.748  19.791  37.878  1.00  0.00     0.002 A 
ATOM     85  C   UNL A   1      50.158  20.467  36.030  1.00  0.00     0.091 A 
ATOM     86  F   UNL A   1      49.613  22.457  34.826  1.00  0.00    -0.205 F 
ATOM     87  C   UNL A   1      49.867  19.579  37.076  1.00  0.00     0.022 A 
BRANCH  85  88
ATOM     88  S   UNL A   1      51.622  20.105  35.045  1.00  0.00     0.127 S 
ATOM     89  O   UNL A   1      52.474  21.253  35.351  1.00  0.00    -0.237 OA
ATOM     90  O   UNL A   1      52.082  18.840  35.615  1.00  0.00    -0.237 OA
ATOM     91  O   UNL A   1      51.156  20.018  33.666  1.00  0.00    -0.744 OA
ENDBRANCH  85  88
ENDBRANCH  57  81
BRANCH  69  92
ATOM     92  C   UNL A   1      47.150  27.860  39.942  1.00  0.00     0.023 A 
ATOM     93  C   UNL A   1      46.439  27.515  41.104  1.00  0.00     0.012 A 
ATOM     94  C   UNL A   1      48.357  28.579  40.036  1.00  0.00     0.148 A 
ATOM     95  C   UNL A   1      46.920  27.899  42.352  1.00  0.00     0.002 A 
ATOM     96  C   UNL A   1      48.862  28.897  41.283  1.00  0.00     0.091 A 
ATOM     97  F   UNL A   1      48.993  28.913  38.903  1.00  0.00    -0.205 F 
ATOM     98  C   UNL A   1      48.139  28.571  42.443  1.00  0.00     0.022 A 
BRANCH  96  99
ATOM     99  S   UNL A   1      50.483  29.636  41.497  1.00  0.00     0.127 S 
ATOM    100  O   UNL A   1      51.350  28.633  40.882  1.00  0.00    -0.237 OA
ATOM    101  O   UNL A   1      50.351  30.880  40.737  1.00  0.00    -0.237 OA
ATOM    102  O   UNL A   1      50.662  29.817  42.931  1.00  0.00    -0.744 OA
ENDBRANCH  96  99
ENDBRANCH  69  92
ENDBRANCH  43  44
ENDBRANCH  36  38
ENDBRANCH  35  36
ENDBRANCH  34  35
ENDBRANCH  33  34
ENDBRANCH  32  33
ENDBRANCH  31  32
ENDBRANCH   1  31
TORSDOF 23
ENDMDL
MODEL 3
REMARK VINA RESULT:     -10.1      5.790      7.682
REMARK SMILES COc1ccc(CCN2/C(=[NH+]/C(=O)CCC(=O)OCCOCCOC(=O)c3ccc(-c4c5nc(c(-c6cccc(S(=O)(=O)[O-])c6F)c6ccc([nH]6)c(-c6cccc(S(=O)(=O)[O-])c6F)c6nc(c(-c7cccc(S(=O)(=O)[O-])c7F)c7ccc4[nH]7)C=C6)C=C5)cc3)S[C@@H]3CS(=O)(=O)C[C@@H]32)cc1
REMARK SMILES IDX 19 1 18 2 16 3 17 4 15 5 14 6 12 7 9 8 10 9 97 10 11 11
REMARK SMILES IDX 90 12 91 13 96 14 92 16 93 17 13 18 94 19 95 20 8 21 7 22
REMARK SMILES IDX 6 23 3 24 4 25 99 26 5 27 98 28 2 29 1 30 20 31 21 32 22 33
REMARK SMILES IDX 23 34 24 35 25 36 26 37 27 38 28 39 89 40 29 41 88 42 30 43
REMARK SMILES IDX 31 44 32 45 82 46 33 47 87 48 81 49 83 50 34 51 86 52 80 53
REMARK SMILES IDX 79 54 35 56 67 57 47 58 66 59 48 60 51 61 65 62 84 63 49 64
REMARK SMILES IDX 50 65 64 67 85 68 52 69 36 70 37 71 45 72 38 73 40 74 46 75
REMARK SMILES IDX 39 76 41 77 42 78 43 79 44 80 68 81 69 82 77 83 70 84 72 85
REMARK SMILES IDX 78 86 71 87 73 88 74 89 75 90 76 91 53 92 54 93 62 94 55 95
REMARK SMILES IDX 57 96 63 97 56 98 58 99 59 100 60 101 61 102
REMARK H PARENT 11 15 83 55 51 66
REMARK Flexibility Score: inf
ROOT
ATOM      1  C   UNL A   1      34.153  31.513  28.141  1.00  0.00     0.261 C 
ENDROOT
BRANCH   1   2
ATOM      2  O   UNL A   1      34.118  30.820  26.888  1.00  0.00    -0.463 OA
BRANCH   2   3
ATOM      3  C   UNL A   1      34.390  29.502  26.896  1.00  0.00     0.306 C 
ATOM      4  O   UNL A   1      35.334  28.983  27.476  1.00  0.00    -0.252 OA
BRANCH   3   5
ATOM      5  C   UNL A   1      33.369  28.728  26.093  1.00  0.00     0.135 C 
BRANCH   5   6
ATOM      6  C   UNL A   1      32.892  27.406  26.684  1.00  0.00     0.139 C 
BRANCH   6   7
ATOM      7  C   UNL A   1      33.003  26.218  25.731  1.00  0.00     0.308 C 
ATOM      8  N   UNL A   1      35.553  23.586  24.760  1.00  0.00    -0.251 N 
ATOM      9  C   UNL A   1      34.472  24.539  24.894  1.00  0.00     0.314 C 
ATOM     10  C   UNL A   1      35.023  22.352  24.036  1.00  0.00     0.206 C 
ATOM     11  N   UNL A   1      34.185  25.462  25.756  1.00  0.00    -0.205 N 
ATOM     12  S   UNL A   1      33.356  24.293  23.490  1.00  0.00    -0.030 SA
ATOM     13  C   UNL A   1      33.572  22.542  23.536  1.00  0.00     0.120 C 
ATOM     14  C   UNL A   1      35.027  21.048  24.803  1.00  0.00     0.187 C 
ATOM     15  H   UNL A   1      34.835  25.645  26.472  1.00  0.00     0.316 HD
ATOM     16  C   UNL A   1      32.551  22.014  24.527  1.00  0.00     0.156 C 
ATOM     17  S   UNL A   1      33.379  20.687  25.338  1.00  0.00     0.155 S 
ATOM     18  O   UNL A   1      31.989  26.014  25.062  1.00  0.00    -0.247 OA
ATOM     19  O   UNL A   1      33.338  20.915  26.781  1.00  0.00    -0.229 OA
ATOM     20  O   UNL A   1      32.996  19.438  24.747  1.00  0.00    -0.229 OA
BRANCH   8  21
ATOM     21  C   UNL A   1      37.228  23.617  25.065  1.00  0.00     0.242 C 
BRANCH  21  22
ATOM     22  C   UNL A   1      38.370  23.879  26.535  1.00  0.00     0.081 C 
BRANCH  22  23
ATOM     23  C   UNL A   1      39.641  24.903  27.048  1.00  0.00    -0.044 A 
ATOM     24  C   UNL A   1      41.086  27.407  27.296  1.00  0.00     0.118 A 
ATOM     25  C   UNL A   1      41.508  26.414  26.427  1.00  0.00     0.046 A 
ATOM     26  C   UNL A   1      40.168  27.017  28.267  1.00  0.00     0.046 A 
ATOM     27  C   UNL A   1      40.892  25.133  26.419  1.00  0.00     0.007 A 
ATOM     28  C   UNL A   1      39.427  25.792  28.121  1.00  0.00     0.007 A 
BRANCH  24  29
ATOM     29  O   UNL A   1      41.554  28.652  26.995  1.00  0.00    -0.497 OA
ATOM     30  C   UNL A   1      41.889  29.041  25.670  1.00  0.00     0.278 C 
ENDBRANCH  24  29
ENDBRANCH  22  23
ENDBRANCH  21  22
ENDBRANCH   8  21
ENDBRANCH   6   7
ENDBRANCH   5   6
ENDBRANCH   3   5
ENDBRANCH   2   3
ENDBRANCH   1   2
BRANCH   1  31
ATOM     31  C   UNL A   1      35.277  32.573  28.210  1.00  0.00     0.202 C 
BRANCH  31  32
ATOM     32  O   UNL A   1      35.089  33.960  28.523  1.00  0.00    -0.374 OA
BRANCH  32  33
ATOM     33  C   UNL A   1      33.970  34.287  29.368  1.00  0.00     0.202 C 
BRANCH  33  34
ATOM     34  C   UNL A   1      33.996  34.530  30.970  1.00  0.00     0.261 C 
BRANCH  34  35
ATOM     35  O   UNL A   1      35.084  35.030  31.928  1.00  0.00    -0.460 OA
BRANCH  35  36
ATOM     36  C   UNL A   1      35.941  34.042  32.307  1.00  0.00     0.338 C 
ATOM     37  O   UNL A   1      35.340  33.235  32.994  1.00  0.00    -0.246 OA
BRANCH  36  38
ATOM     38  C   UNL A   1      37.470  33.648  32.006  1.00  0.00     0.060 A 
ATOM     39  C   UNL A   1      37.816  33.378  30.642  1.00  0.00     0.016 A 
ATOM     40  C   UNL A   1      38.599  33.668  32.802  1.00  0.00     0.016 A 
ATOM     41  C   UNL A   1      39.059  33.322  30.020  1.00  0.00     0.010 A 
ATOM     42  C   UNL A   1      39.922  33.628  32.197  1.00  0.00     0.010 A 
ATOM     43  C   UNL A   1      40.153  33.530  30.797  1.00  0.00    -0.014 A 
BRANCH  43  44
ATOM     44  C   UNL A   1      41.470  33.489  30.119  1.00  0.00     0.031 A 
ATOM     45  C   UNL A   1      42.168  32.179  30.046  1.00  0.00     0.074 A 
ATOM     46  C   UNL A   1      41.966  34.477  29.342  1.00  0.00     0.049 A 
ATOM     47  N   UNL A   1      43.411  31.934  29.773  1.00  0.00    -0.248 NA
ATOM     48  C   UNL A   1      41.330  30.981  30.226  1.00  0.00     0.031 C 
ATOM     49  C   UNL A   1      41.220  35.572  28.746  1.00  0.00     0.029 A 
ATOM     50  N   UNL A   1      43.261  34.790  29.015  1.00  0.00    -0.354 N 
ATOM     51  C   UNL A   1      43.529  30.557  29.816  1.00  0.00     0.074 A 
ATOM     52  C   UNL A   1      42.221  30.012  30.087  1.00  0.00     0.031 C 
ATOM     53  C   UNL A   1      42.053  36.579  28.427  1.00  0.00     0.029 A 
ATOM     54  C   UNL A   1      43.401  36.141  28.737  1.00  0.00     0.049 A 
ATOM     55  H   UNL A   1      43.998  34.138  28.982  1.00  0.00     0.167 HD
ATOM     56  C   UNL A   1      44.663  29.841  29.671  1.00  0.00     0.034 A 
ATOM     57  C   UNL A   1      44.499  36.918  28.797  1.00  0.00     0.034 A 
ATOM     58  C   UNL A   1      45.930  30.471  29.435  1.00  0.00     0.049 A 
ATOM     59  C   UNL A   1      45.796  36.174  28.937  1.00  0.00     0.074 A 
ATOM     60  C   UNL A   1      47.182  29.901  29.339  1.00  0.00     0.029 A 
ATOM     61  N   UNL A   1      46.095  31.845  29.282  1.00  0.00    -0.354 N 
ATOM     62  N   UNL A   1      45.964  34.881  29.097  1.00  0.00    -0.248 NA
ATOM     63  C   UNL A   1      47.038  36.934  28.786  1.00  0.00     0.031 C 
ATOM     64  C   UNL A   1      48.108  30.939  29.186  1.00  0.00     0.029 A 
ATOM     65  C   UNL A   1      47.429  32.150  29.121  1.00  0.00     0.049 A 
ATOM     66  H   UNL A   1      45.364  32.505  29.288  1.00  0.00     0.167 HD
ATOM     67  C   UNL A   1      47.316  34.649  28.935  1.00  0.00     0.074 A 
ATOM     68  C   UNL A   1      47.931  35.952  28.734  1.00  0.00     0.031 C 
ATOM     69  C   UNL A   1      47.979  33.467  28.901  1.00  0.00     0.034 A 
BRANCH  56  70
ATOM     70  C   UNL A   1      44.560  28.364  29.899  1.00  0.00     0.023 A 
ATOM     71  C   UNL A   1      44.337  27.477  28.826  1.00  0.00     0.012 A 
ATOM     72  C   UNL A   1      44.611  27.864  31.214  1.00  0.00     0.148 A 
ATOM     73  C   UNL A   1      44.128  26.118  29.066  1.00  0.00     0.002 A 
ATOM     74  C   UNL A   1      44.451  26.504  31.440  1.00  0.00     0.091 A 
ATOM     75  F   UNL A   1      44.781  28.733  32.219  1.00  0.00    -0.205 F 
ATOM     76  C   UNL A   1      44.193  25.632  30.370  1.00  0.00     0.022 A 
BRANCH  74  77
ATOM     77  S   UNL A   1      44.565  25.778  33.076  1.00  0.00     0.127 S 
ATOM     78  O   UNL A   1      45.900  26.204  33.498  1.00  0.00    -0.237 OA
ATOM     79  O   UNL A   1      43.463  26.439  33.774  1.00  0.00    -0.237 OA
ATOM     80  O   UNL A   1      44.409  24.341  32.896  1.00  0.00    -0.744 OA
ENDBRANCH  74  77
ENDBRANCH  56  70
BRANCH  57  81
ATOM     81  C   UNL A   1      44.434  38.407  28.687  1.00  0.00     0.023 A 
ATOM     82  C   UNL A   1      44.394  39.201  29.848  1.00  0.00     0.012 A 
ATOM     83  C   UNL A   1      44.375  39.047  27.426  1.00  0.00     0.148 A 
ATOM     84  C   UNL A   1      44.264  40.590  29.764  1.00  0.00     0.002 A 
ATOM     85  C   UNL A   1      44.258  40.436  27.348  1.00  0.00     0.091 A 
ATOM     86  F   UNL A   1      44.402  38.282  26.326  1.00  0.00    -0.205 F 
ATOM     87  C   UNL A   1      44.195  41.208  28.517  1.00  0.00     0.022 A 
BRANCH  85  88
ATOM     88  S   UNL A   1      44.168  41.326  25.784  1.00  0.00     0.127 S 
ATOM     89  O   UNL A   1      44.283  42.714  26.229  1.00  0.00    -0.237 OA
ATOM     90  O   UNL A   1      45.338  40.822  25.066  1.00  0.00    -0.237 OA
ATOM     91  O   UNL A   1      42.888  40.957  25.195  1.00  0.00    -0.744 OA
ENDBRANCH  85  88
ENDBRANCH  57  81
BRANCH  69  92
ATOM     92  C   UNL A   1      49.432  33.522  28.553  1.00  0.00     0.023 A 
ATOM     93  C   UNL A   1      50.401  33.637  29.565  1.00  0.00     0.012 A 
ATOM     94  C   UNL A   1      49.824  33.329  27.215  1.00  0.00     0.148 A 
ATOM     95  C   UNL A   1      51.752  33.577  29.243  1.00  0.00     0.002 A 
ATOM     96  C   UNL A   1      51.168  33.203  26.912  1.00  0.00     0.091 A 
ATOM     97  F   UNL A   1      48.872  33.251  26.274  1.00  0.00    -0.205 F 
ATOM     98  C   UNL A   1      52.135  33.341  27.922  1.00  0.00     0.022 A 
BRANCH  96  99
ATOM     99  S   UNL A   1      51.740  32.763  25.270  1.00  0.00     0.127 S 
ATOM    100  O   UNL A   1      51.227  31.402  25.132  1.00  0.00    -0.237 OA
ATOM    101  O   UNL A   1      51.065  33.759  24.437  1.00  0.00    -0.237 OA
ATOM    102  O   UNL A   1      53.191  32.880  25.299  1.00  0.00    -0.744 OA
ENDBRANCH  96  99
ENDBRANCH  69  92
ENDBRANCH  43  44
ENDBRANCH  36  38
ENDBRANCH  35  36
ENDBRANCH  34  35
ENDBRANCH  33  34
ENDBRANCH  32  33
ENDBRANCH  31  32
ENDBRANCH   1  31
TORSDOF 23
ENDMDL
