MODEL 1
REMARK VINA RESULT:     -10.9      0.000      0.000
REMARK SMILES CC[C@](C)([NH3+])C(=O)N1CC[NH+]([C@H](C)C(=O)OCCOCCOC(=O)c2ccc(-c3c4nc(c(-c5cccc(S(=O)(=O)[O-])c5F)c5ccc([nH]5)c(-c5cccc(S(=O)(=O)[O-])c5F)c5nc(c(-c6cccc(S(=O)(=O)[O-])c6F)c6ccc3[nH]6)C=C5)C=C4)cc2)CC1
REMARK SMILES IDX 19 1 18 2 17 3 16 4 14 5 15 6 12 7 13 8 11 9 6 10 7 11 8 12
REMARK SMILES IDX 9 13 89 14 10 15 88 16 3 18 4 19 2 20 1 21 5 22 20 26 21 27
REMARK SMILES IDX 22 28 23 29 24 30 25 31 26 32 87 33 27 34 86 35 28 36 29 37
REMARK SMILES IDX 30 38 80 39 31 40 85 41 79 42 81 43 32 44 84 45 78 46 77 47
REMARK SMILES IDX 33 49 65 50 45 51 64 52 46 53 49 54 63 55 82 56 47 57 48 58
REMARK SMILES IDX 62 60 83 61 50 62 34 63 35 64 43 65 36 66 38 67 44 68 37 69
REMARK SMILES IDX 39 70 40 71 41 72 42 73 66 74 67 75 75 76 68 77 70 78 76 79
REMARK SMILES IDX 69 80 71 81 72 82 73 83 74 84 51 85 52 86 60 87 53 88 55 89
REMARK SMILES IDX 61 90 54 91 56 92 57 93 58 94 59 95
REMARK H PARENT 11 17 5 23 5 24 5 25 81 48 49 59
REMARK Flexibility Score: inf
ROOT
ATOM      1  O   UNL A   1      35.097  21.578  26.204  1.00  0.00    -0.374 OA
ENDROOT
BRANCH   1   2
ATOM      2  C   UNL A   1      33.715  21.829  26.456  1.00  0.00     0.202 C 
BRANCH   2   3
ATOM      3  C   UNL A   1      33.363  23.120  27.199  1.00  0.00     0.261 C 
BRANCH   3   4
ATOM      4  O   UNL A   1      32.396  23.915  26.490  1.00  0.00    -0.459 OA
BRANCH   4   5
ATOM      5  C   UNL A   1      32.676  24.139  25.176  1.00  0.00     0.364 C 
ATOM      6  O   UNL A   1      31.901  23.924  24.248  1.00  0.00    -0.245 OA
BRANCH   5   7
ATOM      7  C   UNL A   1      34.091  24.699  24.959  1.00  0.00     0.292 C 
ATOM      8  C   UNL A   1      34.896  24.052  23.821  1.00  0.00     0.088 C 
BRANCH   7   9
ATOM      9  N   UNL A   1      34.050  26.180  24.963  1.00  0.00    -0.321 N 
ATOM     10  C   UNL A   1      31.605  29.474  24.417  1.00  0.00     0.283 C 
ATOM     11  O   UNL A   1      31.222  30.234  25.317  1.00  0.00    -0.268 OA
ATOM     12  N   UNL A   1      32.746  28.719  24.613  1.00  0.00    -0.326 N 
ATOM     13  C   UNL A   1      33.098  28.301  25.968  1.00  0.00     0.181 C 
ATOM     14  C   UNL A   1      33.700  28.252  23.619  1.00  0.00     0.181 C 
ATOM     15  C   UNL A   1      33.171  26.757  26.012  1.00  0.00     0.284 C 
ATOM     16  C   UNL A   1      33.758  26.720  23.621  1.00  0.00     0.284 C 
ATOM     17  H   UNL A   1      34.991  26.482  25.216  1.00  0.00     0.348 HD
BRANCH  10  18
ATOM     18  C   UNL A   1      30.656  29.191  23.195  1.00  0.00     0.171 C 
ATOM     19  C   UNL A   1      29.386  30.051  23.332  1.00  0.00     0.090 C 
BRANCH  18  20
ATOM     20  C   UNL A   1      30.305  27.679  23.151  1.00  0.00     0.075 C 
ATOM     21  C   UNL A   1      28.874  27.328  23.545  1.00  0.00     0.011 C 
ENDBRANCH  18  20
BRANCH  18  22
ATOM     22  N   UNL A   1      31.267  29.553  21.887  1.00  0.00    -0.345 N 
ATOM     23  H   UNL A   1      30.835  29.000  21.146  1.00  0.00     0.345 HD
ATOM     24  H   UNL A   1      32.268  29.362  21.915  1.00  0.00     0.345 HD
ATOM     25  H   UNL A   1      31.114  30.545  21.704  1.00  0.00     0.345 HD
ENDBRANCH  18  22
ENDBRANCH  10  18
ENDBRANCH   7   9
ENDBRANCH   5   7
ENDBRANCH   4   5
ENDBRANCH   3   4
ENDBRANCH   2   3
ENDBRANCH   1   2
BRANCH   1  26
ATOM     26  C   UNL A   1      35.427  20.679  25.148  1.00  0.00     0.202 C 
BRANCH  26  27
ATOM     27  C   UNL A   1      36.900  20.276  25.000  1.00  0.00     0.261 C 
BRANCH  27  28
ATOM     28  O   UNL A   1      37.809  21.387  25.110  1.00  0.00    -0.460 OA
BRANCH  28  29
ATOM     29  C   UNL A   1      38.917  21.134  25.847  1.00  0.00     0.338 C 
ATOM     30  O   UNL A   1      39.579  20.101  25.849  1.00  0.00    -0.246 OA
BRANCH  29  31
ATOM     31  C   UNL A   1      39.368  22.339  26.567  1.00  0.00     0.060 A 
ATOM     32  C   UNL A   1      38.764  23.555  26.223  1.00  0.00     0.016 A 
ATOM     33  C   UNL A   1      40.443  22.310  27.458  1.00  0.00     0.016 A 
ATOM     34  C   UNL A   1      39.269  24.752  26.723  1.00  0.00     0.010 A 
ATOM     35  C   UNL A   1      40.953  23.517  27.954  1.00  0.00     0.010 A 
ATOM     36  C   UNL A   1      40.396  24.746  27.556  1.00  0.00    -0.014 A 
BRANCH  36  37
ATOM     37  C   UNL A   1      41.053  26.036  27.890  1.00  0.00     0.031 A 
ATOM     38  C   UNL A   1      42.471  26.284  27.444  1.00  0.00     0.074 A 
ATOM     39  C   UNL A   1      40.380  26.997  28.549  1.00  0.00     0.049 A 
ATOM     40  N   UNL A   1      43.205  27.358  27.582  1.00  0.00    -0.248 NA
ATOM     41  C   UNL A   1      43.151  25.178  26.750  1.00  0.00     0.031 C 
ATOM     42  C   UNL A   1      39.009  26.880  29.043  1.00  0.00     0.029 A 
ATOM     43  N   UNL A   1      40.768  28.258  28.929  1.00  0.00    -0.354 N 
ATOM     44  C   UNL A   1      44.436  27.054  27.015  1.00  0.00     0.074 A 
ATOM     45  C   UNL A   1      44.358  25.689  26.541  1.00  0.00     0.031 C 
ATOM     46  C   UNL A   1      38.678  28.015  29.682  1.00  0.00     0.029 A 
ATOM     47  C   UNL A   1      39.815  28.934  29.651  1.00  0.00     0.049 A 
ATOM     48  H   UNL A   1      41.648  28.642  28.705  1.00  0.00     0.167 HD
ATOM     49  C   UNL A   1      45.528  27.845  26.880  1.00  0.00     0.034 A 
ATOM     50  C   UNL A   1      39.857  30.152  30.229  1.00  0.00     0.034 A 
ATOM     51  C   UNL A   1      45.599  29.212  27.320  1.00  0.00     0.049 A 
ATOM     52  C   UNL A   1      41.085  31.009  30.064  1.00  0.00     0.074 A 
ATOM     53  C   UNL A   1      46.641  30.111  27.166  1.00  0.00     0.029 A 
ATOM     54  N   UNL A   1      44.596  29.878  28.005  1.00  0.00    -0.354 N 
ATOM     55  N   UNL A   1      42.184  30.758  29.394  1.00  0.00    -0.248 NA
ATOM     56  C   UNL A   1      41.063  32.333  30.704  1.00  0.00     0.031 C 
ATOM     57  C   UNL A   1      46.276  31.314  27.778  1.00  0.00     0.029 A 
ATOM     58  C   UNL A   1      44.999  31.171  28.296  1.00  0.00     0.049 A 
ATOM     59  H   UNL A   1      43.726  29.490  28.250  1.00  0.00     0.167 HD
ATOM     60  C   UNL A   1      42.967  31.902  29.504  1.00  0.00     0.074 A 
ATOM     61  C   UNL A   1      42.207  32.856  30.283  1.00  0.00     0.031 C 
ATOM     62  C   UNL A   1      44.213  32.134  29.022  1.00  0.00     0.034 A 
BRANCH  49  63
ATOM     63  C   UNL A   1      46.733  27.268  26.188  1.00  0.00     0.023 A 
ATOM     64  C   UNL A   1      46.876  27.430  24.796  1.00  0.00     0.012 A 
ATOM     65  C   UNL A   1      47.761  26.645  26.923  1.00  0.00     0.148 A 
ATOM     66  C   UNL A   1      48.016  26.964  24.141  1.00  0.00     0.002 A 
ATOM     67  C   UNL A   1      48.911  26.217  26.269  1.00  0.00     0.091 A 
ATOM     68  F   UNL A   1      47.593  26.483  28.243  1.00  0.00    -0.205 F 
ATOM     69  C   UNL A   1      49.037  26.370  24.879  1.00  0.00     0.022 A 
BRANCH  67  70
ATOM     70  S   UNL A   1      50.311  25.504  27.139  1.00  0.00     0.127 S 
ATOM     71  O   UNL A   1      51.271  25.318  26.050  1.00  0.00    -0.237 OA
ATOM     72  O   UNL A   1      50.661  26.565  28.084  1.00  0.00    -0.237 OA
ATOM     73  O   UNL A   1      49.822  24.279  27.754  1.00  0.00    -0.744 OA
ENDBRANCH  67  70
ENDBRANCH  49  63
BRANCH  50  74
ATOM     74  C   UNL A   1      38.680  30.654  30.992  1.00  0.00     0.023 A 
ATOM     75  C   UNL A   1      38.606  30.441  32.382  1.00  0.00     0.012 A 
ATOM     76  C   UNL A   1      37.636  31.344  30.346  1.00  0.00     0.148 A 
ATOM     77  C   UNL A   1      37.498  30.878  33.110  1.00  0.00     0.002 A 
ATOM     78  C   UNL A   1      36.563  31.826  31.087  1.00  0.00     0.091 A 
ATOM     79  F   UNL A   1      37.712  31.514  29.019  1.00  0.00    -0.205 F 
ATOM     80  C   UNL A   1      36.483  31.581  32.465  1.00  0.00     0.022 A 
BRANCH  78  81
ATOM     81  S   UNL A   1      35.286  32.851  30.349  1.00  0.00     0.127 S 
ATOM     82  O   UNL A   1      36.062  33.982  29.850  1.00  0.00    -0.237 OA
ATOM     83  O   UNL A   1      34.746  31.967  29.314  1.00  0.00    -0.237 OA
ATOM     84  O   UNL A   1      34.355  33.139  31.432  1.00  0.00    -0.744 OA
ENDBRANCH  78  81
ENDBRANCH  50  74
BRANCH  62  85
ATOM     85  C   UNL A   1      44.830  33.481  29.294  1.00  0.00     0.023 A 
ATOM     86  C   UNL A   1      45.566  33.682  30.480  1.00  0.00     0.012 A 
ATOM     87  C   UNL A   1      44.744  34.522  28.350  1.00  0.00     0.148 A 
ATOM     88  C   UNL A   1      46.176  34.910  30.735  1.00  0.00     0.002 A 
ATOM     89  C   UNL A   1      45.393  35.729  28.591  1.00  0.00     0.091 A 
ATOM     90  F   UNL A   1      44.024  34.320  27.236  1.00  0.00    -0.205 F 
ATOM     91  C   UNL A   1      46.099  35.927  29.787  1.00  0.00     0.022 A 
BRANCH  89  92
ATOM     92  S   UNL A   1      45.422  37.058  27.382  1.00  0.00     0.127 S 
ATOM     93  O   UNL A   1      46.159  38.097  28.097  1.00  0.00    -0.237 OA
ATOM     94  O   UNL A   1      46.150  36.452  26.267  1.00  0.00    -0.237 OA
ATOM     95  O   UNL A   1      44.026  37.360  27.092  1.00  0.00    -0.744 OA
ENDBRANCH  89  92
ENDBRANCH  62  85
ENDBRANCH  36  37
ENDBRANCH  29  31
ENDBRANCH  28  29
ENDBRANCH  27  28
ENDBRANCH  26  27
ENDBRANCH   1  26
TORSDOF 21
ENDMDL
MODEL 2
REMARK VINA RESULT:     -10.7      4.765     10.407
REMARK SMILES CC[C@](C)([NH3+])C(=O)N1CC[NH+]([C@H](C)C(=O)OCCOCCOC(=O)c2ccc(-c3c4nc(c(-c5cccc(S(=O)(=O)[O-])c5F)c5ccc([nH]5)c(-c5cccc(S(=O)(=O)[O-])c5F)c5nc(c(-c6cccc(S(=O)(=O)[O-])c6F)c6ccc3[nH]6)C=C5)C=C4)cc2)CC1
REMARK SMILES IDX 19 1 18 2 17 3 16 4 14 5 15 6 12 7 13 8 11 9 6 10 7 11 8 12
REMARK SMILES IDX 9 13 89 14 10 15 88 16 3 18 4 19 2 20 1 21 5 22 20 26 21 27
REMARK SMILES IDX 22 28 23 29 24 30 25 31 26 32 87 33 27 34 86 35 28 36 29 37
REMARK SMILES IDX 30 38 80 39 31 40 85 41 79 42 81 43 32 44 84 45 78 46 77 47
REMARK SMILES IDX 33 49 65 50 45 51 64 52 46 53 49 54 63 55 82 56 47 57 48 58
REMARK SMILES IDX 62 60 83 61 50 62 34 63 35 64 43 65 36 66 38 67 44 68 37 69
REMARK SMILES IDX 39 70 40 71 41 72 42 73 66 74 67 75 75 76 68 77 70 78 76 79
REMARK SMILES IDX 69 80 71 81 72 82 73 83 74 84 51 85 52 86 60 87 53 88 55 89
REMARK SMILES IDX 61 90 54 91 56 92 57 93 58 94 59 95
REMARK H PARENT 11 17 5 23 5 24 5 25 81 48 49 59
REMARK Flexibility Score: inf
ROOT
ATOM      1  O   UNL A   1      32.245  30.213  26.174  1.00  0.00    -0.374 OA
ENDROOT
BRANCH   1   2
ATOM      2  C   UNL A   1      31.981  29.074  26.991  1.00  0.00     0.202 C 
BRANCH   2   3
ATOM      3  C   UNL A   1      33.075  28.007  27.079  1.00  0.00     0.261 C 
BRANCH   3   4
ATOM      4  O   UNL A   1      33.927  27.997  25.921  1.00  0.00    -0.459 OA
BRANCH   4   5
ATOM      5  C   UNL A   1      33.664  27.016  25.011  1.00  0.00     0.364 C 
ATOM      6  O   UNL A   1      33.963  27.066  23.822  1.00  0.00    -0.245 OA
BRANCH   5   7
ATOM      7  C   UNL A   1      32.937  25.812  25.632  1.00  0.00     0.292 C 
ATOM      8  C   UNL A   1      31.736  25.278  24.838  1.00  0.00     0.088 C 
BRANCH   7   9
ATOM      9  N   UNL A   1      33.927  24.800  26.069  1.00  0.00    -0.321 N 
ATOM     10  C   UNL A   1      35.324  20.961  25.401  1.00  0.00     0.283 C 
ATOM     11  O   UNL A   1      36.417  20.680  24.893  1.00  0.00    -0.268 OA
ATOM     12  N   UNL A   1      35.154  22.200  25.991  1.00  0.00    -0.326 N 
ATOM     13  C   UNL A   1      35.912  23.341  25.480  1.00  0.00     0.181 C 
ATOM     14  C   UNL A   1      34.289  22.560  27.104  1.00  0.00     0.181 C 
ATOM     15  C   UNL A   1      34.919  24.436  25.025  1.00  0.00     0.284 C 
ATOM     16  C   UNL A   1      33.272  23.618  26.661  1.00  0.00     0.284 C 
ATOM     17  H   UNL A   1      34.474  25.248  26.804  1.00  0.00     0.348 HD
BRANCH  10  18
ATOM     18  C   UNL A   1      34.089  20.023  25.141  1.00  0.00     0.171 C 
ATOM     19  C   UNL A   1      34.586  18.688  24.555  1.00  0.00     0.090 C 
BRANCH  18  20
ATOM     20  C   UNL A   1      33.100  20.725  24.172  1.00  0.00     0.075 C 
ATOM     21  C   UNL A   1      31.755  21.113  24.778  1.00  0.00     0.011 C 
ENDBRANCH  18  20
BRANCH  18  22
ATOM     22  N   UNL A   1      33.343  19.682  26.383  1.00  0.00    -0.345 N 
ATOM     23  H   UNL A   1      32.370  19.971  26.284  1.00  0.00     0.345 HD
ATOM     24  H   UNL A   1      33.763  20.167  27.176  1.00  0.00     0.345 HD
ATOM     25  H   UNL A   1      33.385  18.675  26.539  1.00  0.00     0.345 HD
ENDBRANCH  18  22
ENDBRANCH  10  18
ENDBRANCH   7   9
ENDBRANCH   5   7
ENDBRANCH   4   5
ENDBRANCH   3   4
ENDBRANCH   2   3
ENDBRANCH   1   2
BRANCH   1  26
ATOM     26  C   UNL A   1      31.226  31.204  26.066  1.00  0.00     0.202 C 
BRANCH  26  27
ATOM     27  C   UNL A   1      31.388  32.476  26.910  1.00  0.00     0.261 C 
BRANCH  27  28
ATOM     28  O   UNL A   1      32.663  33.120  26.731  1.00  0.00    -0.460 OA
BRANCH  28  29
ATOM     29  C   UNL A   1      33.228  33.573  27.876  1.00  0.00     0.338 C 
ATOM     30  O   UNL A   1      32.727  34.344  28.687  1.00  0.00    -0.246 OA
BRANCH  29  31
ATOM     31  C   UNL A   1      34.505  32.890  28.149  1.00  0.00     0.060 A 
ATOM     32  C   UNL A   1      34.440  31.580  28.639  1.00  0.00     0.016 A 
ATOM     33  C   UNL A   1      35.732  33.552  28.056  1.00  0.00     0.016 A 
ATOM     34  C   UNL A   1      35.594  30.947  29.095  1.00  0.00     0.010 A 
ATOM     35  C   UNL A   1      36.890  32.914  28.521  1.00  0.00     0.010 A 
ATOM     36  C   UNL A   1      36.820  31.625  29.082  1.00  0.00    -0.014 A 
BRANCH  36  37
ATOM     37  C   UNL A   1      37.986  31.022  29.778  1.00  0.00     0.031 A 
ATOM     38  C   UNL A   1      38.288  31.419  31.200  1.00  0.00     0.074 A 
ATOM     39  C   UNL A   1      38.745  30.096  29.165  1.00  0.00     0.049 A 
ATOM     40  N   UNL A   1      39.218  30.972  32.003  1.00  0.00    -0.248 NA
ATOM     41  C   UNL A   1      37.429  32.456  31.796  1.00  0.00     0.031 C 
ATOM     42  C   UNL A   1      38.566  29.631  27.791  1.00  0.00     0.029 A 
ATOM     43  N   UNL A   1      39.833  29.391  29.619  1.00  0.00    -0.354 N 
ATOM     44  C   UNL A   1      39.073  31.683  33.188  1.00  0.00     0.074 A 
ATOM     45  C   UNL A   1      37.973  32.602  32.997  1.00  0.00     0.031 C 
ATOM     46  C   UNL A   1      39.525  28.735  27.505  1.00  0.00     0.029 A 
ATOM     47  C   UNL A   1      40.392  28.569  28.670  1.00  0.00     0.049 A 
ATOM     48  H   UNL A   1      40.180  29.468  30.538  1.00  0.00     0.167 HD
ATOM     49  C   UNL A   1      39.777  31.566  34.339  1.00  0.00     0.034 A 
ATOM     50  C   UNL A   1      41.484  27.780  28.732  1.00  0.00     0.034 A 
ATOM     51  C   UNL A   1      40.850  30.631  34.544  1.00  0.00     0.049 A 
ATOM     52  C   UNL A   1      42.249  27.672  30.025  1.00  0.00     0.074 A 
ATOM     53  C   UNL A   1      41.577  30.397  35.700  1.00  0.00     0.029 A 
ATOM     54  N   UNL A   1      41.357  29.781  33.576  1.00  0.00    -0.354 N 
ATOM     55  N   UNL A   1      42.003  28.242  31.180  1.00  0.00    -0.248 NA
ATOM     56  C   UNL A   1      43.420  26.782  30.033  1.00  0.00     0.031 C 
ATOM     57  C   UNL A   1      42.538  29.420  35.422  1.00  0.00     0.029 A 
ATOM     58  C   UNL A   1      42.397  29.032  34.100  1.00  0.00     0.049 A 
ATOM     59  H   UNL A   1      41.028  29.719  32.650  1.00  0.00     0.167 HD
ATOM     60  C   UNL A   1      42.966  27.755  32.058  1.00  0.00     0.074 A 
ATOM     61  C   UNL A   1      43.784  26.825  31.309  1.00  0.00     0.031 C 
ATOM     62  C   UNL A   1      43.169  28.066  33.362  1.00  0.00     0.034 A 
BRANCH  49  63
ATOM     63  C   UNL A   1      39.385  32.447  35.495  1.00  0.00     0.023 A 
ATOM     64  C   UNL A   1      38.585  31.919  36.528  1.00  0.00     0.012 A 
ATOM     65  C   UNL A   1      39.877  33.763  35.603  1.00  0.00     0.148 A 
ATOM     66  C   UNL A   1      38.264  32.693  37.643  1.00  0.00     0.002 A 
ATOM     67  C   UNL A   1      39.584  34.515  36.734  1.00  0.00     0.091 A 
ATOM     68  F   UNL A   1      40.618  34.251  34.598  1.00  0.00    -0.205 F 
ATOM     69  C   UNL A   1      38.773  33.985  37.751  1.00  0.00     0.022 A 
BRANCH  67  70
ATOM     70  S   UNL A   1      40.249  36.163  37.001  1.00  0.00     0.127 S 
ATOM     71  O   UNL A   1      41.674  35.881  37.173  1.00  0.00    -0.237 OA
ATOM     72  O   UNL A   1      39.909  36.839  35.749  1.00  0.00    -0.237 OA
ATOM     73  O   UNL A   1      39.570  36.685  38.178  1.00  0.00    -0.744 OA
ENDBRANCH  67  70
ENDBRANCH  49  63
BRANCH  50  74
ATOM     74  C   UNL A   1      41.903  26.995  27.537  1.00  0.00     0.023 A 
ATOM     75  C   UNL A   1      42.501  27.653  26.443  1.00  0.00     0.012 A 
ATOM     76  C   UNL A   1      41.714  25.601  27.480  1.00  0.00     0.148 A 
ATOM     77  C   UNL A   1      42.873  26.939  25.303  1.00  0.00     0.002 A 
ATOM     78  C   UNL A   1      42.140  24.890  26.364  1.00  0.00     0.091 A 
ATOM     79  F   UNL A   1      41.120  24.998  28.519  1.00  0.00    -0.205 F 
ATOM     80  C   UNL A   1      42.704  25.557  25.269  1.00  0.00     0.022 A 
BRANCH  78  81
ATOM     81  S   UNL A   1      42.076  23.096  26.302  1.00  0.00     0.127 S 
ATOM     82  O   UNL A   1      40.640  22.845  26.390  1.00  0.00    -0.237 OA
ATOM     83  O   UNL A   1      42.673  22.815  24.996  1.00  0.00    -0.237 OA
ATOM     84  O   UNL A   1      42.875  22.646  27.434  1.00  0.00    -0.744 OA
ENDBRANCH  78  81
ENDBRANCH  50  74
BRANCH  62  85
ATOM     85  C   UNL A   1      44.301  27.379  34.079  1.00  0.00     0.023 A 
ATOM     86  C   UNL A   1      45.595  27.937  34.033  1.00  0.00     0.012 A 
ATOM     87  C   UNL A   1      44.075  26.224  34.853  1.00  0.00     0.148 A 
ATOM     88  C   UNL A   1      46.652  27.337  34.718  1.00  0.00     0.002 A 
ATOM     89  C   UNL A   1      45.123  25.657  35.570  1.00  0.00     0.091 A 
ATOM     90  F   UNL A   1      42.843  25.695  34.870  1.00  0.00    -0.205 F 
ATOM     91  C   UNL A   1      46.413  26.205  35.495  1.00  0.00     0.022 A 
BRANCH  89  92
ATOM     92  S   UNL A   1      44.883  24.254  36.668  1.00  0.00     0.127 S 
ATOM     93  O   UNL A   1      44.282  23.271  35.770  1.00  0.00    -0.237 OA
ATOM     94  O   UNL A   1      46.251  23.944  37.085  1.00  0.00    -0.237 OA
ATOM     95  O   UNL A   1      44.023  24.735  37.742  1.00  0.00    -0.744 OA
ENDBRANCH  89  92
ENDBRANCH  62  85
ENDBRANCH  36  37
ENDBRANCH  29  31
ENDBRANCH  28  29
ENDBRANCH  27  28
ENDBRANCH  26  27
ENDBRANCH   1  26
TORSDOF 21
ENDMDL
MODEL 3
REMARK VINA RESULT:     -10.6      1.769      7.743
REMARK SMILES CC[C@](C)([NH3+])C(=O)N1CC[NH+]([C@H](C)C(=O)OCCOCCOC(=O)c2ccc(-c3c4nc(c(-c5cccc(S(=O)(=O)[O-])c5F)c5ccc([nH]5)c(-c5cccc(S(=O)(=O)[O-])c5F)c5nc(c(-c6cccc(S(=O)(=O)[O-])c6F)c6ccc3[nH]6)C=C5)C=C4)cc2)CC1
REMARK SMILES IDX 19 1 18 2 17 3 16 4 14 5 15 6 12 7 13 8 11 9 6 10 7 11 8 12
REMARK SMILES IDX 9 13 89 14 10 15 88 16 3 18 4 19 2 20 1 21 5 22 20 26 21 27
REMARK SMILES IDX 22 28 23 29 24 30 25 31 26 32 87 33 27 34 86 35 28 36 29 37
REMARK SMILES IDX 30 38 80 39 31 40 85 41 79 42 81 43 32 44 84 45 78 46 77 47
REMARK SMILES IDX 33 49 65 50 45 51 64 52 46 53 49 54 63 55 82 56 47 57 48 58
REMARK SMILES IDX 62 60 83 61 50 62 34 63 35 64 43 65 36 66 38 67 44 68 37 69
REMARK SMILES IDX 39 70 40 71 41 72 42 73 66 74 67 75 75 76 68 77 70 78 76 79
REMARK SMILES IDX 69 80 71 81 72 82 73 83 74 84 51 85 52 86 60 87 53 88 55 89
REMARK SMILES IDX 61 90 54 91 56 92 57 93 58 94 59 95
REMARK H PARENT 11 17 5 23 5 24 5 25 81 48 49 59
REMARK Flexibility Score: inf
ROOT
ATOM      1  O   UNL A   1      34.609  19.415  24.918  1.00  0.00    -0.374 OA
ENDROOT
BRANCH   1   2
ATOM      2  C   UNL A   1      33.270  19.792  25.239  1.00  0.00     0.202 C 
BRANCH   2   3
ATOM      3  C   UNL A   1      32.846  21.224  24.903  1.00  0.00     0.261 C 
BRANCH   3   4
ATOM      4  O   UNL A   1      32.309  21.919  26.042  1.00  0.00    -0.459 OA
BRANCH   4   5
ATOM      5  C   UNL A   1      33.206  22.666  26.745  1.00  0.00     0.364 C 
ATOM      6  O   UNL A   1      33.725  22.323  27.804  1.00  0.00    -0.245 OA
BRANCH   5   7
ATOM      7  C   UNL A   1      33.512  24.013  26.071  1.00  0.00     0.292 C 
ATOM      8  C   UNL A   1      34.938  24.173  25.521  1.00  0.00     0.088 C 
BRANCH   7   9
ATOM      9  N   UNL A   1      32.415  24.370  25.142  1.00  0.00    -0.321 N 
ATOM     10  C   UNL A   1      31.074  27.232  22.470  1.00  0.00     0.283 C 
ATOM     11  O   UNL A   1      31.026  27.093  21.241  1.00  0.00    -0.268 OA
ATOM     12  N   UNL A   1      31.087  26.109  23.276  1.00  0.00    -0.326 N 
ATOM     13  C   UNL A   1      31.688  24.877  22.768  1.00  0.00     0.181 C 
ATOM     14  C   UNL A   1      30.565  25.960  24.625  1.00  0.00     0.181 C 
ATOM     15  C   UNL A   1      32.833  24.453  23.718  1.00  0.00     0.284 C 
ATOM     16  C   UNL A   1      31.693  25.576  25.589  1.00  0.00     0.284 C 
ATOM     17  H   UNL A   1      31.759  23.590  25.176  1.00  0.00     0.348 HD
BRANCH  10  18
ATOM     18  C   UNL A   1      31.378  28.654  23.072  1.00  0.00     0.171 C 
ATOM     19  C   UNL A   1      32.632  28.566  23.961  1.00  0.00     0.090 C 
BRANCH  18  20
ATOM     20  C   UNL A   1      30.150  29.145  23.885  1.00  0.00     0.075 C 
ATOM     21  C   UNL A   1      28.978  29.660  23.055  1.00  0.00     0.011 C 
ENDBRANCH  18  20
BRANCH  18  22
ATOM     22  N   UNL A   1      31.672  29.676  22.032  1.00  0.00    -0.345 N 
ATOM     23  H   UNL A   1      32.588  29.490  21.623  1.00  0.00     0.345 HD
ATOM     24  H   UNL A   1      31.672  30.603  22.457  1.00  0.00     0.345 HD
ATOM     25  H   UNL A   1      30.960  29.635  21.303  1.00  0.00     0.345 HD
ENDBRANCH  18  22
ENDBRANCH  10  18
ENDBRANCH   7   9
ENDBRANCH   5   7
ENDBRANCH   4   5
ENDBRANCH   3   4
ENDBRANCH   2   3
ENDBRANCH   1   2
BRANCH   1  26
ATOM     26  C   UNL A   1      35.629  20.400  25.067  1.00  0.00     0.202 C 
BRANCH  26  27
ATOM     27  C   UNL A   1      37.083  19.938  24.899  1.00  0.00     0.261 C 
BRANCH  27  28
ATOM     28  O   UNL A   1      38.039  21.008  25.019  1.00  0.00    -0.460 OA
BRANCH  28  29
ATOM     29  C   UNL A   1      39.081  20.738  25.841  1.00  0.00     0.338 C 
ATOM     30  O   UNL A   1      39.666  19.667  25.960  1.00  0.00    -0.246 OA
BRANCH  29  31
ATOM     31  C   UNL A   1      39.575  21.962  26.497  1.00  0.00     0.060 A 
ATOM     32  C   UNL A   1      38.977  23.174  26.127  1.00  0.00     0.016 A 
ATOM     33  C   UNL A   1      40.680  21.950  27.351  1.00  0.00     0.016 A 
ATOM     34  C   UNL A   1      39.518  24.381  26.563  1.00  0.00     0.010 A 
ATOM     35  C   UNL A   1      41.225  23.167  27.782  1.00  0.00     0.010 A 
ATOM     36  C   UNL A   1      40.673  24.389  27.356  1.00  0.00    -0.014 A 
BRANCH  36  37
ATOM     37  C   UNL A   1      41.360  25.680  27.617  1.00  0.00     0.031 A 
ATOM     38  C   UNL A   1      40.642  26.761  28.384  1.00  0.00     0.074 A 
ATOM     39  C   UNL A   1      42.628  25.875  27.212  1.00  0.00     0.049 A 
ATOM     40  N   UNL A   1      41.080  27.933  28.766  1.00  0.00    -0.248 NA
ATOM     41  C   UNL A   1      39.249  26.485  28.773  1.00  0.00     0.031 C 
ATOM     42  C   UNL A   1      43.430  24.916  26.454  1.00  0.00     0.029 A 
ATOM     43  N   UNL A   1      43.458  26.958  27.369  1.00  0.00    -0.354 N 
ATOM     44  C   UNL A   1      40.016  28.543  29.419  1.00  0.00     0.074 A 
ATOM     45  C   UNL A   1      38.905  27.618  29.371  1.00  0.00     0.031 C 
ATOM     46  C   UNL A   1      44.630  25.461  26.193  1.00  0.00     0.029 A 
ATOM     47  C   UNL A   1      44.678  26.810  26.754  1.00  0.00     0.049 A 
ATOM     48  H   UNL A   1      43.203  27.763  27.875  1.00  0.00     0.167 HD
ATOM     49  C   UNL A   1      39.972  29.754  30.023  1.00  0.00     0.034 A 
ATOM     50  C   UNL A   1      45.713  27.669  26.648  1.00  0.00     0.034 A 
ATOM     51  C   UNL A   1      41.084  30.663  30.101  1.00  0.00     0.049 A 
ATOM     52  C   UNL A   1      45.635  29.010  27.328  1.00  0.00     0.074 A 
ATOM     53  C   UNL A   1      41.151  31.885  30.750  1.00  0.00     0.029 A 
ATOM     54  N   UNL A   1      42.318  30.459  29.507  1.00  0.00    -0.354 N 
ATOM     55  N   UNL A   1      44.674  29.507  28.069  1.00  0.00    -0.248 NA
ATOM     56  C   UNL A   1      46.803  29.895  27.190  1.00  0.00     0.031 C 
ATOM     57  C   UNL A   1      42.421  32.428  30.530  1.00  0.00     0.029 A 
ATOM     58  C   UNL A   1      43.150  31.537  29.760  1.00  0.00     0.049 A 
ATOM     59  H   UNL A   1      42.568  29.665  28.982  1.00  0.00     0.167 HD
ATOM     60  C   UNL A   1      45.133  30.744  28.510  1.00  0.00     0.074 A 
ATOM     61  C   UNL A   1      46.468  30.910  27.975  1.00  0.00     0.031 C 
ATOM     62  C   UNL A   1      44.498  31.668  29.272  1.00  0.00     0.034 A 
BRANCH  49  63
ATOM     63  C   UNL A   1      38.687  30.161  30.692  1.00  0.00     0.023 A 
ATOM     64  C   UNL A   1      38.489  29.856  32.054  1.00  0.00     0.012 A 
ATOM     65  C   UNL A   1      37.718  30.916  30.003  1.00  0.00     0.148 A 
ATOM     66  C   UNL A   1      37.336  30.280  32.715  1.00  0.00     0.002 A 
ATOM     67  C   UNL A   1      36.590  31.368  30.678  1.00  0.00     0.091 A 
ATOM     68  F   UNL A   1      37.918  31.175  28.703  1.00  0.00    -0.205 F 
ATOM     69  C   UNL A   1      36.394  31.045  32.031  1.00  0.00     0.022 A 
BRANCH  67  70
ATOM     70  S   UNL A   1      35.354  32.417  29.905  1.00  0.00     0.127 S 
ATOM     71  O   UNL A   1      34.843  31.543  28.850  1.00  0.00    -0.237 OA
ATOM     72  O   UNL A   1      34.420  32.655  31.006  1.00  0.00    -0.237 OA
ATOM     73  O   UNL A   1      36.064  33.601  29.443  1.00  0.00    -0.744 OA
ENDBRANCH  67  70
ENDBRANCH  49  63
BRANCH  50  74
ATOM     74  C   UNL A   1      46.934  27.272  25.893  1.00  0.00     0.023 A 
ATOM     75  C   UNL A   1      47.942  26.525  26.535  1.00  0.00     0.012 A 
ATOM     76  C   UNL A   1      47.101  27.630  24.541  1.00  0.00     0.148 A 
ATOM     77  C   UNL A   1      49.106  26.169  25.852  1.00  0.00     0.002 A 
ATOM     78  C   UNL A   1      48.238  27.223  23.852  1.00  0.00     0.091 A 
ATOM     79  F   UNL A   1      46.144  28.362  23.955  1.00  0.00    -0.205 F 
ATOM     80  C   UNL A   1      49.248  26.507  24.509  1.00  0.00     0.022 A 
BRANCH  78  81
ATOM     81  S   UNL A   1      48.430  27.506  22.090  1.00  0.00     0.127 S 
ATOM     82  O   UNL A   1      49.599  28.380  22.053  1.00  0.00    -0.237 OA
ATOM     83  O   UNL A   1      48.657  26.151  21.586  1.00  0.00    -0.237 OA
ATOM     84  O   UNL A   1      47.171  28.100  21.658  1.00  0.00    -0.744 OA
ENDBRANCH  78  81
ENDBRANCH  50  74
BRANCH  62  85
ATOM     85  C   UNL A   1      45.242  32.936  29.602  1.00  0.00     0.023 A 
ATOM     86  C   UNL A   1      46.062  32.983  30.748  1.00  0.00     0.012 A 
ATOM     87  C   UNL A   1      45.187  34.053  28.746  1.00  0.00     0.148 A 
ATOM     88  C   UNL A   1      46.788  34.134  31.054  1.00  0.00     0.002 A 
ATOM     89  C   UNL A   1      45.950  35.181  29.033  1.00  0.00     0.091 A 
ATOM     90  F   UNL A   1      44.388  33.998  27.671  1.00  0.00    -0.205 F 
ATOM     91  C   UNL A   1      46.740  35.227  30.191  1.00  0.00     0.022 A 
BRANCH  89  92
ATOM     92  S   UNL A   1      46.018  36.595  27.927  1.00  0.00     0.127 S 
ATOM     93  O   UNL A   1      46.963  37.470  28.618  1.00  0.00    -0.237 OA
ATOM     94  O   UNL A   1      46.528  36.002  26.690  1.00  0.00    -0.237 OA
ATOM     95  O   UNL A   1      44.652  37.092  27.835  1.00  0.00    -0.744 OA
ENDBRANCH  89  92
ENDBRANCH  62  85
ENDBRANCH  36  37
ENDBRANCH  29  31
ENDBRANCH  28  29
ENDBRANCH  27  28
ENDBRANCH  26  27
ENDBRANCH   1  26
TORSDOF 21
ENDMDL
