MODEL 1
REMARK VINA RESULT:     -11.9      0.000      0.000
REMARK SMILES Cc1cc(OC(F)(F)F)cc2c1O[C@H](C(F)(F)F)C(C(=O)OCCOCCOC(=O)c1ccc(-c3c4nc(c(-c5cccc(S(=O)(=O)[O-])c5F)c5ccc([nH]5)c(-c5cccc(S(=O)(=O)[O-])c5F)c5nc(c(-c6cccc(S(=O)(=O)[O-])c6F)c6ccc3[nH]6)C=C5)C=C4)cc1)=C2
REMARK SMILES IDX 26 1 25 2 24 3 23 4 22 5 20 6 21 7 19 8 1 9 2 10 3 11 12 12
REMARK SMILES IDX 4 13 11 14 13 15 10 16 94 17 14 18 5 19 6 20 7 21 8 22 9 23
REMARK SMILES IDX 15 24 16 25 17 26 18 27 27 28 28 29 29 30 30 31 31 32 32 33
REMARK SMILES IDX 93 34 33 35 92 36 34 37 35 38 36 39 86 40 37 41 91 42 85 43
REMARK SMILES IDX 87 44 38 45 90 46 84 47 83 48 39 50 71 51 51 52 70 53 52 54
REMARK SMILES IDX 55 55 69 56 88 57 53 58 54 59 68 61 89 62 56 63 40 64 41 65
REMARK SMILES IDX 49 66 42 67 44 68 50 69 43 70 45 71 46 72 47 73 48 74 72 75
REMARK SMILES IDX 73 76 81 77 74 78 76 79 82 80 75 81 77 82 78 83 79 84 80 85
REMARK SMILES IDX 57 86 58 87 66 88 59 89 61 90 67 91 60 92 62 93 63 94 64 95
REMARK SMILES IDX 65 96
REMARK H PARENT 87 49 55 60
REMARK Flexibility Score: inf
ROOT
ATOM      1  C   UNL A   1      31.219  29.054  25.156  1.00  0.00     0.202 C 
ENDROOT
BRANCH   1   2
ATOM      2  O   UNL A   1      31.734  28.700  23.870  1.00  0.00    -0.374 OA
BRANCH   2   3
ATOM      3  C   UNL A   1      30.791  28.513  22.815  1.00  0.00     0.202 C 
BRANCH   3   4
ATOM      4  C   UNL A   1      30.921  27.215  22.014  1.00  0.00     0.261 C 
BRANCH   4   5
ATOM      5  O   UNL A   1      31.648  26.216  22.744  1.00  0.00    -0.460 OA
BRANCH   5   6
ATOM      6  C   UNL A   1      32.736  25.730  22.104  1.00  0.00     0.338 C 
ATOM      7  O   UNL A   1      33.258  26.183  21.097  1.00  0.00    -0.246 OA
BRANCH   6   8
ATOM      8  C   UNL A   1      33.315  24.614  22.877  1.00  0.00     0.087 C 
ATOM      9  C   UNL A   1      35.636  21.616  26.311  1.00  0.00     0.048 C 
ATOM     10  C   UNL A   1      34.578  21.427  25.258  1.00  0.00    -0.005 A 
ATOM     11  C   UNL A   1      33.927  20.185  25.134  1.00  0.00     0.054 A 
ATOM     12  C   UNL A   1      34.224  22.481  24.403  1.00  0.00     0.131 A 
ATOM     13  C   UNL A   1      32.935  19.994  24.170  1.00  0.00     0.130 A 
ATOM     14  C   UNL A   1      33.216  22.299  23.456  1.00  0.00     0.021 A 
ATOM     15  O   UNL A   1      34.913  23.655  24.534  1.00  0.00    -0.475 OA
ATOM     16  C   UNL A   1      32.592  21.054  23.329  1.00  0.00     0.058 A 
ATOM     17  C   UNL A   1      32.773  23.413  22.642  1.00  0.00     0.027 C 
ATOM     18  C   UNL A   1      34.416  24.854  23.873  1.00  0.00     0.316 C 
BRANCH  13  19
ATOM     19  O   UNL A   1      32.227  18.850  23.940  1.00  0.00    -0.406 OA
BRANCH  19  20
ATOM     20  C   UNL A   1      32.841  17.838  23.163  1.00  0.00     0.573 C 
ATOM     21  F   UNL A   1      32.445  16.611  23.560  1.00  0.00    -0.132 F 
ATOM     22  F   UNL A   1      32.579  17.998  21.849  1.00  0.00    -0.132 F 
ATOM     23  F   UNL A   1      34.181  17.919  23.334  1.00  0.00    -0.132 F 
ENDBRANCH  19  20
ENDBRANCH  13  19
BRANCH  18  24
ATOM     24  C   UNL A   1      34.021  25.876  24.949  1.00  0.00     0.430 C 
ATOM     25  F   UNL A   1      32.724  25.737  25.304  1.00  0.00    -0.167 F 
ATOM     26  F   UNL A   1      34.759  25.728  26.072  1.00  0.00    -0.167 F 
ATOM     27  F   UNL A   1      34.192  27.147  24.516  1.00  0.00    -0.167 F 
ENDBRANCH  18  24
ENDBRANCH   6   8
ENDBRANCH   5   6
ENDBRANCH   4   5
ENDBRANCH   3   4
ENDBRANCH   2   3
ENDBRANCH   1   2
BRANCH   1  28
ATOM     28  C   UNL A   1      31.592  30.441  25.696  1.00  0.00     0.261 C 
BRANCH  28  29
ATOM     29  O   UNL A   1      32.426  30.354  26.867  1.00  0.00    -0.460 OA
BRANCH  29  30
ATOM     30  C   UNL A   1      33.102  31.487  27.171  1.00  0.00     0.338 C 
ATOM     31  O   UNL A   1      32.651  32.622  27.239  1.00  0.00    -0.246 OA
BRANCH  30  32
ATOM     32  C   UNL A   1      34.469  31.154  27.603  1.00  0.00     0.060 A 
ATOM     33  C   UNL A   1      34.779  29.803  27.811  1.00  0.00     0.016 A 
ATOM     34  C   UNL A   1      35.393  32.154  27.907  1.00  0.00     0.016 A 
ATOM     35  C   UNL A   1      36.003  29.449  28.371  1.00  0.00     0.010 A 
ATOM     36  C   UNL A   1      36.614  31.797  28.487  1.00  0.00     0.010 A 
ATOM     37  C   UNL A   1      36.906  30.448  28.755  1.00  0.00    -0.014 A 
BRANCH  37  38
ATOM     38  C   UNL A   1      38.074  30.089  29.591  1.00  0.00     0.031 A 
ATOM     39  C   UNL A   1      39.092  29.131  29.038  1.00  0.00     0.074 A 
ATOM     40  C   UNL A   1      38.232  30.616  30.817  1.00  0.00     0.049 A 
ATOM     41  N   UNL A   1      40.178  28.668  29.598  1.00  0.00    -0.248 NA
ATOM     42  C   UNL A   1      38.859  28.629  27.671  1.00  0.00     0.031 C 
ATOM     43  C   UNL A   1      37.320  31.567  31.451  1.00  0.00     0.029 A 
ATOM     44  N   UNL A   1      39.210  30.407  31.755  1.00  0.00    -0.354 N 
ATOM     45  C   UNL A   1      40.747  27.810  28.666  1.00  0.00     0.074 A 
ATOM     46  C   UNL A   1      39.889  27.811  27.502  1.00  0.00     0.031 C 
ATOM     47  C   UNL A   1      37.770  31.841  32.687  1.00  0.00     0.029 A 
ATOM     48  C   UNL A   1      38.990  31.074  32.935  1.00  0.00     0.049 A 
ATOM     49  H   UNL A   1      39.995  29.835  31.596  1.00  0.00     0.167 HD
ATOM     50  C   UNL A   1      41.894  27.098  28.765  1.00  0.00     0.034 A 
ATOM     51  C   UNL A   1      39.686  31.056  34.089  1.00  0.00     0.034 A 
ATOM     52  C   UNL A   1      42.758  27.114  29.911  1.00  0.00     0.049 A 
ATOM     53  C   UNL A   1      40.940  30.228  34.187  1.00  0.00     0.074 A 
ATOM     54  C   UNL A   1      43.962  26.455  30.084  1.00  0.00     0.029 A 
ATOM     55  N   UNL A   1      42.510  27.815  31.078  1.00  0.00    -0.354 N 
ATOM     56  N   UNL A   1      41.516  29.499  33.262  1.00  0.00    -0.248 NA
ATOM     57  C   UNL A   1      41.653  30.240  35.473  1.00  0.00     0.031 C 
ATOM     58  C   UNL A   1      44.438  26.749  31.364  1.00  0.00     0.029 A 
ATOM     59  C   UNL A   1      43.533  27.599  31.982  1.00  0.00     0.049 A 
ATOM     60  H   UNL A   1      41.722  28.383  31.242  1.00  0.00     0.167 HD
ATOM     61  C   UNL A   1      42.667  28.983  33.846  1.00  0.00     0.074 A 
ATOM     62  C   UNL A   1      42.716  29.491  35.202  1.00  0.00     0.031 C 
ATOM     63  C   UNL A   1      43.593  28.152  33.309  1.00  0.00     0.034 A 
BRANCH  50  64
ATOM     64  C   UNL A   1      42.312  26.270  27.585  1.00  0.00     0.023 A 
ATOM     65  C   UNL A   1      43.175  26.832  26.625  1.00  0.00     0.012 A 
ATOM     66  C   UNL A   1      41.939  24.916  27.482  1.00  0.00     0.148 A 
ATOM     67  C   UNL A   1      43.659  26.059  25.572  1.00  0.00     0.002 A 
ATOM     68  C   UNL A   1      42.448  24.144  26.445  1.00  0.00     0.091 A 
ATOM     69  F   UNL A   1      41.104  24.413  28.403  1.00  0.00    -0.205 F 
ATOM     70  C   UNL A   1      43.305  24.715  25.489  1.00  0.00     0.022 A 
BRANCH  68  71
ATOM     71  S   UNL A   1      42.095  22.392  26.272  1.00  0.00     0.127 S 
ATOM     72  O   UNL A   1      42.805  22.068  25.036  1.00  0.00    -0.237 OA
ATOM     73  O   UNL A   1      42.696  21.839  27.485  1.00  0.00    -0.237 OA
ATOM     74  O   UNL A   1      40.644  22.277  26.198  1.00  0.00    -0.744 OA
ENDBRANCH  68  71
ENDBRANCH  50  64
BRANCH  51  75
ATOM     75  C   UNL A   1      39.226  31.887  35.233  1.00  0.00     0.023 A 
ATOM     76  C   UNL A   1      38.360  31.325  36.191  1.00  0.00     0.012 A 
ATOM     77  C   UNL A   1      39.685  33.207  35.404  1.00  0.00     0.148 A 
ATOM     78  C   UNL A   1      37.953  32.068  37.298  1.00  0.00     0.002 A 
ATOM     79  C   UNL A   1      39.304  33.930  36.529  1.00  0.00     0.091 A 
ATOM     80  F   UNL A   1      40.502  33.720  34.473  1.00  0.00    -0.205 F 
ATOM     81  C   UNL A   1      38.431  33.365  37.472  1.00  0.00     0.022 A 
BRANCH  79  82
ATOM     82  S   UNL A   1      39.941  35.570  36.891  1.00  0.00     0.127 S 
ATOM     83  O   UNL A   1      41.380  35.323  36.956  1.00  0.00    -0.237 OA
ATOM     84  O   UNL A   1      39.497  36.326  35.721  1.00  0.00    -0.237 OA
ATOM     85  O   UNL A   1      39.318  35.969  38.145  1.00  0.00    -0.744 OA
ENDBRANCH  79  82
ENDBRANCH  51  75
BRANCH  63  86
ATOM     86  C   UNL A   1      44.758  27.734  34.164  1.00  0.00     0.023 A 
ATOM     87  C   UNL A   1      45.890  28.568  34.238  1.00  0.00     0.012 A 
ATOM     88  C   UNL A   1      44.668  26.603  34.999  1.00  0.00     0.148 A 
ATOM     89  C   UNL A   1      46.920  28.279  35.132  1.00  0.00     0.002 A 
ATOM     90  C   UNL A   1      45.682  26.341  35.911  1.00  0.00     0.091 A 
ATOM     91  F   UNL A   1      43.580  25.825  34.902  1.00  0.00    -0.205 F 
ATOM     92  C   UNL A   1      46.811  27.175  35.977  1.00  0.00     0.022 A 
BRANCH  90  93
ATOM     93  S   UNL A   1      45.598  24.993  37.095  1.00  0.00     0.127 S 
ATOM     94  O   UNL A   1      44.351  25.291  37.799  1.00  0.00    -0.237 OA
ATOM     95  O   UNL A   1      45.542  23.819  36.225  1.00  0.00    -0.237 OA
ATOM     96  O   UNL A   1      46.805  25.091  37.906  1.00  0.00    -0.744 OA
ENDBRANCH  90  93
ENDBRANCH  63  86
ENDBRANCH  37  38
ENDBRANCH  30  32
ENDBRANCH  29  30
ENDBRANCH  28  29
ENDBRANCH   1  28
TORSDOF 20
ENDMDL
MODEL 2
REMARK VINA RESULT:     -11.6      5.051      7.580
REMARK SMILES Cc1cc(OC(F)(F)F)cc2c1O[C@H](C(F)(F)F)C(C(=O)OCCOCCOC(=O)c1ccc(-c3c4nc(c(-c5cccc(S(=O)(=O)[O-])c5F)c5ccc([nH]5)c(-c5cccc(S(=O)(=O)[O-])c5F)c5nc(c(-c6cccc(S(=O)(=O)[O-])c6F)c6ccc3[nH]6)C=C5)C=C4)cc1)=C2
REMARK SMILES IDX 26 1 25 2 24 3 23 4 22 5 20 6 21 7 19 8 1 9 2 10 3 11 12 12
REMARK SMILES IDX 4 13 11 14 13 15 10 16 94 17 14 18 5 19 6 20 7 21 8 22 9 23
REMARK SMILES IDX 15 24 16 25 17 26 18 27 27 28 28 29 29 30 30 31 31 32 32 33
REMARK SMILES IDX 93 34 33 35 92 36 34 37 35 38 36 39 86 40 37 41 91 42 85 43
REMARK SMILES IDX 87 44 38 45 90 46 84 47 83 48 39 50 71 51 51 52 70 53 52 54
REMARK SMILES IDX 55 55 69 56 88 57 53 58 54 59 68 61 89 62 56 63 40 64 41 65
REMARK SMILES IDX 49 66 42 67 44 68 50 69 43 70 45 71 46 72 47 73 48 74 72 75
REMARK SMILES IDX 73 76 81 77 74 78 76 79 82 80 75 81 77 82 78 83 79 84 80 85
REMARK SMILES IDX 57 86 58 87 66 88 59 89 61 90 67 91 60 92 62 93 63 94 64 95
REMARK SMILES IDX 65 96
REMARK H PARENT 87 49 55 60
REMARK Flexibility Score: inf
ROOT
ATOM      1  C   UNL A   1      37.218  20.799  24.768  1.00  0.00     0.202 C 
ENDROOT
BRANCH   1   2
ATOM      2  O   UNL A   1      37.109  22.221  24.878  1.00  0.00    -0.374 OA
BRANCH   2   3
ATOM      3  C   UNL A   1      36.289  22.737  25.925  1.00  0.00     0.202 C 
BRANCH   3   4
ATOM      4  C   UNL A   1      35.340  23.876  25.541  1.00  0.00     0.261 C 
BRANCH   4   5
ATOM      5  O   UNL A   1      34.070  23.748  26.200  1.00  0.00    -0.460 OA
BRANCH   5   6
ATOM      6  C   UNL A   1      32.997  23.901  25.391  1.00  0.00     0.338 C 
ATOM      7  O   UNL A   1      32.390  24.937  25.167  1.00  0.00    -0.246 OA
BRANCH   6   8
ATOM      8  C   UNL A   1      32.717  22.637  24.684  1.00  0.00     0.087 C 
ATOM      9  C   UNL A   1      32.063  18.885  21.268  1.00  0.00     0.048 C 
ATOM     10  C   UNL A   1      32.332  18.960  22.747  1.00  0.00    -0.005 A 
ATOM     11  C   UNL A   1      32.558  17.778  23.478  1.00  0.00     0.054 A 
ATOM     12  C   UNL A   1      32.371  20.198  23.405  1.00  0.00     0.131 A 
ATOM     13  C   UNL A   1      32.820  17.829  24.848  1.00  0.00     0.130 A 
ATOM     14  C   UNL A   1      32.657  20.251  24.769  1.00  0.00     0.021 A 
ATOM     15  O   UNL A   1      32.104  21.314  22.660  1.00  0.00    -0.475 OA
ATOM     16  C   UNL A   1      32.859  19.069  25.488  1.00  0.00     0.058 A 
ATOM     17  C   UNL A   1      32.803  21.531  25.432  1.00  0.00     0.027 C 
ATOM     18  C   UNL A   1      32.392  22.630  23.215  1.00  0.00     0.316 C 
BRANCH  13  19
ATOM     19  O   UNL A   1      33.056  16.769  25.676  1.00  0.00    -0.406 OA
BRANCH  19  20
ATOM     20  C   UNL A   1      34.008  15.806  25.261  1.00  0.00     0.573 C 
ATOM     21  F   UNL A   1      34.215  15.868  23.929  1.00  0.00    -0.132 F 
ATOM     22  F   UNL A   1      35.181  15.961  25.911  1.00  0.00    -0.132 F 
ATOM     23  F   UNL A   1      33.529  14.575  25.552  1.00  0.00    -0.132 F 
ENDBRANCH  19  20
ENDBRANCH  13  19
BRANCH  18  24
ATOM     24  C   UNL A   1      33.492  23.285  22.368  1.00  0.00     0.430 C 
ATOM     25  F   UNL A   1      34.717  22.833  22.719  1.00  0.00    -0.167 F 
ATOM     26  F   UNL A   1      33.332  23.021  21.051  1.00  0.00    -0.167 F 
ATOM     27  F   UNL A   1      33.497  24.631  22.512  1.00  0.00    -0.167 F 
ENDBRANCH  18  24
ENDBRANCH   6   8
ENDBRANCH   5   6
ENDBRANCH   4   5
ENDBRANCH   3   4
ENDBRANCH   2   3
ENDBRANCH   1   2
BRANCH   1  28
ATOM     28  C   UNL A   1      38.584  20.180  25.089  1.00  0.00     0.261 C 
BRANCH  28  29
ATOM     29  O   UNL A   1      39.035  20.529  26.412  1.00  0.00    -0.460 OA
BRANCH  29  30
ATOM     30  C   UNL A   1      40.358  20.797  26.510  1.00  0.00     0.338 C 
ATOM     31  O   UNL A   1      41.282  20.138  26.055  1.00  0.00    -0.246 OA
BRANCH  30  32
ATOM     32  C   UNL A   1      40.557  22.130  27.102  1.00  0.00     0.060 A 
ATOM     33  C   UNL A   1      39.855  23.206  26.543  1.00  0.00     0.016 A 
ATOM     34  C   UNL A   1      41.498  22.338  28.111  1.00  0.00     0.016 A 
ATOM     35  C   UNL A   1      40.127  24.506  26.960  1.00  0.00     0.010 A 
ATOM     36  C   UNL A   1      41.784  23.646  28.515  1.00  0.00     0.010 A 
ATOM     37  C   UNL A   1      41.127  24.734  27.914  1.00  0.00    -0.014 A 
BRANCH  37  38
ATOM     38  C   UNL A   1      41.601  26.116  28.153  1.00  0.00     0.031 A 
ATOM     39  C   UNL A   1      42.998  26.484  27.739  1.00  0.00     0.074 A 
ATOM     40  C   UNL A   1      40.797  27.031  28.721  1.00  0.00     0.049 A 
ATOM     41  N   UNL A   1      43.623  27.624  27.866  1.00  0.00    -0.248 NA
ATOM     42  C   UNL A   1      43.798  25.429  27.090  1.00  0.00     0.031 C 
ATOM     43  C   UNL A   1      39.419  26.795  29.149  1.00  0.00     0.029 A 
ATOM     44  N   UNL A   1      41.035  28.341  29.052  1.00  0.00    -0.354 N 
ATOM     45  C   UNL A   1      44.889  27.423  27.335  1.00  0.00     0.074 A 
ATOM     46  C   UNL A   1      44.951  26.050  26.883  1.00  0.00     0.031 C 
ATOM     47  C   UNL A   1      38.941  27.919  29.711  1.00  0.00     0.029 A 
ATOM     48  C   UNL A   1      39.983  28.944  29.696  1.00  0.00     0.049 A 
ATOM     49  H   UNL A   1      41.880  28.803  28.847  1.00  0.00     0.167 HD
ATOM     50  C   UNL A   1      45.905  28.309  27.217  1.00  0.00     0.034 A 
ATOM     51  C   UNL A   1      39.877  30.180  30.224  1.00  0.00     0.034 A 
ATOM     52  C   UNL A   1      45.838  29.678  27.644  1.00  0.00     0.049 A 
ATOM     53  C   UNL A   1      41.034  31.136  30.112  1.00  0.00     0.074 A 
ATOM     54  C   UNL A   1      46.805  30.659  27.528  1.00  0.00     0.029 A 
ATOM     55  N   UNL A   1      44.749  30.256  28.274  1.00  0.00    -0.354 N 
ATOM     56  N   UNL A   1      42.191  30.960  29.520  1.00  0.00    -0.248 NA
ATOM     57  C   UNL A   1      40.866  32.466  30.715  1.00  0.00     0.031 C 
ATOM     58  C   UNL A   1      46.304  31.832  28.099  1.00  0.00     0.029 A 
ATOM     59  C   UNL A   1      45.022  31.579  28.562  1.00  0.00     0.049 A 
ATOM     60  H   UNL A   1      43.906  29.793  28.486  1.00  0.00     0.167 HD
ATOM     61  C   UNL A   1      42.878  32.160  29.659  1.00  0.00     0.074 A 
ATOM     62  C   UNL A   1      42.005  33.062  30.383  1.00  0.00     0.031 C 
ATOM     63  C   UNL A   1      44.125  32.480  29.238  1.00  0.00     0.034 A 
BRANCH  50  64
ATOM     64  C   UNL A   1      47.173  27.844  26.560  1.00  0.00     0.023 A 
ATOM     65  C   UNL A   1      48.167  27.232  27.347  1.00  0.00     0.012 A 
ATOM     66  C   UNL A   1      47.334  27.918  25.164  1.00  0.00     0.148 A 
ATOM     67  C   UNL A   1      49.311  26.702  26.753  1.00  0.00     0.002 A 
ATOM     68  C   UNL A   1      48.464  27.363  24.576  1.00  0.00     0.091 A 
ATOM     69  F   UNL A   1      46.377  28.520  24.443  1.00  0.00    -0.205 F 
ATOM     70  C   UNL A   1      49.453  26.758  25.369  1.00  0.00     0.022 A 
BRANCH  68  71
ATOM     71  S   UNL A   1      48.724  27.337  22.799  1.00  0.00     0.127 S 
ATOM     72  O   UNL A   1      50.155  27.622  22.706  1.00  0.00    -0.237 OA
ATOM     73  O   UNL A   1      48.350  25.966  22.456  1.00  0.00    -0.237 OA
ATOM     74  O   UNL A   1      47.853  28.367  22.248  1.00  0.00    -0.744 OA
ENDBRANCH  68  71
ENDBRANCH  50  64
BRANCH  51  75
ATOM     75  C   UNL A   1      38.604  30.590  30.873  1.00  0.00     0.023 A 
ATOM     76  C   UNL A   1      38.426  30.362  32.250  1.00  0.00     0.012 A 
ATOM     77  C   UNL A   1      37.597  31.253  30.145  1.00  0.00     0.148 A 
ATOM     78  C   UNL A   1      37.261  30.781  32.892  1.00  0.00     0.002 A 
ATOM     79  C   UNL A   1      36.455  31.701  30.798  1.00  0.00     0.091 A 
ATOM     80  F   UNL A   1      37.790  31.450  28.833  1.00  0.00    -0.205 F 
ATOM     81  C   UNL A   1      36.281  31.458  32.169  1.00  0.00     0.022 A 
BRANCH  79  82
ATOM     82  S   UNL A   1      35.181  32.664  29.976  1.00  0.00     0.127 S 
ATOM     83  O   UNL A   1      34.695  31.720  28.971  1.00  0.00    -0.237 OA
ATOM     84  O   UNL A   1      34.252  32.927  31.074  1.00  0.00    -0.237 OA
ATOM     85  O   UNL A   1      35.852  33.845  29.452  1.00  0.00    -0.744 OA
ENDBRANCH  79  82
ENDBRANCH  51  75
BRANCH  63  86
ATOM     86  C   UNL A   1      44.643  33.863  29.522  1.00  0.00     0.023 A 
ATOM     87  C   UNL A   1      45.382  34.091  30.698  1.00  0.00     0.012 A 
ATOM     88  C   UNL A   1      44.525  34.886  28.561  1.00  0.00     0.148 A 
ATOM     89  C   UNL A   1      45.996  35.323  30.916  1.00  0.00     0.002 A 
ATOM     90  C   UNL A   1      45.168  36.099  28.769  1.00  0.00     0.091 A 
ATOM     91  F   UNL A   1      43.810  34.640  27.453  1.00  0.00    -0.205 F 
ATOM     92  C   UNL A   1      45.900  36.322  29.948  1.00  0.00     0.022 A 
BRANCH  90  93
ATOM     93  S   UNL A   1      45.172  37.417  27.548  1.00  0.00     0.127 S 
ATOM     94  O   UNL A   1      45.785  38.514  28.296  1.00  0.00    -0.237 OA
ATOM     95  O   UNL A   1      46.011  36.856  26.490  1.00  0.00    -0.237 OA
ATOM     96  O   UNL A   1      43.780  37.626  27.174  1.00  0.00    -0.744 OA
ENDBRANCH  90  93
ENDBRANCH  63  86
ENDBRANCH  37  38
ENDBRANCH  30  32
ENDBRANCH  29  30
ENDBRANCH  28  29
ENDBRANCH   1  28
TORSDOF 20
ENDMDL
MODEL 3
REMARK VINA RESULT:     -11.4      2.021      2.401
REMARK SMILES Cc1cc(OC(F)(F)F)cc2c1O[C@H](C(F)(F)F)C(C(=O)OCCOCCOC(=O)c1ccc(-c3c4nc(c(-c5cccc(S(=O)(=O)[O-])c5F)c5ccc([nH]5)c(-c5cccc(S(=O)(=O)[O-])c5F)c5nc(c(-c6cccc(S(=O)(=O)[O-])c6F)c6ccc3[nH]6)C=C5)C=C4)cc1)=C2
REMARK SMILES IDX 26 1 25 2 24 3 23 4 22 5 20 6 21 7 19 8 1 9 2 10 3 11 12 12
REMARK SMILES IDX 4 13 11 14 13 15 10 16 94 17 14 18 5 19 6 20 7 21 8 22 9 23
REMARK SMILES IDX 15 24 16 25 17 26 18 27 27 28 28 29 29 30 30 31 31 32 32 33
REMARK SMILES IDX 93 34 33 35 92 36 34 37 35 38 36 39 86 40 37 41 91 42 85 43
REMARK SMILES IDX 87 44 38 45 90 46 84 47 83 48 39 50 71 51 51 52 70 53 52 54
REMARK SMILES IDX 55 55 69 56 88 57 53 58 54 59 68 61 89 62 56 63 40 64 41 65
REMARK SMILES IDX 49 66 42 67 44 68 50 69 43 70 45 71 46 72 47 73 48 74 72 75
REMARK SMILES IDX 73 76 81 77 74 78 76 79 82 80 75 81 77 82 78 83 79 84 80 85
REMARK SMILES IDX 57 86 58 87 66 88 59 89 61 90 67 91 60 92 62 93 63 94 64 95
REMARK SMILES IDX 65 96
REMARK H PARENT 87 49 55 60
REMARK Flexibility Score: inf
ROOT
ATOM      1  C   UNL A   1      31.429  29.655  25.703  1.00  0.00     0.202 C 
ENDROOT
BRANCH   1   2
ATOM      2  O   UNL A   1      31.936  29.382  24.394  1.00  0.00    -0.374 OA
BRANCH   2   3
ATOM      3  C   UNL A   1      31.011  29.431  23.309  1.00  0.00     0.202 C 
BRANCH   3   4
ATOM      4  C   UNL A   1      31.229  28.412  22.187  1.00  0.00     0.261 C 
BRANCH   4   5
ATOM      5  O   UNL A   1      32.372  27.582  22.445  1.00  0.00    -0.460 OA
BRANCH   5   6
ATOM      6  C   UNL A   1      32.186  26.269  22.179  1.00  0.00     0.338 C 
ATOM      7  O   UNL A   1      31.879  25.773  21.105  1.00  0.00    -0.246 OA
BRANCH   6   8
ATOM      8  C   UNL A   1      32.539  25.463  23.364  1.00  0.00     0.087 C 
ATOM      9  C   UNL A   1      32.655  22.960  27.824  1.00  0.00     0.048 C 
ATOM     10  C   UNL A   1      33.379  22.850  26.509  1.00  0.00    -0.005 A 
ATOM     11  C   UNL A   1      34.281  21.792  26.292  1.00  0.00     0.054 A 
ATOM     12  C   UNL A   1      33.154  23.787  25.490  1.00  0.00     0.131 A 
ATOM     13  C   UNL A   1      34.953  21.668  25.075  1.00  0.00     0.130 A 
ATOM     14  C   UNL A   1      33.806  23.650  24.265  1.00  0.00     0.021 A 
ATOM     15  O   UNL A   1      32.300  24.821  25.762  1.00  0.00    -0.475 OA
ATOM     16  C   UNL A   1      34.716  22.607  24.069  1.00  0.00     0.058 A 
ATOM     17  C   UNL A   1      33.500  24.552  23.172  1.00  0.00     0.027 C 
ATOM     18  C   UNL A   1      31.823  25.661  24.672  1.00  0.00     0.316 C 
BRANCH  13  19
ATOM     19  O   UNL A   1      35.850  20.699  24.730  1.00  0.00    -0.406 OA
BRANCH  19  20
ATOM     20  C   UNL A   1      37.227  21.026  24.776  1.00  0.00     0.573 C 
ATOM     21  F   UNL A   1      37.607  21.362  26.026  1.00  0.00    -0.132 F 
ATOM     22  F   UNL A   1      37.990  20.007  24.327  1.00  0.00    -0.132 F 
ATOM     23  F   UNL A   1      37.441  22.094  23.974  1.00  0.00    -0.132 F 
ENDBRANCH  19  20
ENDBRANCH  13  19
BRANCH  18  24
ATOM     24  C   UNL A   1      30.304  25.474  24.543  1.00  0.00     0.430 C 
ATOM     25  F   UNL A   1      29.681  26.654  24.329  1.00  0.00    -0.167 F 
ATOM     26  F   UNL A   1      29.988  24.663  23.508  1.00  0.00    -0.167 F 
ATOM     27  F   UNL A   1      29.773  24.927  25.662  1.00  0.00    -0.167 F 
ENDBRANCH  18  24
ENDBRANCH   6   8
ENDBRANCH   5   6
ENDBRANCH   4   5
ENDBRANCH   3   4
ENDBRANCH   2   3
ENDBRANCH   1   2
BRANCH   1  28
ATOM     28  C   UNL A   1      31.797  31.009  26.322  1.00  0.00     0.261 C 
BRANCH  28  29
ATOM     29  O   UNL A   1      32.787  30.874  27.359  1.00  0.00    -0.460 OA
BRANCH  29  30
ATOM     30  C   UNL A   1      33.606  31.942  27.507  1.00  0.00     0.338 C 
ATOM     31  O   UNL A   1      33.290  33.123  27.506  1.00  0.00    -0.246 OA
BRANCH  30  32
ATOM     32  C   UNL A   1      34.960  31.488  27.864  1.00  0.00     0.060 A 
ATOM     33  C   UNL A   1      35.150  30.120  28.104  1.00  0.00     0.016 A 
ATOM     34  C   UNL A   1      35.996  32.400  28.070  1.00  0.00     0.016 A 
ATOM     35  C   UNL A   1      36.369  29.664  28.598  1.00  0.00     0.010 A 
ATOM     36  C   UNL A   1      37.212  31.942  28.585  1.00  0.00     0.010 A 
ATOM     37  C   UNL A   1      37.389  30.579  28.885  1.00  0.00    -0.014 A 
BRANCH  37  38
ATOM     38  C   UNL A   1      38.570  30.133  29.658  1.00  0.00     0.031 A 
ATOM     39  C   UNL A   1      39.482  29.101  29.054  1.00  0.00     0.074 A 
ATOM     40  C   UNL A   1      38.832  30.645  30.872  1.00  0.00     0.049 A 
ATOM     41  N   UNL A   1      40.558  28.557  29.556  1.00  0.00    -0.248 NA
ATOM     42  C   UNL A   1      39.139  28.621  27.703  1.00  0.00     0.031 C 
ATOM     43  C   UNL A   1      38.030  31.661  31.551  1.00  0.00     0.029 A 
ATOM     44  N   UNL A   1      39.841  30.361  31.757  1.00  0.00    -0.354 N 
ATOM     45  C   UNL A   1      41.011  27.661  28.598  1.00  0.00     0.074 A 
ATOM     46  C   UNL A   1      40.094  27.728  27.481  1.00  0.00     0.031 C 
ATOM     47  C   UNL A   1      38.565  31.898  32.762  1.00  0.00     0.029 A 
ATOM     48  C   UNL A   1      39.735  31.041  32.946  1.00  0.00     0.049 A 
ATOM     49  H   UNL A   1      40.571  29.732  31.558  1.00  0.00     0.167 HD
ATOM     50  C   UNL A   1      42.104  26.865  28.637  1.00  0.00     0.034 A 
ATOM     51  C   UNL A   1      40.489  30.969  34.061  1.00  0.00     0.034 A 
ATOM     52  C   UNL A   1      43.028  26.814  29.734  1.00  0.00     0.049 A 
ATOM     53  C   UNL A   1      41.680  30.050  34.093  1.00  0.00     0.074 A 
ATOM     54  C   UNL A   1      44.186  26.066  29.844  1.00  0.00     0.029 A 
ATOM     55  N   UNL A   1      42.896  27.530  30.912  1.00  0.00    -0.354 N 
ATOM     56  N   UNL A   1      42.150  29.281  33.141  1.00  0.00    -0.248 NA
ATOM     57  C   UNL A   1      42.460  30.007  35.339  1.00  0.00     0.031 C 
ATOM     58  C   UNL A   1      44.751  26.322  31.096  1.00  0.00     0.029 A 
ATOM     59  C   UNL A   1      43.947  27.237  31.760  1.00  0.00     0.049 A 
ATOM     60  H   UNL A   1      42.163  28.155  31.116  1.00  0.00     0.167 HD
ATOM     61  C   UNL A   1      43.289  28.679  33.664  1.00  0.00     0.074 A 
ATOM     62  C   UNL A   1      43.448  29.180  35.014  1.00  0.00     0.031 C 
ATOM     63  C   UNL A   1      44.119  27.781  33.081  1.00  0.00     0.034 A 
BRANCH  50  64
ATOM     64  C   UNL A   1      42.396  26.008  27.439  1.00  0.00     0.023 A 
ATOM     65  C   UNL A   1      43.143  26.551  26.375  1.00  0.00     0.012 A 
ATOM     66  C   UNL A   1      42.022  24.652  27.410  1.00  0.00     0.148 A 
ATOM     67  C   UNL A   1      43.513  25.753  25.294  1.00  0.00     0.002 A 
ATOM     68  C   UNL A   1      42.419  23.856  26.342  1.00  0.00     0.091 A 
ATOM     69  F   UNL A   1      41.298  24.168  28.430  1.00  0.00    -0.205 F 
ATOM     70  C   UNL A   1      43.161  24.406  25.283  1.00  0.00     0.022 A 
BRANCH  68  71
ATOM     71  S   UNL A   1      42.061  22.099  26.252  1.00  0.00     0.127 S 
ATOM     72  O   UNL A   1      40.619  22.103  26.011  1.00  0.00    -0.237 OA
ATOM     73  O   UNL A   1      42.870  21.680  25.108  1.00  0.00    -0.237 OA
ATOM     74  O   UNL A   1      42.469  21.536  27.532  1.00  0.00    -0.744 OA
ENDBRANCH  68  71
ENDBRANCH  50  64
BRANCH  51  75
ATOM     75  C   UNL A   1      40.154  31.832  35.226  1.00  0.00     0.023 A 
ATOM     76  C   UNL A   1      40.804  33.071  35.375  1.00  0.00     0.012 A 
ATOM     77  C   UNL A   1      39.161  31.454  36.149  1.00  0.00     0.148 A 
ATOM     78  C   UNL A   1      40.474  33.920  36.432  1.00  0.00     0.002 A 
ATOM     79  C   UNL A   1      38.811  32.320  37.178  1.00  0.00     0.091 A 
ATOM     80  F   UNL A   1      38.564  30.264  35.987  1.00  0.00    -0.205 F 
ATOM     81  C   UNL A   1      39.472  33.549  37.327  1.00  0.00     0.022 A 
BRANCH  79  82
ATOM     82  S   UNL A   1      37.470  31.976  38.324  1.00  0.00     0.127 S 
ATOM     83  O   UNL A   1      38.088  32.294  39.610  1.00  0.00    -0.237 OA
ATOM     84  O   UNL A   1      36.449  32.924  37.880  1.00  0.00    -0.237 OA
ATOM     85  O   UNL A   1      37.127  30.576  38.124  1.00  0.00    -0.744 OA
ENDBRANCH  79  82
ENDBRANCH  51  75
BRANCH  63  86
ATOM     86  C   UNL A   1      45.294  27.276  33.873  1.00  0.00     0.023 A 
ATOM     87  C   UNL A   1      46.485  28.026  33.889  1.00  0.00     0.012 A 
ATOM     88  C   UNL A   1      45.165  26.150  34.709  1.00  0.00     0.148 A 
ATOM     89  C   UNL A   1      47.537  27.659  34.727  1.00  0.00     0.002 A 
ATOM     90  C   UNL A   1      46.204  25.811  35.567  1.00  0.00     0.091 A 
ATOM     91  F   UNL A   1      44.020  25.452  34.668  1.00  0.00    -0.205 F 
ATOM     92  C   UNL A   1      47.392  26.561  35.575  1.00  0.00     0.022 A 
BRANCH  90  93
ATOM     93  S   UNL A   1      46.084  24.466  36.752  1.00  0.00     0.127 S 
ATOM     94  O   UNL A   1      47.386  24.535  37.414  1.00  0.00    -0.237 OA
ATOM     95  O   UNL A   1      44.954  24.883  37.581  1.00  0.00    -0.237 OA
ATOM     96  O   UNL A   1      45.851  23.258  35.970  1.00  0.00    -0.744 OA
ENDBRANCH  90  93
ENDBRANCH  63  86
ENDBRANCH  37  38
ENDBRANCH  30  32
ENDBRANCH  29  30
ENDBRANCH  28  29
ENDBRANCH   1  28
TORSDOF 20
ENDMDL
