MODEL 1
REMARK VINA RESULT:     -11.0      0.000      0.000
REMARK SMILES CCc1nn(-c2ccncn2)c(Cl)c1C(=O)OCCOCCOC(=O)c1ccc(-c2c3nc(c(-c4cccc(S(=O)(=O)[O-])c4F)c4ccc([nH]4)c(-c4cccc(S(=O)(=O)[O-])c4F)c4nc(c(-c5cccc(S(=O)(=O)[O-])c5F)c5ccc2[nH]5)C=C4)C=C3)cc1
REMARK SMILES IDX 21 1 20 2 19 3 18 4 17 5 15 6 16 7 14 8 3 9 4 10 5 11 12 12
REMARK SMILES IDX 13 13 2 14 1 15 6 16 7 17 11 18 8 19 10 20 9 21 22 22 23 23
REMARK SMILES IDX 24 24 25 25 26 26 27 27 88 28 28 29 87 30 29 31 30 32 31 33
REMARK SMILES IDX 81 34 32 35 86 36 80 37 82 38 33 39 85 40 79 41 78 42 34 44
REMARK SMILES IDX 66 45 46 46 65 47 47 48 50 49 64 50 83 51 48 52 49 53 63 55
REMARK SMILES IDX 84 56 51 57 35 58 36 59 44 60 37 61 39 62 45 63 38 64 40 65
REMARK SMILES IDX 41 66 42 67 43 68 67 69 68 70 76 71 69 72 71 73 77 74 70 75
REMARK SMILES IDX 72 76 73 77 74 78 75 79 52 80 53 81 61 82 54 83 56 84 62 85
REMARK SMILES IDX 55 86 57 87 58 88 59 89 60 90
REMARK H PARENT 82 43 50 54
REMARK Flexibility Score: inf
ROOT
ATOM      1  C   UNL A   1      32.209  29.372  27.290  1.00  0.00     0.202 C 
ENDROOT
BRANCH   1   2
ATOM      2  O   UNL A   1      32.324  28.301  26.359  1.00  0.00    -0.374 OA
BRANCH   2   3
ATOM      3  C   UNL A   1      33.476  27.457  26.365  1.00  0.00     0.202 C 
BRANCH   3   4
ATOM      4  C   UNL A   1      33.417  26.137  25.594  1.00  0.00     0.261 C 
BRANCH   4   5
ATOM      5  O   UNL A   1      34.254  26.157  24.430  1.00  0.00    -0.460 OA
BRANCH   5   6
ATOM      6  C   UNL A   1      33.638  25.757  23.278  1.00  0.00     0.343 C 
ATOM      7  O   UNL A   1      34.058  24.889  22.536  1.00  0.00    -0.246 OA
BRANCH   6   8
ATOM      8  C   UNL A   1      32.340  26.373  23.105  1.00  0.00     0.120 A 
ATOM      9  C   UNL A   1      31.020  25.842  23.105  1.00  0.00     0.079 A 
ATOM     10  N   UNL A   1      30.094  26.809  22.983  1.00  0.00    -0.169 NA
ATOM     11  N   UNL A   1      30.806  27.950  22.790  1.00  0.00    -0.203 N 
ATOM     12  C   UNL A   1      32.154  27.705  22.816  1.00  0.00     0.149 A 
ATOM     13  Cl  UNL A   1      33.293  28.949  22.525  1.00  0.00    -0.061 Cl
BRANCH   9  14
ATOM     14  C   UNL A   1      30.592  24.408  23.215  1.00  0.00     0.056 C 
ATOM     15  C   UNL A   1      30.701  23.836  24.619  1.00  0.00     0.011 C 
ENDBRANCH   9  14
BRANCH  11  16
ATOM     16  C   UNL A   1      30.180  29.217  22.666  1.00  0.00     0.158 A 
ATOM     17  C   UNL A   1      29.978  29.963  23.814  1.00  0.00     0.069 A 
ATOM     18  N   UNL A   1      29.644  29.535  21.465  1.00  0.00    -0.217 NA
ATOM     19  C   UNL A   1      29.168  31.064  23.668  1.00  0.00     0.117 A 
ATOM     20  C   UNL A   1      28.868  30.625  21.452  1.00  0.00     0.224 A 
ATOM     21  N   UNL A   1      28.586  31.409  22.504  1.00  0.00    -0.245 NA
ENDBRANCH  11  16
ENDBRANCH   6   8
ENDBRANCH   5   6
ENDBRANCH   4   5
ENDBRANCH   3   4
ENDBRANCH   2   3
ENDBRANCH   1   2
BRANCH   1  22
ATOM     22  C   UNL A   1      31.918  30.776  26.781  1.00  0.00     0.261 C 
BRANCH  22  23
ATOM     23  O   UNL A   1      33.055  31.612  26.883  1.00  0.00    -0.460 OA
BRANCH  23  24
ATOM     24  C   UNL A   1      32.810  32.775  27.527  1.00  0.00     0.338 C 
ATOM     25  O   UNL A   1      31.853  33.512  27.382  1.00  0.00    -0.246 OA
BRANCH  24  26
ATOM     26  C   UNL A   1      33.969  33.089  28.364  1.00  0.00     0.060 A 
ATOM     27  C   UNL A   1      34.965  33.847  27.748  1.00  0.00     0.016 A 
ATOM     28  C   UNL A   1      34.197  32.340  29.529  1.00  0.00     0.016 A 
ATOM     29  C   UNL A   1      36.262  33.612  28.122  1.00  0.00     0.010 A 
ATOM     30  C   UNL A   1      35.493  32.099  29.894  1.00  0.00     0.010 A 
ATOM     31  C   UNL A   1      36.499  32.649  29.109  1.00  0.00    -0.014 A 
BRANCH  31  32
ATOM     32  C   UNL A   1      37.865  32.269  29.358  1.00  0.00     0.031 A 
ATOM     33  C   UNL A   1      38.096  30.852  29.016  1.00  0.00     0.074 A 
ATOM     34  C   UNL A   1      38.780  33.167  29.768  1.00  0.00     0.049 A 
ATOM     35  N   UNL A   1      38.259  29.866  29.833  1.00  0.00    -0.248 NA
ATOM     36  C   UNL A   1      37.860  30.446  27.620  1.00  0.00     0.031 C 
ATOM     37  C   UNL A   1      38.661  34.629  29.834  1.00  0.00     0.029 A 
ATOM     38  N   UNL A   1      40.084  32.962  30.077  1.00  0.00    -0.354 N 
ATOM     39  C   UNL A   1      38.417  28.753  29.014  1.00  0.00     0.074 A 
ATOM     40  C   UNL A   1      37.895  29.119  27.727  1.00  0.00     0.031 C 
ATOM     41  C   UNL A   1      39.901  35.169  29.882  1.00  0.00     0.029 A 
ATOM     42  C   UNL A   1      40.877  34.098  29.978  1.00  0.00     0.049 A 
ATOM     43  H   UNL A   1      40.437  32.084  30.349  1.00  0.00     0.167 HD
ATOM     44  C   UNL A   1      39.258  27.746  29.364  1.00  0.00     0.034 A 
ATOM     45  C   UNL A   1      42.232  34.115  29.865  1.00  0.00     0.034 A 
ATOM     46  C   UNL A   1      39.598  27.814  30.762  1.00  0.00     0.049 A 
ATOM     47  C   UNL A   1      42.721  32.786  30.313  1.00  0.00     0.074 A 
ATOM     48  C   UNL A   1      38.884  27.767  31.942  1.00  0.00     0.029 A 
ATOM     49  N   UNL A   1      40.815  28.378  31.068  1.00  0.00    -0.354 N 
ATOM     50  N   UNL A   1      42.603  32.357  31.539  1.00  0.00    -0.248 NA
ATOM     51  C   UNL A   1      42.887  31.754  29.300  1.00  0.00     0.031 C 
ATOM     52  C   UNL A   1      39.518  28.720  32.790  1.00  0.00     0.029 A 
ATOM     53  C   UNL A   1      40.626  29.239  32.115  1.00  0.00     0.049 A 
ATOM     54  H   UNL A   1      41.668  28.196  30.614  1.00  0.00     0.167 HD
ATOM     55  C   UNL A   1      42.218  31.028  31.402  1.00  0.00     0.074 A 
ATOM     56  C   UNL A   1      42.498  30.689  30.007  1.00  0.00     0.031 C 
ATOM     57  C   UNL A   1      41.423  30.426  32.334  1.00  0.00     0.034 A 
BRANCH  44  58
ATOM     58  C   UNL A   1      40.105  26.966  28.387  1.00  0.00     0.023 A 
ATOM     59  C   UNL A   1      40.125  25.564  28.540  1.00  0.00     0.012 A 
ATOM     60  C   UNL A   1      41.083  27.533  27.535  1.00  0.00     0.148 A 
ATOM     61  C   UNL A   1      41.103  24.775  27.926  1.00  0.00     0.002 A 
ATOM     62  C   UNL A   1      42.003  26.739  26.864  1.00  0.00     0.091 A 
ATOM     63  F   UNL A   1      41.235  28.856  27.464  1.00  0.00    -0.205 F 
ATOM     64  C   UNL A   1      42.039  25.362  27.083  1.00  0.00     0.022 A 
BRANCH  62  65
ATOM     65  S   UNL A   1      43.209  27.445  25.735  1.00  0.00     0.127 S 
ATOM     66  O   UNL A   1      42.345  28.035  24.717  1.00  0.00    -0.237 OA
ATOM     67  O   UNL A   1      43.898  28.403  26.599  1.00  0.00    -0.237 OA
ATOM     68  O   UNL A   1      44.041  26.330  25.299  1.00  0.00    -0.744 OA
ENDBRANCH  62  65
ENDBRANCH  44  58
BRANCH  45  69
ATOM     69  C   UNL A   1      43.087  35.031  29.067  1.00  0.00     0.023 A 
ATOM     70  C   UNL A   1      43.218  34.840  27.677  1.00  0.00     0.012 A 
ATOM     71  C   UNL A   1      43.546  36.251  29.614  1.00  0.00     0.148 A 
ATOM     72  C   UNL A   1      43.767  35.838  26.858  1.00  0.00     0.002 A 
ATOM     73  C   UNL A   1      44.098  37.235  28.799  1.00  0.00     0.091 A 
ATOM     74  F   UNL A   1      43.354  36.484  30.918  1.00  0.00    -0.205 F 
ATOM     75  C   UNL A   1      44.201  37.037  27.417  1.00  0.00     0.022 A 
BRANCH  73  76
ATOM     76  S   UNL A   1      44.652  38.818  29.449  1.00  0.00     0.127 S 
ATOM     77  O   UNL A   1      45.262  39.432  28.268  1.00  0.00    -0.237 OA
ATOM     78  O   UNL A   1      43.395  39.426  29.876  1.00  0.00    -0.237 OA
ATOM     79  O   UNL A   1      45.595  38.503  30.516  1.00  0.00    -0.744 OA
ENDBRANCH  73  76
ENDBRANCH  45  69
BRANCH  57  80
ATOM     80  C   UNL A   1      41.164  31.151  33.629  1.00  0.00     0.023 A 
ATOM     81  C   UNL A   1      42.096  31.182  34.688  1.00  0.00     0.012 A 
ATOM     82  C   UNL A   1      40.053  32.007  33.672  1.00  0.00     0.148 A 
ATOM     83  C   UNL A   1      41.916  32.052  35.769  1.00  0.00     0.002 A 
ATOM     84  C   UNL A   1      39.906  32.905  34.718  1.00  0.00     0.091 A 
ATOM     85  F   UNL A   1      39.184  31.960  32.650  1.00  0.00    -0.205 F 
ATOM     86  C   UNL A   1      40.830  32.927  35.775  1.00  0.00     0.022 A 
BRANCH  84  87
ATOM     87  S   UNL A   1      38.618  34.152  34.701  1.00  0.00     0.127 S 
ATOM     88  O   UNL A   1      37.828  33.789  35.876  1.00  0.00    -0.237 OA
ATOM     89  O   UNL A   1      39.385  35.391  34.837  1.00  0.00    -0.237 OA
ATOM     90  O   UNL A   1      37.934  34.011  33.422  1.00  0.00    -0.744 OA
ENDBRANCH  84  87
ENDBRANCH  57  80
ENDBRANCH  31  32
ENDBRANCH  24  26
ENDBRANCH  23  24
ENDBRANCH  22  23
ENDBRANCH   1  22
TORSDOF 19
ENDMDL
MODEL 2
REMARK VINA RESULT:     -10.9      5.209     10.082
REMARK SMILES CCc1nn(-c2ccncn2)c(Cl)c1C(=O)OCCOCCOC(=O)c1ccc(-c2c3nc(c(-c4cccc(S(=O)(=O)[O-])c4F)c4ccc([nH]4)c(-c4cccc(S(=O)(=O)[O-])c4F)c4nc(c(-c5cccc(S(=O)(=O)[O-])c5F)c5ccc2[nH]5)C=C4)C=C3)cc1
REMARK SMILES IDX 21 1 20 2 19 3 18 4 17 5 15 6 16 7 14 8 3 9 4 10 5 11 12 12
REMARK SMILES IDX 13 13 2 14 1 15 6 16 7 17 11 18 8 19 10 20 9 21 22 22 23 23
REMARK SMILES IDX 24 24 25 25 26 26 27 27 88 28 28 29 87 30 29 31 30 32 31 33
REMARK SMILES IDX 81 34 32 35 86 36 80 37 82 38 33 39 85 40 79 41 78 42 34 44
REMARK SMILES IDX 66 45 46 46 65 47 47 48 50 49 64 50 83 51 48 52 49 53 63 55
REMARK SMILES IDX 84 56 51 57 35 58 36 59 44 60 37 61 39 62 45 63 38 64 40 65
REMARK SMILES IDX 41 66 42 67 43 68 67 69 68 70 76 71 69 72 71 73 77 74 70 75
REMARK SMILES IDX 72 76 73 77 74 78 75 79 52 80 53 81 61 82 54 83 56 84 62 85
REMARK SMILES IDX 55 86 57 87 58 88 59 89 60 90
REMARK H PARENT 82 43 50 54
REMARK Flexibility Score: inf
ROOT
ATOM      1  C   UNL A   1      36.894  21.141  24.515  1.00  0.00     0.202 C 
ENDROOT
BRANCH   1   2
ATOM      2  O   UNL A   1      37.294  22.460  24.160  1.00  0.00    -0.374 OA
BRANCH   2   3
ATOM      3  C   UNL A   1      36.859  23.582  24.929  1.00  0.00     0.202 C 
BRANCH   3   4
ATOM      4  C   UNL A   1      35.453  24.134  24.682  1.00  0.00     0.261 C 
BRANCH   4   5
ATOM      5  O   UNL A   1      34.713  24.283  25.901  1.00  0.00    -0.460 OA
BRANCH   5   6
ATOM      6  C   UNL A   1      33.372  24.045  25.786  1.00  0.00     0.343 C 
ATOM      7  O   UNL A   1      32.503  24.852  26.056  1.00  0.00    -0.246 OA
BRANCH   6   8
ATOM      8  C   UNL A   1      33.091  22.770  25.161  1.00  0.00     0.120 A 
ATOM      9  C   UNL A   1      32.475  22.426  23.926  1.00  0.00     0.079 A 
ATOM     10  N   UNL A   1      32.494  21.098  23.714  1.00  0.00    -0.169 NA
ATOM     11  N   UNL A   1      33.016  20.571  24.852  1.00  0.00    -0.203 N 
ATOM     12  C   UNL A   1      33.340  21.553  25.751  1.00  0.00     0.149 A 
ATOM     13  Cl  UNL A   1      33.950  21.174  27.304  1.00  0.00    -0.061 Cl
BRANCH   9  14
ATOM     14  C   UNL A   1      31.845  23.334  22.912  1.00  0.00     0.056 C 
ATOM     15  C   UNL A   1      30.556  23.988  23.384  1.00  0.00     0.011 C 
ENDBRANCH   9  14
BRANCH  11  16
ATOM     16  C   UNL A   1      33.248  19.179  25.001  1.00  0.00     0.158 A 
ATOM     17  C   UNL A   1      34.418  18.652  24.482  1.00  0.00     0.069 A 
ATOM     18  N   UNL A   1      32.229  18.421  25.465  1.00  0.00    -0.217 NA
ATOM     19  C   UNL A   1      34.482  17.279  24.449  1.00  0.00     0.117 A 
ATOM     20  C   UNL A   1      32.406  17.099  25.372  1.00  0.00     0.224 A 
ATOM     21  N   UNL A   1      33.485  16.478  24.869  1.00  0.00    -0.245 NA
ENDBRANCH  11  16
ENDBRANCH   6   8
ENDBRANCH   5   6
ENDBRANCH   4   5
ENDBRANCH   3   4
ENDBRANCH   2   3
ENDBRANCH   1   2
BRANCH   1  22
ATOM     22  C   UNL A   1      37.900  20.207  25.170  1.00  0.00     0.261 C 
BRANCH  22  23
ATOM     23  O   UNL A   1      39.032  20.911  25.643  1.00  0.00    -0.460 OA
BRANCH  23  24
ATOM     24  C   UNL A   1      40.135  20.138  25.762  1.00  0.00     0.338 C 
ATOM     25  O   UNL A   1      40.239  18.955  25.498  1.00  0.00    -0.246 OA
BRANCH  24  26
ATOM     26  C   UNL A   1      41.188  20.935  26.394  1.00  0.00     0.060 A 
ATOM     27  C   UNL A   1      41.271  20.824  27.782  1.00  0.00     0.016 A 
ATOM     28  C   UNL A   1      41.764  21.998  25.681  1.00  0.00     0.016 A 
ATOM     29  C   UNL A   1      41.666  21.933  28.483  1.00  0.00     0.010 A 
ATOM     30  C   UNL A   1      42.148  23.108  26.383  1.00  0.00     0.010 A 
ATOM     31  C   UNL A   1      41.981  23.090  27.763  1.00  0.00    -0.014 A 
BRANCH  31  32
ATOM     32  C   UNL A   1      42.206  24.301  28.508  1.00  0.00     0.031 A 
ATOM     33  C   UNL A   1      41.121  25.276  28.284  1.00  0.00     0.074 A 
ATOM     34  C   UNL A   1      43.249  24.424  29.350  1.00  0.00     0.049 A 
ATOM     35  N   UNL A   1      41.173  26.358  27.584  1.00  0.00    -0.248 NA
ATOM     36  C   UNL A   1      39.757  24.869  28.664  1.00  0.00     0.031 C 
ATOM     37  C   UNL A   1      44.173  23.384  29.819  1.00  0.00     0.029 A 
ATOM     38  N   UNL A   1      43.615  25.500  30.088  1.00  0.00    -0.354 N 
ATOM     39  C   UNL A   1      39.895  26.899  27.675  1.00  0.00     0.074 A 
ATOM     40  C   UNL A   1      39.032  25.831  28.096  1.00  0.00     0.031 C 
ATOM     41  C   UNL A   1      44.783  23.815  30.948  1.00  0.00     0.029 A 
ATOM     42  C   UNL A   1      44.391  25.191  31.198  1.00  0.00     0.049 A 
ATOM     43  H   UNL A   1      43.353  26.421  29.857  1.00  0.00     0.167 HD
ATOM     44  C   UNL A   1      39.710  28.244  27.718  1.00  0.00     0.034 A 
ATOM     45  C   UNL A   1      44.580  25.987  32.284  1.00  0.00     0.034 A 
ATOM     46  C   UNL A   1      40.888  28.946  27.277  1.00  0.00     0.049 A 
ATOM     47  C   UNL A   1      44.204  27.367  31.881  1.00  0.00     0.074 A 
ATOM     48  C   UNL A   1      41.623  28.980  26.110  1.00  0.00     0.029 A 
ATOM     49  N   UNL A   1      41.706  29.445  28.264  1.00  0.00    -0.354 N 
ATOM     50  N   UNL A   1      44.856  28.052  30.982  1.00  0.00    -0.248 NA
ATOM     51  C   UNL A   1      42.828  27.783  32.111  1.00  0.00     0.031 C 
ATOM     52  C   UNL A   1      42.980  29.057  26.535  1.00  0.00     0.029 A 
ATOM     53  C   UNL A   1      42.998  29.143  27.930  1.00  0.00     0.049 A 
ATOM     54  H   UNL A   1      41.414  29.931  29.068  1.00  0.00     0.167 HD
ATOM     55  C   UNL A   1      43.861  28.658  30.224  1.00  0.00     0.074 A 
ATOM     56  C   UNL A   1      42.640  28.530  31.020  1.00  0.00     0.031 C 
ATOM     57  C   UNL A   1      44.050  28.924  28.899  1.00  0.00     0.034 A 
BRANCH  44  58
ATOM     58  C   UNL A   1      38.650  28.931  28.545  1.00  0.00     0.023 A 
ATOM     59  C   UNL A   1      37.825  29.860  27.877  1.00  0.00     0.012 A 
ATOM     60  C   UNL A   1      38.605  28.933  29.959  1.00  0.00     0.148 A 
ATOM     61  C   UNL A   1      37.044  30.783  28.581  1.00  0.00     0.002 A 
ATOM     62  C   UNL A   1      37.769  29.797  30.653  1.00  0.00     0.091 A 
ATOM     63  F   UNL A   1      39.469  28.202  30.666  1.00  0.00    -0.205 F 
ATOM     64  C   UNL A   1      37.012  30.748  29.969  1.00  0.00     0.022 A 
BRANCH  62  65
ATOM     65  S   UNL A   1      37.663  29.766  32.447  1.00  0.00     0.127 S 
ATOM     66  O   UNL A   1      38.966  30.304  32.826  1.00  0.00    -0.237 OA
ATOM     67  O   UNL A   1      36.527  30.654  32.691  1.00  0.00    -0.237 OA
ATOM     68  O   UNL A   1      37.417  28.373  32.802  1.00  0.00    -0.744 OA
ENDBRANCH  62  65
ENDBRANCH  44  58
BRANCH  45  69
ATOM     69  C   UNL A   1      44.698  25.599  33.713  1.00  0.00     0.023 A 
ATOM     70  C   UNL A   1      43.591  25.045  34.386  1.00  0.00     0.012 A 
ATOM     71  C   UNL A   1      45.964  25.508  34.335  1.00  0.00     0.148 A 
ATOM     72  C   UNL A   1      43.743  24.405  35.625  1.00  0.00     0.002 A 
ATOM     73  C   UNL A   1      46.109  24.879  35.568  1.00  0.00     0.091 A 
ATOM     74  F   UNL A   1      47.039  25.953  33.673  1.00  0.00    -0.205 F 
ATOM     75  C   UNL A   1      45.002  24.316  36.213  1.00  0.00     0.022 A 
BRANCH  73  76
ATOM     76  S   UNL A   1      47.709  24.703  36.371  1.00  0.00     0.127 S 
ATOM     77  O   UNL A   1      47.481  25.381  37.648  1.00  0.00    -0.237 OA
ATOM     78  O   UNL A   1      47.844  23.252  36.462  1.00  0.00    -0.237 OA
ATOM     79  O   UNL A   1      48.668  25.372  35.500  1.00  0.00    -0.744 OA
ENDBRANCH  73  76
ENDBRANCH  45  69
BRANCH  57  80
ATOM     80  C   UNL A   1      45.435  28.764  28.328  1.00  0.00     0.023 A 
ATOM     81  C   UNL A   1      46.450  29.728  28.503  1.00  0.00     0.012 A 
ATOM     82  C   UNL A   1      45.771  27.506  27.806  1.00  0.00     0.148 A 
ATOM     83  C   UNL A   1      47.775  29.437  28.160  1.00  0.00     0.002 A 
ATOM     84  C   UNL A   1      47.093  27.203  27.517  1.00  0.00     0.091 A 
ATOM     85  F   UNL A   1      44.788  26.606  27.653  1.00  0.00    -0.205 F 
ATOM     86  C   UNL A   1      48.099  28.168  27.684  1.00  0.00     0.022 A 
BRANCH  84  87
ATOM     87  S   UNL A   1      47.587  25.544  27.048  1.00  0.00     0.127 S 
ATOM     88  O   UNL A   1      46.800  25.323  25.837  1.00  0.00    -0.237 OA
ATOM     89  O   UNL A   1      49.026  25.702  26.825  1.00  0.00    -0.237 OA
ATOM     90  O   UNL A   1      47.250  24.686  28.178  1.00  0.00    -0.744 OA
ENDBRANCH  84  87
ENDBRANCH  57  80
ENDBRANCH  31  32
ENDBRANCH  24  26
ENDBRANCH  23  24
ENDBRANCH  22  23
ENDBRANCH   1  22
TORSDOF 19
ENDMDL
MODEL 3
REMARK VINA RESULT:     -10.9      4.590      9.222
REMARK SMILES CCc1nn(-c2ccncn2)c(Cl)c1C(=O)OCCOCCOC(=O)c1ccc(-c2c3nc(c(-c4cccc(S(=O)(=O)[O-])c4F)c4ccc([nH]4)c(-c4cccc(S(=O)(=O)[O-])c4F)c4nc(c(-c5cccc(S(=O)(=O)[O-])c5F)c5ccc2[nH]5)C=C4)C=C3)cc1
REMARK SMILES IDX 21 1 20 2 19 3 18 4 17 5 15 6 16 7 14 8 3 9 4 10 5 11 12 12
REMARK SMILES IDX 13 13 2 14 1 15 6 16 7 17 11 18 8 19 10 20 9 21 22 22 23 23
REMARK SMILES IDX 24 24 25 25 26 26 27 27 88 28 28 29 87 30 29 31 30 32 31 33
REMARK SMILES IDX 81 34 32 35 86 36 80 37 82 38 33 39 85 40 79 41 78 42 34 44
REMARK SMILES IDX 66 45 46 46 65 47 47 48 50 49 64 50 83 51 48 52 49 53 63 55
REMARK SMILES IDX 84 56 51 57 35 58 36 59 44 60 37 61 39 62 45 63 38 64 40 65
REMARK SMILES IDX 41 66 42 67 43 68 67 69 68 70 76 71 69 72 71 73 77 74 70 75
REMARK SMILES IDX 72 76 73 77 74 78 75 79 52 80 53 81 61 82 54 83 56 84 62 85
REMARK SMILES IDX 55 86 57 87 58 88 59 89 60 90
REMARK H PARENT 82 43 50 54
REMARK Flexibility Score: inf
ROOT
ATOM      1  C   UNL A   1      36.760  21.137  24.890  1.00  0.00     0.202 C 
ENDROOT
BRANCH   1   2
ATOM      2  O   UNL A   1      36.925  22.539  25.073  1.00  0.00    -0.374 OA
BRANCH   2   3
ATOM      3  C   UNL A   1      35.886  23.445  24.699  1.00  0.00     0.202 C 
BRANCH   3   4
ATOM      4  C   UNL A   1      35.141  23.198  23.385  1.00  0.00     0.261 C 
BRANCH   4   5
ATOM      5  O   UNL A   1      34.529  24.393  22.882  1.00  0.00    -0.460 OA
BRANCH   5   6
ATOM      6  C   UNL A   1      33.173  24.448  23.039  1.00  0.00     0.343 C 
ATOM      7  O   UNL A   1      32.379  23.753  22.434  1.00  0.00    -0.246 OA
BRANCH   6   8
ATOM      8  C   UNL A   1      32.780  25.324  24.122  1.00  0.00     0.120 A 
ATOM      9  C   UNL A   1      32.076  25.089  25.336  1.00  0.00     0.079 A 
ATOM     10  N   UNL A   1      32.001  26.199  26.091  1.00  0.00    -0.169 NA
ATOM     11  N   UNL A   1      32.553  27.178  25.327  1.00  0.00    -0.203 N 
ATOM     12  C   UNL A   1      32.986  26.684  24.124  1.00  0.00     0.149 A 
ATOM     13  Cl  UNL A   1      33.655  27.709  22.928  1.00  0.00    -0.061 Cl
BRANCH   9  14
ATOM     14  C   UNL A   1      31.448  23.815  25.818  1.00  0.00     0.056 C 
ATOM     15  C   UNL A   1      32.403  22.633  25.863  1.00  0.00     0.011 C 
ENDBRANCH   9  14
BRANCH  11  16
ATOM     16  C   UNL A   1      32.706  28.507  25.799  1.00  0.00     0.158 A 
ATOM     17  C   UNL A   1      33.717  28.765  26.709  1.00  0.00     0.069 A 
ATOM     18  N   UNL A   1      31.739  29.399  25.485  1.00  0.00    -0.217 NA
ATOM     19  C   UNL A   1      33.673  30.004  27.304  1.00  0.00     0.117 A 
ATOM     20  C   UNL A   1      31.799  30.566  26.135  1.00  0.00     0.224 A 
ATOM     21  N   UNL A   1      32.717  30.917  27.050  1.00  0.00    -0.245 NA
ENDBRANCH  11  16
ENDBRANCH   6   8
ENDBRANCH   5   6
ENDBRANCH   4   5
ENDBRANCH   3   4
ENDBRANCH   2   3
ENDBRANCH   1   2
BRANCH   1  22
ATOM     22  C   UNL A   1      37.922  20.203  25.193  1.00  0.00     0.261 C 
BRANCH  22  23
ATOM     23  O   UNL A   1      39.081  20.922  25.571  1.00  0.00    -0.460 OA
BRANCH  23  24
ATOM     24  C   UNL A   1      40.147  20.129  25.823  1.00  0.00     0.338 C 
ATOM     25  O   UNL A   1      40.228  18.926  25.656  1.00  0.00    -0.246 OA
BRANCH  24  26
ATOM     26  C   UNL A   1      41.182  20.941  26.466  1.00  0.00     0.060 A 
ATOM     27  C   UNL A   1      41.208  20.884  27.859  1.00  0.00     0.016 A 
ATOM     28  C   UNL A   1      41.797  21.970  25.736  1.00  0.00     0.016 A 
ATOM     29  C   UNL A   1      41.586  22.017  28.531  1.00  0.00     0.010 A 
ATOM     30  C   UNL A   1      42.164  23.103  26.409  1.00  0.00     0.010 A 
ATOM     31  C   UNL A   1      41.941  23.142  27.780  1.00  0.00    -0.014 A 
BRANCH  31  32
ATOM     32  C   UNL A   1      42.148  24.380  28.486  1.00  0.00     0.031 A 
ATOM     33  C   UNL A   1      41.059  25.338  28.215  1.00  0.00     0.074 A 
ATOM     34  C   UNL A   1      43.180  24.539  29.336  1.00  0.00     0.049 A 
ATOM     35  N   UNL A   1      41.113  26.396  27.478  1.00  0.00    -0.248 NA
ATOM     36  C   UNL A   1      39.694  24.934  28.592  1.00  0.00     0.031 C 
ATOM     37  C   UNL A   1      44.105  23.523  29.851  1.00  0.00     0.029 A 
ATOM     38  N   UNL A   1      43.529  25.643  30.040  1.00  0.00    -0.354 N 
ATOM     39  C   UNL A   1      39.829  26.930  27.535  1.00  0.00     0.074 A 
ATOM     40  C   UNL A   1      38.968  25.871  27.983  1.00  0.00     0.031 C 
ATOM     41  C   UNL A   1      44.698  23.997  30.972  1.00  0.00     0.029 A 
ATOM     42  C   UNL A   1      44.294  25.377  31.170  1.00  0.00     0.049 A 
ATOM     43  H   UNL A   1      43.264  26.553  29.774  1.00  0.00     0.167 HD
ATOM     44  C   UNL A   1      39.635  28.274  27.529  1.00  0.00     0.034 A 
ATOM     45  C   UNL A   1      44.464  26.212  32.230  1.00  0.00     0.034 A 
ATOM     46  C   UNL A   1      40.813  28.969  27.079  1.00  0.00     0.049 A 
ATOM     47  C   UNL A   1      44.082  27.575  31.775  1.00  0.00     0.074 A 
ATOM     48  C   UNL A   1      41.562  28.968  25.920  1.00  0.00     0.029 A 
ATOM     49  N   UNL A   1      41.615  29.508  28.058  1.00  0.00    -0.354 N 
ATOM     50  N   UNL A   1      44.740  28.233  30.861  1.00  0.00    -0.248 NA
ATOM     51  C   UNL A   1      42.701  27.988  31.974  1.00  0.00     0.031 C 
ATOM     52  C   UNL A   1      42.914  29.070  26.359  1.00  0.00     0.029 A 
ATOM     53  C   UNL A   1      42.914  29.204  27.750  1.00  0.00     0.049 A 
ATOM     54  H   UNL A   1      41.310  30.019  28.841  1.00  0.00     0.167 HD
ATOM     55  C   UNL A   1      43.751  28.805  30.070  1.00  0.00     0.074 A 
ATOM     56  C   UNL A   1      42.521  28.696  30.855  1.00  0.00     0.031 C 
ATOM     57  C   UNL A   1      43.954  29.026  28.739  1.00  0.00     0.034 A 
BRANCH  44  58
ATOM     58  C   UNL A   1      38.559  28.981  28.319  1.00  0.00     0.023 A 
ATOM     59  C   UNL A   1      37.764  29.912  27.619  1.00  0.00     0.012 A 
ATOM     60  C   UNL A   1      38.475  28.999  29.732  1.00  0.00     0.148 A 
ATOM     61  C   UNL A   1      36.974  30.851  28.291  1.00  0.00     0.002 A 
ATOM     62  C   UNL A   1      37.630  29.879  30.393  1.00  0.00     0.091 A 
ATOM     63  F   UNL A   1      39.310  28.266  30.470  1.00  0.00    -0.205 F 
ATOM     64  C   UNL A   1      36.903  30.831  29.678  1.00  0.00     0.022 A 
BRANCH  62  65
ATOM     65  S   UNL A   1      37.473  29.868  32.183  1.00  0.00     0.127 S 
ATOM     66  O   UNL A   1      38.749  30.448  32.591  1.00  0.00    -0.237 OA
ATOM     67  O   UNL A   1      36.306  30.726  32.383  1.00  0.00    -0.237 OA
ATOM     68  O   UNL A   1      37.257  28.474  32.551  1.00  0.00    -0.744 OA
ENDBRANCH  62  65
ENDBRANCH  44  58
BRANCH  45  69
ATOM     69  C   UNL A   1      44.566  25.874  33.673  1.00  0.00     0.023 A 
ATOM     70  C   UNL A   1      45.831  25.772  34.285  1.00  0.00     0.012 A 
ATOM     71  C   UNL A   1      43.428  25.930  34.509  1.00  0.00     0.148 A 
ATOM     72  C   UNL A   1      45.959  25.747  35.682  1.00  0.00     0.002 A 
ATOM     73  C   UNL A   1      43.559  25.896  35.895  1.00  0.00     0.091 A 
ATOM     74  F   UNL A   1      42.225  26.110  33.949  1.00  0.00    -0.205 F 
ATOM     75  C   UNL A   1      44.825  25.815  36.486  1.00  0.00     0.022 A 
BRANCH  73  76
ATOM     76  S   UNL A   1      42.139  26.009  36.994  1.00  0.00     0.127 S 
ATOM     77  O   UNL A   1      42.782  26.190  38.297  1.00  0.00    -0.237 OA
ATOM     78  O   UNL A   1      41.452  27.190  36.480  1.00  0.00    -0.237 OA
ATOM     79  O   UNL A   1      41.422  24.748  36.850  1.00  0.00    -0.744 OA
ENDBRANCH  73  76
ENDBRANCH  45  69
BRANCH  57  80
ATOM     80  C   UNL A   1      45.347  28.857  28.191  1.00  0.00     0.023 A 
ATOM     81  C   UNL A   1      46.351  29.839  28.337  1.00  0.00     0.012 A 
ATOM     82  C   UNL A   1      45.702  27.582  27.725  1.00  0.00     0.148 A 
ATOM     83  C   UNL A   1      47.683  29.547  28.021  1.00  0.00     0.002 A 
ATOM     84  C   UNL A   1      47.030  27.281  27.465  1.00  0.00     0.091 A 
ATOM     85  F   UNL A   1      44.730  26.666  27.600  1.00  0.00    -0.205 F 
ATOM     86  C   UNL A   1      48.025  28.262  27.602  1.00  0.00     0.022 A 
BRANCH  84  87
ATOM     87  S   UNL A   1      47.547  25.610  27.071  1.00  0.00     0.127 S 
ATOM     88  O   UNL A   1      46.909  25.391  25.775  1.00  0.00    -0.237 OA
ATOM     89  O   UNL A   1      49.004  25.739  27.024  1.00  0.00    -0.237 OA
ATOM     90  O   UNL A   1      47.058  24.768  28.157  1.00  0.00    -0.744 OA
ENDBRANCH  84  87
ENDBRANCH  57  80
ENDBRANCH  31  32
ENDBRANCH  24  26
ENDBRANCH  23  24
ENDBRANCH  22  23
ENDBRANCH   1  22
TORSDOF 19
ENDMDL
