MODEL 1
REMARK VINA RESULT:     -10.9      0.000      0.000
REMARK SMILES Nn1c(Cc2ccc(F)c(F)c2)nnc1SCC(=O)OCCOCCOC(=O)c1ccc(-c2c3nc(c(-c4cccc(S(=O)(=O)[O-])c4F)c4ccc([nH]4)c(-c4cccc(S(=O)(=O)[O-])c4F)c4nc(c(-c5cccc(S(=O)(=O)[O-])c5F)c5ccc2[nH]5)C=C4)C=C3)cc1
REMARK SMILES IDX 22 1 21 2 20 3 18 4 19 5 17 6 16 7 15 8 2 9 3 10 13 11 14 12
REMARK SMILES IDX 1 13 4 16 5 17 6 18 12 19 7 20 10 21 8 22 11 23 9 24 23 25
REMARK SMILES IDX 24 26 25 27 26 28 27 29 28 30 29 31 30 32 91 33 31 34 90 35
REMARK SMILES IDX 32 36 33 37 34 38 84 39 35 40 89 41 83 42 85 43 36 44 88 45
REMARK SMILES IDX 82 46 81 47 37 49 69 50 49 51 68 52 50 53 53 54 67 55 86 56
REMARK SMILES IDX 51 57 52 58 66 60 87 61 54 62 38 63 39 64 47 65 40 66 42 67
REMARK SMILES IDX 48 68 41 69 43 70 44 71 45 72 46 73 70 74 71 75 79 76 72 77
REMARK SMILES IDX 74 78 80 79 73 80 75 81 76 82 77 83 78 84 55 85 56 86 64 87
REMARK SMILES IDX 57 88 59 89 65 90 58 91 60 92 61 93 62 94 63 95
REMARK H PARENT 1 14 1 15 85 48 53 59
REMARK Flexibility Score: inf
ROOT
ATOM      1  C   UNL A   1      35.240  23.408  25.164  1.00  0.00     0.202 C 
ENDROOT
BRANCH   1   2
ATOM      2  C   UNL A   1      34.218  23.623  26.291  1.00  0.00     0.261 C 
BRANCH   2   3
ATOM      3  O   UNL A   1      33.025  22.811  26.198  1.00  0.00    -0.463 OA
BRANCH   3   4
ATOM      4  C   UNL A   1      31.834  23.465  26.276  1.00  0.00     0.316 C 
ATOM      5  O   UNL A   1      31.441  24.067  27.273  1.00  0.00    -0.251 OA
BRANCH   4   6
ATOM      6  C   UNL A   1      30.988  23.402  25.025  1.00  0.00     0.200 C 
BRANCH   6   7
ATOM      7  S   UNL A   1      31.851  23.017  23.512  1.00  0.00    -0.073 SA
BRANCH   7   8
ATOM      8  C   UNL A   1      32.369  24.444  22.679  1.00  0.00     0.210 A 
ATOM      9  N   UNL A   1      31.833  25.719  22.643  1.00  0.00    -0.221 N 
ATOM     10  C   UNL A   1      32.889  26.536  22.251  1.00  0.00     0.157 A 
ATOM     11  N   UNL A   1      33.857  25.767  21.793  1.00  0.00    -0.132 NA
ATOM     12  N   UNL A   1      33.542  24.469  22.081  1.00  0.00    -0.121 NA
BRANCH   9  13
ATOM     13  N   UNL A   1      30.486  26.143  22.890  1.00  0.00    -0.336 N 
ATOM     14  H   UNL A   1      30.315  26.960  23.411  1.00  0.00     0.178 HD
ATOM     15  H   UNL A   1      29.732  25.617  22.538  1.00  0.00     0.178 HD
ENDBRANCH   9  13
BRANCH  10  16
ATOM     16  C   UNL A   1      32.963  28.030  22.378  1.00  0.00     0.115 C 
BRANCH  16  17
ATOM     17  C   UNL A   1      32.868  28.560  23.811  1.00  0.00    -0.037 A 
ATOM     18  C   UNL A   1      31.677  29.115  24.316  1.00  0.00     0.007 A 
ATOM     19  C   UNL A   1      33.967  28.462  24.686  1.00  0.00     0.046 A 
ATOM     20  C   UNL A   1      31.591  29.577  25.637  1.00  0.00     0.043 A 
ATOM     21  C   UNL A   1      33.873  28.926  26.002  1.00  0.00     0.159 A 
ATOM     22  C   UNL A   1      32.692  29.479  26.475  1.00  0.00     0.158 A 
ATOM     23  F   UNL A   1      34.938  28.816  26.810  1.00  0.00    -0.204 F 
ATOM     24  F   UNL A   1      32.600  29.897  27.745  1.00  0.00    -0.204 F 
ENDBRANCH  16  17
ENDBRANCH  10  16
ENDBRANCH   7   8
ENDBRANCH   6   7
ENDBRANCH   4   6
ENDBRANCH   3   4
ENDBRANCH   2   3
ENDBRANCH   1   2
BRANCH   1  25
ATOM     25  O   UNL A   1      35.325  22.110  24.576  1.00  0.00    -0.374 OA
BRANCH  25  26
ATOM     26  C   UNL A   1      35.867  21.069  25.372  1.00  0.00     0.202 C 
BRANCH  26  27
ATOM     27  C   UNL A   1      37.228  20.494  24.991  1.00  0.00     0.261 C 
BRANCH  27  28
ATOM     28  O   UNL A   1      38.297  21.418  25.060  1.00  0.00    -0.460 OA
BRANCH  28  29
ATOM     29  C   UNL A   1      39.213  21.096  25.996  1.00  0.00     0.338 C 
ATOM     30  O   UNL A   1      39.689  19.995  26.246  1.00  0.00    -0.246 OA
BRANCH  29  31
ATOM     31  C   UNL A   1      39.688  22.333  26.594  1.00  0.00     0.060 A 
ATOM     32  C   UNL A   1      39.138  23.527  26.120  1.00  0.00     0.016 A 
ATOM     33  C   UNL A   1      40.686  22.307  27.569  1.00  0.00     0.016 A 
ATOM     34  C   UNL A   1      39.637  24.730  26.590  1.00  0.00     0.010 A 
ATOM     35  C   UNL A   1      41.185  23.514  28.035  1.00  0.00     0.010 A 
ATOM     36  C   UNL A   1      40.690  24.721  27.513  1.00  0.00    -0.014 A 
BRANCH  36  37
ATOM     37  C   UNL A   1      41.404  25.974  27.803  1.00  0.00     0.031 A 
ATOM     38  C   UNL A   1      40.679  27.031  28.580  1.00  0.00     0.074 A 
ATOM     39  C   UNL A   1      42.656  26.150  27.356  1.00  0.00     0.049 A 
ATOM     40  N   UNL A   1      41.064  28.240  28.883  1.00  0.00    -0.248 NA
ATOM     41  C   UNL A   1      39.334  26.683  29.076  1.00  0.00     0.031 C 
ATOM     42  C   UNL A   1      43.429  25.162  26.601  1.00  0.00     0.029 A 
ATOM     43  N   UNL A   1      43.485  27.235  27.444  1.00  0.00    -0.354 N 
ATOM     44  C   UNL A   1      39.999  28.809  29.571  1.00  0.00     0.074 A 
ATOM     45  C   UNL A   1      38.948  27.819  29.635  1.00  0.00     0.031 C 
ATOM     46  C   UNL A   1      44.611  25.702  26.264  1.00  0.00     0.029 A 
ATOM     47  C   UNL A   1      44.660  27.078  26.751  1.00  0.00     0.049 A 
ATOM     48  H   UNL A   1      43.260  28.047  27.953  1.00  0.00     0.167 HD
ATOM     49  C   UNL A   1      39.918  30.045  30.110  1.00  0.00     0.034 A 
ATOM     50  C   UNL A   1      45.645  27.965  26.517  1.00  0.00     0.034 A 
ATOM     51  C   UNL A   1      40.983  31.004  30.042  1.00  0.00     0.049 A 
ATOM     52  C   UNL A   1      45.520  29.344  27.110  1.00  0.00     0.074 A 
ATOM     53  C   UNL A   1      41.033  32.277  30.578  1.00  0.00     0.029 A 
ATOM     54  N   UNL A   1      42.187  30.795  29.384  1.00  0.00    -0.354 N 
ATOM     55  N   UNL A   1      44.552  29.841  27.846  1.00  0.00    -0.248 NA
ATOM     56  C   UNL A   1      46.629  30.276  26.871  1.00  0.00     0.031 C 
ATOM     57  C   UNL A   1      42.260  32.847  30.222  1.00  0.00     0.029 A 
ATOM     58  C   UNL A   1      42.987  31.915  29.496  1.00  0.00     0.049 A 
ATOM     59  H   UNL A   1      42.434  29.969  28.909  1.00  0.00     0.167 HD
ATOM     60  C   UNL A   1      44.956  31.123  28.196  1.00  0.00     0.074 A 
ATOM     61  C   UNL A   1      46.260  31.325  27.595  1.00  0.00     0.031 C 
ATOM     62  C   UNL A   1      44.309  32.054  28.940  1.00  0.00     0.034 A 
BRANCH  49  63
ATOM     63  C   UNL A   1      38.648  30.416  30.827  1.00  0.00     0.023 A 
ATOM     64  C   UNL A   1      38.471  30.045  32.176  1.00  0.00     0.012 A 
ATOM     65  C   UNL A   1      37.646  31.164  30.179  1.00  0.00     0.148 A 
ATOM     66  C   UNL A   1      37.305  30.384  32.859  1.00  0.00     0.002 A 
ATOM     67  C   UNL A   1      36.505  31.538  30.880  1.00  0.00     0.091 A 
ATOM     68  F   UNL A   1      37.819  31.484  28.890  1.00  0.00    -0.205 F 
ATOM     69  C   UNL A   1      36.328  31.139  32.216  1.00  0.00     0.022 A 
BRANCH  67  70
ATOM     70  S   UNL A   1      35.226  32.575  30.165  1.00  0.00     0.127 S 
ATOM     71  O   UNL A   1      34.302  32.724  31.290  1.00  0.00    -0.237 OA
ATOM     72  O   UNL A   1      35.969  33.788  29.822  1.00  0.00    -0.237 OA
ATOM     73  O   UNL A   1      34.703  31.840  29.022  1.00  0.00    -0.744 OA
ENDBRANCH  67  70
ENDBRANCH  49  63
BRANCH  50  74
ATOM     74  C   UNL A   1      46.838  27.564  25.723  1.00  0.00     0.023 A 
ATOM     75  C   UNL A   1      46.853  27.791  24.333  1.00  0.00     0.012 A 
ATOM     76  C   UNL A   1      47.969  26.991  26.337  1.00  0.00     0.148 A 
ATOM     77  C   UNL A   1      47.960  27.427  23.565  1.00  0.00     0.002 A 
ATOM     78  C   UNL A   1      49.088  26.680  25.574  1.00  0.00     0.091 A 
ATOM     79  F   UNL A   1      47.931  26.774  27.660  1.00  0.00    -0.205 F 
ATOM     80  C   UNL A   1      49.079  26.880  24.186  1.00  0.00     0.022 A 
BRANCH  78  81
ATOM     81  S   UNL A   1      50.621  26.096  26.307  1.00  0.00     0.127 S 
ATOM     82  O   UNL A   1      50.941  27.180  27.235  1.00  0.00    -0.237 OA
ATOM     83  O   UNL A   1      50.198  24.847  26.941  1.00  0.00    -0.237 OA
ATOM     84  O   UNL A   1      51.546  25.921  25.197  1.00  0.00    -0.744 OA
ENDBRANCH  78  81
ENDBRANCH  50  74
BRANCH  62  85
ATOM     85  C   UNL A   1      45.019  33.352  29.208  1.00  0.00     0.023 A 
ATOM     86  C   UNL A   1      45.846  33.482  30.339  1.00  0.00     0.012 A 
ATOM     87  C   UNL A   1      44.957  34.397  28.264  1.00  0.00     0.148 A 
ATOM     88  C   UNL A   1      46.589  34.644  30.537  1.00  0.00     0.002 A 
ATOM     89  C   UNL A   1      45.741  35.529  28.442  1.00  0.00     0.091 A 
ATOM     90  F   UNL A   1      44.150  34.252  27.203  1.00  0.00    -0.205 F 
ATOM     91  C   UNL A   1      46.549  35.659  29.583  1.00  0.00     0.022 A 
BRANCH  89  92
ATOM     92  S   UNL A   1      45.834  36.838  27.216  1.00  0.00     0.127 S 
ATOM     93  O   UNL A   1      46.433  36.140  26.081  1.00  0.00    -0.237 OA
ATOM     94  O   UNL A   1      44.426  37.196  27.041  1.00  0.00    -0.237 OA
ATOM     95  O   UNL A   1      46.656  37.887  27.805  1.00  0.00    -0.744 OA
ENDBRANCH  89  92
ENDBRANCH  62  85
ENDBRANCH  36  37
ENDBRANCH  29  31
ENDBRANCH  28  29
ENDBRANCH  27  28
ENDBRANCH  26  27
ENDBRANCH  25  26
ENDBRANCH   1  25
TORSDOF 22
ENDMDL
MODEL 2
REMARK VINA RESULT:     -10.3      5.190      8.363
REMARK SMILES Nn1c(Cc2ccc(F)c(F)c2)nnc1SCC(=O)OCCOCCOC(=O)c1ccc(-c2c3nc(c(-c4cccc(S(=O)(=O)[O-])c4F)c4ccc([nH]4)c(-c4cccc(S(=O)(=O)[O-])c4F)c4nc(c(-c5cccc(S(=O)(=O)[O-])c5F)c5ccc2[nH]5)C=C4)C=C3)cc1
REMARK SMILES IDX 22 1 21 2 20 3 18 4 19 5 17 6 16 7 15 8 2 9 3 10 13 11 14 12
REMARK SMILES IDX 1 13 4 16 5 17 6 18 12 19 7 20 10 21 8 22 11 23 9 24 23 25
REMARK SMILES IDX 24 26 25 27 26 28 27 29 28 30 29 31 30 32 91 33 31 34 90 35
REMARK SMILES IDX 32 36 33 37 34 38 84 39 35 40 89 41 83 42 85 43 36 44 88 45
REMARK SMILES IDX 82 46 81 47 37 49 69 50 49 51 68 52 50 53 53 54 67 55 86 56
REMARK SMILES IDX 51 57 52 58 66 60 87 61 54 62 38 63 39 64 47 65 40 66 42 67
REMARK SMILES IDX 48 68 41 69 43 70 44 71 45 72 46 73 70 74 71 75 79 76 72 77
REMARK SMILES IDX 74 78 80 79 73 80 75 81 76 82 77 83 78 84 55 85 56 86 64 87
REMARK SMILES IDX 57 88 59 89 65 90 58 91 60 92 61 93 62 94 63 95
REMARK H PARENT 1 14 1 15 85 48 53 59
REMARK Flexibility Score: inf
ROOT
ATOM      1  C   UNL A   1      32.277  29.403  27.172  1.00  0.00     0.202 C 
ENDROOT
BRANCH   1   2
ATOM      2  C   UNL A   1      32.526  28.171  26.287  1.00  0.00     0.261 C 
BRANCH   2   3
ATOM      3  O   UNL A   1      33.478  28.369  25.217  1.00  0.00    -0.463 OA
BRANCH   3   4
ATOM      4  C   UNL A   1      32.976  28.783  24.022  1.00  0.00     0.316 C 
ATOM      5  O   UNL A   1      33.643  29.326  23.144  1.00  0.00    -0.251 OA
BRANCH   4   6
ATOM      6  C   UNL A   1      31.498  28.535  23.831  1.00  0.00     0.200 C 
BRANCH   6   7
ATOM      7  S   UNL A   1      31.059  27.307  22.612  1.00  0.00    -0.073 SA
BRANCH   7   8
ATOM      8  C   UNL A   1      31.997  25.863  22.781  1.00  0.00     0.210 A 
ATOM      9  N   UNL A   1      31.615  24.537  22.884  1.00  0.00    -0.221 N 
ATOM     10  C   UNL A   1      32.740  23.812  22.502  1.00  0.00     0.157 A 
ATOM     11  N   UNL A   1      33.772  24.631  22.491  1.00  0.00    -0.132 NA
ATOM     12  N   UNL A   1      33.307  25.907  22.641  1.00  0.00    -0.121 NA
BRANCH   9  13
ATOM     13  N   UNL A   1      30.369  23.986  23.332  1.00  0.00    -0.336 N 
ATOM     14  H   UNL A   1      29.761  23.555  22.689  1.00  0.00     0.178 HD
ATOM     15  H   UNL A   1      30.122  24.038  24.284  1.00  0.00     0.178 HD
ENDBRANCH   9  13
BRANCH  10  16
ATOM     16  C   UNL A   1      32.783  22.366  22.106  1.00  0.00     0.115 C 
BRANCH  16  17
ATOM     17  C   UNL A   1      32.842  21.378  23.274  1.00  0.00    -0.037 A 
ATOM     18  C   UNL A   1      33.338  21.756  24.537  1.00  0.00     0.007 A 
ATOM     19  C   UNL A   1      32.351  20.067  23.130  1.00  0.00     0.046 A 
ATOM     20  C   UNL A   1      33.366  20.853  25.609  1.00  0.00     0.043 A 
ATOM     21  C   UNL A   1      32.384  19.171  24.204  1.00  0.00     0.159 A 
ATOM     22  C   UNL A   1      32.887  19.562  25.436  1.00  0.00     0.158 A 
ATOM     23  F   UNL A   1      31.907  17.929  24.033  1.00  0.00    -0.204 F 
ATOM     24  F   UNL A   1      32.890  18.709  26.470  1.00  0.00    -0.204 F 
ENDBRANCH  16  17
ENDBRANCH  10  16
ENDBRANCH   7   8
ENDBRANCH   6   7
ENDBRANCH   4   6
ENDBRANCH   3   4
ENDBRANCH   2   3
ENDBRANCH   1   2
BRANCH   1  25
ATOM     25  O   UNL A   1      31.170  30.245  26.851  1.00  0.00    -0.374 OA
BRANCH  25  26
ATOM     26  C   UNL A   1      31.454  31.480  26.216  1.00  0.00     0.202 C 
BRANCH  26  27
ATOM     27  C   UNL A   1      31.776  32.690  27.088  1.00  0.00     0.261 C 
BRANCH  27  28
ATOM     28  O   UNL A   1      33.059  33.247  26.872  1.00  0.00    -0.460 OA
BRANCH  28  29
ATOM     29  C   UNL A   1      33.596  33.782  27.986  1.00  0.00     0.338 C 
ATOM     30  O   UNL A   1      33.144  34.674  28.694  1.00  0.00    -0.246 OA
BRANCH  29  31
ATOM     31  C   UNL A   1      34.775  33.004  28.328  1.00  0.00     0.060 A 
ATOM     32  C   UNL A   1      34.578  31.672  28.702  1.00  0.00     0.016 A 
ATOM     33  C   UNL A   1      36.038  33.596  28.318  1.00  0.00     0.016 A 
ATOM     34  C   UNL A   1      35.662  30.927  29.133  1.00  0.00     0.010 A 
ATOM     35  C   UNL A   1      37.121  32.848  28.754  1.00  0.00     0.010 A 
ATOM     36  C   UNL A   1      36.923  31.531  29.201  1.00  0.00    -0.014 A 
BRANCH  36  37
ATOM     37  C   UNL A   1      38.014  30.844  29.911  1.00  0.00     0.031 A 
ATOM     38  C   UNL A   1      38.295  31.249  31.327  1.00  0.00     0.074 A 
ATOM     39  C   UNL A   1      38.735  29.904  29.282  1.00  0.00     0.049 A 
ATOM     40  N   UNL A   1      39.249  30.854  32.122  1.00  0.00    -0.248 NA
ATOM     41  C   UNL A   1      37.382  32.242  31.924  1.00  0.00     0.031 C 
ATOM     42  C   UNL A   1      38.514  29.451  27.907  1.00  0.00     0.029 A 
ATOM     43  N   UNL A   1      39.819  29.187  29.706  1.00  0.00    -0.354 N 
ATOM     44  C   UNL A   1      39.076  31.572  33.299  1.00  0.00     0.074 A 
ATOM     45  C   UNL A   1      37.931  32.435  33.113  1.00  0.00     0.031 C 
ATOM     46  C   UNL A   1      39.460  28.552  27.590  1.00  0.00     0.029 A 
ATOM     47  C   UNL A   1      40.365  28.396  28.725  1.00  0.00     0.049 A 
ATOM     48  H   UNL A   1      40.172  29.233  30.623  1.00  0.00     0.167 HD
ATOM     49  C   UNL A   1      39.804  31.503  34.435  1.00  0.00     0.034 A 
ATOM     50  C   UNL A   1      41.490  27.657  28.743  1.00  0.00     0.034 A 
ATOM     51  C   UNL A   1      40.929  30.627  34.596  1.00  0.00     0.049 A 
ATOM     52  C   UNL A   1      42.297  27.615  30.014  1.00  0.00     0.074 A 
ATOM     53  C   UNL A   1      41.726  30.443  35.710  1.00  0.00     0.029 A 
ATOM     54  N   UNL A   1      41.423  29.793  33.602  1.00  0.00    -0.354 N 
ATOM     55  N   UNL A   1      42.068  28.222  31.156  1.00  0.00    -0.248 NA
ATOM     56  C   UNL A   1      43.495  26.768  30.015  1.00  0.00     0.031 C 
ATOM     57  C   UNL A   1      42.718  29.514  35.381  1.00  0.00     0.029 A 
ATOM     58  C   UNL A   1      42.516  29.094  34.074  1.00  0.00     0.049 A 
ATOM     59  H   UNL A   1      41.048  29.711  32.696  1.00  0.00     0.167 HD
ATOM     60  C   UNL A   1      43.064  27.793  32.024  1.00  0.00     0.074 A 
ATOM     61  C   UNL A   1      43.897  26.872  31.276  1.00  0.00     0.031 C 
ATOM     62  C   UNL A   1      43.280  28.133  33.319  1.00  0.00     0.034 A 
BRANCH  49  63
ATOM     63  C   UNL A   1      39.395  32.384  35.585  1.00  0.00     0.023 A 
ATOM     64  C   UNL A   1      38.547  31.875  36.590  1.00  0.00     0.012 A 
ATOM     65  C   UNL A   1      39.880  33.701  35.693  1.00  0.00     0.148 A 
ATOM     66  C   UNL A   1      38.162  32.672  37.666  1.00  0.00     0.002 A 
ATOM     67  C   UNL A   1      39.529  34.476  36.792  1.00  0.00     0.091 A 
ATOM     68  F   UNL A   1      40.663  34.177  34.714  1.00  0.00    -0.205 F 
ATOM     69  C   UNL A   1      38.660  33.967  37.773  1.00  0.00     0.022 A 
BRANCH  67  70
ATOM     70  S   UNL A   1      40.180  36.128  37.061  1.00  0.00     0.127 S 
ATOM     71  O   UNL A   1      39.374  36.582  38.195  1.00  0.00    -0.237 OA
ATOM     72  O   UNL A   1      41.582  35.857  37.380  1.00  0.00    -0.237 OA
ATOM     73  O   UNL A   1      39.969  36.851  35.816  1.00  0.00    -0.744 OA
ENDBRANCH  67  70
ENDBRANCH  49  63
BRANCH  50  74
ATOM     74  C   UNL A   1      41.890  26.877  27.540  1.00  0.00     0.023 A 
ATOM     75  C   UNL A   1      42.496  27.540  26.455  1.00  0.00     0.012 A 
ATOM     76  C   UNL A   1      41.707  25.482  27.477  1.00  0.00     0.148 A 
ATOM     77  C   UNL A   1      42.883  26.832  25.316  1.00  0.00     0.002 A 
ATOM     78  C   UNL A   1      42.143  24.776  26.362  1.00  0.00     0.091 A 
ATOM     79  F   UNL A   1      41.119  24.871  28.516  1.00  0.00    -0.205 F 
ATOM     80  C   UNL A   1      42.715  25.451  25.274  1.00  0.00     0.022 A 
BRANCH  78  81
ATOM     81  S   UNL A   1      42.088  22.982  26.276  1.00  0.00     0.127 S 
ATOM     82  O   UNL A   1      42.890  22.602  27.437  1.00  0.00    -0.237 OA
ATOM     83  O   UNL A   1      40.655  22.717  26.403  1.00  0.00    -0.237 OA
ATOM     84  O   UNL A   1      42.648  22.633  24.978  1.00  0.00    -0.744 OA
ENDBRANCH  78  81
ENDBRANCH  50  74
BRANCH  62  85
ATOM     85  C   UNL A   1      44.417  27.462  34.039  1.00  0.00     0.023 A 
ATOM     86  C   UNL A   1      45.689  28.063  34.061  1.00  0.00     0.012 A 
ATOM     87  C   UNL A   1      44.182  26.296  34.795  1.00  0.00     0.148 A 
ATOM     88  C   UNL A   1      46.719  27.503  34.814  1.00  0.00     0.002 A 
ATOM     89  C   UNL A   1      45.199  25.774  35.583  1.00  0.00     0.091 A 
ATOM     90  F   UNL A   1      42.965  25.736  34.744  1.00  0.00    -0.205 F 
ATOM     91  C   UNL A   1      46.471  26.369  35.585  1.00  0.00     0.022 A 
BRANCH  89  92
ATOM     92  S   UNL A   1      44.942  24.382  36.688  1.00  0.00     0.127 S 
ATOM     93  O   UNL A   1      43.908  24.899  37.582  1.00  0.00    -0.237 OA
ATOM     94  O   UNL A   1      44.489  23.338  35.768  1.00  0.00    -0.237 OA
ATOM     95  O   UNL A   1      46.231  24.119  37.315  1.00  0.00    -0.744 OA
ENDBRANCH  89  92
ENDBRANCH  62  85
ENDBRANCH  36  37
ENDBRANCH  29  31
ENDBRANCH  28  29
ENDBRANCH  27  28
ENDBRANCH  26  27
ENDBRANCH  25  26
ENDBRANCH   1  25
TORSDOF 22
ENDMDL
MODEL 3
REMARK VINA RESULT:     -10.2      5.351     10.414
REMARK SMILES Nn1c(Cc2ccc(F)c(F)c2)nnc1SCC(=O)OCCOCCOC(=O)c1ccc(-c2c3nc(c(-c4cccc(S(=O)(=O)[O-])c4F)c4ccc([nH]4)c(-c4cccc(S(=O)(=O)[O-])c4F)c4nc(c(-c5cccc(S(=O)(=O)[O-])c5F)c5ccc2[nH]5)C=C4)C=C3)cc1
REMARK SMILES IDX 22 1 21 2 20 3 18 4 19 5 17 6 16 7 15 8 2 9 3 10 13 11 14 12
REMARK SMILES IDX 1 13 4 16 5 17 6 18 12 19 7 20 10 21 8 22 11 23 9 24 23 25
REMARK SMILES IDX 24 26 25 27 26 28 27 29 28 30 29 31 30 32 91 33 31 34 90 35
REMARK SMILES IDX 32 36 33 37 34 38 84 39 35 40 89 41 83 42 85 43 36 44 88 45
REMARK SMILES IDX 82 46 81 47 37 49 69 50 49 51 68 52 50 53 53 54 67 55 86 56
REMARK SMILES IDX 51 57 52 58 66 60 87 61 54 62 38 63 39 64 47 65 40 66 42 67
REMARK SMILES IDX 48 68 41 69 43 70 44 71 45 72 46 73 70 74 71 75 79 76 72 77
REMARK SMILES IDX 74 78 80 79 73 80 75 81 76 82 77 83 78 84 55 85 56 86 64 87
REMARK SMILES IDX 57 88 59 89 65 90 58 91 60 92 61 93 62 94 63 95
REMARK H PARENT 1 14 1 15 85 48 53 59
REMARK Flexibility Score: inf
ROOT
ATOM      1  C   UNL A   1      31.725  28.488  24.793  1.00  0.00     0.202 C 
ENDROOT
BRANCH   1   2
ATOM      2  C   UNL A   1      32.931  27.778  24.158  1.00  0.00     0.261 C 
BRANCH   2   3
ATOM      3  O   UNL A   1      32.677  26.429  23.703  1.00  0.00    -0.463 OA
BRANCH   3   4
ATOM      4  C   UNL A   1      31.527  26.227  23.004  1.00  0.00     0.316 C 
ATOM      5  O   UNL A   1      31.370  26.543  21.827  1.00  0.00    -0.251 OA
BRANCH   4   6
ATOM      6  C   UNL A   1      30.411  25.575  23.787  1.00  0.00     0.200 C 
BRANCH   6   7
ATOM      7  S   UNL A   1      30.911  24.430  25.061  1.00  0.00    -0.073 SA
BRANCH   7   8
ATOM      8  C   UNL A   1      32.048  23.263  24.475  1.00  0.00     0.210 A 
ATOM      9  N   UNL A   1      33.274  22.858  24.973  1.00  0.00    -0.221 N 
ATOM     10  C   UNL A   1      33.489  21.605  24.409  1.00  0.00     0.157 A 
ATOM     11  N   UNL A   1      32.625  21.441  23.428  1.00  0.00    -0.132 NA
ATOM     12  N   UNL A   1      31.716  22.460  23.485  1.00  0.00    -0.121 NA
BRANCH   9  13
ATOM     13  N   UNL A   1      34.178  23.563  25.834  1.00  0.00    -0.336 N 
ATOM     14  H   UNL A   1      35.121  23.675  25.572  1.00  0.00     0.178 HD
ATOM     15  H   UNL A   1      33.857  23.936  26.687  1.00  0.00     0.178 HD
ENDBRANCH   9  13
BRANCH  10  16
ATOM     16  C   UNL A   1      34.483  20.576  24.863  1.00  0.00     0.115 C 
BRANCH  16  17
ATOM     17  C   UNL A   1      33.965  19.135  24.861  1.00  0.00    -0.037 A 
ATOM     18  C   UNL A   1      32.914  18.726  25.705  1.00  0.00     0.007 A 
ATOM     19  C   UNL A   1      34.498  18.183  23.971  1.00  0.00     0.046 A 
ATOM     20  C   UNL A   1      32.430  17.411  25.680  1.00  0.00     0.043 A 
ATOM     21  C   UNL A   1      34.009  16.872  23.954  1.00  0.00     0.159 A 
ATOM     22  C   UNL A   1      32.981  16.489  24.802  1.00  0.00     0.158 A 
ATOM     23  F   UNL A   1      34.538  15.990  23.093  1.00  0.00    -0.204 F 
ATOM     24  F   UNL A   1      32.498  15.239  24.762  1.00  0.00    -0.204 F 
ENDBRANCH  16  17
ENDBRANCH  10  16
ENDBRANCH   7   8
ENDBRANCH   6   7
ENDBRANCH   4   6
ENDBRANCH   3   4
ENDBRANCH   2   3
ENDBRANCH   1   2
BRANCH   1  25
ATOM     25  O   UNL A   1      31.394  28.166  26.144  1.00  0.00    -0.374 OA
BRANCH  25  26
ATOM     26  C   UNL A   1      31.944  28.986  27.162  1.00  0.00     0.202 C 
BRANCH  26  27
ATOM     27  C   UNL A   1      32.013  30.492  26.925  1.00  0.00     0.261 C 
BRANCH  27  28
ATOM     28  O   UNL A   1      33.293  30.973  26.563  1.00  0.00    -0.460 OA
BRANCH  28  29
ATOM     29  C   UNL A   1      33.776  31.889  27.425  1.00  0.00     0.338 C 
ATOM     30  O   UNL A   1      33.201  32.860  27.904  1.00  0.00    -0.246 OA
BRANCH  29  31
ATOM     31  C   UNL A   1      35.097  31.450  27.843  1.00  0.00     0.060 A 
ATOM     32  C   UNL A   1      35.254  30.098  28.158  1.00  0.00     0.016 A 
ATOM     33  C   UNL A   1      36.141  32.369  27.961  1.00  0.00     0.016 A 
ATOM     34  C   UNL A   1      36.469  29.660  28.658  1.00  0.00     0.010 A 
ATOM     35  C   UNL A   1      37.355  31.928  28.465  1.00  0.00     0.010 A 
ATOM     36  C   UNL A   1      37.502  30.585  28.853  1.00  0.00    -0.014 A 
BRANCH  36  37
ATOM     37  C   UNL A   1      38.685  30.190  29.633  1.00  0.00     0.031 A 
ATOM     38  C   UNL A   1      39.597  29.153  29.049  1.00  0.00     0.074 A 
ATOM     39  C   UNL A   1      38.907  30.737  30.837  1.00  0.00     0.049 A 
ATOM     40  N   UNL A   1      40.644  28.585  29.578  1.00  0.00    -0.248 NA
ATOM     41  C   UNL A   1      39.279  28.686  27.686  1.00  0.00     0.031 C 
ATOM     42  C   UNL A   1      38.068  31.759  31.466  1.00  0.00     0.029 A 
ATOM     43  N   UNL A   1      39.886  30.486  31.758  1.00  0.00    -0.354 N 
ATOM     44  C   UNL A   1      41.091  27.670  28.632  1.00  0.00     0.074 A 
ATOM     45  C   UNL A   1      40.197  27.750  27.499  1.00  0.00     0.031 C 
ATOM     46  C   UNL A   1      38.552  32.023  32.691  1.00  0.00     0.029 A 
ATOM     47  C   UNL A   1      39.710  31.167  32.938  1.00  0.00     0.049 A 
ATOM     48  H   UNL A   1      40.641  29.877  31.592  1.00  0.00     0.167 HD
ATOM     49  C   UNL A   1      42.160  26.848  28.705  1.00  0.00     0.034 A 
ATOM     50  C   UNL A   1      40.395  31.078  34.092  1.00  0.00     0.034 A 
ATOM     51  C   UNL A   1      43.039  26.799  29.839  1.00  0.00     0.049 A 
ATOM     52  C   UNL A   1      41.570  30.137  34.155  1.00  0.00     0.074 A 
ATOM     53  C   UNL A   1      44.175  26.032  30.017  1.00  0.00     0.029 A 
ATOM     54  N   UNL A   1      42.869  27.545  30.996  1.00  0.00    -0.354 N 
ATOM     55  N   UNL A   1      42.045  29.348  33.219  1.00  0.00    -0.248 NA
ATOM     56  C   UNL A   1      42.322  30.093  35.415  1.00  0.00     0.031 C 
ATOM     57  C   UNL A   1      44.678  26.298  31.295  1.00  0.00     0.029 A 
ATOM     58  C   UNL A   1      43.875  27.256  31.896  1.00  0.00     0.049 A 
ATOM     59  H   UNL A   1      42.139  28.188  31.152  1.00  0.00     0.167 HD
ATOM     60  C   UNL A   1      43.177  28.751  33.760  1.00  0.00     0.074 A 
ATOM     61  C   UNL A   1      43.318  29.273  35.105  1.00  0.00     0.031 C 
ATOM     62  C   UNL A   1      44.021  27.848  33.203  1.00  0.00     0.034 A 
BRANCH  49  63
ATOM     63  C   UNL A   1      42.441  25.956  27.526  1.00  0.00     0.023 A 
ATOM     64  C   UNL A   1      43.190  26.449  26.437  1.00  0.00     0.012 A 
ATOM     65  C   UNL A   1      41.999  24.619  27.511  1.00  0.00     0.148 A 
ATOM     66  C   UNL A   1      43.466  25.637  25.339  1.00  0.00     0.002 A 
ATOM     67  C   UNL A   1      42.317  23.801  26.433  1.00  0.00     0.091 A 
ATOM     68  F   UNL A   1      41.266  24.177  28.542  1.00  0.00    -0.205 F 
ATOM     69  C   UNL A   1      43.040  24.312  25.341  1.00  0.00     0.022 A 
BRANCH  67  70
ATOM     70  S   UNL A   1      41.881  22.060  26.377  1.00  0.00     0.127 S 
ATOM     71  O   UNL A   1      42.775  21.565  25.330  1.00  0.00    -0.237 OA
ATOM     72  O   UNL A   1      42.220  21.615  27.729  1.00  0.00    -0.237 OA
ATOM     73  O   UNL A   1      40.461  22.010  26.059  1.00  0.00    -0.744 OA
ENDBRANCH  67  70
ENDBRANCH  49  63
BRANCH  50  74
ATOM     74  C   UNL A   1      40.012  31.924  35.255  1.00  0.00     0.023 A 
ATOM     75  C   UNL A   1      40.555  33.217  35.380  1.00  0.00     0.012 A 
ATOM     76  C   UNL A   1      39.087  31.472  36.218  1.00  0.00     0.148 A 
ATOM     77  C   UNL A   1      40.209  34.033  36.458  1.00  0.00     0.002 A 
ATOM     78  C   UNL A   1      38.707  32.309  37.260  1.00  0.00     0.091 A 
ATOM     79  F   UNL A   1      38.588  30.234  36.087  1.00  0.00    -0.205 F 
ATOM     80  C   UNL A   1      39.280  33.583  37.392  1.00  0.00     0.022 A 
BRANCH  78  81
ATOM     81  S   UNL A   1      37.420  31.864  38.432  1.00  0.00     0.127 S 
ATOM     82  O   UNL A   1      36.370  32.827  38.103  1.00  0.00    -0.237 OA
ATOM     83  O   UNL A   1      37.129  30.481  38.052  1.00  0.00    -0.237 OA
ATOM     84  O   UNL A   1      38.021  32.009  39.750  1.00  0.00    -0.744 OA
ENDBRANCH  78  81
ENDBRANCH  50  74
BRANCH  62  85
ATOM     85  C   UNL A   1      45.212  27.411  34.010  1.00  0.00     0.023 A 
ATOM     86  C   UNL A   1      46.374  28.204  34.038  1.00  0.00     0.012 A 
ATOM     87  C   UNL A   1      45.122  26.273  34.837  1.00  0.00     0.148 A 
ATOM     88  C   UNL A   1      47.439  27.861  34.867  1.00  0.00     0.002 A 
ATOM     89  C   UNL A   1      46.168  25.968  35.698  1.00  0.00     0.091 A 
ATOM     90  F   UNL A   1      44.010  25.527  34.779  1.00  0.00    -0.205 F 
ATOM     91  C   UNL A   1      47.332  26.753  35.706  1.00  0.00     0.022 A 
BRANCH  89  92
ATOM     92  S   UNL A   1      46.074  24.625  36.888  1.00  0.00     0.127 S 
ATOM     93  O   UNL A   1      46.018  23.456  36.013  1.00  0.00    -0.237 OA
ATOM     94  O   UNL A   1      47.330  24.779  37.624  1.00  0.00    -0.237 OA
ATOM     95  O   UNL A   1      44.875  24.869  37.679  1.00  0.00    -0.744 OA
ENDBRANCH  89  92
ENDBRANCH  62  85
ENDBRANCH  36  37
ENDBRANCH  29  31
ENDBRANCH  28  29
ENDBRANCH  27  28
ENDBRANCH  26  27
ENDBRANCH  25  26
ENDBRANCH   1  25
TORSDOF 22
ENDMDL
