MODEL 1
REMARK VINA RESULT:     -11.2      0.000      0.000
REMARK SMILES O=C(OCCOCCOC(=O)c1cc(Br)ccc1NC(=O)c1ccc(Br)s1)c1ccc(-c2c3nc(c(-c4cccc(S(=O)(=O)[O-])c4F)c4ccc([nH]4)c(-c4cccc(S(=O)(=O)[O-])c4F)c4nc(c(-c5cccc(S(=O)(=O)[O-])c5F)c5ccc2[nH]5)C=C4)C=C3)cc1
REMARK SMILES IDX 5 1 4 2 3 3 2 4 1 5 28 6 29 7 90 8 30 9 89 10 31 11 32 12
REMARK SMILES IDX 33 13 83 14 34 15 88 16 82 17 84 18 35 19 87 20 81 21 80 22
REMARK SMILES IDX 36 24 68 25 48 26 67 27 49 28 52 29 66 30 85 31 50 32 51 33
REMARK SMILES IDX 65 35 86 36 53 37 37 38 38 39 46 40 39 41 41 42 47 43 40 44
REMARK SMILES IDX 42 45 43 46 44 47 45 48 69 49 70 50 78 51 71 52 73 53 79 54
REMARK SMILES IDX 72 55 74 56 75 57 76 58 77 59 54 60 55 61 63 62 56 63 58 64
REMARK SMILES IDX 64 65 57 66 59 67 60 68 61 69 62 70 6 71 7 72 8 73 9 74
REMARK SMILES IDX 10 75 11 76 12 77 13 78 18 79 14 80 17 81 15 82 16 83 19 84
REMARK SMILES IDX 20 85 21 87 22 88 23 89 27 90 24 91 25 92 26 93
REMARK H PARENT 84 23 52 34 19 86
REMARK Flexibility Score: inf
ROOT
ATOM      1  C   UNL A   1      32.308  31.549  27.145  1.00  0.00     0.202 C 
ENDROOT
BRANCH   1   2
ATOM      2  C   UNL A   1      32.103  33.023  26.798  1.00  0.00     0.261 C 
BRANCH   2   3
ATOM      3  O   UNL A   1      32.195  33.827  27.986  1.00  0.00    -0.460 OA
BRANCH   3   4
ATOM      4  C   UNL A   1      33.304  34.474  28.424  1.00  0.00     0.338 C 
ATOM      5  O   UNL A   1      33.396  35.688  28.275  1.00  0.00    -0.246 OA
BRANCH   4   6
ATOM      6  C   UNL A   1      34.427  33.737  29.068  1.00  0.00     0.060 A 
ATOM      7  C   UNL A   1      34.232  32.643  29.913  1.00  0.00     0.016 A 
ATOM      8  C   UNL A   1      35.738  34.104  28.738  1.00  0.00     0.016 A 
ATOM      9  C   UNL A   1      35.300  31.993  30.509  1.00  0.00     0.010 A 
ATOM     10  C   UNL A   1      36.822  33.400  29.271  1.00  0.00     0.010 A 
ATOM     11  C   UNL A   1      36.604  32.350  30.173  1.00  0.00    -0.014 A 
BRANCH  11  12
ATOM     12  C   UNL A   1      37.718  31.608  30.796  1.00  0.00     0.031 A 
ATOM     13  C   UNL A   1      38.042  31.849  32.237  1.00  0.00     0.074 A 
ATOM     14  C   UNL A   1      38.370  30.679  30.072  1.00  0.00     0.049 A 
ATOM     15  N   UNL A   1      39.015  31.357  32.953  1.00  0.00    -0.248 NA
ATOM     16  C   UNL A   1      37.152  32.764  32.971  1.00  0.00     0.031 C 
ATOM     17  C   UNL A   1      38.069  30.333  28.680  1.00  0.00     0.029 A 
ATOM     18  N   UNL A   1      39.405  29.845  30.402  1.00  0.00    -0.354 N 
ATOM     19  C   UNL A   1      38.893  31.948  34.204  1.00  0.00     0.074 A 
ATOM     20  C   UNL A   1      37.738  32.817  34.158  1.00  0.00     0.031 C 
ATOM     21  C   UNL A   1      38.884  29.345  28.284  1.00  0.00     0.029 A 
ATOM     22  C   UNL A   1      39.813  29.039  29.365  1.00  0.00     0.049 A 
ATOM     23  H   UNL A   1      39.818  29.825  31.296  1.00  0.00     0.167 HD
ATOM     24  C   UNL A   1      39.681  31.775  35.290  1.00  0.00     0.034 A 
ATOM     25  C   UNL A   1      40.844  28.177  29.291  1.00  0.00     0.034 A 
ATOM     26  C   UNL A   1      40.804  30.880  35.314  1.00  0.00     0.049 A 
ATOM     27  C   UNL A   1      41.714  28.019  30.508  1.00  0.00     0.074 A 
ATOM     28  C   UNL A   1      41.699  30.643  36.341  1.00  0.00     0.029 A 
ATOM     29  N   UNL A   1      41.182  30.069  34.253  1.00  0.00    -0.354 N 
ATOM     30  N   UNL A   1      41.582  28.573  31.690  1.00  0.00    -0.248 NA
ATOM     31  C   UNL A   1      42.867  27.120  30.388  1.00  0.00     0.031 C 
ATOM     32  C   UNL A   1      42.627  29.696  35.892  1.00  0.00     0.029 A 
ATOM     33  C   UNL A   1      42.300  29.330  34.595  1.00  0.00     0.049 A 
ATOM     34  H   UNL A   1      40.722  30.026  33.383  1.00  0.00     0.167 HD
ATOM     35  C   UNL A   1      42.628  28.082  32.460  1.00  0.00     0.074 A 
ATOM     36  C   UNL A   1      43.364  27.159  31.618  1.00  0.00     0.031 C 
ATOM     37  C   UNL A   1      42.970  28.383  33.738  1.00  0.00     0.034 A 
BRANCH  24  38
ATOM     38  C   UNL A   1      39.356  32.591  36.510  1.00  0.00     0.023 A 
ATOM     39  C   UNL A   1      40.036  33.802  36.750  1.00  0.00     0.012 A 
ATOM     40  C   UNL A   1      38.387  32.147  37.432  1.00  0.00     0.148 A 
ATOM     41  C   UNL A   1      39.786  34.538  37.908  1.00  0.00     0.002 A 
ATOM     42  C   UNL A   1      38.119  32.904  38.568  1.00  0.00     0.091 A 
ATOM     43  F   UNL A   1      37.773  30.979  37.200  1.00  0.00    -0.205 F 
ATOM     44  C   UNL A   1      38.825  34.093  38.813  1.00  0.00     0.022 A 
BRANCH  42  45
ATOM     45  S   UNL A   1      36.868  32.435  39.769  1.00  0.00     0.127 S 
ATOM     46  O   UNL A   1      35.650  32.485  38.962  1.00  0.00    -0.237 OA
ATOM     47  O   UNL A   1      37.294  31.087  40.147  1.00  0.00    -0.237 OA
ATOM     48  O   UNL A   1      36.952  33.419  40.839  1.00  0.00    -0.744 OA
ENDBRANCH  42  45
ENDBRANCH  24  38
BRANCH  25  49
ATOM     49  C   UNL A   1      41.097  27.408  28.037  1.00  0.00     0.023 A 
ATOM     50  C   UNL A   1      41.700  28.049  26.937  1.00  0.00     0.012 A 
ATOM     51  C   UNL A   1      40.783  26.037  27.939  1.00  0.00     0.148 A 
ATOM     52  C   UNL A   1      41.966  27.345  25.760  1.00  0.00     0.002 A 
ATOM     53  C   UNL A   1      41.105  25.329  26.786  1.00  0.00     0.091 A 
ATOM     54  F   UNL A   1      40.185  25.444  28.981  1.00  0.00    -0.205 F 
ATOM     55  C   UNL A   1      41.680  25.984  25.689  1.00  0.00     0.022 A 
BRANCH  53  56
ATOM     56  S   UNL A   1      40.902  23.546  26.675  1.00  0.00     0.127 S 
ATOM     57  O   UNL A   1      41.789  23.211  25.564  1.00  0.00    -0.237 OA
ATOM     58  O   UNL A   1      41.365  23.100  27.990  1.00  0.00    -0.237 OA
ATOM     59  O   UNL A   1      39.479  23.333  26.443  1.00  0.00    -0.744 OA
ENDBRANCH  53  56
ENDBRANCH  25  49
BRANCH  37  60
ATOM     60  C   UNL A   1      44.182  27.698  34.301  1.00  0.00     0.023 A 
ATOM     61  C   UNL A   1      45.450  28.291  34.145  1.00  0.00     0.012 A 
ATOM     62  C   UNL A   1      44.051  26.518  35.058  1.00  0.00     0.148 A 
ATOM     63  C   UNL A   1      46.576  27.707  34.720  1.00  0.00     0.002 A 
ATOM     64  C   UNL A   1      45.171  25.968  35.667  1.00  0.00     0.091 A 
ATOM     65  F   UNL A   1      42.837  25.959  35.170  1.00  0.00    -0.205 F 
ATOM     66  C   UNL A   1      46.436  26.556  35.492  1.00  0.00     0.022 A 
BRANCH  64  67
ATOM     67  S   UNL A   1      45.061  24.546  36.757  1.00  0.00     0.127 S 
ATOM     68  O   UNL A   1      46.415  24.483  37.303  1.00  0.00    -0.237 OA
ATOM     69  O   UNL A   1      44.035  24.963  37.714  1.00  0.00    -0.237 OA
ATOM     70  O   UNL A   1      44.672  23.426  35.910  1.00  0.00    -0.744 OA
ENDBRANCH  64  67
ENDBRANCH  37  60
ENDBRANCH  11  12
ENDBRANCH   4   6
ENDBRANCH   3   4
ENDBRANCH   2   3
ENDBRANCH   1   2
BRANCH   1  71
ATOM     71  O   UNL A   1      33.482  30.942  26.609  1.00  0.00    -0.374 OA
BRANCH  71  72
ATOM     72  C   UNL A   1      34.202  30.081  27.501  1.00  0.00     0.202 C 
BRANCH  72  73
ATOM     73  C   UNL A   1      34.273  28.677  26.887  1.00  0.00     0.261 C 
BRANCH  73  74
ATOM     74  O   UNL A   1      33.144  28.512  26.009  1.00  0.00    -0.460 OA
BRANCH  74  75
ATOM     75  C   UNL A   1      32.101  27.809  26.518  1.00  0.00     0.340 C 
ATOM     76  O   UNL A   1      31.815  27.632  27.691  1.00  0.00    -0.246 OA
BRANCH  75  77
ATOM     77  C   UNL A   1      31.188  27.514  25.391  1.00  0.00     0.084 A 
ATOM     78  C   UNL A   1      31.060  28.478  24.375  1.00  0.00     0.033 A 
ATOM     79  C   UNL A   1      30.371  26.359  25.414  1.00  0.00     0.056 A 
ATOM     80  C   UNL A   1      30.072  28.334  23.412  1.00  0.00     0.018 A 
ATOM     81  C   UNL A   1      29.340  26.291  24.470  1.00  0.00     0.028 A 
ATOM     82  Br  UNL A   1      29.876  29.637  22.060  1.00  0.00    -0.051 Br
ATOM     83  C   UNL A   1      29.196  27.260  23.470  1.00  0.00     0.018 A 
BRANCH  79  84
ATOM     84  N   UNL A   1      30.557  25.383  26.426  1.00  0.00    -0.320 N 
ATOM     85  C   UNL A   1      31.283  24.207  26.486  1.00  0.00     0.265 C 
ATOM     86  H   UNL A   1      30.070  25.584  27.257  1.00  0.00     0.170 HD
ATOM     87  O   UNL A   1      30.975  23.384  27.350  1.00  0.00    -0.268 OA
BRANCH  85  88
ATOM     88  C   UNL A   1      32.389  23.993  25.578  1.00  0.00     0.093 A 
ATOM     89  C   UNL A   1      32.383  23.947  24.194  1.00  0.00     0.027 A 
ATOM     90  S   UNL A   1      33.970  23.785  26.209  1.00  0.00    -0.123 S 
ATOM     91  C   UNL A   1      33.670  23.629  23.662  1.00  0.00     0.028 A 
ATOM     92  C   UNL A   1      34.600  23.497  24.662  1.00  0.00     0.071 A 
ATOM     93  Br  UNL A   1      36.390  23.038  24.355  1.00  0.00    -0.039 Br
ENDBRANCH  85  88
ENDBRANCH  79  84
ENDBRANCH  75  77
ENDBRANCH  74  75
ENDBRANCH  73  74
ENDBRANCH  72  73
ENDBRANCH  71  72
ENDBRANCH   1  71
TORSDOF 19
ENDMDL
MODEL 2
REMARK VINA RESULT:     -10.9      2.429      8.331
REMARK SMILES O=C(OCCOCCOC(=O)c1cc(Br)ccc1NC(=O)c1ccc(Br)s1)c1ccc(-c2c3nc(c(-c4cccc(S(=O)(=O)[O-])c4F)c4ccc([nH]4)c(-c4cccc(S(=O)(=O)[O-])c4F)c4nc(c(-c5cccc(S(=O)(=O)[O-])c5F)c5ccc2[nH]5)C=C4)C=C3)cc1
REMARK SMILES IDX 5 1 4 2 3 3 2 4 1 5 28 6 29 7 90 8 30 9 89 10 31 11 32 12
REMARK SMILES IDX 33 13 83 14 34 15 88 16 82 17 84 18 35 19 87 20 81 21 80 22
REMARK SMILES IDX 36 24 68 25 48 26 67 27 49 28 52 29 66 30 85 31 50 32 51 33
REMARK SMILES IDX 65 35 86 36 53 37 37 38 38 39 46 40 39 41 41 42 47 43 40 44
REMARK SMILES IDX 42 45 43 46 44 47 45 48 69 49 70 50 78 51 71 52 73 53 79 54
REMARK SMILES IDX 72 55 74 56 75 57 76 58 77 59 54 60 55 61 63 62 56 63 58 64
REMARK SMILES IDX 64 65 57 66 59 67 60 68 61 69 62 70 6 71 7 72 8 73 9 74
REMARK SMILES IDX 10 75 11 76 12 77 13 78 18 79 14 80 17 81 15 82 16 83 19 84
REMARK SMILES IDX 20 85 21 87 22 88 23 89 27 90 24 91 25 92 26 93
REMARK H PARENT 84 23 52 34 19 86
REMARK Flexibility Score: inf
ROOT
ATOM      1  C   UNL A   1      31.519  28.842  24.346  1.00  0.00     0.202 C 
ENDROOT
BRANCH   1   2
ATOM      2  C   UNL A   1      31.493  29.971  25.374  1.00  0.00     0.261 C 
BRANCH   2   3
ATOM      3  O   UNL A   1      32.835  30.363  25.712  1.00  0.00    -0.460 OA
BRANCH   3   4
ATOM      4  C   UNL A   1      33.196  31.123  26.775  1.00  0.00     0.338 C 
ATOM      5  O   UNL A   1      32.513  32.094  27.086  1.00  0.00    -0.246 OA
BRANCH   4   6
ATOM      6  C   UNL A   1      34.421  30.817  27.565  1.00  0.00     0.060 A 
ATOM      7  C   UNL A   1      34.743  29.529  27.999  1.00  0.00     0.016 A 
ATOM      8  C   UNL A   1      35.332  31.853  27.806  1.00  0.00     0.016 A 
ATOM      9  C   UNL A   1      35.882  29.285  28.749  1.00  0.00     0.010 A 
ATOM     10  C   UNL A   1      36.524  31.598  28.491  1.00  0.00     0.010 A 
ATOM     11  C   UNL A   1      36.794  30.312  28.979  1.00  0.00    -0.014 A 
BRANCH  11  12
ATOM     12  C   UNL A   1      38.017  30.006  29.746  1.00  0.00     0.031 A 
ATOM     13  C   UNL A   1      39.084  29.166  29.117  1.00  0.00     0.074 A 
ATOM     14  C   UNL A   1      38.176  30.550  30.967  1.00  0.00     0.049 A 
ATOM     15  N   UNL A   1      40.196  28.726  29.637  1.00  0.00    -0.248 NA
ATOM     16  C   UNL A   1      38.872  28.769  27.715  1.00  0.00     0.031 C 
ATOM     17  C   UNL A   1      37.214  31.439  31.625  1.00  0.00     0.029 A 
ATOM     18  N   UNL A   1      39.204  30.453  31.868  1.00  0.00    -0.354 N 
ATOM     19  C   UNL A   1      40.789  27.950  28.649  1.00  0.00     0.074 A 
ATOM     20  C   UNL A   1      39.925  27.997  27.490  1.00  0.00     0.031 C 
ATOM     21  C   UNL A   1      37.706  31.823  32.811  1.00  0.00     0.029 A 
ATOM     22  C   UNL A   1      38.981  31.152  33.032  1.00  0.00     0.049 A 
ATOM     23  H   UNL A   1      40.023  29.934  31.698  1.00  0.00     0.167 HD
ATOM     24  C   UNL A   1      41.951  27.262  28.713  1.00  0.00     0.034 A 
ATOM     25  C   UNL A   1      39.712  31.211  34.161  1.00  0.00     0.034 A 
ATOM     26  C   UNL A   1      42.803  27.259  29.869  1.00  0.00     0.049 A 
ATOM     27  C   UNL A   1      40.990  30.420  34.209  1.00  0.00     0.074 A 
ATOM     28  C   UNL A   1      43.988  26.574  30.070  1.00  0.00     0.029 A 
ATOM     29  N   UNL A   1      42.556  27.987  31.026  1.00  0.00    -0.354 N 
ATOM     30  N   UNL A   1      41.549  29.700  33.265  1.00  0.00    -0.248 NA
ATOM     31  C   UNL A   1      41.743  30.451  35.469  1.00  0.00     0.031 C 
ATOM     32  C   UNL A   1      44.449  26.880  31.355  1.00  0.00     0.029 A 
ATOM     33  C   UNL A   1      43.563  27.768  31.949  1.00  0.00     0.049 A 
ATOM     34  H   UNL A   1      41.778  28.573  31.169  1.00  0.00     0.167 HD
ATOM     35  C   UNL A   1      42.723  29.199  33.810  1.00  0.00     0.074 A 
ATOM     36  C   UNL A   1      42.812  29.728  35.158  1.00  0.00     0.031 C 
ATOM     37  C   UNL A   1      43.635  28.358  33.262  1.00  0.00     0.034 A 
BRANCH  24  38
ATOM     38  C   UNL A   1      42.333  26.447  27.508  1.00  0.00     0.023 A 
ATOM     39  C   UNL A   1      42.880  27.081  26.374  1.00  0.00     0.012 A 
ATOM     40  C   UNL A   1      42.129  25.053  27.491  1.00  0.00     0.148 A 
ATOM     41  C   UNL A   1      43.184  26.345  25.228  1.00  0.00     0.002 A 
ATOM     42  C   UNL A   1      42.465  24.321  26.357  1.00  0.00     0.091 A 
ATOM     43  F   UNL A   1      41.581  24.475  28.569  1.00  0.00    -0.205 F 
ATOM     44  C   UNL A   1      42.981  24.967  25.222  1.00  0.00     0.022 A 
BRANCH  42  45
ATOM     45  S   UNL A   1      42.282  22.537  26.269  1.00  0.00     0.127 S 
ATOM     46  O   UNL A   1      40.828  22.389  26.258  1.00  0.00    -0.237 OA
ATOM     47  O   UNL A   1      42.935  22.223  24.998  1.00  0.00    -0.237 OA
ATOM     48  O   UNL A   1      42.957  22.005  27.444  1.00  0.00    -0.744 OA
ENDBRANCH  42  45
ENDBRANCH  24  38
BRANCH  25  49
ATOM     49  C   UNL A   1      39.256  32.043  35.312  1.00  0.00     0.023 A 
ATOM     50  C   UNL A   1      38.396  31.486  36.277  1.00  0.00     0.012 A 
ATOM     51  C   UNL A   1      39.702  33.371  35.483  1.00  0.00     0.148 A 
ATOM     52  C   UNL A   1      37.972  32.238  37.375  1.00  0.00     0.002 A 
ATOM     53  C   UNL A   1      39.324  34.094  36.609  1.00  0.00     0.091 A 
ATOM     54  F   UNL A   1      40.499  33.900  34.544  1.00  0.00    -0.205 F 
ATOM     55  C   UNL A   1      38.446  33.536  37.547  1.00  0.00     0.022 A 
BRANCH  53  56
ATOM     56  S   UNL A   1      40.008  35.716  36.974  1.00  0.00     0.127 S 
ATOM     57  O   UNL A   1      39.342  36.047  38.230  1.00  0.00    -0.237 OA
ATOM     58  O   UNL A   1      41.439  35.428  37.091  1.00  0.00    -0.237 OA
ATOM     59  O   UNL A   1      39.662  36.547  35.828  1.00  0.00    -0.744 OA
ENDBRANCH  53  56
ENDBRANCH  25  49
BRANCH  37  60
ATOM     60  C   UNL A   1      44.809  27.971  34.117  1.00  0.00     0.023 A 
ATOM     61  C   UNL A   1      45.964  28.776  34.112  1.00  0.00     0.012 A 
ATOM     62  C   UNL A   1      44.729  26.867  34.986  1.00  0.00     0.148 A 
ATOM     63  C   UNL A   1      47.035  28.474  34.950  1.00  0.00     0.002 A 
ATOM     64  C   UNL A   1      45.781  26.601  35.851  1.00  0.00     0.091 A 
ATOM     65  F   UNL A   1      43.628  26.102  34.953  1.00  0.00    -0.205 F 
ATOM     66  C   UNL A   1      46.939  27.397  35.828  1.00  0.00     0.022 A 
BRANCH  64  67
ATOM     67  S   UNL A   1      45.697  25.296  37.081  1.00  0.00     0.127 S 
ATOM     68  O   UNL A   1      45.601  24.101  36.244  1.00  0.00    -0.237 OA
ATOM     69  O   UNL A   1      46.970  25.447  37.787  1.00  0.00    -0.237 OA
ATOM     70  O   UNL A   1      44.522  25.591  37.893  1.00  0.00    -0.744 OA
ENDBRANCH  64  67
ENDBRANCH  37  60
ENDBRANCH  11  12
ENDBRANCH   4   6
ENDBRANCH   3   4
ENDBRANCH   2   3
ENDBRANCH   1   2
BRANCH   1  71
ATOM     71  O   UNL A   1      31.751  27.534  24.866  1.00  0.00    -0.374 OA
BRANCH  71  72
ATOM     72  C   UNL A   1      30.750  26.555  24.559  1.00  0.00     0.202 C 
BRANCH  72  73
ATOM     73  C   UNL A   1      30.962  25.329  25.458  1.00  0.00     0.261 C 
BRANCH  73  74
ATOM     74  O   UNL A   1      32.364  25.002  25.450  1.00  0.00    -0.460 OA
BRANCH  74  75
ATOM     75  C   UNL A   1      32.678  23.755  25.882  1.00  0.00     0.340 C 
ATOM     76  O   UNL A   1      31.961  22.957  26.462  1.00  0.00    -0.246 OA
BRANCH  75  77
ATOM     77  C   UNL A   1      33.983  23.404  25.275  1.00  0.00     0.084 A 
ATOM     78  C   UNL A   1      35.150  23.707  25.999  1.00  0.00     0.033 A 
ATOM     79  C   UNL A   1      34.049  22.906  23.953  1.00  0.00     0.056 A 
ATOM     80  C   UNL A   1      36.389  23.583  25.389  1.00  0.00     0.018 A 
ATOM     81  C   UNL A   1      35.311  22.867  23.350  1.00  0.00     0.028 A 
ATOM     82  Br  UNL A   1      37.959  24.013  26.344  1.00  0.00    -0.051 Br
ATOM     83  C   UNL A   1      36.473  23.190  24.060  1.00  0.00     0.018 A 
BRANCH  79  84
ATOM     84  N   UNL A   1      32.855  22.565  23.267  1.00  0.00    -0.320 N 
ATOM     85  C   UNL A   1      32.219  21.364  23.011  1.00  0.00     0.265 C 
ATOM     86  H   UNL A   1      32.380  23.345  22.897  1.00  0.00     0.170 HD
ATOM     87  O   UNL A   1      31.399  21.330  22.092  1.00  0.00    -0.268 OA
BRANCH  85  88
ATOM     88  C   UNL A   1      32.496  20.209  23.838  1.00  0.00     0.093 A 
ATOM     89  C   UNL A   1      32.758  20.153  25.197  1.00  0.00     0.027 A 
ATOM     90  S   UNL A   1      32.495  18.646  23.132  1.00  0.00    -0.123 S 
ATOM     91  C   UNL A   1      33.066  18.829  25.631  1.00  0.00     0.028 A 
ATOM     92  C   UNL A   1      32.977  17.935  24.593  1.00  0.00     0.071 A 
ATOM     93  Br  UNL A   1      33.356  16.109  24.767  1.00  0.00    -0.039 Br
ENDBRANCH  85  88
ENDBRANCH  79  84
ENDBRANCH  75  77
ENDBRANCH  74  75
ENDBRANCH  73  74
ENDBRANCH  72  73
ENDBRANCH  71  72
ENDBRANCH   1  71
TORSDOF 19
ENDMDL
MODEL 3
REMARK VINA RESULT:     -10.8      1.712      7.809
REMARK SMILES O=C(OCCOCCOC(=O)c1cc(Br)ccc1NC(=O)c1ccc(Br)s1)c1ccc(-c2c3nc(c(-c4cccc(S(=O)(=O)[O-])c4F)c4ccc([nH]4)c(-c4cccc(S(=O)(=O)[O-])c4F)c4nc(c(-c5cccc(S(=O)(=O)[O-])c5F)c5ccc2[nH]5)C=C4)C=C3)cc1
REMARK SMILES IDX 5 1 4 2 3 3 2 4 1 5 28 6 29 7 90 8 30 9 89 10 31 11 32 12
REMARK SMILES IDX 33 13 83 14 34 15 88 16 82 17 84 18 35 19 87 20 81 21 80 22
REMARK SMILES IDX 36 24 68 25 48 26 67 27 49 28 52 29 66 30 85 31 50 32 51 33
REMARK SMILES IDX 65 35 86 36 53 37 37 38 38 39 46 40 39 41 41 42 47 43 40 44
REMARK SMILES IDX 42 45 43 46 44 47 45 48 69 49 70 50 78 51 71 52 73 53 79 54
REMARK SMILES IDX 72 55 74 56 75 57 76 58 77 59 54 60 55 61 63 62 56 63 58 64
REMARK SMILES IDX 64 65 57 66 59 67 60 68 61 69 62 70 6 71 7 72 8 73 9 74
REMARK SMILES IDX 10 75 11 76 12 77 13 78 18 79 14 80 17 81 15 82 16 83 19 84
REMARK SMILES IDX 20 85 21 87 22 88 23 89 27 90 24 91 25 92 26 93
REMARK H PARENT 84 23 52 34 19 86
REMARK Flexibility Score: inf
ROOT
ATOM      1  C   UNL A   1      33.257  32.039  27.996  1.00  0.00     0.202 C 
ENDROOT
BRANCH   1   2
ATOM      2  C   UNL A   1      33.157  33.522  27.645  1.00  0.00     0.261 C 
BRANCH   2   3
ATOM      3  O   UNL A   1      32.563  34.248  28.735  1.00  0.00    -0.460 OA
BRANCH   3   4
ATOM      4  C   UNL A   1      33.236  34.873  29.733  1.00  0.00     0.338 C 
ATOM      5  O   UNL A   1      32.868  35.982  30.110  1.00  0.00    -0.246 OA
BRANCH   4   6
ATOM      6  C   UNL A   1      34.428  34.251  30.372  1.00  0.00     0.060 A 
ATOM      7  C   UNL A   1      34.335  33.283  31.374  1.00  0.00     0.016 A 
ATOM      8  C   UNL A   1      35.696  34.588  29.881  1.00  0.00     0.016 A 
ATOM      9  C   UNL A   1      35.467  32.739  31.959  1.00  0.00     0.010 A 
ATOM     10  C   UNL A   1      36.840  33.981  30.409  1.00  0.00     0.010 A 
ATOM     11  C   UNL A   1      36.727  33.065  31.464  1.00  0.00    -0.014 A 
BRANCH  11  12
ATOM     12  C   UNL A   1      37.909  32.434  32.083  1.00  0.00     0.031 A 
ATOM     13  C   UNL A   1      38.639  31.360  31.340  1.00  0.00     0.074 A 
ATOM     14  C   UNL A   1      38.347  32.891  33.272  1.00  0.00     0.049 A 
ATOM     15  N   UNL A   1      39.651  30.634  31.728  1.00  0.00    -0.248 NA
ATOM     16  C   UNL A   1      38.168  31.062  29.977  1.00  0.00     0.031 C 
ATOM     17  C   UNL A   1      37.734  33.986  34.030  1.00  0.00     0.029 A 
ATOM     18  N   UNL A   1      39.412  32.511  34.045  1.00  0.00    -0.354 N 
ATOM     19  C   UNL A   1      39.901  29.752  30.685  1.00  0.00     0.074 A 
ATOM     20  C   UNL A   1      38.949  30.048  29.636  1.00  0.00     0.031 C 
ATOM     21  C   UNL A   1      38.445  34.203  35.146  1.00  0.00     0.029 A 
ATOM     22  C   UNL A   1      39.517  33.218  35.220  1.00  0.00     0.049 A 
ATOM     23  H   UNL A   1      40.041  31.800  33.784  1.00  0.00     0.167 HD
ATOM     24  C   UNL A   1      40.842  28.784  30.617  1.00  0.00     0.034 A 
ATOM     25  C   UNL A   1      40.366  33.060  36.253  1.00  0.00     0.034 A 
ATOM     26  C   UNL A   1      41.793  28.534  31.664  1.00  0.00     0.049 A 
ATOM     27  C   UNL A   1      41.389  31.963  36.158  1.00  0.00     0.074 A 
ATOM     28  C   UNL A   1      42.773  27.561  31.729  1.00  0.00     0.029 A 
ATOM     29  N   UNL A   1      41.882  29.276  32.835  1.00  0.00    -0.354 N 
ATOM     30  N   UNL A   1      41.626  31.143  35.160  1.00  0.00    -0.248 NA
ATOM     31  C   UNL A   1      42.266  31.769  37.318  1.00  0.00     0.031 C 
ATOM     32  C   UNL A   1      43.445  27.707  32.947  1.00  0.00     0.029 A 
ATOM     33  C   UNL A   1      42.897  28.782  33.633  1.00  0.00     0.049 A 
ATOM     34  H   UNL A   1      41.306  30.041  33.063  1.00  0.00     0.167 HD
ATOM     35  C   UNL A   1      42.684  30.342  35.567  1.00  0.00     0.074 A 
ATOM     36  C   UNL A   1      43.065  30.801  36.890  1.00  0.00     0.031 C 
ATOM     37  C   UNL A   1      43.274  29.305  34.923  1.00  0.00     0.034 A 
BRANCH  24  38
ATOM     38  C   UNL A   1      40.854  27.925  29.383  1.00  0.00     0.023 A 
ATOM     39  C   UNL A   1      40.054  26.766  29.322  1.00  0.00     0.012 A 
ATOM     40  C   UNL A   1      41.676  28.255  28.288  1.00  0.00     0.148 A 
ATOM     41  C   UNL A   1      40.101  25.929  28.207  1.00  0.00     0.002 A 
ATOM     42  C   UNL A   1      41.693  27.435  27.165  1.00  0.00     0.091 A 
ATOM     43  F   UNL A   1      42.451  29.346  28.377  1.00  0.00    -0.205 F 
ATOM     44  C   UNL A   1      40.915  26.266  27.128  1.00  0.00     0.022 A 
BRANCH  42  45
ATOM     45  S   UNL A   1      42.675  27.807  25.708  1.00  0.00     0.127 S 
ATOM     46  O   UNL A   1      42.437  26.625  24.882  1.00  0.00    -0.237 OA
ATOM     47  O   UNL A   1      42.043  29.032  25.216  1.00  0.00    -0.237 OA
ATOM     48  O   UNL A   1      44.042  27.978  26.179  1.00  0.00    -0.744 OA
ENDBRANCH  42  45
ENDBRANCH  24  38
BRANCH  25  49
ATOM     49  C   UNL A   1      40.281  33.957  37.443  1.00  0.00     0.023 A 
ATOM     50  C   UNL A   1      40.958  35.192  37.434  1.00  0.00     0.012 A 
ATOM     51  C   UNL A   1      39.499  33.617  38.567  1.00  0.00     0.148 A 
ATOM     52  C   UNL A   1      40.876  36.057  38.527  1.00  0.00     0.002 A 
ATOM     53  C   UNL A   1      39.374  34.509  39.626  1.00  0.00     0.091 A 
ATOM     54  F   UNL A   1      38.880  32.428  38.576  1.00  0.00    -0.205 F 
ATOM     55  C   UNL A   1      40.075  35.723  39.616  1.00  0.00     0.022 A 
BRANCH  53  56
ATOM     56  S   UNL A   1      38.247  34.213  40.994  1.00  0.00     0.127 S 
ATOM     57  O   UNL A   1      39.088  33.455  41.917  1.00  0.00    -0.237 OA
ATOM     58  O   UNL A   1      37.924  35.573  41.428  1.00  0.00    -0.237 OA
ATOM     59  O   UNL A   1      37.120  33.491  40.417  1.00  0.00    -0.744 OA
ENDBRANCH  53  56
ENDBRANCH  25  49
BRANCH  37  60
ATOM     60  C   UNL A   1      44.398  28.608  35.636  1.00  0.00     0.023 A 
ATOM     61  C   UNL A   1      45.726  29.016  35.405  1.00  0.00     0.012 A 
ATOM     62  C   UNL A   1      44.130  27.614  36.597  1.00  0.00     0.148 A 
ATOM     63  C   UNL A   1      46.775  28.431  36.108  1.00  0.00     0.002 A 
ATOM     64  C   UNL A   1      45.177  27.069  37.327  1.00  0.00     0.091 A 
ATOM     65  F   UNL A   1      42.860  27.225  36.780  1.00  0.00    -0.205 F 
ATOM     66  C   UNL A   1      46.501  27.469  37.078  1.00  0.00     0.022 A 
BRANCH  64  67
ATOM     67  S   UNL A   1      44.901  25.900  38.660  1.00  0.00     0.127 S 
ATOM     68  O   UNL A   1      43.964  26.630  39.510  1.00  0.00    -0.237 OA
ATOM     69  O   UNL A   1      44.323  24.753  37.958  1.00  0.00    -0.237 OA
ATOM     70  O   UNL A   1      46.213  25.647  39.244  1.00  0.00    -0.744 OA
ENDBRANCH  64  67
ENDBRANCH  37  60
ENDBRANCH  11  12
ENDBRANCH   4   6
ENDBRANCH   3   4
ENDBRANCH   2   3
ENDBRANCH   1   2
BRANCH   1  71
ATOM     71  O   UNL A   1      33.781  31.193  26.974  1.00  0.00    -0.374 OA
BRANCH  71  72
ATOM     72  C   UNL A   1      34.676  30.163  27.415  1.00  0.00     0.202 C 
BRANCH  72  73
ATOM     73  C   UNL A   1      34.055  28.797  27.095  1.00  0.00     0.261 C 
BRANCH  73  74
ATOM     74  O   UNL A   1      32.716  29.012  26.611  1.00  0.00    -0.460 OA
BRANCH  74  75
ATOM     75  C   UNL A   1      31.812  28.054  26.939  1.00  0.00     0.340 C 
ATOM     76  O   UNL A   1      31.408  27.750  28.048  1.00  0.00    -0.246 OA
BRANCH  75  77
ATOM     77  C   UNL A   1      31.175  27.612  25.677  1.00  0.00     0.084 A 
ATOM     78  C   UNL A   1      31.006  28.564  24.655  1.00  0.00     0.033 A 
ATOM     79  C   UNL A   1      30.634  26.310  25.564  1.00  0.00     0.056 A 
ATOM     80  C   UNL A   1      30.238  28.249  23.543  1.00  0.00     0.018 A 
ATOM     81  C   UNL A   1      29.805  26.059  24.465  1.00  0.00     0.028 A 
ATOM     82  Br  UNL A   1      29.984  29.528  22.179  1.00  0.00    -0.051 Br
ATOM     83  C   UNL A   1      29.617  27.011  23.456  1.00  0.00     0.018 A 
BRANCH  79  84
ATOM     84  N   UNL A   1      30.863  25.359  26.591  1.00  0.00    -0.320 N 
ATOM     85  C   UNL A   1      31.439  24.102  26.608  1.00  0.00     0.265 C 
ATOM     86  H   UNL A   1      30.547  25.656  27.476  1.00  0.00     0.170 HD
ATOM     87  O   UNL A   1      31.180  23.362  27.558  1.00  0.00    -0.268 OA
BRANCH  85  88
ATOM     88  C   UNL A   1      32.347  23.710  25.551  1.00  0.00     0.093 A 
ATOM     89  C   UNL A   1      32.071  23.045  24.368  1.00  0.00     0.027 A 
ATOM     90  S   UNL A   1      34.012  24.102  25.680  1.00  0.00    -0.123 S 
ATOM     91  C   UNL A   1      33.255  22.764  23.621  1.00  0.00     0.028 A 
ATOM     92  C   UNL A   1      34.367  23.270  24.247  1.00  0.00     0.071 A 
ATOM     93  Br  UNL A   1      36.108  23.058  23.591  1.00  0.00    -0.039 Br
ENDBRANCH  85  88
ENDBRANCH  79  84
ENDBRANCH  75  77
ENDBRANCH  74  75
ENDBRANCH  73  74
ENDBRANCH  72  73
ENDBRANCH  71  72
ENDBRANCH   1  71
TORSDOF 19
ENDMDL
