MODEL 1
REMARK VINA RESULT:     -12.7      0.000      0.000
REMARK SMILES CS(=O)(=O)c1ccc(-c2cc(Cl)cc3c2O[C@@H](C(F)(F)F)C(C(=O)OCCOCCOC(=O)c2ccc(-c4c5nc(c(-c6cccc(S(=O)(=O)[O-])c6F)c6ccc([nH]6)c(-c6cccc(S(=O)(=O)[O-])c6F)c6nc(c(-c7cccc(S(=O)(=O)[O-])c7F)c7ccc4[nH]7)C=C6)C=C5)cc2)=C3)cc1
REMARK SMILES IDX 29 1 28 2 27 3 26 4 25 5 23 6 24 7 22 8 9 9 10 10 15 11
REMARK SMILES IDX 11 12 14 13 16 14 12 15 13 16 97 17 17 18 8 19 5 20 6 21
REMARK SMILES IDX 99 22 7 23 98 24 2 25 1 26 3 27 4 28 18 29 19 30 20 31 21 32
REMARK SMILES IDX 30 33 31 34 32 35 33 36 34 37 35 38 96 39 36 40 95 41 37 42
REMARK SMILES IDX 38 43 39 44 89 45 40 46 94 47 88 48 90 49 41 50 93 51 87 52
REMARK SMILES IDX 86 53 42 55 74 56 54 57 73 58 55 59 58 60 72 61 91 62 56 63
REMARK SMILES IDX 57 64 71 66 92 67 59 68 43 69 44 70 52 71 45 72 47 73 53 74
REMARK SMILES IDX 46 75 48 76 49 77 50 78 51 79 75 80 76 81 84 82 77 83 79 84
REMARK SMILES IDX 85 85 78 86 80 87 81 88 82 89 83 90 60 91 61 92 69 93 62 94
REMARK SMILES IDX 64 95 70 96 63 97 65 98 66 99 67 100 68 101
REMARK H PARENT 90 54 58 65
REMARK Flexibility Score: inf
ROOT
ATOM      1  C   UNL A   1      31.457  31.590  26.687  1.00  0.00     0.202 C 
ENDROOT
BRANCH   1   2
ATOM      2  O   UNL A   1      32.355  30.564  26.266  1.00  0.00    -0.374 OA
BRANCH   2   3
ATOM      3  C   UNL A   1      32.346  29.332  26.975  1.00  0.00     0.202 C 
BRANCH   3   4
ATOM      4  C   UNL A   1      33.609  28.457  26.948  1.00  0.00     0.261 C 
BRANCH   4   5
ATOM      5  O   UNL A   1      33.425  27.208  26.260  1.00  0.00    -0.460 OA
BRANCH   5   6
ATOM      6  C   UNL A   1      33.434  27.277  24.915  1.00  0.00     0.338 C 
ATOM      7  O   UNL A   1      33.999  28.140  24.255  1.00  0.00    -0.246 OA
BRANCH   6   8
ATOM      8  C   UNL A   1      32.837  26.083  24.271  1.00  0.00     0.087 C 
ATOM      9  C   UNL A   1      34.215  22.361  25.517  1.00  0.00     0.026 A 
ATOM     10  C   UNL A   1      35.457  22.644  26.131  1.00  0.00     0.033 A 
ATOM     11  C   UNL A   1      33.588  23.476  24.919  1.00  0.00     0.135 A 
ATOM     12  C   UNL A   1      36.171  23.797  25.801  1.00  0.00     0.042 A 
ATOM     13  C   UNL A   1      34.392  24.482  24.361  1.00  0.00     0.019 A 
ATOM     14  O   UNL A   1      32.316  23.886  25.389  1.00  0.00    -0.475 OA
ATOM     15  Cl  UNL A   1      37.716  24.069  26.499  1.00  0.00    -0.084 Cl
ATOM     16  C   UNL A   1      35.685  24.667  24.835  1.00  0.00     0.032 A 
ATOM     17  C   UNL A   1      33.752  25.488  23.487  1.00  0.00     0.027 C 
ATOM     18  C   UNL A   1      31.774  25.149  24.807  1.00  0.00     0.316 C 
BRANCH   9  19
ATOM     19  C   UNL A   1      34.183  20.971  24.906  1.00  0.00    -0.015 A 
ATOM     20  C   UNL A   1      34.065  18.134  24.589  1.00  0.00     0.067 A 
ATOM     21  C   UNL A   1      32.896  18.895  24.540  1.00  0.00     0.021 A 
ATOM     22  C   UNL A   1      35.297  18.771  24.729  1.00  0.00     0.021 A 
ATOM     23  C   UNL A   1      32.962  20.295  24.680  1.00  0.00     0.010 A 
ATOM     24  C   UNL A   1      35.351  20.173  24.872  1.00  0.00     0.010 A 
BRANCH  20  25
ATOM     25  S   UNL A   1      33.973  16.352  24.626  1.00  0.00     0.175 S 
ATOM     26  C   UNL A   1      32.567  15.980  25.636  1.00  0.00     0.163 C 
ATOM     27  O   UNL A   1      35.145  15.862  25.329  1.00  0.00    -0.224 OA
ATOM     28  O   UNL A   1      33.682  15.910  23.276  1.00  0.00    -0.224 OA
ENDBRANCH  20  25
ENDBRANCH   9  19
BRANCH  18  29
ATOM     29  C   UNL A   1      30.614  25.832  25.568  1.00  0.00     0.430 C 
ATOM     30  F   UNL A   1      29.626  24.917  25.774  1.00  0.00    -0.167 F 
ATOM     31  F   UNL A   1      31.001  26.258  26.792  1.00  0.00    -0.167 F 
ATOM     32  F   UNL A   1      30.054  26.878  24.937  1.00  0.00    -0.167 F 
ENDBRANCH  18  29
ENDBRANCH   6   8
ENDBRANCH   5   6
ENDBRANCH   4   5
ENDBRANCH   3   4
ENDBRANCH   2   3
ENDBRANCH   1   2
BRANCH   1  33
ATOM     33  C   UNL A   1      31.995  33.011  26.872  1.00  0.00     0.261 C 
BRANCH  33  34
ATOM     34  O   UNL A   1      32.824  33.160  28.032  1.00  0.00    -0.460 OA
BRANCH  34  35
ATOM     35  C   UNL A   1      34.004  33.786  27.814  1.00  0.00     0.338 C 
ATOM     36  O   UNL A   1      34.179  34.946  27.461  1.00  0.00    -0.246 OA
BRANCH  35  37
ATOM     37  C   UNL A   1      35.103  32.902  28.220  1.00  0.00     0.060 A 
ATOM     38  C   UNL A   1      34.815  31.567  28.536  1.00  0.00     0.016 A 
ATOM     39  C   UNL A   1      36.391  33.414  28.368  1.00  0.00     0.016 A 
ATOM     40  C   UNL A   1      35.820  30.741  29.037  1.00  0.00     0.010 A 
ATOM     41  C   UNL A   1      37.391  32.589  28.878  1.00  0.00     0.010 A 
ATOM     42  C   UNL A   1      37.102  31.262  29.244  1.00  0.00    -0.014 A 
BRANCH  42  43
ATOM     43  C   UNL A   1      38.124  30.495  29.991  1.00  0.00     0.031 A 
ATOM     44  C   UNL A   1      38.373  30.856  31.428  1.00  0.00     0.074 A 
ATOM     45  C   UNL A   1      38.863  29.555  29.377  1.00  0.00     0.049 A 
ATOM     46  N   UNL A   1      39.337  30.479  32.222  1.00  0.00    -0.248 NA
ATOM     47  C   UNL A   1      37.409  31.785  32.046  1.00  0.00     0.031 C 
ATOM     48  C   UNL A   1      38.687  29.109  27.996  1.00  0.00     0.029 A 
ATOM     49  N   UNL A   1      39.944  28.841  29.829  1.00  0.00    -0.354 N 
ATOM     50  C   UNL A   1      39.124  31.154  33.418  1.00  0.00     0.074 A 
ATOM     51  C   UNL A   1      37.944  31.970  33.244  1.00  0.00     0.031 C 
ATOM     52  C   UNL A   1      39.657  28.227  27.697  1.00  0.00     0.029 A 
ATOM     53  C   UNL A   1      40.544  28.085  28.849  1.00  0.00     0.049 A 
ATOM     54  H   UNL A   1      40.259  28.869  30.761  1.00  0.00     0.167 HD
ATOM     55  C   UNL A   1      39.848  31.092  34.560  1.00  0.00     0.034 A 
ATOM     56  C   UNL A   1      41.702  27.395  28.873  1.00  0.00     0.034 A 
ATOM     57  C   UNL A   1      41.015  30.270  34.720  1.00  0.00     0.049 A 
ATOM     58  C   UNL A   1      42.517  27.382  30.143  1.00  0.00     0.074 A 
ATOM     59  C   UNL A   1      41.810  30.112  35.841  1.00  0.00     0.029 A 
ATOM     60  N   UNL A   1      41.559  29.473  33.725  1.00  0.00    -0.354 N 
ATOM     61  N   UNL A   1      42.269  27.966  31.291  1.00  0.00    -0.248 NA
ATOM     62  C   UNL A   1      43.759  26.595  30.128  1.00  0.00     0.031 C 
ATOM     63  C   UNL A   1      42.854  29.242  35.513  1.00  0.00     0.029 A 
ATOM     64  C   UNL A   1      42.681  28.822  34.203  1.00  0.00     0.049 A 
ATOM     65  H   UNL A   1      41.200  29.384  32.813  1.00  0.00     0.167 HD
ATOM     66  C   UNL A   1      43.288  27.569  32.149  1.00  0.00     0.074 A 
ATOM     67  C   UNL A   1      44.158  26.697  31.389  1.00  0.00     0.031 C 
ATOM     68  C   UNL A   1      43.489  27.899  33.449  1.00  0.00     0.034 A 
BRANCH  55  69
ATOM     69  C   UNL A   1      39.390  31.925  35.728  1.00  0.00     0.023 A 
ATOM     70  C   UNL A   1      39.781  33.276  35.821  1.00  0.00     0.012 A 
ATOM     71  C   UNL A   1      38.528  31.388  36.705  1.00  0.00     0.148 A 
ATOM     72  C   UNL A   1      39.353  34.069  36.884  1.00  0.00     0.002 A 
ATOM     73  C   UNL A   1      38.066  32.197  37.736  1.00  0.00     0.091 A 
ATOM     74  F   UNL A   1      38.182  30.096  36.611  1.00  0.00    -0.205 F 
ATOM     75  C   UNL A   1      38.487  33.534  37.834  1.00  0.00     0.022 A 
BRANCH  73  76
ATOM     76  S   UNL A   1      36.886  31.626  38.964  1.00  0.00     0.127 S 
ATOM     77  O   UNL A   1      37.693  31.655  40.184  1.00  0.00    -0.237 OA
ATOM     78  O   UNL A   1      35.850  32.656  38.894  1.00  0.00    -0.237 OA
ATOM     79  O   UNL A   1      36.461  30.303  38.531  1.00  0.00    -0.744 OA
ENDBRANCH  73  76
ENDBRANCH  55  69
BRANCH  56  80
ATOM     80  C   UNL A   1      42.156  26.641  27.671  1.00  0.00     0.023 A 
ATOM     81  C   UNL A   1      42.853  27.322  26.653  1.00  0.00     0.012 A 
ATOM     82  C   UNL A   1      41.900  25.264  27.524  1.00  0.00     0.148 A 
ATOM     83  C   UNL A   1      43.249  26.656  25.493  1.00  0.00     0.002 A 
ATOM     84  C   UNL A   1      42.347  24.595  26.390  1.00  0.00     0.091 A 
ATOM     85  F   UNL A   1      41.228  24.636  28.497  1.00  0.00    -0.205 F 
ATOM     86  C   UNL A   1      43.002  25.293  25.364  1.00  0.00     0.022 A 
BRANCH  84  87
ATOM     87  S   UNL A   1      42.180  22.817  26.190  1.00  0.00     0.127 S 
ATOM     88  O   UNL A   1      42.764  22.610  24.866  1.00  0.00    -0.237 OA
ATOM     89  O   UNL A   1      42.983  22.312  27.303  1.00  0.00    -0.237 OA
ATOM     90  O   UNL A   1      40.755  22.539  26.301  1.00  0.00    -0.744 OA
ENDBRANCH  84  87
ENDBRANCH  56  80
BRANCH  68  91
ATOM     91  C   UNL A   1      44.637  27.249  34.176  1.00  0.00     0.023 A 
ATOM     92  C   UNL A   1      45.896  27.879  34.227  1.00  0.00     0.012 A 
ATOM     93  C   UNL A   1      44.422  26.065  34.909  1.00  0.00     0.148 A 
ATOM     94  C   UNL A   1      46.930  27.324  34.982  1.00  0.00     0.002 A 
ATOM     95  C   UNL A   1      45.439  25.549  35.701  1.00  0.00     0.091 A 
ATOM     96  F   UNL A   1      43.219  25.477  34.832  1.00  0.00    -0.205 F 
ATOM     97  C   UNL A   1      46.698  26.171  35.728  1.00  0.00     0.022 A 
BRANCH  95  98
ATOM     98  S   UNL A   1      45.200  24.133  36.779  1.00  0.00     0.127 S 
ATOM     99  O   UNL A   1      46.558  23.901  37.270  1.00  0.00    -0.237 OA
ATOM    100  O   UNL A   1      44.271  24.660  37.777  1.00  0.00    -0.237 OA
ATOM    101  O   UNL A   1      44.655  23.072  35.940  1.00  0.00    -0.744 OA
ENDBRANCH  95  98
ENDBRANCH  68  91
ENDBRANCH  42  43
ENDBRANCH  35  37
ENDBRANCH  34  35
ENDBRANCH  33  34
ENDBRANCH   1  33
TORSDOF 20
ENDMDL
MODEL 2
REMARK VINA RESULT:     -12.4      1.512      7.362
REMARK SMILES CS(=O)(=O)c1ccc(-c2cc(Cl)cc3c2O[C@@H](C(F)(F)F)C(C(=O)OCCOCCOC(=O)c2ccc(-c4c5nc(c(-c6cccc(S(=O)(=O)[O-])c6F)c6ccc([nH]6)c(-c6cccc(S(=O)(=O)[O-])c6F)c6nc(c(-c7cccc(S(=O)(=O)[O-])c7F)c7ccc4[nH]7)C=C6)C=C5)cc2)=C3)cc1
REMARK SMILES IDX 29 1 28 2 27 3 26 4 25 5 23 6 24 7 22 8 9 9 10 10 15 11
REMARK SMILES IDX 11 12 14 13 16 14 12 15 13 16 97 17 17 18 8 19 5 20 6 21
REMARK SMILES IDX 99 22 7 23 98 24 2 25 1 26 3 27 4 28 18 29 19 30 20 31 21 32
REMARK SMILES IDX 30 33 31 34 32 35 33 36 34 37 35 38 96 39 36 40 95 41 37 42
REMARK SMILES IDX 38 43 39 44 89 45 40 46 94 47 88 48 90 49 41 50 93 51 87 52
REMARK SMILES IDX 86 53 42 55 74 56 54 57 73 58 55 59 58 60 72 61 91 62 56 63
REMARK SMILES IDX 57 64 71 66 92 67 59 68 43 69 44 70 52 71 45 72 47 73 53 74
REMARK SMILES IDX 46 75 48 76 49 77 50 78 51 79 75 80 76 81 84 82 77 83 79 84
REMARK SMILES IDX 85 85 78 86 80 87 81 88 82 89 83 90 60 91 61 92 69 93 62 94
REMARK SMILES IDX 64 95 70 96 63 97 65 98 66 99 67 100 68 101
REMARK H PARENT 90 54 58 65
REMARK Flexibility Score: inf
ROOT
ATOM      1  C   UNL A   1      31.010  29.470  25.183  1.00  0.00     0.202 C 
ENDROOT
BRANCH   1   2
ATOM      2  O   UNL A   1      30.415  29.526  23.888  1.00  0.00    -0.374 OA
BRANCH   2   3
ATOM      3  C   UNL A   1      31.211  29.166  22.767  1.00  0.00     0.202 C 
BRANCH   3   4
ATOM      4  C   UNL A   1      31.763  27.734  22.685  1.00  0.00     0.261 C 
BRANCH   4   5
ATOM      5  O   UNL A   1      33.098  27.605  23.204  1.00  0.00    -0.460 OA
BRANCH   5   6
ATOM      6  C   UNL A   1      33.235  26.785  24.263  1.00  0.00     0.338 C 
ATOM      7  O   UNL A   1      33.678  27.110  25.357  1.00  0.00    -0.246 OA
BRANCH   6   8
ATOM      8  C   UNL A   1      32.619  25.454  24.047  1.00  0.00     0.087 C 
ATOM      9  C   UNL A   1      34.278  22.238  26.098  1.00  0.00     0.026 A 
ATOM     10  C   UNL A   1      35.567  22.690  26.460  1.00  0.00     0.033 A 
ATOM     11  C   UNL A   1      33.543  23.137  25.294  1.00  0.00     0.135 A 
ATOM     12  C   UNL A   1      36.192  23.712  25.744  1.00  0.00     0.042 A 
ATOM     13  C   UNL A   1      34.238  23.955  24.390  1.00  0.00     0.019 A 
ATOM     14  O   UNL A   1      32.315  23.650  25.779  1.00  0.00    -0.475 OA
ATOM     15  Cl  UNL A   1      37.793  24.181  26.153  1.00  0.00    -0.084 Cl
ATOM     16  C   UNL A   1      35.567  24.275  24.640  1.00  0.00     0.032 A 
ATOM     17  C   UNL A   1      33.466  24.672  23.355  1.00  0.00     0.027 C 
ATOM     18  C   UNL A   1      31.661  24.697  24.941  1.00  0.00     0.316 C 
BRANCH   9  19
ATOM     19  C   UNL A   1      34.235  20.731  25.901  1.00  0.00    -0.015 A 
ATOM     20  C   UNL A   1      33.827  18.141  24.768  1.00  0.00     0.067 A 
ATOM     21  C   UNL A   1      35.057  18.783  24.625  1.00  0.00     0.021 A 
ATOM     22  C   UNL A   1      32.819  18.742  25.520  1.00  0.00     0.021 A 
ATOM     23  C   UNL A   1      35.259  20.053  25.201  1.00  0.00     0.010 A 
ATOM     24  C   UNL A   1      33.030  20.015  26.088  1.00  0.00     0.010 A 
BRANCH  20  25
ATOM     25  S   UNL A   1      33.491  16.636  23.869  1.00  0.00     0.175 S 
ATOM     26  C   UNL A   1      32.556  15.627  24.984  1.00  0.00     0.163 C 
ATOM     27  O   UNL A   1      34.757  15.962  23.642  1.00  0.00    -0.224 OA
ATOM     28  O   UNL A   1      32.630  16.985  22.756  1.00  0.00    -0.224 OA
ENDBRANCH  20  25
ENDBRANCH   9  19
BRANCH  18  29
ATOM     29  C   UNL A   1      30.565  25.554  25.615  1.00  0.00     0.430 C 
ATOM     30  F   UNL A   1      29.912  26.265  24.654  1.00  0.00    -0.167 F 
ATOM     31  F   UNL A   1      29.632  24.786  26.223  1.00  0.00    -0.167 F 
ATOM     32  F   UNL A   1      31.010  26.439  26.524  1.00  0.00    -0.167 F 
ENDBRANCH  18  29
ENDBRANCH   6   8
ENDBRANCH   5   6
ENDBRANCH   4   5
ENDBRANCH   3   4
ENDBRANCH   2   3
ENDBRANCH   1   2
BRANCH   1  33
ATOM     33  C   UNL A   1      32.207  30.375  25.485  1.00  0.00     0.261 C 
BRANCH  33  34
ATOM     34  O   UNL A   1      32.515  30.468  26.882  1.00  0.00    -0.460 OA
BRANCH  34  35
ATOM     35  C   UNL A   1      33.157  31.600  27.252  1.00  0.00     0.338 C 
ATOM     36  O   UNL A   1      32.688  32.728  27.343  1.00  0.00    -0.246 OA
BRANCH  35  37
ATOM     37  C   UNL A   1      34.514  31.262  27.700  1.00  0.00     0.060 A 
ATOM     38  C   UNL A   1      34.817  29.924  27.989  1.00  0.00     0.016 A 
ATOM     39  C   UNL A   1      35.449  32.274  27.912  1.00  0.00     0.016 A 
ATOM     40  C   UNL A   1      36.060  29.596  28.528  1.00  0.00     0.010 A 
ATOM     41  C   UNL A   1      36.687  31.943  28.459  1.00  0.00     0.010 A 
ATOM     42  C   UNL A   1      36.984  30.611  28.799  1.00  0.00    -0.014 A 
BRANCH  42  43
ATOM     43  C   UNL A   1      38.208  30.337  29.584  1.00  0.00     0.031 A 
ATOM     44  C   UNL A   1      39.210  29.368  29.023  1.00  0.00     0.074 A 
ATOM     45  C   UNL A   1      38.380  30.880  30.801  1.00  0.00     0.049 A 
ATOM     46  N   UNL A   1      40.243  28.816  29.599  1.00  0.00    -0.248 NA
ATOM     47  C   UNL A   1      39.005  28.952  27.623  1.00  0.00     0.031 C 
ATOM     48  C   UNL A   1      37.486  31.851  31.428  1.00  0.00     0.029 A 
ATOM     49  N   UNL A   1      39.349  30.651  31.746  1.00  0.00    -0.354 N 
ATOM     50  C   UNL A   1      40.787  27.958  28.651  1.00  0.00     0.074 A 
ATOM     51  C   UNL A   1      39.966  28.054  27.465  1.00  0.00     0.031 C 
ATOM     52  C   UNL A   1      37.922  32.103  32.675  1.00  0.00     0.029 A 
ATOM     53  C   UNL A   1      39.097  31.277  32.945  1.00  0.00     0.049 A 
ATOM     54  H   UNL A   1      40.143  30.094  31.582  1.00  0.00     0.167 HD
ATOM     55  C   UNL A   1      41.878  27.164  28.762  1.00  0.00     0.034 A 
ATOM     56  C   UNL A   1      39.721  31.157  34.134  1.00  0.00     0.034 A 
ATOM     57  C   UNL A   1      42.687  27.084  29.946  1.00  0.00     0.049 A 
ATOM     58  C   UNL A   1      40.904  30.227  34.246  1.00  0.00     0.074 A 
ATOM     59  C   UNL A   1      43.828  26.332  30.160  1.00  0.00     0.029 A 
ATOM     60  N   UNL A   1      42.436  27.776  31.121  1.00  0.00    -0.354 N 
ATOM     61  N   UNL A   1      41.454  29.474  33.324  1.00  0.00    -0.248 NA
ATOM     62  C   UNL A   1      41.568  30.149  35.556  1.00  0.00     0.031 C 
ATOM     63  C   UNL A   1      44.248  26.546  31.476  1.00  0.00     0.029 A 
ATOM     64  C   UNL A   1      43.397  27.468  32.065  1.00  0.00     0.049 A 
ATOM     65  H   UNL A   1      41.683  28.395  31.262  1.00  0.00     0.167 HD
ATOM     66  C   UNL A   1      42.560  28.882  33.924  1.00  0.00     0.074 A 
ATOM     67  C   UNL A   1      42.601  29.362  35.289  1.00  0.00     0.031 C 
ATOM     68  C   UNL A   1      43.460  28.016  33.394  1.00  0.00     0.034 A 
BRANCH  55  69
ATOM     69  C   UNL A   1      42.264  26.330  27.569  1.00  0.00     0.023 A 
ATOM     70  C   UNL A   1      43.025  26.903  26.531  1.00  0.00     0.012 A 
ATOM     71  C   UNL A   1      41.921  24.965  27.501  1.00  0.00     0.148 A 
ATOM     72  C   UNL A   1      43.409  26.144  25.427  1.00  0.00     0.002 A 
ATOM     73  C   UNL A   1      42.348  24.202  26.421  1.00  0.00     0.091 A 
ATOM     74  F   UNL A   1      41.180  24.442  28.487  1.00  0.00    -0.205 F 
ATOM     75  C   UNL A   1      43.080  24.792  25.377  1.00  0.00     0.022 A 
BRANCH  73  76
ATOM     76  S   UNL A   1      42.045  22.435  26.301  1.00  0.00     0.127 S 
ATOM     77  O   UNL A   1      42.674  21.944  27.526  1.00  0.00    -0.237 OA
ATOM     78  O   UNL A   1      40.583  22.376  26.300  1.00  0.00    -0.237 OA
ATOM     79  O   UNL A   1      42.673  22.001  25.062  1.00  0.00    -0.744 OA
ENDBRANCH  73  76
ENDBRANCH  55  69
BRANCH  56  80
ATOM     80  C   UNL A   1      39.261  31.947  35.311  1.00  0.00     0.023 A 
ATOM     81  C   UNL A   1      38.312  31.387  36.189  1.00  0.00     0.012 A 
ATOM     82  C   UNL A   1      39.748  33.244  35.564  1.00  0.00     0.148 A 
ATOM     83  C   UNL A   1      37.825  32.119  37.272  1.00  0.00     0.002 A 
ATOM     84  C   UNL A   1      39.299  33.946  36.676  1.00  0.00     0.091 A 
ATOM     85  F   UNL A   1      40.642  33.764  34.712  1.00  0.00    -0.205 F 
ATOM     86  C   UNL A   1      38.323  33.395  37.520  1.00  0.00     0.022 A 
BRANCH  84  87
ATOM     87  S   UNL A   1      39.970  35.547  37.143  1.00  0.00     0.127 S 
ATOM     88  O   UNL A   1      39.247  35.823  38.382  1.00  0.00    -0.237 OA
ATOM     89  O   UNL A   1      41.389  35.240  37.313  1.00  0.00    -0.237 OA
ATOM     90  O   UNL A   1      39.676  36.438  36.030  1.00  0.00    -0.744 OA
ENDBRANCH  84  87
ENDBRANCH  56  80
BRANCH  68  91
ATOM     91  C   UNL A   1      44.626  27.595  34.250  1.00  0.00     0.023 A 
ATOM     92  C   UNL A   1      45.786  28.390  34.315  1.00  0.00     0.012 A 
ATOM     93  C   UNL A   1      44.511  26.463  35.082  1.00  0.00     0.148 A 
ATOM     94  C   UNL A   1      46.825  28.049  35.182  1.00  0.00     0.002 A 
ATOM     95  C   UNL A   1      45.525  26.161  35.980  1.00  0.00     0.091 A 
ATOM     96  F   UNL A   1      43.403  25.713  34.990  1.00  0.00    -0.205 F 
ATOM     97  C   UNL A   1      46.689  26.947  36.023  1.00  0.00     0.022 A 
BRANCH  95  98
ATOM     98  S   UNL A   1      45.392  24.828  37.177  1.00  0.00     0.127 S 
ATOM     99  O   UNL A   1      46.572  25.056  38.008  1.00  0.00    -0.237 OA
ATOM    100  O   UNL A   1      44.117  25.127  37.829  1.00  0.00    -0.237 OA
ATOM    101  O   UNL A   1      45.406  23.591  36.407  1.00  0.00    -0.744 OA
ENDBRANCH  95  98
ENDBRANCH  68  91
ENDBRANCH  42  43
ENDBRANCH  35  37
ENDBRANCH  34  35
ENDBRANCH  33  34
ENDBRANCH   1  33
TORSDOF 20
ENDMDL
MODEL 3
REMARK VINA RESULT:     -12.1      2.340      3.043
REMARK SMILES CS(=O)(=O)c1ccc(-c2cc(Cl)cc3c2O[C@@H](C(F)(F)F)C(C(=O)OCCOCCOC(=O)c2ccc(-c4c5nc(c(-c6cccc(S(=O)(=O)[O-])c6F)c6ccc([nH]6)c(-c6cccc(S(=O)(=O)[O-])c6F)c6nc(c(-c7cccc(S(=O)(=O)[O-])c7F)c7ccc4[nH]7)C=C6)C=C5)cc2)=C3)cc1
REMARK SMILES IDX 29 1 28 2 27 3 26 4 25 5 23 6 24 7 22 8 9 9 10 10 15 11
REMARK SMILES IDX 11 12 14 13 16 14 12 15 13 16 97 17 17 18 8 19 5 20 6 21
REMARK SMILES IDX 99 22 7 23 98 24 2 25 1 26 3 27 4 28 18 29 19 30 20 31 21 32
REMARK SMILES IDX 30 33 31 34 32 35 33 36 34 37 35 38 96 39 36 40 95 41 37 42
REMARK SMILES IDX 38 43 39 44 89 45 40 46 94 47 88 48 90 49 41 50 93 51 87 52
REMARK SMILES IDX 86 53 42 55 74 56 54 57 73 58 55 59 58 60 72 61 91 62 56 63
REMARK SMILES IDX 57 64 71 66 92 67 59 68 43 69 44 70 52 71 45 72 47 73 53 74
REMARK SMILES IDX 46 75 48 76 49 77 50 78 51 79 75 80 76 81 84 82 77 83 79 84
REMARK SMILES IDX 85 85 78 86 80 87 81 88 82 89 83 90 60 91 61 92 69 93 62 94
REMARK SMILES IDX 64 95 70 96 63 97 65 98 66 99 67 100 68 101
REMARK H PARENT 90 54 58 65
REMARK Flexibility Score: inf
ROOT
ATOM      1  C   UNL A   1      31.506  32.707  26.870  1.00  0.00     0.202 C 
ENDROOT
BRANCH   1   2
ATOM      2  O   UNL A   1      31.476  31.468  26.164  1.00  0.00    -0.374 OA
BRANCH   2   3
ATOM      3  C   UNL A   1      32.537  30.547  26.380  1.00  0.00     0.202 C 
BRANCH   3   4
ATOM      4  C   UNL A   1      32.194  29.116  26.822  1.00  0.00     0.261 C 
BRANCH   4   5
ATOM      5  O   UNL A   1      33.047  28.117  26.239  1.00  0.00    -0.460 OA
BRANCH   5   6
ATOM      6  C   UNL A   1      32.417  27.122  25.585  1.00  0.00     0.338 C 
ATOM      7  O   UNL A   1      31.207  27.042  25.414  1.00  0.00    -0.246 OA
BRANCH   6   8
ATOM      8  C   UNL A   1      33.353  26.190  24.911  1.00  0.00     0.087 C 
ATOM      9  C   UNL A   1      32.027  22.299  24.274  1.00  0.00     0.026 A 
ATOM     10  C   UNL A   1      30.956  22.148  25.184  1.00  0.00     0.033 A 
ATOM     11  C   UNL A   1      32.714  23.529  24.372  1.00  0.00     0.135 A 
ATOM     12  C   UNL A   1      30.874  22.944  26.327  1.00  0.00     0.042 A 
ATOM     13  C   UNL A   1      32.819  24.144  25.629  1.00  0.00     0.019 A 
ATOM     14  O   UNL A   1      32.737  24.397  23.252  1.00  0.00    -0.475 OA
ATOM     15  Cl  UNL A   1      29.609  22.679  27.459  1.00  0.00    -0.084 Cl
ATOM     16  C   UNL A   1      31.865  23.875  26.604  1.00  0.00     0.032 A 
ATOM     17  C   UNL A   1      33.773  25.261  25.787  1.00  0.00     0.027 C 
ATOM     18  C   UNL A   1      33.361  25.735  23.468  1.00  0.00     0.316 C 
BRANCH   9  19
ATOM     19  C   UNL A   1      32.732  20.981  23.997  1.00  0.00    -0.015 A 
ATOM     20  C   UNL A   1      33.449  18.216  24.019  1.00  0.00     0.067 A 
ATOM     21  C   UNL A   1      32.579  18.708  23.045  1.00  0.00     0.021 A 
ATOM     22  C   UNL A   1      34.016  19.093  24.942  1.00  0.00     0.021 A 
ATOM     23  C   UNL A   1      32.242  20.075  23.029  1.00  0.00     0.010 A 
ATOM     24  C   UNL A   1      33.669  20.459  24.919  1.00  0.00     0.010 A 
BRANCH  20  25
ATOM     25  S   UNL A   1      33.714  16.458  24.180  1.00  0.00     0.175 S 
ATOM     26  C   UNL A   1      35.126  16.296  25.236  1.00  0.00     0.163 C 
ATOM     27  O   UNL A   1      34.095  15.945  22.876  1.00  0.00    -0.224 OA
ATOM     28  O   UNL A   1      32.568  15.915  24.882  1.00  0.00    -0.224 OA
ENDBRANCH  20  25
ENDBRANCH   9  19
BRANCH  18  29
ATOM     29  C   UNL A   1      33.048  26.833  22.425  1.00  0.00     0.430 C 
ATOM     30  F   UNL A   1      33.687  27.979  22.790  1.00  0.00    -0.167 F 
ATOM     31  F   UNL A   1      33.519  26.507  21.199  1.00  0.00    -0.167 F 
ATOM     32  F   UNL A   1      31.746  27.136  22.287  1.00  0.00    -0.167 F 
ENDBRANCH  18  29
ENDBRANCH   6   8
ENDBRANCH   5   6
ENDBRANCH   4   5
ENDBRANCH   3   4
ENDBRANCH   2   3
ENDBRANCH   1   2
BRANCH   1  33
ATOM     33  C   UNL A   1      32.705  33.014  27.772  1.00  0.00     0.261 C 
BRANCH  33  34
ATOM     34  O   UNL A   1      33.200  34.351  27.628  1.00  0.00    -0.460 OA
BRANCH  34  35
ATOM     35  C   UNL A   1      33.269  35.062  28.778  1.00  0.00     0.338 C 
ATOM     36  O   UNL A   1      32.498  35.932  29.164  1.00  0.00    -0.246 OA
BRANCH  35  37
ATOM     37  C   UNL A   1      34.350  34.527  29.613  1.00  0.00     0.060 A 
ATOM     38  C   UNL A   1      35.670  34.609  29.147  1.00  0.00     0.016 A 
ATOM     39  C   UNL A   1      34.049  33.873  30.807  1.00  0.00     0.016 A 
ATOM     40  C   UNL A   1      36.699  34.003  29.866  1.00  0.00     0.010 A 
ATOM     41  C   UNL A   1      35.079  33.261  31.519  1.00  0.00     0.010 A 
ATOM     42  C   UNL A   1      36.399  33.295  31.035  1.00  0.00    -0.014 A 
BRANCH  42  43
ATOM     43  C   UNL A   1      37.416  32.445  31.692  1.00  0.00     0.031 A 
ATOM     44  C   UNL A   1      37.922  32.859  33.045  1.00  0.00     0.074 A 
ATOM     45  C   UNL A   1      37.929  31.374  31.061  1.00  0.00     0.049 A 
ATOM     46  N   UNL A   1      38.939  32.403  33.724  1.00  0.00    -0.248 NA
ATOM     47  C   UNL A   1      37.188  33.949  33.712  1.00  0.00     0.031 C 
ATOM     48  C   UNL A   1      37.492  30.870  29.760  1.00  0.00     0.029 A 
ATOM     49  N   UNL A   1      38.966  30.549  31.414  1.00  0.00    -0.354 N 
ATOM     50  C   UNL A   1      38.996  33.176  34.878  1.00  0.00     0.074 A 
ATOM     51  C   UNL A   1      37.916  34.135  34.803  1.00  0.00     0.031 C 
ATOM     52  C   UNL A   1      38.286  29.845  29.402  1.00  0.00     0.029 A 
ATOM     53  C   UNL A   1      39.310  29.656  30.426  1.00  0.00     0.049 A 
ATOM     54  H   UNL A   1      39.418  30.592  32.287  1.00  0.00     0.167 HD
ATOM     55  C   UNL A   1      39.869  33.088  35.908  1.00  0.00     0.034 A 
ATOM     56  C   UNL A   1      40.362  28.816  30.345  1.00  0.00     0.034 A 
ATOM     57  C   UNL A   1      40.933  32.125  35.970  1.00  0.00     0.049 A 
ATOM     58  C   UNL A   1      41.350  28.771  31.484  1.00  0.00     0.074 A 
ATOM     59  C   UNL A   1      41.860  31.931  36.977  1.00  0.00     0.029 A 
ATOM     60  N   UNL A   1      41.216  31.199  34.979  1.00  0.00    -0.354 N 
ATOM     61  N   UNL A   1      41.354  29.456  32.603  1.00  0.00    -0.248 NA
ATOM     62  C   UNL A   1      42.466  27.821  31.361  1.00  0.00     0.031 C 
ATOM     63  C   UNL A   1      42.724  30.907  36.579  1.00  0.00     0.029 A 
ATOM     64  C   UNL A   1      42.305  30.431  35.346  1.00  0.00     0.049 A 
ATOM     65  H   UNL A   1      40.715  31.102  34.136  1.00  0.00     0.167 HD
ATOM     66  C   UNL A   1      42.432  28.978  33.339  1.00  0.00     0.074 A 
ATOM     67  C   UNL A   1      43.060  27.948  32.540  1.00  0.00     0.031 C 
ATOM     68  C   UNL A   1      42.866  29.359  34.566  1.00  0.00     0.034 A 
BRANCH  55  69
ATOM     69  C   UNL A   1      39.702  34.050  37.055  1.00  0.00     0.023 A 
ATOM     70  C   UNL A   1      40.114  35.390  36.912  1.00  0.00     0.012 A 
ATOM     71  C   UNL A   1      39.086  33.641  38.255  1.00  0.00     0.148 A 
ATOM     72  C   UNL A   1      39.951  36.299  37.955  1.00  0.00     0.002 A 
ATOM     73  C   UNL A   1      38.883  34.566  39.273  1.00  0.00     0.091 A 
ATOM     74  F   UNL A   1      38.718  32.359  38.381  1.00  0.00    -0.205 F 
ATOM     75  C   UNL A   1      39.325  35.891  39.130  1.00  0.00     0.022 A 
BRANCH  73  76
ATOM     76  S   UNL A   1      38.016  34.160  40.793  1.00  0.00     0.127 S 
ATOM     77  O   UNL A   1      39.008  33.341  41.489  1.00  0.00    -0.237 OA
ATOM     78  O   UNL A   1      37.796  35.481  41.381  1.00  0.00    -0.237 OA
ATOM     79  O   UNL A   1      36.804  33.460  40.393  1.00  0.00    -0.744 OA
ENDBRANCH  73  76
ENDBRANCH  55  69
BRANCH  56  80
ATOM     80  C   UNL A   1      40.531  27.931  29.157  1.00  0.00     0.023 A 
ATOM     81  C   UNL A   1      39.773  26.747  29.066  1.00  0.00     0.012 A 
ATOM     82  C   UNL A   1      41.436  28.248  28.125  1.00  0.00     0.148 A 
ATOM     83  C   UNL A   1      39.944  25.873  27.992  1.00  0.00     0.002 A 
ATOM     84  C   UNL A   1      41.560  27.401  27.030  1.00  0.00     0.091 A 
ATOM     85  F   UNL A   1      42.155  29.373  28.234  1.00  0.00    -0.205 F 
ATOM     86  C   UNL A   1      40.831  26.203  26.971  1.00  0.00     0.022 A 
BRANCH  84  87
ATOM     87  S   UNL A   1      42.589  27.799  25.612  1.00  0.00     0.127 S 
ATOM     88  O   UNL A   1      42.442  26.600  24.791  1.00  0.00    -0.237 OA
ATOM     89  O   UNL A   1      41.925  28.991  25.085  1.00  0.00    -0.237 OA
ATOM     90  O   UNL A   1      43.922  28.039  26.146  1.00  0.00    -0.744 OA
ENDBRANCH  84  87
ENDBRANCH  56  80
BRANCH  68  91
ATOM     91  C   UNL A   1      44.019  28.605  35.176  1.00  0.00     0.023 A 
ATOM     92  C   UNL A   1      45.345  28.927  34.829  1.00  0.00     0.012 A 
ATOM     93  C   UNL A   1      43.777  27.654  36.188  1.00  0.00     0.148 A 
ATOM     94  C   UNL A   1      46.413  28.295  35.466  1.00  0.00     0.002 A 
ATOM     95  C   UNL A   1      44.845  27.070  36.855  1.00  0.00     0.091 A 
ATOM     96  F   UNL A   1      42.505  27.354  36.490  1.00  0.00    -0.205 F 
ATOM     97  C   UNL A   1      46.164  27.380  36.487  1.00  0.00     0.022 A 
BRANCH  95  98
ATOM     98  S   UNL A   1      44.622  25.965  38.253  1.00  0.00     0.127 S 
ATOM     99  O   UNL A   1      43.724  24.956  37.693  1.00  0.00    -0.237 OA
ATOM    100  O   UNL A   1      45.987  25.500  38.498  1.00  0.00    -0.237 OA
ATOM    101  O   UNL A   1      44.054  26.774  39.323  1.00  0.00    -0.744 OA
ENDBRANCH  95  98
ENDBRANCH  68  91
ENDBRANCH  42  43
ENDBRANCH  35  37
ENDBRANCH  34  35
ENDBRANCH  33  34
ENDBRANCH   1  33
TORSDOF 20
ENDMDL
