MODEL 1
REMARK VINA RESULT:     -11.5      0.000      0.000
REMARK SMILES O=C1CN(S(=O)(=O)c2ccc(CC(=O)OCCOCCOC(=O)c3ccc(-c4c5nc(c(-c6cccc(S(=O)(=O)[O-])c6F)c6ccc([nH]6)c(-c6cccc(S(=O)(=O)[O-])c6F)c6nc(c(-c7cccc(S(=O)(=O)[O-])c7F)c7ccc4[nH]7)C=C6)C=C5)cc3)cc2)CCN1
REMARK SMILES IDX 18 1 17 2 16 3 15 4 13 5 14 6 12 7 11 8 8 9 9 10 88 11 10 12
REMARK SMILES IDX 87 13 5 14 6 15 7 16 4 17 1 18 2 19 3 20 91 21 90 22 89 24
REMARK SMILES IDX 19 25 20 26 21 27 22 28 23 29 24 30 25 31 86 32 26 33 85 34
REMARK SMILES IDX 27 35 28 36 29 37 79 38 30 39 84 40 78 41 80 42 31 43 83 44
REMARK SMILES IDX 77 45 76 46 32 48 64 49 44 50 63 51 45 52 48 53 62 54 81 55
REMARK SMILES IDX 46 56 47 57 61 59 82 60 49 61 33 62 34 63 42 64 35 65 37 66
REMARK SMILES IDX 43 67 36 68 38 69 39 70 40 71 41 72 65 73 66 74 74 75 67 76
REMARK SMILES IDX 69 77 75 78 68 79 70 80 71 81 72 82 73 83 50 84 51 85 59 86
REMARK SMILES IDX 52 87 54 88 60 89 53 90 55 91 56 92 57 93 58 94
REMARK H PARENT 91 23 80 47 48 58
REMARK Flexibility Score: inf
ROOT
ATOM      1  O   UNL A   1      32.409  29.274  23.941  1.00  0.00    -0.374 OA
ENDROOT
BRANCH   1   2
ATOM      2  C   UNL A   1      33.261  28.396  23.209  1.00  0.00     0.202 C 
BRANCH   2   3
ATOM      3  C   UNL A   1      32.636  27.116  22.640  1.00  0.00     0.261 C 
BRANCH   3   4
ATOM      4  O   UNL A   1      31.231  26.999  22.929  1.00  0.00    -0.463 OA
BRANCH   4   5
ATOM      5  C   UNL A   1      30.903  26.124  23.914  1.00  0.00     0.310 C 
ATOM      6  O   UNL A   1      31.012  26.353  25.116  1.00  0.00    -0.252 OA
BRANCH   5   7
ATOM      7  C   UNL A   1      30.405  24.784  23.420  1.00  0.00     0.158 C 
BRANCH   7   8
ATOM      8  C   UNL A   1      31.106  23.526  23.884  1.00  0.00    -0.037 A 
ATOM      9  C   UNL A   1      32.513  21.258  24.769  1.00  0.00     0.082 A 
ATOM     10  C   UNL A   1      31.580  21.868  25.612  1.00  0.00     0.022 A 
ATOM     11  C   UNL A   1      32.720  21.754  23.479  1.00  0.00     0.022 A 
ATOM     12  C   UNL A   1      30.883  23.000  25.169  1.00  0.00     0.006 A 
ATOM     13  C   UNL A   1      32.031  22.888  23.045  1.00  0.00     0.006 A 
BRANCH   9  14
ATOM     14  S   UNL A   1      33.288  19.732  25.253  1.00  0.00     0.243 S 
ATOM     15  O   UNL A   1      33.393  19.748  26.701  1.00  0.00    -0.207 OA
ATOM     16  O   UNL A   1      34.466  19.560  24.438  1.00  0.00    -0.207 OA
BRANCH  14  17
ATOM     17  N   UNL A   1      32.197  18.489  24.806  1.00  0.00    -0.187 NA
ATOM     18  O   UNL A   1      34.166  15.445  25.318  1.00  0.00    -0.274 OA
ATOM     19  C   UNL A   1      33.587  16.355  24.731  1.00  0.00     0.235 C 
ATOM     20  C   UNL A   1      32.458  17.139  25.381  1.00  0.00     0.202 C 
ATOM     21  N   UNL A   1      33.847  16.609  23.409  1.00  0.00    -0.354 N 
ATOM     22  C   UNL A   1      33.316  17.746  22.680  1.00  0.00     0.132 C 
ATOM     23  H   UNL A   1      34.430  15.981  22.924  1.00  0.00     0.163 HD
ATOM     24  C   UNL A   1      32.052  18.347  23.314  1.00  0.00     0.124 C 
ENDBRANCH  14  17
ENDBRANCH   9  14
ENDBRANCH   7   8
ENDBRANCH   5   7
ENDBRANCH   4   5
ENDBRANCH   3   4
ENDBRANCH   2   3
ENDBRANCH   1   2
BRANCH   1  25
ATOM     25  C   UNL A   1      32.692  29.467  25.325  1.00  0.00     0.202 C 
BRANCH  25  26
ATOM     26  C   UNL A   1      32.058  30.674  26.027  1.00  0.00     0.261 C 
BRANCH  26  27
ATOM     27  O   UNL A   1      32.518  30.850  27.375  1.00  0.00    -0.460 OA
BRANCH  27  28
ATOM     28  C   UNL A   1      33.344  31.913  27.546  1.00  0.00     0.338 C 
ATOM     29  O   UNL A   1      33.024  33.090  27.591  1.00  0.00    -0.246 OA
BRANCH  28  30
ATOM     30  C   UNL A   1      34.712  31.461  27.866  1.00  0.00     0.060 A 
ATOM     31  C   UNL A   1      34.902  30.083  28.042  1.00  0.00     0.016 A 
ATOM     32  C   UNL A   1      35.761  32.356  28.081  1.00  0.00     0.016 A 
ATOM     33  C   UNL A   1      36.118  29.601  28.513  1.00  0.00     0.010 A 
ATOM     34  C   UNL A   1      36.984  31.869  28.557  1.00  0.00     0.010 A 
ATOM     35  C   UNL A   1      37.149  30.497  28.824  1.00  0.00    -0.014 A 
BRANCH  35  36
ATOM     36  C   UNL A   1      38.323  30.007  29.587  1.00  0.00     0.031 A 
ATOM     37  C   UNL A   1      38.520  30.486  31.002  1.00  0.00     0.074 A 
ATOM     38  C   UNL A   1      39.180  29.126  29.042  1.00  0.00     0.049 A 
ATOM     39  N   UNL A   1      39.465  30.183  31.853  1.00  0.00    -0.248 NA
ATOM     40  C   UNL A   1      37.520  31.432  31.525  1.00  0.00     0.031 C 
ATOM     41  C   UNL A   1      39.086  28.587  27.687  1.00  0.00     0.029 A 
ATOM     42  N   UNL A   1      40.309  28.545  29.560  1.00  0.00    -0.354 N 
ATOM     43  C   UNL A   1      39.193  30.923  33.000  1.00  0.00     0.074 A 
ATOM     44  C   UNL A   1      38.003  31.699  32.730  1.00  0.00     0.031 C 
ATOM     45  C   UNL A   1      40.132  27.771  27.470  1.00  0.00     0.029 A 
ATOM     46  C   UNL A   1      40.977  27.746  28.663  1.00  0.00     0.049 A 
ATOM     47  H   UNL A   1      40.613  28.685  30.487  1.00  0.00     0.167 HD
ATOM     48  C   UNL A   1      39.863  30.943  34.175  1.00  0.00     0.034 A 
ATOM     49  C   UNL A   1      42.146  27.086  28.786  1.00  0.00     0.034 A 
ATOM     50  C   UNL A   1      41.034  30.153  34.445  1.00  0.00     0.049 A 
ATOM     51  C   UNL A   1      42.879  27.132  30.102  1.00  0.00     0.074 A 
ATOM     52  C   UNL A   1      41.762  30.067  35.619  1.00  0.00     0.029 A 
ATOM     53  N   UNL A   1      41.655  29.320  33.528  1.00  0.00    -0.354 N 
ATOM     54  N   UNL A   1      42.547  27.747  31.212  1.00  0.00    -0.248 NA
ATOM     55  C   UNL A   1      44.127  26.361  30.195  1.00  0.00     0.031 C 
ATOM     56  C   UNL A   1      42.841  29.203  35.400  1.00  0.00     0.029 A 
ATOM     57  C   UNL A   1      42.762  28.722  34.104  1.00  0.00     0.049 A 
ATOM     58  H   UNL A   1      41.352  29.176  32.602  1.00  0.00     0.167 HD
ATOM     59  C   UNL A   1      43.519  27.402  32.146  1.00  0.00     0.074 A 
ATOM     60  C   UNL A   1      44.443  26.513  31.474  1.00  0.00     0.031 C 
ATOM     61  C   UNL A   1      43.640  27.794  33.438  1.00  0.00     0.034 A 
BRANCH  48  62
ATOM     62  C   UNL A   1      39.336  31.837  35.268  1.00  0.00     0.023 A 
ATOM     63  C   UNL A   1      38.374  31.343  36.174  1.00  0.00     0.012 A 
ATOM     64  C   UNL A   1      39.829  33.146  35.430  1.00  0.00     0.148 A 
ATOM     65  C   UNL A   1      37.888  32.149  37.202  1.00  0.00     0.002 A 
ATOM     66  C   UNL A   1      39.372  33.928  36.485  1.00  0.00     0.091 A 
ATOM     67  F   UNL A   1      40.726  33.606  34.547  1.00  0.00    -0.205 F 
ATOM     68  C   UNL A   1      38.393  33.436  37.364  1.00  0.00     0.022 A 
BRANCH  66  69
ATOM     69  S   UNL A   1      40.019  35.570  36.825  1.00  0.00     0.127 S 
ATOM     70  O   UNL A   1      41.455  35.309  36.917  1.00  0.00    -0.237 OA
ATOM     71  O   UNL A   1      39.610  36.314  35.634  1.00  0.00    -0.237 OA
ATOM     72  O   UNL A   1      39.384  36.005  38.061  1.00  0.00    -0.744 OA
ENDBRANCH  66  69
ENDBRANCH  48  62
BRANCH  49  73
ATOM     73  C   UNL A   1      42.676  26.291  27.641  1.00  0.00     0.023 A 
ATOM     74  C   UNL A   1      43.596  26.878  26.752  1.00  0.00     0.012 A 
ATOM     75  C   UNL A   1      42.286  24.952  27.441  1.00  0.00     0.148 A 
ATOM     76  C   UNL A   1      44.093  26.158  25.665  1.00  0.00     0.002 A 
ATOM     77  C   UNL A   1      42.828  24.223  26.390  1.00  0.00     0.091 A 
ATOM     78  F   UNL A   1      41.398  24.417  28.290  1.00  0.00    -0.205 F 
ATOM     79  C   UNL A   1      43.718  24.829  25.490  1.00  0.00     0.022 A 
BRANCH  77  80
ATOM     80  S   UNL A   1      42.502  22.471  26.165  1.00  0.00     0.127 S 
ATOM     81  O   UNL A   1      43.225  22.189  24.927  1.00  0.00    -0.237 OA
ATOM     82  O   UNL A   1      43.098  21.897  27.371  1.00  0.00    -0.237 OA
ATOM     83  O   UNL A   1      41.053  22.346  26.093  1.00  0.00    -0.744 OA
ENDBRANCH  77  80
ENDBRANCH  49  73
BRANCH  61  84
ATOM     84  C   UNL A   1      44.781  27.222  34.240  1.00  0.00     0.023 A 
ATOM     85  C   UNL A   1      45.981  27.948  34.379  1.00  0.00     0.012 A 
ATOM     86  C   UNL A   1      44.632  25.997  34.920  1.00  0.00     0.148 A 
ATOM     87  C   UNL A   1      47.027  27.446  35.152  1.00  0.00     0.002 A 
ATOM     88  C   UNL A   1      45.659  25.528  35.730  1.00  0.00     0.091 A 
ATOM     89  F   UNL A   1      43.490  25.312  34.762  1.00  0.00    -0.205 F 
ATOM     90  C   UNL A   1      46.862  26.243  35.837  1.00  0.00     0.022 A 
BRANCH  88  91
ATOM     91  S   UNL A   1      45.494  24.043  36.727  1.00  0.00     0.127 S 
ATOM     92  O   UNL A   1      46.892  23.703  36.990  1.00  0.00    -0.237 OA
ATOM     93  O   UNL A   1      44.756  24.529  37.893  1.00  0.00    -0.237 OA
ATOM     94  O   UNL A   1      44.762  23.087  35.906  1.00  0.00    -0.744 OA
ENDBRANCH  88  91
ENDBRANCH  61  84
ENDBRANCH  35  36
ENDBRANCH  28  30
ENDBRANCH  27  28
ENDBRANCH  26  27
ENDBRANCH  25  26
ENDBRANCH   1  25
TORSDOF 20
ENDMDL
MODEL 2
REMARK VINA RESULT:     -11.3      2.333      2.888
REMARK SMILES O=C1CN(S(=O)(=O)c2ccc(CC(=O)OCCOCCOC(=O)c3ccc(-c4c5nc(c(-c6cccc(S(=O)(=O)[O-])c6F)c6ccc([nH]6)c(-c6cccc(S(=O)(=O)[O-])c6F)c6nc(c(-c7cccc(S(=O)(=O)[O-])c7F)c7ccc4[nH]7)C=C6)C=C5)cc3)cc2)CCN1
REMARK SMILES IDX 18 1 17 2 16 3 15 4 13 5 14 6 12 7 11 8 8 9 9 10 88 11 10 12
REMARK SMILES IDX 87 13 5 14 6 15 7 16 4 17 1 18 2 19 3 20 91 21 90 22 89 24
REMARK SMILES IDX 19 25 20 26 21 27 22 28 23 29 24 30 25 31 86 32 26 33 85 34
REMARK SMILES IDX 27 35 28 36 29 37 79 38 30 39 84 40 78 41 80 42 31 43 83 44
REMARK SMILES IDX 77 45 76 46 32 48 64 49 44 50 63 51 45 52 48 53 62 54 81 55
REMARK SMILES IDX 46 56 47 57 61 59 82 60 49 61 33 62 34 63 42 64 35 65 37 66
REMARK SMILES IDX 43 67 36 68 38 69 39 70 40 71 41 72 65 73 66 74 74 75 67 76
REMARK SMILES IDX 69 77 75 78 68 79 70 80 71 81 72 82 73 83 50 84 51 85 59 86
REMARK SMILES IDX 52 87 54 88 60 89 53 90 55 91 56 92 57 93 58 94
REMARK H PARENT 91 23 80 47 48 58
REMARK Flexibility Score: inf
ROOT
ATOM      1  O   UNL A   1      32.600  30.434  26.123  1.00  0.00    -0.374 OA
ENDROOT
BRANCH   1   2
ATOM      2  C   UNL A   1      31.813  29.390  25.552  1.00  0.00     0.202 C 
BRANCH   2   3
ATOM      3  C   UNL A   1      31.473  29.497  24.061  1.00  0.00     0.261 C 
BRANCH   3   4
ATOM      4  O   UNL A   1      30.062  29.640  23.814  1.00  0.00    -0.463 OA
BRANCH   4   5
ATOM      5  C   UNL A   1      29.557  28.870  22.816  1.00  0.00     0.310 C 
ATOM      6  O   UNL A   1      29.612  29.153  21.622  1.00  0.00    -0.252 OA
BRANCH   5   7
ATOM      7  C   UNL A   1      28.864  27.611  23.286  1.00  0.00     0.158 C 
BRANCH   7   8
ATOM      8  C   UNL A   1      29.705  26.446  23.760  1.00  0.00    -0.037 A 
ATOM      9  C   UNL A   1      31.164  24.206  24.630  1.00  0.00     0.082 A 
ATOM     10  C   UNL A   1      31.305  24.657  23.315  1.00  0.00     0.022 A 
ATOM     11  C   UNL A   1      30.327  24.887  25.518  1.00  0.00     0.022 A 
ATOM     12  C   UNL A   1      30.574  25.771  22.884  1.00  0.00     0.006 A 
ATOM     13  C   UNL A   1      29.593  25.991  25.082  1.00  0.00     0.006 A 
BRANCH   9  14
ATOM     14  S   UNL A   1      32.200  22.894  25.238  1.00  0.00     0.243 S 
ATOM     15  O   UNL A   1      33.135  22.563  24.178  1.00  0.00    -0.207 OA
ATOM     16  O   UNL A   1      31.340  21.878  25.796  1.00  0.00    -0.207 OA
BRANCH  14  17
ATOM     17  N   UNL A   1      33.083  23.560  26.546  1.00  0.00    -0.187 NA
ATOM     18  O   UNL A   1      36.534  23.498  25.325  1.00  0.00    -0.274 OA
ATOM     19  C   UNL A   1      35.537  23.190  25.973  1.00  0.00     0.235 C 
ATOM     20  C   UNL A   1      34.402  24.170  26.214  1.00  0.00     0.202 C 
ATOM     21  N   UNL A   1      35.475  21.984  26.624  1.00  0.00    -0.354 N 
ATOM     22  C   UNL A   1      34.287  21.482  27.292  1.00  0.00     0.132 C 
ATOM     23  H   UNL A   1      36.284  21.424  26.639  1.00  0.00     0.163 HD
ATOM     24  C   UNL A   1      33.285  22.583  27.674  1.00  0.00     0.124 C 
ENDBRANCH  14  17
ENDBRANCH   9  14
ENDBRANCH   7   8
ENDBRANCH   5   7
ENDBRANCH   4   5
ENDBRANCH   3   4
ENDBRANCH   2   3
ENDBRANCH   1   2
BRANCH   1  25
ATOM     25  C   UNL A   1      32.001  31.227  27.146  1.00  0.00     0.202 C 
BRANCH  25  26
ATOM     26  C   UNL A   1      31.800  32.723  26.870  1.00  0.00     0.261 C 
BRANCH  26  27
ATOM     27  O   UNL A   1      33.023  33.474  26.916  1.00  0.00    -0.460 OA
BRANCH  27  28
ATOM     28  C   UNL A   1      33.497  33.688  28.168  1.00  0.00     0.338 C 
ATOM     29  O   UNL A   1      32.933  34.281  29.075  1.00  0.00    -0.246 OA
BRANCH  28  30
ATOM     30  C   UNL A   1      34.751  32.941  28.383  1.00  0.00     0.060 A 
ATOM     31  C   UNL A   1      34.635  31.630  28.867  1.00  0.00     0.016 A 
ATOM     32  C   UNL A   1      36.007  33.526  28.211  1.00  0.00     0.016 A 
ATOM     33  C   UNL A   1      35.769  30.927  29.257  1.00  0.00     0.010 A 
ATOM     34  C   UNL A   1      37.147  32.818  28.607  1.00  0.00     0.010 A 
ATOM     35  C   UNL A   1      37.028  31.538  29.179  1.00  0.00    -0.014 A 
BRANCH  35  36
ATOM     36  C   UNL A   1      38.182  30.898  29.857  1.00  0.00     0.031 A 
ATOM     37  C   UNL A   1      38.531  31.328  31.258  1.00  0.00     0.074 A 
ATOM     38  C   UNL A   1      38.887  29.927  29.249  1.00  0.00     0.049 A 
ATOM     39  N   UNL A   1      39.486  30.901  32.041  1.00  0.00    -0.248 NA
ATOM     40  C   UNL A   1      37.690  32.381  31.854  1.00  0.00     0.031 C 
ATOM     41  C   UNL A   1      38.638  29.423  27.900  1.00  0.00     0.029 A 
ATOM     42  N   UNL A   1      39.969  29.206  29.685  1.00  0.00    -0.354 N 
ATOM     43  C   UNL A   1      39.384  31.652  33.208  1.00  0.00     0.074 A 
ATOM     44  C   UNL A   1      38.282  32.570  33.025  1.00  0.00     0.031 C 
ATOM     45  C   UNL A   1      39.558  28.490  27.607  1.00  0.00     0.029 A 
ATOM     46  C   UNL A   1      40.473  28.346  28.739  1.00  0.00     0.049 A 
ATOM     47  H   UNL A   1      40.348  29.295  30.590  1.00  0.00     0.167 HD
ATOM     48  C   UNL A   1      40.129  31.573  34.335  1.00  0.00     0.034 A 
ATOM     49  C   UNL A   1      41.558  27.547  28.778  1.00  0.00     0.034 A 
ATOM     50  C   UNL A   1      41.210  30.643  34.520  1.00  0.00     0.049 A 
ATOM     51  C   UNL A   1      42.378  27.485  30.041  1.00  0.00     0.074 A 
ATOM     52  C   UNL A   1      41.999  30.452  35.640  1.00  0.00     0.029 A 
ATOM     53  N   UNL A   1      41.662  29.755  33.556  1.00  0.00    -0.354 N 
ATOM     54  N   UNL A   1      42.198  28.119  31.175  1.00  0.00    -0.248 NA
ATOM     55  C   UNL A   1      43.526  26.566  30.044  1.00  0.00     0.031 C 
ATOM     56  C   UNL A   1      42.947  29.467  35.343  1.00  0.00     0.029 A 
ATOM     57  C   UNL A   1      42.724  29.018  34.052  1.00  0.00     0.049 A 
ATOM     58  H   UNL A   1      41.282  29.662  32.653  1.00  0.00     0.167 HD
ATOM     59  C   UNL A   1      43.181  27.645  32.038  1.00  0.00     0.074 A 
ATOM     60  C   UNL A   1      43.943  26.660  31.300  1.00  0.00     0.031 C 
ATOM     61  C   UNL A   1      43.435  28.000  33.322  1.00  0.00     0.034 A 
BRANCH  48  62
ATOM     62  C   UNL A   1      39.789  32.509  35.467  1.00  0.00     0.023 A 
ATOM     63  C   UNL A   1      40.321  33.814  35.480  1.00  0.00     0.012 A 
ATOM     64  C   UNL A   1      38.905  32.112  36.488  1.00  0.00     0.148 A 
ATOM     65  C   UNL A   1      40.004  34.700  36.510  1.00  0.00     0.002 A 
ATOM     66  C   UNL A   1      38.558  33.016  37.487  1.00  0.00     0.091 A 
ATOM     67  F   UNL A   1      38.427  30.860  36.471  1.00  0.00    -0.205 F 
ATOM     68  C   UNL A   1      39.115  34.305  37.506  1.00  0.00     0.022 A 
BRANCH  66  69
ATOM     69  S   UNL A   1      37.361  32.629  38.770  1.00  0.00     0.127 S 
ATOM     70  O   UNL A   1      37.715  31.249  39.099  1.00  0.00    -0.237 OA
ATOM     71  O   UNL A   1      37.693  33.607  39.806  1.00  0.00    -0.237 OA
ATOM     72  O   UNL A   1      36.049  32.809  38.165  1.00  0.00    -0.744 OA
ENDBRANCH  66  69
ENDBRANCH  48  62
BRANCH  49  73
ATOM     73  C   UNL A   1      41.910  26.710  27.595  1.00  0.00     0.023 A 
ATOM     74  C   UNL A   1      42.571  27.296  26.499  1.00  0.00     0.012 A 
ATOM     75  C   UNL A   1      41.606  25.335  27.559  1.00  0.00     0.148 A 
ATOM     76  C   UNL A   1      42.895  26.535  25.375  1.00  0.00     0.002 A 
ATOM     77  C   UNL A   1      41.982  24.572  26.461  1.00  0.00     0.091 A 
ATOM     78  F   UNL A   1      40.962  24.800  28.606  1.00  0.00    -0.205 F 
ATOM     79  C   UNL A   1      42.611  25.173  25.360  1.00  0.00     0.022 A 
BRANCH  77  80
ATOM     80  S   UNL A   1      41.773  22.788  26.410  1.00  0.00     0.127 S 
ATOM     81  O   UNL A   1      42.406  22.449  25.139  1.00  0.00    -0.237 OA
ATOM     82  O   UNL A   1      42.512  22.365  27.600  1.00  0.00    -0.237 OA
ATOM     83  O   UNL A   1      40.336  22.559  26.484  1.00  0.00    -0.744 OA
ENDBRANCH  77  80
ENDBRANCH  49  73
BRANCH  61  84
ATOM     84  C   UNL A   1      44.549  27.283  34.040  1.00  0.00     0.023 A 
ATOM     85  C   UNL A   1      45.855  27.812  34.027  1.00  0.00     0.012 A 
ATOM     86  C   UNL A   1      44.282  26.123  34.794  1.00  0.00     0.148 A 
ATOM     87  C   UNL A   1      46.885  27.177  34.722  1.00  0.00     0.002 A 
ATOM     88  C   UNL A   1      45.300  25.525  35.526  1.00  0.00     0.091 A 
ATOM     89  F   UNL A   1      43.037  25.624  34.781  1.00  0.00    -0.205 F 
ATOM     90  C   UNL A   1      46.604  26.042  35.481  1.00  0.00     0.022 A 
BRANCH  88  91
ATOM     91  S   UNL A   1      45.009  24.123  36.610  1.00  0.00     0.127 S 
ATOM     92  O   UNL A   1      44.190  24.723  37.662  1.00  0.00    -0.237 OA
ATOM     93  O   UNL A   1      44.293  23.195  35.735  1.00  0.00    -0.237 OA
ATOM     94  O   UNL A   1      46.325  23.660  37.030  1.00  0.00    -0.744 OA
ENDBRANCH  88  91
ENDBRANCH  61  84
ENDBRANCH  35  36
ENDBRANCH  28  30
ENDBRANCH  27  28
ENDBRANCH  26  27
ENDBRANCH  25  26
ENDBRANCH   1  25
TORSDOF 20
ENDMDL
MODEL 3
REMARK VINA RESULT:     -10.7      5.564     12.400
REMARK SMILES O=C1CN(S(=O)(=O)c2ccc(CC(=O)OCCOCCOC(=O)c3ccc(-c4c5nc(c(-c6cccc(S(=O)(=O)[O-])c6F)c6ccc([nH]6)c(-c6cccc(S(=O)(=O)[O-])c6F)c6nc(c(-c7cccc(S(=O)(=O)[O-])c7F)c7ccc4[nH]7)C=C6)C=C5)cc3)cc2)CCN1
REMARK SMILES IDX 18 1 17 2 16 3 15 4 13 5 14 6 12 7 11 8 8 9 9 10 88 11 10 12
REMARK SMILES IDX 87 13 5 14 6 15 7 16 4 17 1 18 2 19 3 20 91 21 90 22 89 24
REMARK SMILES IDX 19 25 20 26 21 27 22 28 23 29 24 30 25 31 86 32 26 33 85 34
REMARK SMILES IDX 27 35 28 36 29 37 79 38 30 39 84 40 78 41 80 42 31 43 83 44
REMARK SMILES IDX 77 45 76 46 32 48 64 49 44 50 63 51 45 52 48 53 62 54 81 55
REMARK SMILES IDX 46 56 47 57 61 59 82 60 49 61 33 62 34 63 42 64 35 65 37 66
REMARK SMILES IDX 43 67 36 68 38 69 39 70 40 71 41 72 65 73 66 74 74 75 67 76
REMARK SMILES IDX 69 77 75 78 68 79 70 80 71 81 72 82 73 83 50 84 51 85 59 86
REMARK SMILES IDX 52 87 54 88 60 89 53 90 55 91 56 92 57 93 58 94
REMARK H PARENT 91 23 80 47 48 58
REMARK Flexibility Score: inf
ROOT
ATOM      1  O   UNL A   1      43.038  19.180  24.973  1.00  0.00    -0.374 OA
ENDROOT
BRANCH   1   2
ATOM      2  C   UNL A   1      44.349  19.730  25.096  1.00  0.00     0.202 C 
BRANCH   2   3
ATOM      3  C   UNL A   1      44.535  21.204  24.719  1.00  0.00     0.261 C 
BRANCH   3   4
ATOM      4  O   UNL A   1      45.586  21.848  25.462  1.00  0.00    -0.463 OA
BRANCH   4   5
ATOM      5  C   UNL A   1      45.343  23.130  25.837  1.00  0.00     0.310 C 
ATOM      6  O   UNL A   1      44.329  23.760  25.550  1.00  0.00    -0.252 OA
BRANCH   5   7
ATOM      7  C   UNL A   1      46.457  23.771  26.632  1.00  0.00     0.158 C 
BRANCH   7   8
ATOM      8  C   UNL A   1      46.179  24.227  28.048  1.00  0.00    -0.037 A 
ATOM      9  C   UNL A   1      45.716  24.964  30.721  1.00  0.00     0.082 A 
ATOM     10  C   UNL A   1      46.791  25.522  30.024  1.00  0.00     0.022 A 
ATOM     11  C   UNL A   1      44.855  24.069  30.080  1.00  0.00     0.022 A 
ATOM     12  C   UNL A   1      47.022  25.150  28.694  1.00  0.00     0.006 A 
ATOM     13  C   UNL A   1      45.094  23.694  28.757  1.00  0.00     0.006 A 
BRANCH   9  14
ATOM     14  S   UNL A   1      45.316  25.543  32.355  1.00  0.00     0.243 S 
ATOM     15  O   UNL A   1      46.321  26.525  32.717  1.00  0.00    -0.207 OA
ATOM     16  O   UNL A   1      45.091  24.386  33.188  1.00  0.00    -0.207 OA
BRANCH  14  17
ATOM     17  N   UNL A   1      43.808  26.344  32.213  1.00  0.00    -0.187 NA
ATOM     18  O   UNL A   1      44.763  29.717  31.160  1.00  0.00    -0.274 OA
ATOM     19  C   UNL A   1      44.369  28.806  31.883  1.00  0.00     0.235 C 
ATOM     20  C   UNL A   1      43.768  27.532  31.314  1.00  0.00     0.202 C 
ATOM     21  N   UNL A   1      44.331  28.965  33.244  1.00  0.00    -0.354 N 
ATOM     22  C   UNL A   1      44.015  27.899  34.179  1.00  0.00     0.132 C 
ATOM     23  H   UNL A   1      44.530  29.857  33.612  1.00  0.00     0.163 HD
ATOM     24  C   UNL A   1      43.228  26.741  33.546  1.00  0.00     0.124 C 
ENDBRANCH  14  17
ENDBRANCH   9  14
ENDBRANCH   7   8
ENDBRANCH   5   7
ENDBRANCH   4   5
ENDBRANCH   3   4
ENDBRANCH   2   3
ENDBRANCH   1   2
BRANCH   1  25
ATOM     25  C   UNL A   1      42.268  19.039  26.164  1.00  0.00     0.202 C 
BRANCH  25  26
ATOM     26  C   UNL A   1      40.912  19.754  26.231  1.00  0.00     0.261 C 
BRANCH  26  27
ATOM     27  O   UNL A   1      41.021  21.183  26.141  1.00  0.00    -0.460 OA
BRANCH  27  28
ATOM     28  C   UNL A   1      39.844  21.840  26.283  1.00  0.00     0.338 C 
ATOM     29  O   UNL A   1      38.730  21.414  26.021  1.00  0.00    -0.246 OA
BRANCH  28  30
ATOM     30  C   UNL A   1      40.046  23.120  26.988  1.00  0.00     0.060 A 
ATOM     31  C   UNL A   1      39.313  24.223  26.527  1.00  0.00     0.016 A 
ATOM     32  C   UNL A   1      40.989  23.270  28.007  1.00  0.00     0.016 A 
ATOM     33  C   UNL A   1      39.578  25.494  27.025  1.00  0.00     0.010 A 
ATOM     34  C   UNL A   1      41.256  24.550  28.505  1.00  0.00     0.010 A 
ATOM     35  C   UNL A   1      40.588  25.672  27.979  1.00  0.00    -0.014 A 
BRANCH  35  36
ATOM     36  C   UNL A   1      41.054  27.046  28.287  1.00  0.00     0.031 A 
ATOM     37  C   UNL A   1      42.472  27.425  27.949  1.00  0.00     0.074 A 
ATOM     38  C   UNL A   1      40.219  27.951  28.828  1.00  0.00     0.049 A 
ATOM     39  N   UNL A   1      43.087  28.566  28.120  1.00  0.00    -0.248 NA
ATOM     40  C   UNL A   1      43.308  26.377  27.339  1.00  0.00     0.031 C 
ATOM     41  C   UNL A   1      38.825  27.703  29.189  1.00  0.00     0.029 A 
ATOM     42  N   UNL A   1      40.432  29.260  29.182  1.00  0.00    -0.354 N 
ATOM     43  C   UNL A   1      44.388  28.367  27.669  1.00  0.00     0.074 A 
ATOM     44  C   UNL A   1      44.477  26.992  27.230  1.00  0.00     0.031 C 
ATOM     45  C   UNL A   1      38.313  28.816  29.739  1.00  0.00     0.029 A 
ATOM     46  C   UNL A   1      39.347  29.848  29.787  1.00  0.00     0.049 A 
ATOM     47  H   UNL A   1      41.281  29.732  29.019  1.00  0.00     0.167 HD
ATOM     48  C   UNL A   1      45.410  29.252  27.611  1.00  0.00     0.034 A 
ATOM     49  C   UNL A   1      39.213  31.074  30.331  1.00  0.00     0.034 A 
ATOM     50  C   UNL A   1      45.309  30.623  28.029  1.00  0.00     0.049 A 
ATOM     51  C   UNL A   1      40.369  32.038  30.263  1.00  0.00     0.074 A 
ATOM     52  C   UNL A   1      46.273  31.614  27.971  1.00  0.00     0.029 A 
ATOM     53  N   UNL A   1      44.181  31.197  28.593  1.00  0.00    -0.354 N 
ATOM     54  N   UNL A   1      41.556  31.868  29.731  1.00  0.00    -0.248 NA
ATOM     55  C   UNL A   1      40.155  33.375  30.835  1.00  0.00     0.031 C 
ATOM     56  C   UNL A   1      45.735  32.780  28.526  1.00  0.00     0.029 A 
ATOM     57  C   UNL A   1      44.425  32.526  28.896  1.00  0.00     0.049 A 
ATOM     58  H   UNL A   1      43.330  30.728  28.755  1.00  0.00     0.167 HD
ATOM     59  C   UNL A   1      42.212  33.088  29.864  1.00  0.00     0.074 A 
ATOM     60  C   UNL A   1      41.285  33.990  30.513  1.00  0.00     0.031 C 
ATOM     61  C   UNL A   1      43.471  33.427  29.491  1.00  0.00     0.034 A 
BRANCH  48  62
ATOM     62  C   UNL A   1      46.726  28.767  27.059  1.00  0.00     0.023 A 
ATOM     63  C   UNL A   1      47.818  28.562  27.927  1.00  0.00     0.012 A 
ATOM     64  C   UNL A   1      46.867  28.468  25.690  1.00  0.00     0.148 A 
ATOM     65  C   UNL A   1      49.038  28.097  27.437  1.00  0.00     0.002 A 
ATOM     66  C   UNL A   1      48.073  27.963  25.217  1.00  0.00     0.091 A 
ATOM     67  F   UNL A   1      45.826  28.690  24.876  1.00  0.00    -0.205 F 
ATOM     68  C   UNL A   1      49.162  27.788  26.086  1.00  0.00     0.022 A 
BRANCH  66  69
ATOM     69  S   UNL A   1      48.308  27.459  23.507  1.00  0.00     0.127 S 
ATOM     70  O   UNL A   1      49.751  27.626  23.346  1.00  0.00    -0.237 OA
ATOM     71  O   UNL A   1      47.854  26.068  23.532  1.00  0.00    -0.237 OA
ATOM     72  O   UNL A   1      47.482  28.352  22.708  1.00  0.00    -0.744 OA
ENDBRANCH  66  69
ENDBRANCH  48  62
BRANCH  49  73
ATOM     73  C   UNL A   1      37.918  31.474  30.954  1.00  0.00     0.023 A 
ATOM     74  C   UNL A   1      37.668  31.162  32.304  1.00  0.00     0.012 A 
ATOM     75  C   UNL A   1      36.942  32.175  30.219  1.00  0.00     0.148 A 
ATOM     76  C   UNL A   1      36.457  31.513  32.902  1.00  0.00     0.002 A 
ATOM     77  C   UNL A   1      35.763  32.571  30.837  1.00  0.00     0.091 A 
ATOM     78  F   UNL A   1      37.192  32.449  28.931  1.00  0.00    -0.205 F 
ATOM     79  C   UNL A   1      35.510  32.226  32.173  1.00  0.00     0.022 A 
BRANCH  77  80
ATOM     80  S   UNL A   1      34.543  33.603  30.014  1.00  0.00     0.127 S 
ATOM     81  O   UNL A   1      35.387  34.461  29.187  1.00  0.00    -0.237 OA
ATOM     82  O   UNL A   1      33.760  32.612  29.276  1.00  0.00    -0.237 OA
ATOM     83  O   UNL A   1      33.811  34.273  31.080  1.00  0.00    -0.744 OA
ENDBRANCH  77  80
ENDBRANCH  49  73
BRANCH  61  84
ATOM     84  C   UNL A   1      43.911  34.850  29.719  1.00  0.00     0.023 A 
ATOM     85  C   UNL A   1      43.730  35.817  28.710  1.00  0.00     0.012 A 
ATOM     86  C   UNL A   1      44.435  35.243  30.967  1.00  0.00     0.148 A 
ATOM     87  C   UNL A   1      44.097  37.145  28.927  1.00  0.00     0.002 A 
ATOM     88  C   UNL A   1      44.751  36.577  31.194  1.00  0.00     0.091 A 
ATOM     89  F   UNL A   1      44.617  34.306  31.909  1.00  0.00    -0.205 F 
ATOM     90  C   UNL A   1      44.595  37.527  30.172  1.00  0.00     0.022 A 
BRANCH  88  91
ATOM     91  S   UNL A   1      45.301  37.176  32.796  1.00  0.00     0.127 S 
ATOM     92  O   UNL A   1      45.465  38.606  32.540  1.00  0.00    -0.237 OA
ATOM     93  O   UNL A   1      44.170  36.837  33.660  1.00  0.00    -0.237 OA
ATOM     94  O   UNL A   1      46.527  36.449  33.096  1.00  0.00    -0.744 OA
ENDBRANCH  88  91
ENDBRANCH  61  84
ENDBRANCH  35  36
ENDBRANCH  28  30
ENDBRANCH  27  28
ENDBRANCH  26  27
ENDBRANCH  25  26
ENDBRANCH   1  25
TORSDOF 20
ENDMDL
