MODEL 1
REMARK VINA RESULT:     -12.6      0.000      0.000
REMARK SMILES Cc1ccc(-c2cnnc(-n3nc(C)c4c3NC(=O)C[C@@H]4c3ccc(C(=O)OCCOCCOC(=O)c4ccc(-c5c6nc(c(-c7cccc(S(=O)(=O)[O-])c7F)c7ccc([nH]7)c(-c7cccc(S(=O)(=O)[O-])c7F)c7nc(c(-c8cccc(S(=O)(=O)[O-])c8F)c8ccc5[nH]8)C=C7)C=C6)cc4)cc3)n2)cc1
REMARK SMILES IDX 31 1 30 2 29 3 28 4 26 5 27 6 25 7 22 8 23 9 101 10 24 11
REMARK SMILES IDX 100 12 21 13 11 14 12 15 16 16 13 17 15 18 17 19 14 20 18 21
REMARK SMILES IDX 20 23 19 24 10 25 6 26 7 27 102 28 8 29 9 30 5 31 1 32 2 33
REMARK SMILES IDX 3 34 104 35 4 36 103 37 32 38 33 39 34 40 35 41 36 42 37 43
REMARK SMILES IDX 38 44 99 45 39 46 98 47 40 48 41 49 42 50 92 51 43 52 97 53
REMARK SMILES IDX 91 54 93 55 44 56 96 57 90 58 89 59 45 61 77 62 57 63 76 64
REMARK SMILES IDX 58 65 61 66 75 67 94 68 59 69 60 70 74 72 95 73 62 74 46 75
REMARK SMILES IDX 47 76 55 77 48 78 50 79 56 80 49 81 51 82 52 83 53 84 54 85
REMARK SMILES IDX 78 86 79 87 87 88 80 89 82 90 88 91 81 92 83 93 84 94 85 95
REMARK SMILES IDX 86 96 63 97 64 98 72 99 65 100 67 101 73 102 66 103 68 104
REMARK SMILES IDX 69 105 70 106 71 107
REMARK H PARENT 17 22 93 60 61 71
REMARK Flexibility Score: inf
ROOT
ATOM      1  O   UNL A   1      37.286  21.078  25.300  1.00  0.00    -0.374 OA
ENDROOT
BRANCH   1   2
ATOM      2  C   UNL A   1      36.093  21.505  24.684  1.00  0.00     0.202 C 
BRANCH   2   3
ATOM      3  C   UNL A   1      35.042  20.791  25.446  1.00  0.00     0.261 C 
BRANCH   3   4
ATOM      4  O   UNL A   1      34.137  20.089  24.546  1.00  0.00    -0.460 OA
BRANCH   4   5
ATOM      5  C   UNL A   1      32.790  19.898  24.708  1.00  0.00     0.338 C 
ATOM      6  O   UNL A   1      32.125  18.951  25.012  1.00  0.00    -0.246 OA
BRANCH   5   7
ATOM      7  C   UNL A   1      32.211  21.211  24.432  1.00  0.00     0.060 A 
ATOM      8  C   UNL A   1      31.425  23.828  24.172  1.00  0.00    -0.040 A 
ATOM      9  C   UNL A   1      31.824  23.102  23.032  1.00  0.00     0.005 A 
ATOM     10  C   UNL A   1      31.211  23.151  25.374  1.00  0.00     0.005 A 
ATOM     11  C   UNL A   1      32.208  21.771  23.158  1.00  0.00     0.016 A 
ATOM     12  C   UNL A   1      31.651  21.874  25.516  1.00  0.00     0.016 A 
BRANCH   8  13
ATOM     13  C   UNL A   1      31.238  25.319  24.083  1.00  0.00     0.064 C 
ATOM     14  N   UNL A   1      33.073  27.301  26.484  1.00  0.00    -0.180 N 
ATOM     15  N   UNL A   1      34.171  26.619  26.074  1.00  0.00    -0.168 NA
ATOM     16  C   UNL A   1      31.955  26.558  26.154  1.00  0.00     0.143 A 
ATOM     17  C   UNL A   1      33.723  25.899  25.035  1.00  0.00     0.066 A 
ATOM     18  C   UNL A   1      32.284  25.978  24.941  1.00  0.00     0.026 A 
ATOM     19  N   UNL A   1      30.786  26.212  26.807  1.00  0.00    -0.310 N 
ATOM     20  C   UNL A   1      34.715  25.008  24.368  1.00  0.00     0.069 C 
ATOM     21  C   UNL A   1      29.776  25.512  26.063  1.00  0.00     0.226 C 
ATOM     22  H   UNL A   1      30.649  26.439  27.756  1.00  0.00     0.171 HD
ATOM     23  C   UNL A   1      29.834  25.683  24.566  1.00  0.00     0.113 C 
ATOM     24  O   UNL A   1      28.919  24.919  26.692  1.00  0.00    -0.275 OA
BRANCH  14  25
ATOM     25  C   UNL A   1      33.092  28.725  26.548  1.00  0.00     0.272 A 
ATOM     26  C   UNL A   1      33.920  30.689  27.347  1.00  0.00     0.095 A 
ATOM     27  C   UNL A   1      32.756  31.325  26.960  1.00  0.00     0.164 A 
ATOM     28  N   UNL A   1      34.092  29.349  27.202  1.00  0.00    -0.208 NA
ATOM     29  N   UNL A   1      31.773  30.654  26.345  1.00  0.00    -0.153 NA
ATOM     30  N   UNL A   1      31.967  29.342  26.100  1.00  0.00    -0.109 NA
BRANCH  26  31
ATOM     31  C   UNL A   1      35.081  31.446  27.818  1.00  0.00     0.002 A 
ATOM     32  C   UNL A   1      38.411  33.746  29.341  1.00  0.00     0.044 C 
ATOM     33  C   UNL A   1      37.246  32.947  28.839  1.00  0.00    -0.051 A 
ATOM     34  C   UNL A   1      37.392  31.582  28.574  1.00  0.00     0.004 A 
ATOM     35  C   UNL A   1      36.011  33.558  28.606  1.00  0.00     0.004 A 
ATOM     36  C   UNL A   1      36.320  30.837  28.071  1.00  0.00     0.011 A 
ATOM     37  C   UNL A   1      34.946  32.816  28.097  1.00  0.00     0.011 A 
ENDBRANCH  26  31
ENDBRANCH  14  25
ENDBRANCH   8  13
ENDBRANCH   5   7
ENDBRANCH   4   5
ENDBRANCH   3   4
ENDBRANCH   2   3
ENDBRANCH   1   2
BRANCH   1  38
ATOM     38  C   UNL A   1      38.183  22.077  25.693  1.00  0.00     0.202 C 
BRANCH  38  39
ATOM     39  C   UNL A   1      39.434  21.441  26.281  1.00  0.00     0.261 C 
BRANCH  39  40
ATOM     40  O   UNL A   1      40.584  22.209  25.857  1.00  0.00    -0.460 OA
BRANCH  40  41
ATOM     41  C   UNL A   1      41.801  21.654  26.152  1.00  0.00     0.338 C 
ATOM     42  O   UNL A   1      42.030  20.457  26.074  1.00  0.00    -0.246 OA
BRANCH  41  43
ATOM     43  C   UNL A   1      42.699  22.661  26.805  1.00  0.00     0.060 A 
ATOM     44  C   UNL A   1      42.666  22.840  28.201  1.00  0.00     0.016 A 
ATOM     45  C   UNL A   1      43.320  23.623  26.017  1.00  0.00     0.016 A 
ATOM     46  C   UNL A   1      43.032  24.072  28.773  1.00  0.00     0.010 A 
ATOM     47  C   UNL A   1      43.619  24.851  26.581  1.00  0.00     0.010 A 
ATOM     48  C   UNL A   1      43.375  25.125  27.941  1.00  0.00    -0.014 A 
BRANCH  48  49
ATOM     49  C   UNL A   1      43.582  26.525  28.351  1.00  0.00     0.031 A 
ATOM     50  C   UNL A   1      42.344  27.290  28.564  1.00  0.00     0.074 A 
ATOM     51  C   UNL A   1      44.770  27.057  28.752  1.00  0.00     0.049 A 
ATOM     52  N   UNL A   1      42.307  28.554  28.785  1.00  0.00    -0.248 NA
ATOM     53  C   UNL A   1      41.016  26.689  28.436  1.00  0.00     0.031 C 
ATOM     54  C   UNL A   1      45.000  28.045  29.816  1.00  0.00     0.029 A 
ATOM     55  N   UNL A   1      46.075  26.729  28.384  1.00  0.00    -0.354 N 
ATOM     56  C   UNL A   1      41.024  28.839  29.188  1.00  0.00     0.074 A 
ATOM     57  C   UNL A   1      40.238  27.724  28.743  1.00  0.00     0.031 C 
ATOM     58  C   UNL A   1      46.309  28.368  29.876  1.00  0.00     0.029 A 
ATOM     59  C   UNL A   1      46.970  27.736  28.743  1.00  0.00     0.049 A 
ATOM     60  H   UNL A   1      46.331  25.894  27.930  1.00  0.00     0.167 HD
ATOM     61  C   UNL A   1      40.845  29.888  30.032  1.00  0.00     0.034 A 
ATOM     62  C   UNL A   1      47.812  28.280  27.822  1.00  0.00     0.034 A 
ATOM     63  C   UNL A   1      42.112  30.652  30.162  1.00  0.00     0.049 A 
ATOM     64  C   UNL A   1      47.355  29.693  27.600  1.00  0.00     0.074 A 
ATOM     65  C   UNL A   1      43.062  30.748  31.165  1.00  0.00     0.029 A 
ATOM     66  N   UNL A   1      42.722  31.173  29.011  1.00  0.00    -0.354 N 
ATOM     67  N   UNL A   1      46.233  30.128  28.102  1.00  0.00    -0.248 NA
ATOM     68  C   UNL A   1      48.086  30.740  26.901  1.00  0.00     0.031 C 
ATOM     69  C   UNL A   1      44.273  31.238  30.581  1.00  0.00     0.029 A 
ATOM     70  C   UNL A   1      44.059  31.480  29.232  1.00  0.00     0.049 A 
ATOM     71  H   UNL A   1      42.258  31.305  28.152  1.00  0.00     0.167 HD
ATOM     72  C   UNL A   1      46.042  31.425  27.809  1.00  0.00     0.074 A 
ATOM     73  C   UNL A   1      47.247  31.782  27.067  1.00  0.00     0.031 C 
ATOM     74  C   UNL A   1      44.888  32.059  28.163  1.00  0.00     0.034 A 
BRANCH  61  75
ATOM     75  C   UNL A   1      39.629  30.079  30.942  1.00  0.00     0.023 A 
ATOM     76  C   UNL A   1      38.660  29.054  30.918  1.00  0.00     0.012 A 
ATOM     77  C   UNL A   1      39.310  31.193  31.768  1.00  0.00     0.148 A 
ATOM     78  C   UNL A   1      37.460  29.129  31.640  1.00  0.00     0.002 A 
ATOM     79  C   UNL A   1      38.129  31.258  32.516  1.00  0.00     0.091 A 
ATOM     80  F   UNL A   1      40.117  32.246  31.838  1.00  0.00    -0.205 F 
ATOM     81  C   UNL A   1      37.195  30.227  32.445  1.00  0.00     0.022 A 
BRANCH  79  82
ATOM     82  S   UNL A   1      37.725  32.651  33.597  1.00  0.00     0.127 S 
ATOM     83  O   UNL A   1      37.543  33.741  32.638  1.00  0.00    -0.237 OA
ATOM     84  O   UNL A   1      36.493  32.195  34.240  1.00  0.00    -0.237 OA
ATOM     85  O   UNL A   1      38.857  32.825  34.499  1.00  0.00    -0.744 OA
ENDBRANCH  79  82
ENDBRANCH  61  75
BRANCH  62  86
ATOM     86  C   UNL A   1      48.297  27.279  26.811  1.00  0.00     0.023 A 
ATOM     87  C   UNL A   1      47.656  27.275  25.540  1.00  0.00     0.012 A 
ATOM     88  C   UNL A   1      49.588  26.728  26.904  1.00  0.00     0.148 A 
ATOM     89  C   UNL A   1      48.325  26.843  24.385  1.00  0.00     0.002 A 
ATOM     90  C   UNL A   1      50.273  26.371  25.740  1.00  0.00     0.091 A 
ATOM     91  F   UNL A   1      50.153  26.633  28.113  1.00  0.00    -0.205 F 
ATOM     92  C   UNL A   1      49.653  26.446  24.480  1.00  0.00     0.022 A 
BRANCH  90  93
ATOM     93  S   UNL A   1      52.039  26.023  25.747  1.00  0.00     0.127 S 
ATOM     94  O   UNL A   1      52.343  26.011  24.319  1.00  0.00    -0.237 OA
ATOM     95  O   UNL A   1      52.570  27.177  26.475  1.00  0.00    -0.237 OA
ATOM     96  O   UNL A   1      52.184  24.753  26.440  1.00  0.00    -0.744 OA
ENDBRANCH  90  93
ENDBRANCH  62  86
BRANCH  74  97
ATOM     97  C   UNL A   1      44.463  33.323  27.484  1.00  0.00     0.023 A 
ATOM     98  C   UNL A   1      43.901  33.307  26.191  1.00  0.00     0.012 A 
ATOM     99  C   UNL A   1      44.443  34.543  28.190  1.00  0.00     0.148 A 
ATOM    100  C   UNL A   1      43.443  34.468  25.578  1.00  0.00     0.002 A 
ATOM    101  C   UNL A   1      43.846  35.660  27.633  1.00  0.00     0.091 A 
ATOM    102  F   UNL A   1      45.009  34.625  29.402  1.00  0.00    -0.205 F 
ATOM    103  C   UNL A   1      43.392  35.643  26.311  1.00  0.00     0.022 A 
BRANCH 101 104
ATOM    104  S   UNL A   1      43.467  37.094  28.640  1.00  0.00     0.127 S 
ATOM    105  O   UNL A   1      43.000  36.474  29.876  1.00  0.00    -0.237 OA
ATOM    106  O   UNL A   1      44.772  37.751  28.735  1.00  0.00    -0.237 OA
ATOM    107  O   UNL A   1      42.474  37.846  27.885  1.00  0.00    -0.744 OA
ENDBRANCH 101 104
ENDBRANCH  74  97
ENDBRANCH  48  49
ENDBRANCH  41  43
ENDBRANCH  40  41
ENDBRANCH  39  40
ENDBRANCH  38  39
ENDBRANCH   1  38
TORSDOF 20
ENDMDL
MODEL 2
REMARK VINA RESULT:     -12.0      4.167      9.351
REMARK SMILES Cc1ccc(-c2cnnc(-n3nc(C)c4c3NC(=O)C[C@@H]4c3ccc(C(=O)OCCOCCOC(=O)c4ccc(-c5c6nc(c(-c7cccc(S(=O)(=O)[O-])c7F)c7ccc([nH]7)c(-c7cccc(S(=O)(=O)[O-])c7F)c7nc(c(-c8cccc(S(=O)(=O)[O-])c8F)c8ccc5[nH]8)C=C7)C=C6)cc4)cc3)n2)cc1
REMARK SMILES IDX 31 1 30 2 29 3 28 4 26 5 27 6 25 7 22 8 23 9 101 10 24 11
REMARK SMILES IDX 100 12 21 13 11 14 12 15 16 16 13 17 15 18 17 19 14 20 18 21
REMARK SMILES IDX 20 23 19 24 10 25 6 26 7 27 102 28 8 29 9 30 5 31 1 32 2 33
REMARK SMILES IDX 3 34 104 35 4 36 103 37 32 38 33 39 34 40 35 41 36 42 37 43
REMARK SMILES IDX 38 44 99 45 39 46 98 47 40 48 41 49 42 50 92 51 43 52 97 53
REMARK SMILES IDX 91 54 93 55 44 56 96 57 90 58 89 59 45 61 77 62 57 63 76 64
REMARK SMILES IDX 58 65 61 66 75 67 94 68 59 69 60 70 74 72 95 73 62 74 46 75
REMARK SMILES IDX 47 76 55 77 48 78 50 79 56 80 49 81 51 82 52 83 53 84 54 85
REMARK SMILES IDX 78 86 79 87 87 88 80 89 82 90 88 91 81 92 83 93 84 94 85 95
REMARK SMILES IDX 86 96 63 97 64 98 72 99 65 100 67 101 73 102 66 103 68 104
REMARK SMILES IDX 69 105 70 106 71 107
REMARK H PARENT 17 22 93 60 61 71
REMARK Flexibility Score: inf
ROOT
ATOM      1  O   UNL A   1      37.347  21.666  25.510  1.00  0.00    -0.374 OA
ENDROOT
BRANCH   1   2
ATOM      2  C   UNL A   1      36.329  21.414  24.569  1.00  0.00     0.202 C 
BRANCH   2   3
ATOM      3  C   UNL A   1      35.206  20.928  25.404  1.00  0.00     0.261 C 
BRANCH   3   4
ATOM      4  O   UNL A   1      34.280  20.128  24.614  1.00  0.00    -0.460 OA
BRANCH   4   5
ATOM      5  C   UNL A   1      32.948  19.920  24.857  1.00  0.00     0.338 C 
ATOM      6  O   UNL A   1      32.318  18.973  25.229  1.00  0.00    -0.246 OA
BRANCH   5   7
ATOM      7  C   UNL A   1      32.331  21.213  24.571  1.00  0.00     0.060 A 
ATOM      8  C   UNL A   1      31.474  23.805  24.281  1.00  0.00    -0.040 A 
ATOM      9  C   UNL A   1      31.863  23.067  23.146  1.00  0.00     0.005 A 
ATOM     10  C   UNL A   1      31.306  23.146  25.500  1.00  0.00     0.005 A 
ATOM     11  C   UNL A   1      32.283  21.749  23.287  1.00  0.00     0.016 A 
ATOM     12  C   UNL A   1      31.780  21.883  25.656  1.00  0.00     0.016 A 
BRANCH   8  13
ATOM     13  C   UNL A   1      31.248  25.289  24.169  1.00  0.00     0.064 C 
ATOM     14  N   UNL A   1      33.056  27.358  26.516  1.00  0.00    -0.180 N 
ATOM     15  N   UNL A   1      34.168  26.697  26.106  1.00  0.00    -0.168 NA
ATOM     16  C   UNL A   1      31.955  26.582  26.211  1.00  0.00     0.143 A 
ATOM     17  C   UNL A   1      33.727  25.948  25.084  1.00  0.00     0.066 A 
ATOM     18  C   UNL A   1      32.286  25.989  25.005  1.00  0.00     0.026 A 
ATOM     19  N   UNL A   1      30.801  26.217  26.882  1.00  0.00    -0.310 N 
ATOM     20  C   UNL A   1      34.735  25.071  24.422  1.00  0.00     0.069 C 
ATOM     21  C   UNL A   1      29.803  25.479  26.161  1.00  0.00     0.226 C 
ATOM     22  H   UNL A   1      30.668  26.457  27.829  1.00  0.00     0.171 HD
ATOM     23  C   UNL A   1      29.841  25.626  24.660  1.00  0.00     0.113 C 
ATOM     24  O   UNL A   1      28.967  24.875  26.809  1.00  0.00    -0.275 OA
BRANCH  14  25
ATOM     25  C   UNL A   1      33.040  28.783  26.556  1.00  0.00     0.272 A 
ATOM     26  C   UNL A   1      33.799  30.779  27.343  1.00  0.00     0.095 A 
ATOM     27  C   UNL A   1      32.630  31.381  26.912  1.00  0.00     0.164 A 
ATOM     28  N   UNL A   1      34.006  29.442  27.226  1.00  0.00    -0.208 NA
ATOM     29  N   UNL A   1      31.682  30.675  26.282  1.00  0.00    -0.153 NA
ATOM     30  N   UNL A   1      31.914  29.365  26.066  1.00  0.00    -0.109 NA
BRANCH  26  31
ATOM     31  C   UNL A   1      34.928  31.572  27.833  1.00  0.00     0.002 A 
ATOM     32  C   UNL A   1      38.155  33.984  29.402  1.00  0.00     0.044 C 
ATOM     33  C   UNL A   1      37.024  33.148  28.883  1.00  0.00    -0.051 A 
ATOM     34  C   UNL A   1      37.195  31.772  28.697  1.00  0.00     0.004 A 
ATOM     35  C   UNL A   1      35.799  33.732  28.557  1.00  0.00     0.004 A 
ATOM     36  C   UNL A   1      36.157  30.991  28.179  1.00  0.00     0.011 A 
ATOM     37  C   UNL A   1      34.767  32.953  28.034  1.00  0.00     0.011 A 
ENDBRANCH  26  31
ENDBRANCH  14  25
ENDBRANCH   8  13
ENDBRANCH   5   7
ENDBRANCH   4   5
ENDBRANCH   3   4
ENDBRANCH   2   3
ENDBRANCH   1   2
BRANCH   1  38
ATOM     38  C   UNL A   1      37.674  23.007  25.737  1.00  0.00     0.202 C 
BRANCH  38  39
ATOM     39  C   UNL A   1      38.772  23.097  26.786  1.00  0.00     0.261 C 
BRANCH  39  40
ATOM     40  O   UNL A   1      39.813  23.971  26.290  1.00  0.00    -0.460 OA
BRANCH  40  41
ATOM     41  C   UNL A   1      41.086  23.472  26.371  1.00  0.00     0.338 C 
ATOM     42  O   UNL A   1      41.425  22.412  25.869  1.00  0.00    -0.246 OA
BRANCH  41  43
ATOM     43  C   UNL A   1      41.904  24.262  27.348  1.00  0.00     0.060 A 
ATOM     44  C   UNL A   1      42.495  25.477  26.956  1.00  0.00     0.016 A 
ATOM     45  C   UNL A   1      42.336  23.649  28.519  1.00  0.00     0.016 A 
ATOM     46  C   UNL A   1      43.660  25.944  27.592  1.00  0.00     0.010 A 
ATOM     47  C   UNL A   1      43.516  24.082  29.097  1.00  0.00     0.010 A 
ATOM     48  C   UNL A   1      44.249  25.166  28.575  1.00  0.00    -0.014 A 
BRANCH  48  49
ATOM     49  C   UNL A   1      45.566  25.396  29.192  1.00  0.00     0.031 A 
ATOM     50  C   UNL A   1      46.712  25.024  28.349  1.00  0.00     0.074 A 
ATOM     51  C   UNL A   1      45.783  26.108  30.333  1.00  0.00     0.049 A 
ATOM     52  N   UNL A   1      47.930  25.014  28.751  1.00  0.00    -0.248 NA
ATOM     53  C   UNL A   1      46.554  24.523  26.983  1.00  0.00     0.031 C 
ATOM     54  C   UNL A   1      46.904  27.012  30.629  1.00  0.00     0.029 A 
ATOM     55  N   UNL A   1      44.968  26.292  31.451  1.00  0.00    -0.354 N 
ATOM     56  C   UNL A   1      48.709  24.877  27.627  1.00  0.00     0.074 A 
ATOM     57  C   UNL A   1      47.824  24.362  26.622  1.00  0.00     0.031 C 
ATOM     58  C   UNL A   1      46.797  27.488  31.888  1.00  0.00     0.029 A 
ATOM     59  C   UNL A   1      45.697  26.785  32.532  1.00  0.00     0.049 A 
ATOM     60  H   UNL A   1      44.003  26.099  31.472  1.00  0.00     0.167 HD
ATOM     61  C   UNL A   1      49.953  25.423  27.649  1.00  0.00     0.034 A 
ATOM     62  C   UNL A   1      45.665  26.155  33.738  1.00  0.00     0.034 A 
ATOM     63  C   UNL A   1      50.279  25.878  29.025  1.00  0.00     0.049 A 
ATOM     64  C   UNL A   1      47.027  25.563  33.954  1.00  0.00     0.074 A 
ATOM     65  C   UNL A   1      50.346  27.127  29.619  1.00  0.00     0.029 A 
ATOM     66  N   UNL A   1      50.234  24.957  30.082  1.00  0.00    -0.354 N 
ATOM     67  N   UNL A   1      47.918  25.552  33.002  1.00  0.00    -0.248 NA
ATOM     68  C   UNL A   1      47.548  25.018  35.199  1.00  0.00     0.031 C 
ATOM     69  C   UNL A   1      50.241  26.949  31.035  1.00  0.00     0.029 A 
ATOM     70  C   UNL A   1      50.150  25.593  31.315  1.00  0.00     0.049 A 
ATOM     71  H   UNL A   1      50.260  23.980  29.964  1.00  0.00     0.167 HD
ATOM     72  C   UNL A   1      49.072  25.008  33.426  1.00  0.00     0.074 A 
ATOM     73  C   UNL A   1      48.805  24.703  34.827  1.00  0.00     0.031 C 
ATOM     74  C   UNL A   1      50.112  24.817  32.564  1.00  0.00     0.034 A 
BRANCH  61  75
ATOM     75  C   UNL A   1      50.767  25.791  26.406  1.00  0.00     0.023 A 
ATOM     76  C   UNL A   1      52.002  25.128  26.245  1.00  0.00     0.012 A 
ATOM     77  C   UNL A   1      50.473  26.768  25.414  1.00  0.00     0.148 A 
ATOM     78  C   UNL A   1      52.887  25.418  25.197  1.00  0.00     0.002 A 
ATOM     79  C   UNL A   1      51.339  27.038  24.348  1.00  0.00     0.091 A 
ATOM     80  F   UNL A   1      49.365  27.498  25.481  1.00  0.00    -0.205 F 
ATOM     81  C   UNL A   1      52.555  26.369  24.244  1.00  0.00     0.022 A 
BRANCH  79  82
ATOM     82  S   UNL A   1      50.963  28.253  23.061  1.00  0.00     0.127 S 
ATOM     83  O   UNL A   1      51.265  29.517  23.735  1.00  0.00    -0.237 OA
ATOM     84  O   UNL A   1      51.907  27.887  22.007  1.00  0.00    -0.237 OA
ATOM     85  O   UNL A   1      49.558  28.076  22.713  1.00  0.00    -0.744 OA
ENDBRANCH  79  82
ENDBRANCH  61  75
BRANCH  62  86
ATOM     86  C   UNL A   1      44.320  25.559  34.049  1.00  0.00     0.023 A 
ATOM     87  C   UNL A   1      44.204  24.142  33.977  1.00  0.00     0.012 A 
ATOM     88  C   UNL A   1      43.383  26.262  34.828  1.00  0.00     0.148 A 
ATOM     89  C   UNL A   1      43.259  23.446  34.745  1.00  0.00     0.002 A 
ATOM     90  C   UNL A   1      42.496  25.557  35.647  1.00  0.00     0.091 A 
ATOM     91  F   UNL A   1      43.422  27.599  34.817  1.00  0.00    -0.205 F 
ATOM     92  C   UNL A   1      42.446  24.152  35.622  1.00  0.00     0.022 A 
BRANCH  90  93
ATOM     93  S   UNL A   1      41.541  26.373  36.935  1.00  0.00     0.127 S 
ATOM     94  O   UNL A   1      42.556  26.589  37.962  1.00  0.00    -0.237 OA
ATOM     95  O   UNL A   1      41.094  27.589  36.253  1.00  0.00    -0.237 OA
ATOM     96  O   UNL A   1      40.475  25.446  37.277  1.00  0.00    -0.744 OA
ENDBRANCH  90  93
ENDBRANCH  62  86
BRANCH  74  97
ATOM     97  C   UNL A   1      51.202  23.839  32.875  1.00  0.00     0.023 A 
ATOM     98  C   UNL A   1      50.956  22.451  32.899  1.00  0.00     0.012 A 
ATOM     99  C   UNL A   1      52.541  24.268  32.973  1.00  0.00     0.148 A 
ATOM    100  C   UNL A   1      51.975  21.532  33.122  1.00  0.00     0.002 A 
ATOM    101  C   UNL A   1      53.565  23.341  33.040  1.00  0.00     0.091 A 
ATOM    102  F   UNL A   1      52.825  25.578  33.007  1.00  0.00    -0.205 F 
ATOM    103  C   UNL A   1      53.286  21.976  33.168  1.00  0.00     0.022 A 
BRANCH 101 104
ATOM    104  S   UNL A   1      55.268  23.836  32.780  1.00  0.00     0.127 S 
ATOM    105  O   UNL A   1      55.811  23.754  34.134  1.00  0.00    -0.237 OA
ATOM    106  O   UNL A   1      55.749  22.803  31.861  1.00  0.00    -0.237 OA
ATOM    107  O   UNL A   1      55.200  25.169  32.197  1.00  0.00    -0.744 OA
ENDBRANCH 101 104
ENDBRANCH  74  97
ENDBRANCH  48  49
ENDBRANCH  41  43
ENDBRANCH  40  41
ENDBRANCH  39  40
ENDBRANCH  38  39
ENDBRANCH   1  38
TORSDOF 20
ENDMDL
MODEL 3
REMARK VINA RESULT:     -11.2      4.045      8.173
REMARK SMILES Cc1ccc(-c2cnnc(-n3nc(C)c4c3NC(=O)C[C@@H]4c3ccc(C(=O)OCCOCCOC(=O)c4ccc(-c5c6nc(c(-c7cccc(S(=O)(=O)[O-])c7F)c7ccc([nH]7)c(-c7cccc(S(=O)(=O)[O-])c7F)c7nc(c(-c8cccc(S(=O)(=O)[O-])c8F)c8ccc5[nH]8)C=C7)C=C6)cc4)cc3)n2)cc1
REMARK SMILES IDX 31 1 30 2 29 3 28 4 26 5 27 6 25 7 22 8 23 9 101 10 24 11
REMARK SMILES IDX 100 12 21 13 11 14 12 15 16 16 13 17 15 18 17 19 14 20 18 21
REMARK SMILES IDX 20 23 19 24 10 25 6 26 7 27 102 28 8 29 9 30 5 31 1 32 2 33
REMARK SMILES IDX 3 34 104 35 4 36 103 37 32 38 33 39 34 40 35 41 36 42 37 43
REMARK SMILES IDX 38 44 99 45 39 46 98 47 40 48 41 49 42 50 92 51 43 52 97 53
REMARK SMILES IDX 91 54 93 55 44 56 96 57 90 58 89 59 45 61 77 62 57 63 76 64
REMARK SMILES IDX 58 65 61 66 75 67 94 68 59 69 60 70 74 72 95 73 62 74 46 75
REMARK SMILES IDX 47 76 55 77 48 78 50 79 56 80 49 81 51 82 52 83 53 84 54 85
REMARK SMILES IDX 78 86 79 87 87 88 80 89 82 90 88 91 81 92 83 93 84 94 85 95
REMARK SMILES IDX 86 96 63 97 64 98 72 99 65 100 67 101 73 102 66 103 68 104
REMARK SMILES IDX 69 105 70 106 71 107
REMARK H PARENT 17 22 93 60 61 71
REMARK Flexibility Score: inf
ROOT
ATOM      1  O   UNL A   1      47.803  25.997  24.822  1.00  0.00    -0.374 OA
ENDROOT
BRANCH   1   2
ATOM      2  C   UNL A   1      47.607  25.013  25.811  1.00  0.00     0.202 C 
BRANCH   2   3
ATOM      3  C   UNL A   1      46.741  24.019  25.135  1.00  0.00     0.261 C 
BRANCH   3   4
ATOM      4  O   UNL A   1      46.406  22.925  26.037  1.00  0.00    -0.460 OA
BRANCH   4   5
ATOM      5  C   UNL A   1      45.471  21.944  25.837  1.00  0.00     0.338 C 
ATOM      6  O   UNL A   1      45.513  20.860  25.332  1.00  0.00    -0.246 OA
BRANCH   5   7
ATOM      7  C   UNL A   1      44.253  22.489  26.431  1.00  0.00     0.060 A 
ATOM      8  C   UNL A   1      41.765  23.191  27.355  1.00  0.00    -0.040 A 
ATOM      9  C   UNL A   1      42.792  22.892  28.273  1.00  0.00     0.005 A 
ATOM     10  C   UNL A   1      42.080  23.353  26.005  1.00  0.00     0.005 A 
ATOM     11  C   UNL A   1      44.058  22.551  27.808  1.00  0.00     0.016 A 
ATOM     12  C   UNL A   1      43.293  22.954  25.542  1.00  0.00     0.016 A 
BRANCH   8  13
ATOM     13  C   UNL A   1      40.345  23.326  27.838  1.00  0.00     0.064 C 
ATOM     14  N   UNL A   1      37.763  22.623  25.410  1.00  0.00    -0.180 N 
ATOM     15  N   UNL A   1      38.411  21.452  25.191  1.00  0.00    -0.168 NA
ATOM     16  C   UNL A   1      38.654  23.510  25.982  1.00  0.00     0.143 A 
ATOM     17  C   UNL A   1      39.364  21.441  26.135  1.00  0.00     0.066 A 
ATOM     18  C   UNL A   1      39.435  22.718  26.805  1.00  0.00     0.026 A 
ATOM     19  N   UNL A   1      38.965  24.844  25.785  1.00  0.00    -0.310 N 
ATOM     20  C   UNL A   1      40.278  20.262  26.141  1.00  0.00     0.069 C 
ATOM     21  C   UNL A   1      39.889  25.465  26.692  1.00  0.00     0.226 C 
ATOM     22  H   UNL A   1      38.564  25.354  25.043  1.00  0.00     0.171 HD
ATOM     23  C   UNL A   1      40.019  24.805  28.043  1.00  0.00     0.113 C 
ATOM     24  O   UNL A   1      40.418  26.503  26.340  1.00  0.00    -0.275 OA
BRANCH  14  25
ATOM     25  C   UNL A   1      36.359  22.632  25.660  1.00  0.00     0.272 A 
ATOM     26  C   UNL A   1      34.393  23.716  26.038  1.00  0.00     0.095 A 
ATOM     27  C   UNL A   1      33.868  22.554  26.574  1.00  0.00     0.164 A 
ATOM     28  N   UNL A   1      35.683  23.798  25.620  1.00  0.00    -0.208 NA
ATOM     29  N   UNL A   1      34.593  21.428  26.627  1.00  0.00    -0.153 NA
ATOM     30  N   UNL A   1      35.843  21.463  26.121  1.00  0.00    -0.109 NA
BRANCH  26  31
ATOM     31  C   UNL A   1      33.549  24.883  25.777  1.00  0.00     0.002 A 
ATOM     32  C   UNL A   1      30.996  28.319  25.171  1.00  0.00     0.044 C 
ATOM     33  C   UNL A   1      31.883  27.134  25.408  1.00  0.00    -0.051 A 
ATOM     34  C   UNL A   1      33.239  27.191  25.070  1.00  0.00     0.004 A 
ATOM     35  C   UNL A   1      31.364  25.953  25.944  1.00  0.00     0.004 A 
ATOM     36  C   UNL A   1      34.065  26.078  25.254  1.00  0.00     0.011 A 
ATOM     37  C   UNL A   1      32.188  24.841  26.120  1.00  0.00     0.011 A 
ENDBRANCH  26  31
ENDBRANCH  14  25
ENDBRANCH   8  13
ENDBRANCH   5   7
ENDBRANCH   4   5
ENDBRANCH   3   4
ENDBRANCH   2   3
ENDBRANCH   1   2
BRANCH   1  38
ATOM     38  C   UNL A   1      47.586  27.325  25.206  1.00  0.00     0.202 C 
BRANCH  38  39
ATOM     39  C   UNL A   1      46.361  27.872  24.490  1.00  0.00     0.261 C 
BRANCH  39  40
ATOM     40  O   UNL A   1      45.358  28.203  25.479  1.00  0.00    -0.460 OA
BRANCH  40  41
ATOM     41  C   UNL A   1      44.577  27.158  25.894  1.00  0.00     0.338 C 
ATOM     42  O   UNL A   1      44.054  26.365  25.127  1.00  0.00    -0.246 OA
BRANCH  41  43
ATOM     43  C   UNL A   1      44.262  27.278  27.355  1.00  0.00     0.060 A 
ATOM     44  C   UNL A   1      43.364  26.382  27.962  1.00  0.00     0.016 A 
ATOM     45  C   UNL A   1      44.603  28.449  28.024  1.00  0.00     0.016 A 
ATOM     46  C   UNL A   1      42.636  26.762  29.104  1.00  0.00     0.010 A 
ATOM     47  C   UNL A   1      43.837  28.838  29.110  1.00  0.00     0.010 A 
ATOM     48  C   UNL A   1      42.774  28.051  29.593  1.00  0.00    -0.014 A 
BRANCH  48  49
ATOM     49  C   UNL A   1      41.947  28.677  30.638  1.00  0.00     0.031 A 
ATOM     50  C   UNL A   1      40.989  29.677  30.144  1.00  0.00     0.074 A 
ATOM     51  C   UNL A   1      41.852  28.245  31.927  1.00  0.00     0.049 A 
ATOM     52  N   UNL A   1      40.280  30.433  30.901  1.00  0.00    -0.248 NA
ATOM     53  C   UNL A   1      40.830  29.980  28.721  1.00  0.00     0.031 C 
ATOM     54  C   UNL A   1      40.656  28.220  32.782  1.00  0.00     0.029 A 
ATOM     55  N   UNL A   1      42.789  27.596  32.731  1.00  0.00    -0.354 N 
ATOM     56  C   UNL A   1      39.341  31.023  30.091  1.00  0.00     0.074 A 
ATOM     57  C   UNL A   1      39.860  30.889  28.760  1.00  0.00     0.031 C 
ATOM     58  C   UNL A   1      40.976  27.775  34.015  1.00  0.00     0.029 A 
ATOM     59  C   UNL A   1      42.425  27.651  34.077  1.00  0.00     0.049 A 
ATOM     60  H   UNL A   1      43.601  27.155  32.393  1.00  0.00     0.167 HD
ATOM     61  C   UNL A   1      38.147  31.357  30.646  1.00  0.00     0.034 A 
ATOM     62  C   UNL A   1      43.292  28.124  35.013  1.00  0.00     0.034 A 
ATOM     63  C   UNL A   1      38.214  31.195  32.121  1.00  0.00     0.049 A 
ATOM     64  C   UNL A   1      42.732  29.429  35.502  1.00  0.00     0.074 A 
ATOM     65  C   UNL A   1      37.703  30.249  32.994  1.00  0.00     0.029 A 
ATOM     66  N   UNL A   1      39.193  31.890  32.845  1.00  0.00    -0.354 N 
ATOM     67  N   UNL A   1      41.711  29.988  34.916  1.00  0.00    -0.248 NA
ATOM     68  C   UNL A   1      43.169  30.174  36.673  1.00  0.00     0.031 C 
ATOM     69  C   UNL A   1      38.453  30.320  34.211  1.00  0.00     0.029 A 
ATOM     70  C   UNL A   1      39.396  31.333  34.102  1.00  0.00     0.049 A 
ATOM     71  H   UNL A   1      39.677  32.677  32.504  1.00  0.00     0.167 HD
ATOM     72  C   UNL A   1      41.358  31.124  35.540  1.00  0.00     0.074 A 
ATOM     73  C   UNL A   1      42.290  31.196  36.660  1.00  0.00     0.031 C 
ATOM     74  C   UNL A   1      40.367  31.917  35.040  1.00  0.00     0.034 A 
BRANCH  61  75
ATOM     75  C   UNL A   1      36.849  31.572  29.863  1.00  0.00     0.023 A 
ATOM     76  C   UNL A   1      36.421  30.501  29.050  1.00  0.00     0.012 A 
ATOM     77  C   UNL A   1      36.041  32.742  29.794  1.00  0.00     0.148 A 
ATOM     78  C   UNL A   1      35.294  30.583  28.219  1.00  0.00     0.002 A 
ATOM     79  C   UNL A   1      34.897  32.817  28.991  1.00  0.00     0.091 A 
ATOM     80  F   UNL A   1      36.365  33.837  30.473  1.00  0.00    -0.205 F 
ATOM     81  C   UNL A   1      34.527  31.738  28.193  1.00  0.00     0.022 A 
BRANCH  79  82
ATOM     82  S   UNL A   1      33.842  34.285  28.919  1.00  0.00     0.127 S 
ATOM     83  O   UNL A   1      33.488  34.476  30.326  1.00  0.00    -0.237 OA
ATOM     84  O   UNL A   1      34.753  35.293  28.380  1.00  0.00    -0.237 OA
ATOM     85  O   UNL A   1      32.716  33.952  28.055  1.00  0.00    -0.744 OA
ENDBRANCH  79  82
ENDBRANCH  61  75
BRANCH  62  86
ATOM     86  C   UNL A   1      44.723  27.767  34.717  1.00  0.00     0.023 A 
ATOM     87  C   UNL A   1      45.056  26.384  34.695  1.00  0.00     0.012 A 
ATOM     88  C   UNL A   1      45.562  28.663  34.030  1.00  0.00     0.148 A 
ATOM     89  C   UNL A   1      46.122  25.902  33.920  1.00  0.00     0.002 A 
ATOM     90  C   UNL A   1      46.572  28.167  33.202  1.00  0.00     0.091 A 
ATOM     91  F   UNL A   1      45.314  29.974  34.134  1.00  0.00    -0.205 F 
ATOM     92  C   UNL A   1      46.841  26.789  33.130  1.00  0.00     0.022 A 
BRANCH  90  93
ATOM     93  S   UNL A   1      47.427  29.216  32.015  1.00  0.00     0.127 S 
ATOM     94  O   UNL A   1      47.998  30.240  32.883  1.00  0.00    -0.237 OA
ATOM     95  O   UNL A   1      48.403  28.287  31.442  1.00  0.00    -0.237 OA
ATOM     96  O   UNL A   1      46.404  29.666  31.084  1.00  0.00    -0.744 OA
ENDBRANCH  90  93
ENDBRANCH  62  86
BRANCH  74  97
ATOM     97  C   UNL A   1      40.259  33.357  35.434  1.00  0.00     0.023 A 
ATOM     98  C   UNL A   1      39.276  33.796  36.344  1.00  0.00     0.012 A 
ATOM     99  C   UNL A   1      41.251  34.281  35.047  1.00  0.00     0.148 A 
ATOM    100  C   UNL A   1      39.208  35.119  36.766  1.00  0.00     0.002 A 
ATOM    101  C   UNL A   1      41.266  35.553  35.591  1.00  0.00     0.091 A 
ATOM    102  F   UNL A   1      42.178  33.931  34.145  1.00  0.00    -0.205 F 
ATOM    103  C   UNL A   1      40.221  35.994  36.408  1.00  0.00     0.022 A 
BRANCH 101 104
ATOM    104  S   UNL A   1      42.708  36.605  35.418  1.00  0.00     0.127 S 
ATOM    105  O   UNL A   1      43.726  35.647  34.997  1.00  0.00    -0.237 OA
ATOM    106  O   UNL A   1      42.277  37.543  34.380  1.00  0.00    -0.237 OA
ATOM    107  O   UNL A   1      42.902  37.213  36.728  1.00  0.00    -0.744 OA
ENDBRANCH 101 104
ENDBRANCH  74  97
ENDBRANCH  48  49
ENDBRANCH  41  43
ENDBRANCH  40  41
ENDBRANCH  39  40
ENDBRANCH  38  39
ENDBRANCH   1  38
TORSDOF 20
ENDMDL
