MODEL 1
REMARK VINA RESULT:     -12.1      0.000      0.000
REMARK SMILES O=C(OCCOCCOC(=O)c1nnn(-c2cccc(C(F)(F)F)c2)c1[C@H]1COc2ccccc2O1)c1ccc(-c2c3nc(c(-c4cccc(S(=O)(=O)[O-])c4F)c4ccc([nH]4)c(-c4cccc(S(=O)(=O)[O-])c4F)c4nc(c(-c5cccc(S(=O)(=O)[O-])c5F)c5ccc2[nH]5)C=C4)C=C3)cc1
REMARK SMILES IDX 5 1 4 2 3 3 2 4 1 5 37 6 38 7 99 8 39 9 98 10 40 11 41 12
REMARK SMILES IDX 42 13 92 14 43 15 97 16 91 17 93 18 44 19 96 20 90 21 89 22
REMARK SMILES IDX 45 24 77 25 57 26 76 27 58 28 61 29 75 30 94 31 59 32 60 33
REMARK SMILES IDX 74 35 95 36 62 37 46 38 47 39 55 40 48 41 50 42 56 43 49 44
REMARK SMILES IDX 51 45 52 46 53 47 54 48 78 49 79 50 87 51 80 52 82 53 88 54
REMARK SMILES IDX 81 55 83 56 84 57 85 58 86 59 63 60 64 61 72 62 65 63 67 64
REMARK SMILES IDX 73 65 66 66 68 67 69 68 70 69 71 70 6 71 7 72 8 73 9 74
REMARK SMILES IDX 10 75 11 76 12 77 13 78 26 79 14 80 15 81 27 82 28 83 36 84
REMARK SMILES IDX 29 85 35 86 30 87 34 88 31 89 33 90 32 91 16 92 17 93 25 94
REMARK SMILES IDX 18 95 20 96 19 97 21 98 22 99 23 100 24 101
REMARK H PARENT 93 23 61 34
REMARK Flexibility Score: inf
ROOT
ATOM      1  C   UNL A   1      32.533  30.078  27.246  1.00  0.00     0.202 C 
ENDROOT
BRANCH   1   2
ATOM      2  C   UNL A   1      34.025  30.186  26.923  1.00  0.00     0.261 C 
BRANCH   2   3
ATOM      3  O   UNL A   1      34.624  31.372  27.461  1.00  0.00    -0.460 OA
BRANCH   3   4
ATOM      4  C   UNL A   1      35.078  31.626  28.704  1.00  0.00     0.338 C 
ATOM      5  O   UNL A   1      34.381  32.328  29.435  1.00  0.00    -0.246 OA
BRANCH   4   6
ATOM      6  C   UNL A   1      36.356  31.082  29.258  1.00  0.00     0.060 A 
ATOM      7  C   UNL A   1      37.506  31.815  29.549  1.00  0.00     0.016 A 
ATOM      8  C   UNL A   1      36.392  29.686  29.434  1.00  0.00     0.016 A 
ATOM      9  C   UNL A   1      38.720  31.172  29.674  1.00  0.00     0.010 A 
ATOM     10  C   UNL A   1      37.592  29.033  29.648  1.00  0.00     0.010 A 
ATOM     11  C   UNL A   1      38.757  29.782  29.637  1.00  0.00    -0.014 A 
BRANCH  11  12
ATOM     12  C   UNL A   1      40.065  29.160  29.654  1.00  0.00     0.031 A 
ATOM     13  C   UNL A   1      40.652  29.060  31.012  1.00  0.00     0.074 A 
ATOM     14  C   UNL A   1      40.636  28.711  28.520  1.00  0.00     0.049 A 
ATOM     15  N   UNL A   1      41.685  29.682  31.477  1.00  0.00    -0.248 NA
ATOM     16  C   UNL A   1      39.871  28.347  32.034  1.00  0.00     0.031 C 
ATOM     17  C   UNL A   1      40.017  28.564  27.199  1.00  0.00     0.029 A 
ATOM     18  N   UNL A   1      41.860  28.146  28.346  1.00  0.00    -0.354 N 
ATOM     19  C   UNL A   1      41.825  29.231  32.789  1.00  0.00     0.074 A 
ATOM     20  C   UNL A   1      40.573  28.617  33.133  1.00  0.00     0.031 C 
ATOM     21  C   UNL A   1      40.750  27.700  26.463  1.00  0.00     0.029 A 
ATOM     22  C   UNL A   1      41.946  27.352  27.207  1.00  0.00     0.049 A 
ATOM     23  H   UNL A   1      42.612  28.286  28.966  1.00  0.00     0.167 HD
ATOM     24  C   UNL A   1      43.056  29.135  33.365  1.00  0.00     0.034 A 
ATOM     25  C   UNL A   1      42.879  26.397  26.965  1.00  0.00     0.034 A 
ATOM     26  C   UNL A   1      44.014  29.960  32.666  1.00  0.00     0.049 A 
ATOM     27  C   UNL A   1      44.032  26.672  27.856  1.00  0.00     0.074 A 
ATOM     28  C   UNL A   1      44.125  31.306  32.379  1.00  0.00     0.029 A 
ATOM     29  N   UNL A   1      44.874  29.319  31.808  1.00  0.00    -0.354 N 
ATOM     30  N   UNL A   1      44.787  27.728  27.741  1.00  0.00    -0.248 NA
ATOM     31  C   UNL A   1      44.056  26.020  29.155  1.00  0.00     0.031 C 
ATOM     32  C   UNL A   1      44.680  31.357  31.067  1.00  0.00     0.029 A 
ATOM     33  C   UNL A   1      44.943  30.049  30.655  1.00  0.00     0.049 A 
ATOM     34  H   UNL A   1      45.356  28.479  31.990  1.00  0.00     0.167 HD
ATOM     35  C   UNL A   1      45.000  28.140  29.051  1.00  0.00     0.074 A 
ATOM     36  C   UNL A   1      44.620  26.994  29.877  1.00  0.00     0.031 C 
ATOM     37  C   UNL A   1      45.169  29.462  29.354  1.00  0.00     0.034 A 
BRANCH  24  38
ATOM     38  C   UNL A   1      43.509  27.967  34.229  1.00  0.00     0.023 A 
ATOM     39  C   UNL A   1      44.150  28.297  35.446  1.00  0.00     0.012 A 
ATOM     40  C   UNL A   1      43.641  26.629  33.789  1.00  0.00     0.148 A 
ATOM     41  C   UNL A   1      44.986  27.392  36.109  1.00  0.00     0.002 A 
ATOM     42  C   UNL A   1      44.431  25.716  34.479  1.00  0.00     0.091 A 
ATOM     43  F   UNL A   1      43.091  26.230  32.645  1.00  0.00    -0.205 F 
ATOM     44  C   UNL A   1      45.139  26.104  35.616  1.00  0.00     0.022 A 
BRANCH  42  45
ATOM     45  S   UNL A   1      44.645  24.026  33.898  1.00  0.00     0.127 S 
ATOM     46  O   UNL A   1      45.687  23.542  34.798  1.00  0.00    -0.237 OA
ATOM     47  O   UNL A   1      43.313  23.466  34.128  1.00  0.00    -0.237 OA
ATOM     48  O   UNL A   1      45.016  24.129  32.492  1.00  0.00    -0.744 OA
ENDBRANCH  42  45
ENDBRANCH  24  38
BRANCH  25  49
ATOM     49  C   UNL A   1      42.712  25.097  26.274  1.00  0.00     0.023 A 
ATOM     50  C   UNL A   1      43.680  24.670  25.342  1.00  0.00     0.012 A 
ATOM     51  C   UNL A   1      41.759  24.152  26.722  1.00  0.00     0.148 A 
ATOM     52  C   UNL A   1      43.712  23.344  24.893  1.00  0.00     0.002 A 
ATOM     53  C   UNL A   1      41.789  22.839  26.263  1.00  0.00     0.091 A 
ATOM     54  F   UNL A   1      40.883  24.515  27.666  1.00  0.00    -0.205 F 
ATOM     55  C   UNL A   1      42.773  22.427  25.357  1.00  0.00     0.022 A 
BRANCH  53  56
ATOM     56  S   UNL A   1      40.620  21.597  26.837  1.00  0.00     0.127 S 
ATOM     57  O   UNL A   1      40.881  21.583  28.277  1.00  0.00    -0.237 OA
ATOM     58  O   UNL A   1      39.341  22.185  26.453  1.00  0.00    -0.237 OA
ATOM     59  O   UNL A   1      40.980  20.362  26.151  1.00  0.00    -0.744 OA
ENDBRANCH  53  56
ENDBRANCH  25  49
BRANCH  37  60
ATOM     60  C   UNL A   1      45.372  30.430  28.218  1.00  0.00     0.023 A 
ATOM     61  C   UNL A   1      44.297  31.014  27.517  1.00  0.00     0.012 A 
ATOM     62  C   UNL A   1      46.674  30.895  27.979  1.00  0.00     0.148 A 
ATOM     63  C   UNL A   1      44.521  32.028  26.580  1.00  0.00     0.002 A 
ATOM     64  C   UNL A   1      46.888  31.935  27.084  1.00  0.00     0.091 A 
ATOM     65  F   UNL A   1      47.683  30.332  28.660  1.00  0.00    -0.205 F 
ATOM     66  C   UNL A   1      45.816  32.499  26.375  1.00  0.00     0.022 A 
BRANCH  64  67
ATOM     67  S   UNL A   1      48.513  32.666  26.876  1.00  0.00     0.127 S 
ATOM     68  O   UNL A   1      48.820  33.116  28.232  1.00  0.00    -0.237 OA
ATOM     69  O   UNL A   1      49.312  31.531  26.412  1.00  0.00    -0.237 OA
ATOM     70  O   UNL A   1      48.352  33.724  25.886  1.00  0.00    -0.744 OA
ENDBRANCH  64  67
ENDBRANCH  37  60
ENDBRANCH  11  12
ENDBRANCH   4   6
ENDBRANCH   3   4
ENDBRANCH   2   3
ENDBRANCH   1   2
BRANCH   1  71
ATOM     71  O   UNL A   1      31.736  29.077  26.623  1.00  0.00    -0.374 OA
BRANCH  71  72
ATOM     72  C   UNL A   1      31.398  27.872  27.306  1.00  0.00     0.202 C 
BRANCH  72  73
ATOM     73  C   UNL A   1      31.990  26.534  26.857  1.00  0.00     0.261 C 
BRANCH  73  74
ATOM     74  O   UNL A   1      31.055  25.457  26.946  1.00  0.00    -0.458 OA
BRANCH  74  75
ATOM     75  C   UNL A   1      30.572  25.004  25.747  1.00  0.00     0.361 C 
ATOM     76  O   UNL A   1      29.905  25.652  24.967  1.00  0.00    -0.244 OA
BRANCH  75  77
ATOM     77  C   UNL A   1      31.045  23.659  25.463  1.00  0.00     0.198 A 
ATOM     78  N   UNL A   1      30.491  22.534  26.031  1.00  0.00    -0.122 NA
ATOM     79  C   UNL A   1      32.081  23.280  24.633  1.00  0.00     0.123 A 
ATOM     80  N   UNL A   1      31.165  21.476  25.595  1.00  0.00    -0.061 NA
ATOM     81  N   UNL A   1      32.226  21.939  24.908  1.00  0.00    -0.213 N 
BRANCH  79  82
ATOM     82  C   UNL A   1      32.944  24.023  23.671  1.00  0.00     0.262 C 
ATOM     83  C   UNL A   1      32.167  24.394  22.401  1.00  0.00     0.281 C 
ATOM     84  O   UNL A   1      33.448  25.153  24.387  1.00  0.00    -0.477 OA
ATOM     85  O   UNL A   1      32.989  25.184  21.534  1.00  0.00    -0.485 OA
ATOM     86  C   UNL A   1      33.640  26.259  23.607  1.00  0.00     0.162 A 
ATOM     87  C   UNL A   1      33.433  26.281  22.227  1.00  0.00     0.161 A 
ATOM     88  C   UNL A   1      34.026  27.420  24.274  1.00  0.00     0.050 A 
ATOM     89  C   UNL A   1      33.653  27.449  21.504  1.00  0.00     0.050 A 
ATOM     90  C   UNL A   1      34.199  28.604  23.560  1.00  0.00     0.004 A 
ATOM     91  C   UNL A   1      34.021  28.616  22.175  1.00  0.00     0.004 A 
ENDBRANCH  79  82
BRANCH  81  92
ATOM     92  C   UNL A   1      33.429  21.218  24.864  1.00  0.00     0.067 A 
ATOM     93  C   UNL A   1      34.639  21.824  25.186  1.00  0.00     0.028 A 
ATOM     94  C   UNL A   1      33.355  19.856  24.540  1.00  0.00     0.041 A 
ATOM     95  C   UNL A   1      35.775  21.019  25.275  1.00  0.00     0.003 A 
ATOM     96  C   UNL A   1      34.491  19.052  24.607  1.00  0.00     0.058 A 
ATOM     97  C   UNL A   1      35.700  19.645  25.000  1.00  0.00     0.013 A 
BRANCH  96  98
ATOM     98  C   UNL A   1      34.392  17.581  24.296  1.00  0.00     0.416 C 
ATOM     99  F   UNL A   1      33.309  16.992  24.872  1.00  0.00    -0.166 F 
ATOM    100  F   UNL A   1      34.291  17.339  22.960  1.00  0.00    -0.166 F 
ATOM    101  F   UNL A   1      35.473  16.865  24.719  1.00  0.00    -0.166 F 
ENDBRANCH  96  98
ENDBRANCH  81  92
ENDBRANCH  75  77
ENDBRANCH  74  75
ENDBRANCH  73  74
ENDBRANCH  72  73
ENDBRANCH  71  72
ENDBRANCH   1  71
TORSDOF 20
ENDMDL
MODEL 2
REMARK VINA RESULT:     -12.1      3.793      7.933
REMARK SMILES O=C(OCCOCCOC(=O)c1nnn(-c2cccc(C(F)(F)F)c2)c1[C@H]1COc2ccccc2O1)c1ccc(-c2c3nc(c(-c4cccc(S(=O)(=O)[O-])c4F)c4ccc([nH]4)c(-c4cccc(S(=O)(=O)[O-])c4F)c4nc(c(-c5cccc(S(=O)(=O)[O-])c5F)c5ccc2[nH]5)C=C4)C=C3)cc1
REMARK SMILES IDX 5 1 4 2 3 3 2 4 1 5 37 6 38 7 99 8 39 9 98 10 40 11 41 12
REMARK SMILES IDX 42 13 92 14 43 15 97 16 91 17 93 18 44 19 96 20 90 21 89 22
REMARK SMILES IDX 45 24 77 25 57 26 76 27 58 28 61 29 75 30 94 31 59 32 60 33
REMARK SMILES IDX 74 35 95 36 62 37 46 38 47 39 55 40 48 41 50 42 56 43 49 44
REMARK SMILES IDX 51 45 52 46 53 47 54 48 78 49 79 50 87 51 80 52 82 53 88 54
REMARK SMILES IDX 81 55 83 56 84 57 85 58 86 59 63 60 64 61 72 62 65 63 67 64
REMARK SMILES IDX 73 65 66 66 68 67 69 68 70 69 71 70 6 71 7 72 8 73 9 74
REMARK SMILES IDX 10 75 11 76 12 77 13 78 26 79 14 80 15 81 27 82 28 83 36 84
REMARK SMILES IDX 29 85 35 86 30 87 34 88 31 89 33 90 32 91 16 92 17 93 25 94
REMARK SMILES IDX 18 95 20 96 19 97 21 98 22 99 23 100 24 101
REMARK H PARENT 93 23 61 34
REMARK Flexibility Score: inf
ROOT
ATOM      1  C   UNL A   1      37.014  20.446  24.714  1.00  0.00     0.202 C 
ENDROOT
BRANCH   1   2
ATOM      2  C   UNL A   1      38.301  20.767  25.477  1.00  0.00     0.261 C 
BRANCH   2   3
ATOM      3  O   UNL A   1      39.326  19.786  25.271  1.00  0.00    -0.460 OA
BRANCH   3   4
ATOM      4  C   UNL A   1      40.533  19.658  25.858  1.00  0.00     0.338 C 
ATOM      5  O   UNL A   1      41.128  18.590  25.715  1.00  0.00    -0.246 OA
BRANCH   4   6
ATOM      6  C   UNL A   1      41.206  20.741  26.639  1.00  0.00     0.060 A 
ATOM      7  C   UNL A   1      41.303  20.815  28.029  1.00  0.00     0.016 A 
ATOM      8  C   UNL A   1      41.727  21.802  25.876  1.00  0.00     0.016 A 
ATOM      9  C   UNL A   1      41.584  22.022  28.636  1.00  0.00     0.010 A 
ATOM     10  C   UNL A   1      42.098  22.988  26.480  1.00  0.00     0.010 A 
ATOM     11  C   UNL A   1      41.898  23.121  27.844  1.00  0.00    -0.014 A 
BRANCH  11  12
ATOM     12  C   UNL A   1      42.071  24.389  28.522  1.00  0.00     0.031 A 
ATOM     13  C   UNL A   1      40.968  25.347  28.268  1.00  0.00     0.074 A 
ATOM     14  C   UNL A   1      43.136  24.615  29.314  1.00  0.00     0.049 A 
ATOM     15  N   UNL A   1      41.019  26.459  27.609  1.00  0.00    -0.248 NA
ATOM     16  C   UNL A   1      39.604  24.912  28.604  1.00  0.00     0.031 C 
ATOM     17  C   UNL A   1      44.124  23.641  29.790  1.00  0.00     0.029 A 
ATOM     18  N   UNL A   1      43.476  25.746  29.985  1.00  0.00    -0.354 N 
ATOM     19  C   UNL A   1      39.727  26.983  27.674  1.00  0.00     0.074 A 
ATOM     20  C   UNL A   1      38.878  25.897  28.079  1.00  0.00     0.031 C 
ATOM     21  C   UNL A   1      44.750  24.147  30.876  1.00  0.00     0.029 A 
ATOM     22  C   UNL A   1      44.307  25.514  31.076  1.00  0.00     0.049 A 
ATOM     23  H   UNL A   1      43.164  26.643  29.725  1.00  0.00     0.167 HD
ATOM     24  C   UNL A   1      39.523  28.329  27.684  1.00  0.00     0.034 A 
ATOM     25  C   UNL A   1      44.512  26.355  32.121  1.00  0.00     0.034 A 
ATOM     26  C   UNL A   1      40.674  29.027  27.159  1.00  0.00     0.049 A 
ATOM     27  C   UNL A   1      44.107  27.711  31.681  1.00  0.00     0.074 A 
ATOM     28  C   UNL A   1      41.363  29.022  25.963  1.00  0.00     0.029 A 
ATOM     29  N   UNL A   1      41.513  29.613  28.076  1.00  0.00    -0.354 N 
ATOM     30  N   UNL A   1      44.735  28.379  30.754  1.00  0.00    -0.248 NA
ATOM     31  C   UNL A   1      42.736  28.125  31.934  1.00  0.00     0.031 C 
ATOM     32  C   UNL A   1      42.733  29.172  26.326  1.00  0.00     0.029 A 
ATOM     33  C   UNL A   1      42.799  29.329  27.713  1.00  0.00     0.049 A 
ATOM     34  H   UNL A   1      41.237  30.143  28.858  1.00  0.00     0.167 HD
ATOM     35  C   UNL A   1      43.720  28.955  30.000  1.00  0.00     0.074 A 
ATOM     36  C   UNL A   1      42.522  28.855  30.834  1.00  0.00     0.031 C 
ATOM     37  C   UNL A   1      43.879  29.179  28.661  1.00  0.00     0.034 A 
BRANCH  24  38
ATOM     38  C   UNL A   1      38.520  29.037  28.583  1.00  0.00     0.023 A 
ATOM     39  C   UNL A   1      37.820  30.126  28.011  1.00  0.00     0.012 A 
ATOM     40  C   UNL A   1      38.463  28.922  29.992  1.00  0.00     0.148 A 
ATOM     41  C   UNL A   1      37.222  31.115  28.798  1.00  0.00     0.002 A 
ATOM     42  C   UNL A   1      37.823  29.881  30.771  1.00  0.00     0.091 A 
ATOM     43  F   UNL A   1      39.108  27.944  30.623  1.00  0.00    -0.205 F 
ATOM     44  C   UNL A   1      37.237  31.001  30.181  1.00  0.00     0.022 A 
BRANCH  42  45
ATOM     45  S   UNL A   1      37.790  29.768  32.566  1.00  0.00     0.127 S 
ATOM     46  O   UNL A   1      39.168  30.116  32.901  1.00  0.00    -0.237 OA
ATOM     47  O   UNL A   1      36.792  30.782  32.906  1.00  0.00    -0.237 OA
ATOM     48  O   UNL A   1      37.384  28.403  32.876  1.00  0.00    -0.744 OA
ENDBRANCH  42  45
ENDBRANCH  24  38
BRANCH  25  49
ATOM     49  C   UNL A   1      44.715  26.020  33.550  1.00  0.00     0.023 A 
ATOM     50  C   UNL A   1      46.022  25.855  34.052  1.00  0.00     0.012 A 
ATOM     51  C   UNL A   1      43.655  26.132  34.480  1.00  0.00     0.148 A 
ATOM     52  C   UNL A   1      46.266  25.828  35.431  1.00  0.00     0.002 A 
ATOM     53  C   UNL A   1      43.902  26.093  35.849  1.00  0.00     0.091 A 
ATOM     54  F   UNL A   1      42.419  26.370  34.026  1.00  0.00    -0.205 F 
ATOM     55  C   UNL A   1      45.210  25.953  36.330  1.00  0.00     0.022 A 
BRANCH  53  56
ATOM     56  S   UNL A   1      42.589  26.270  37.065  1.00  0.00     0.127 S 
ATOM     57  O   UNL A   1      42.045  27.587  36.730  1.00  0.00    -0.237 OA
ATOM     58  O   UNL A   1      41.716  25.148  36.735  1.00  0.00    -0.237 OA
ATOM     59  O   UNL A   1      43.239  26.205  38.368  1.00  0.00    -0.744 OA
ENDBRANCH  53  56
ENDBRANCH  25  49
BRANCH  37  60
ATOM     60  C   UNL A   1      45.258  29.024  28.075  1.00  0.00     0.023 A 
ATOM     61  C   UNL A   1      46.232  30.042  28.143  1.00  0.00     0.012 A 
ATOM     62  C   UNL A   1      45.632  27.755  27.607  1.00  0.00     0.148 A 
ATOM     63  C   UNL A   1      47.547  29.801  27.733  1.00  0.00     0.002 A 
ATOM     64  C   UNL A   1      46.949  27.505  27.246  1.00  0.00     0.091 A 
ATOM     65  F   UNL A   1      44.693  26.797  27.555  1.00  0.00    -0.205 F 
ATOM     66  C   UNL A   1      47.909  28.528  27.298  1.00  0.00     0.022 A 
BRANCH  64  67
ATOM     67  S   UNL A   1      47.499  25.856  26.804  1.00  0.00     0.127 S 
ATOM     68  O   UNL A   1      47.112  25.080  27.980  1.00  0.00    -0.237 OA
ATOM     69  O   UNL A   1      46.715  25.576  25.600  1.00  0.00    -0.237 OA
ATOM     70  O   UNL A   1      48.933  25.963  26.567  1.00  0.00    -0.744 OA
ENDBRANCH  64  67
ENDBRANCH  37  60
ENDBRANCH  11  12
ENDBRANCH   4   6
ENDBRANCH   3   4
ENDBRANCH   2   3
ENDBRANCH   1   2
BRANCH   1  71
ATOM     71  O   UNL A   1      35.749  20.636  25.335  1.00  0.00    -0.374 OA
BRANCH  71  72
ATOM     72  C   UNL A   1      34.585  19.959  24.863  1.00  0.00     0.202 C 
BRANCH  72  73
ATOM     73  C   UNL A   1      33.223  20.656  24.879  1.00  0.00     0.261 C 
BRANCH  73  74
ATOM     74  O   UNL A   1      33.299  22.027  24.485  1.00  0.00    -0.458 OA
BRANCH  74  75
ATOM     75  C   UNL A   1      32.898  22.929  25.434  1.00  0.00     0.361 C 
ATOM     76  O   UNL A   1      33.346  23.014  26.559  1.00  0.00    -0.244 OA
BRANCH  75  77
ATOM     77  C   UNL A   1      31.920  23.860  24.896  1.00  0.00     0.198 A 
ATOM     78  N   UNL A   1      30.973  23.498  23.965  1.00  0.00    -0.122 NA
ATOM     79  C   UNL A   1      31.772  25.202  25.188  1.00  0.00     0.123 A 
ATOM     80  N   UNL A   1      30.262  24.577  23.657  1.00  0.00    -0.061 NA
ATOM     81  N   UNL A   1      30.859  25.628  24.250  1.00  0.00    -0.213 N 
BRANCH  79  82
ATOM     82  C   UNL A   1      32.403  26.104  26.194  1.00  0.00     0.262 C 
ATOM     83  C   UNL A   1      33.835  26.474  25.786  1.00  0.00     0.281 C 
ATOM     84  O   UNL A   1      31.531  27.231  26.313  1.00  0.00    -0.477 OA
ATOM     85  O   UNL A   1      34.386  27.411  26.718  1.00  0.00    -0.485 OA
ATOM     86  C   UNL A   1      32.179  28.404  26.582  1.00  0.00     0.162 A 
ATOM     87  C   UNL A   1      33.556  28.499  26.791  1.00  0.00     0.161 A 
ATOM     88  C   UNL A   1      31.388  29.551  26.600  1.00  0.00     0.050 A 
ATOM     89  C   UNL A   1      34.139  29.732  27.063  1.00  0.00     0.050 A 
ATOM     90  C   UNL A   1      31.977  30.794  26.822  1.00  0.00     0.004 A 
ATOM     91  C   UNL A   1      33.350  30.884  27.061  1.00  0.00     0.004 A 
ENDBRANCH  79  82
BRANCH  81  92
ATOM     92  C   UNL A   1      30.808  26.907  23.677  1.00  0.00     0.067 A 
ATOM     93  C   UNL A   1      31.944  27.492  23.128  1.00  0.00     0.028 A 
ATOM     94  C   UNL A   1      29.560  27.544  23.629  1.00  0.00     0.041 A 
ATOM     95  C   UNL A   1      31.797  28.694  22.436  1.00  0.00     0.003 A 
ATOM     96  C   UNL A   1      29.412  28.755  22.957  1.00  0.00     0.058 A 
ATOM     97  C   UNL A   1      30.541  29.314  22.341  1.00  0.00     0.013 A 
BRANCH  96  98
ATOM     98  C   UNL A   1      28.057  29.412  22.877  1.00  0.00     0.416 C 
ATOM     99  F   UNL A   1      28.047  30.663  23.414  1.00  0.00    -0.166 F 
ATOM    100  F   UNL A   1      27.620  29.545  21.595  1.00  0.00    -0.166 F 
ATOM    101  F   UNL A   1      27.081  28.719  23.530  1.00  0.00    -0.166 F 
ENDBRANCH  96  98
ENDBRANCH  81  92
ENDBRANCH  75  77
ENDBRANCH  74  75
ENDBRANCH  73  74
ENDBRANCH  72  73
ENDBRANCH  71  72
ENDBRANCH   1  71
TORSDOF 20
ENDMDL
MODEL 3
REMARK VINA RESULT:     -11.9      3.689      7.740
REMARK SMILES O=C(OCCOCCOC(=O)c1nnn(-c2cccc(C(F)(F)F)c2)c1[C@H]1COc2ccccc2O1)c1ccc(-c2c3nc(c(-c4cccc(S(=O)(=O)[O-])c4F)c4ccc([nH]4)c(-c4cccc(S(=O)(=O)[O-])c4F)c4nc(c(-c5cccc(S(=O)(=O)[O-])c5F)c5ccc2[nH]5)C=C4)C=C3)cc1
REMARK SMILES IDX 5 1 4 2 3 3 2 4 1 5 37 6 38 7 99 8 39 9 98 10 40 11 41 12
REMARK SMILES IDX 42 13 92 14 43 15 97 16 91 17 93 18 44 19 96 20 90 21 89 22
REMARK SMILES IDX 45 24 77 25 57 26 76 27 58 28 61 29 75 30 94 31 59 32 60 33
REMARK SMILES IDX 74 35 95 36 62 37 46 38 47 39 55 40 48 41 50 42 56 43 49 44
REMARK SMILES IDX 51 45 52 46 53 47 54 48 78 49 79 50 87 51 80 52 82 53 88 54
REMARK SMILES IDX 81 55 83 56 84 57 85 58 86 59 63 60 64 61 72 62 65 63 67 64
REMARK SMILES IDX 73 65 66 66 68 67 69 68 70 69 71 70 6 71 7 72 8 73 9 74
REMARK SMILES IDX 10 75 11 76 12 77 13 78 26 79 14 80 15 81 27 82 28 83 36 84
REMARK SMILES IDX 29 85 35 86 30 87 34 88 31 89 33 90 32 91 16 92 17 93 25 94
REMARK SMILES IDX 18 95 20 96 19 97 21 98 22 99 23 100 24 101
REMARK H PARENT 93 23 61 34
REMARK Flexibility Score: inf
ROOT
ATOM      1  C   UNL A   1      36.389  20.948  24.665  1.00  0.00     0.202 C 
ENDROOT
BRANCH   1   2
ATOM      2  C   UNL A   1      37.722  21.081  25.405  1.00  0.00     0.261 C 
BRANCH   2   3
ATOM      3  O   UNL A   1      38.584  19.954  25.201  1.00  0.00    -0.460 OA
BRANCH   3   4
ATOM      4  C   UNL A   1      39.822  19.713  25.676  1.00  0.00     0.338 C 
ATOM      5  O   UNL A   1      40.318  18.611  25.446  1.00  0.00    -0.246 OA
BRANCH   4   6
ATOM      6  C   UNL A   1      40.639  20.711  26.433  1.00  0.00     0.060 A 
ATOM      7  C   UNL A   1      40.953  20.658  27.791  1.00  0.00     0.016 A 
ATOM      8  C   UNL A   1      41.066  21.828  25.692  1.00  0.00     0.016 A 
ATOM      9  C   UNL A   1      41.361  21.800  28.449  1.00  0.00     0.010 A 
ATOM     10  C   UNL A   1      41.561  22.950  26.331  1.00  0.00     0.010 A 
ATOM     11  C   UNL A   1      41.580  22.961  27.716  1.00  0.00    -0.014 A 
BRANCH  11  12
ATOM     12  C   UNL A   1      41.892  24.161  28.466  1.00  0.00     0.031 A 
ATOM     13  C   UNL A   1      40.892  25.241  28.292  1.00  0.00     0.074 A 
ATOM     14  C   UNL A   1      42.986  24.226  29.248  1.00  0.00     0.049 A 
ATOM     15  N   UNL A   1      41.049  26.380  27.701  1.00  0.00    -0.248 NA
ATOM     16  C   UNL A   1      39.495  24.928  28.629  1.00  0.00     0.031 C 
ATOM     17  C   UNL A   1      43.874  23.128  29.645  1.00  0.00     0.029 A 
ATOM     18  N   UNL A   1      43.451  25.272  29.980  1.00  0.00    -0.354 N 
ATOM     19  C   UNL A   1      39.820  27.029  27.824  1.00  0.00     0.074 A 
ATOM     20  C   UNL A   1      38.868  26.014  28.179  1.00  0.00     0.031 C 
ATOM     21  C   UNL A   1      44.564  23.497  30.747  1.00  0.00     0.029 A 
ATOM     22  C   UNL A   1      44.268  24.888  31.038  1.00  0.00     0.049 A 
ATOM     23  H   UNL A   1      43.231  26.211  29.781  1.00  0.00     0.167 HD
ATOM     24  C   UNL A   1      39.757  28.387  27.919  1.00  0.00     0.034 A 
ATOM     25  C   UNL A   1      44.574  25.636  32.127  1.00  0.00     0.034 A 
ATOM     26  C   UNL A   1      40.967  28.993  27.415  1.00  0.00     0.049 A 
ATOM     27  C   UNL A   1      44.306  27.052  31.778  1.00  0.00     0.074 A 
ATOM     28  C   UNL A   1      41.635  28.993  26.206  1.00  0.00     0.029 A 
ATOM     29  N   UNL A   1      41.875  29.432  28.348  1.00  0.00    -0.354 N 
ATOM     30  N   UNL A   1      44.988  27.709  30.882  1.00  0.00    -0.248 NA
ATOM     31  C   UNL A   1      42.989  27.589  32.083  1.00  0.00     0.031 C 
ATOM     32  C   UNL A   1      43.018  28.977  26.551  1.00  0.00     0.029 A 
ATOM     33  C   UNL A   1      43.120  29.040  27.943  1.00  0.00     0.049 A 
ATOM     34  H   UNL A   1      41.666  29.938  29.167  1.00  0.00     0.167 HD
ATOM     35  C   UNL A   1      44.028  28.432  30.184  1.00  0.00     0.074 A 
ATOM     36  C   UNL A   1      42.838  28.403  31.034  1.00  0.00     0.031 C 
ATOM     37  C   UNL A   1      44.191  28.721  28.858  1.00  0.00     0.034 A 
BRANCH  24  38
ATOM     38  C   UNL A   1      38.845  29.137  28.879  1.00  0.00     0.023 A 
ATOM     39  C   UNL A   1      38.249  30.322  28.386  1.00  0.00     0.012 A 
ATOM     40  C   UNL A   1      38.800  28.945  30.281  1.00  0.00     0.148 A 
ATOM     41  C   UNL A   1      37.767  31.317  29.242  1.00  0.00     0.002 A 
ATOM     42  C   UNL A   1      38.273  29.915  31.127  1.00  0.00     0.091 A 
ATOM     43  F   UNL A   1      39.354  27.871  30.840  1.00  0.00    -0.205 F 
ATOM     44  C   UNL A   1      37.793  31.120  30.616  1.00  0.00     0.022 A 
BRANCH  42  45
ATOM     45  S   UNL A   1      38.259  29.700  32.913  1.00  0.00     0.127 S 
ATOM     46  O   UNL A   1      37.706  30.978  33.352  1.00  0.00    -0.237 OA
ATOM     47  O   UNL A   1      37.367  28.550  33.064  1.00  0.00    -0.237 OA
ATOM     48  O   UNL A   1      39.641  29.439  33.297  1.00  0.00    -0.744 OA
ENDBRANCH  42  45
ENDBRANCH  24  38
BRANCH  25  49
ATOM     49  C   UNL A   1      44.761  25.194  33.530  1.00  0.00     0.023 A 
ATOM     50  C   UNL A   1      43.635  24.959  34.345  1.00  0.00     0.012 A 
ATOM     51  C   UNL A   1      46.019  24.739  33.987  1.00  0.00     0.148 A 
ATOM     52  C   UNL A   1      43.755  24.272  35.560  1.00  0.00     0.002 A 
ATOM     53  C   UNL A   1      46.135  24.067  35.201  1.00  0.00     0.091 A 
ATOM     54  F   UNL A   1      47.086  24.880  33.192  1.00  0.00    -0.205 F 
ATOM     55  C   UNL A   1      45.002  23.821  35.985  1.00  0.00     0.022 A 
BRANCH  53  56
ATOM     56  S   UNL A   1      47.709  23.437  35.800  1.00  0.00     0.127 S 
ATOM     57  O   UNL A   1      47.934  22.296  34.912  1.00  0.00    -0.237 OA
ATOM     58  O   UNL A   1      48.597  24.573  35.571  1.00  0.00    -0.237 OA
ATOM     59  O   UNL A   1      47.491  23.077  37.195  1.00  0.00    -0.744 OA
ENDBRANCH  53  56
ENDBRANCH  25  49
BRANCH  37  60
ATOM     60  C   UNL A   1      45.538  28.461  28.236  1.00  0.00     0.023 A 
ATOM     61  C   UNL A   1      46.613  29.369  28.344  1.00  0.00     0.012 A 
ATOM     62  C   UNL A   1      45.773  27.191  27.688  1.00  0.00     0.148 A 
ATOM     63  C   UNL A   1      47.890  29.020  27.894  1.00  0.00     0.002 A 
ATOM     64  C   UNL A   1      47.052  26.831  27.286  1.00  0.00     0.091 A 
ATOM     65  F   UNL A   1      44.739  26.339  27.599  1.00  0.00    -0.205 F 
ATOM     66  C   UNL A   1      48.112  27.746  27.378  1.00  0.00     0.022 A 
BRANCH  64  67
ATOM     67  S   UNL A   1      47.422  25.164  26.737  1.00  0.00     0.127 S 
ATOM     68  O   UNL A   1      46.792  24.353  27.777  1.00  0.00    -0.237 OA
ATOM     69  O   UNL A   1      46.761  25.109  25.432  1.00  0.00    -0.237 OA
ATOM     70  O   UNL A   1      48.876  25.079  26.670  1.00  0.00    -0.744 OA
ENDBRANCH  64  67
ENDBRANCH  37  60
ENDBRANCH  11  12
ENDBRANCH   4   6
ENDBRANCH   3   4
ENDBRANCH   2   3
ENDBRANCH   1   2
BRANCH   1  71
ATOM     71  O   UNL A   1      35.206  20.608  25.377  1.00  0.00    -0.374 OA
BRANCH  71  72
ATOM     72  C   UNL A   1      34.194  19.796  24.783  1.00  0.00     0.202 C 
BRANCH  72  73
ATOM     73  C   UNL A   1      32.715  20.142  24.970  1.00  0.00     0.261 C 
BRANCH  73  74
ATOM     74  O   UNL A   1      32.299  21.248  24.166  1.00  0.00    -0.458 OA
BRANCH  74  75
ATOM     75  C   UNL A   1      31.863  22.343  24.863  1.00  0.00     0.361 C 
ATOM     76  O   UNL A   1      30.980  22.341  25.697  1.00  0.00    -0.244 OA
BRANCH  75  77
ATOM     77  C   UNL A   1      32.664  23.515  24.555  1.00  0.00     0.198 A 
ATOM     78  N   UNL A   1      34.028  23.560  24.734  1.00  0.00    -0.122 NA
ATOM     79  C   UNL A   1      32.236  24.734  24.068  1.00  0.00     0.123 A 
ATOM     80  N   UNL A   1      34.451  24.772  24.393  1.00  0.00    -0.061 NA
ATOM     81  N   UNL A   1      33.357  25.525  24.173  1.00  0.00    -0.213 N 
BRANCH  79  82
ATOM     82  C   UNL A   1      30.921  25.230  23.567  1.00  0.00     0.262 C 
ATOM     83  C   UNL A   1      29.966  25.537  24.728  1.00  0.00     0.281 C 
ATOM     84  O   UNL A   1      31.215  26.366  22.750  1.00  0.00    -0.477 OA
ATOM     85  O   UNL A   1      28.746  26.096  24.227  1.00  0.00    -0.485 OA
ATOM     86  C   UNL A   1      30.246  27.329  22.776  1.00  0.00     0.162 A 
ATOM     87  C   UNL A   1      29.046  27.204  23.476  1.00  0.00     0.161 A 
ATOM     88  C   UNL A   1      30.531  28.504  22.082  1.00  0.00     0.050 A 
ATOM     89  C   UNL A   1      28.109  28.232  23.450  1.00  0.00     0.050 A 
ATOM     90  C   UNL A   1      29.617  29.555  22.096  1.00  0.00     0.004 A 
ATOM     91  C   UNL A   1      28.403  29.416  22.772  1.00  0.00     0.004 A 
ENDBRANCH  79  82
BRANCH  81  92
ATOM     92  C   UNL A   1      33.368  26.906  24.424  1.00  0.00     0.067 A 
ATOM     93  C   UNL A   1      33.837  27.803  23.469  1.00  0.00     0.028 A 
ATOM     94  C   UNL A   1      32.838  27.345  25.645  1.00  0.00     0.041 A 
ATOM     95  C   UNL A   1      33.677  29.167  23.715  1.00  0.00     0.003 A 
ATOM     96  C   UNL A   1      32.696  28.707  25.903  1.00  0.00     0.058 A 
ATOM     97  C   UNL A   1      33.102  29.615  24.914  1.00  0.00     0.013 A 
BRANCH  96  98
ATOM     98  C   UNL A   1      32.088  29.168  27.203  1.00  0.00     0.416 C 
ATOM     99  F   UNL A   1      31.175  28.289  27.698  1.00  0.00    -0.166 F 
ATOM    100  F   UNL A   1      33.020  29.339  28.179  1.00  0.00    -0.166 F 
ATOM    101  F   UNL A   1      31.437  30.362  27.101  1.00  0.00    -0.166 F 
ENDBRANCH  96  98
ENDBRANCH  81  92
ENDBRANCH  75  77
ENDBRANCH  74  75
ENDBRANCH  73  74
ENDBRANCH  72  73
ENDBRANCH  71  72
ENDBRANCH   1  71
TORSDOF 20
ENDMDL
