MODEL 1
REMARK VINA RESULT:     -11.2      0.000      0.000
REMARK SMILES Cc1cc(-n2cnc(C(=O)OCCOCCOC(=O)c3ccc(-c4c5nc(c(-c6cccc(S(=O)(=O)[O-])c6F)c6ccc([nH]6)c(-c6cccc(S(=O)(=O)[O-])c6F)c6nc(c(-c7cccc(S(=O)(=O)[O-])c7F)c7ccc4[nH]7)C=C6)C=C5)cc3)c2)nc(Cl)n1
REMARK SMILES IDX 15 1 14 2 13 3 12 4 11 5 9 6 10 7 8 8 5 9 6 10 83 11 7 12
REMARK SMILES IDX 4 13 1 14 2 15 3 16 87 17 85 18 84 19 86 20 16 21 17 22
REMARK SMILES IDX 18 23 19 24 20 25 21 26 82 27 22 28 81 29 23 30 24 31 25 32
REMARK SMILES IDX 75 33 26 34 80 35 74 36 76 37 27 38 79 39 73 40 72 41 28 43
REMARK SMILES IDX 60 44 40 45 59 46 41 47 44 48 58 49 77 50 42 51 43 52 57 54
REMARK SMILES IDX 78 55 45 56 29 57 30 58 38 59 31 60 33 61 39 62 32 63 34 64
REMARK SMILES IDX 35 65 36 66 37 67 61 68 62 69 70 70 63 71 65 72 71 73 64 74
REMARK SMILES IDX 66 75 67 76 68 77 69 78 46 79 47 80 55 81 48 82 50 83 56 84
REMARK SMILES IDX 49 85 51 86 52 87 53 88 54 89
REMARK H PARENT 76 42 44 53
REMARK Flexibility Score: inf
ROOT
ATOM      1  C   UNL A   1      36.408  21.543  25.210  1.00  0.00     0.202 C 
ENDROOT
BRANCH   1   2
ATOM      2  O   UNL A   1      35.130  21.197  24.680  1.00  0.00    -0.374 OA
BRANCH   2   3
ATOM      3  C   UNL A   1      34.085  20.743  25.541  1.00  0.00     0.202 C 
BRANCH   3   4
ATOM      4  C   UNL A   1      34.037  21.285  26.970  1.00  0.00     0.261 C 
BRANCH   4   5
ATOM      5  O   UNL A   1      34.045  22.719  27.002  1.00  0.00    -0.458 OA
BRANCH   5   6
ATOM      6  C   UNL A   1      32.807  23.304  26.998  1.00  0.00     0.358 C 
ATOM      7  O   UNL A   1      31.848  22.913  27.637  1.00  0.00    -0.244 OA
BRANCH   6   8
ATOM      8  C   UNL A   1      32.812  24.539  26.211  1.00  0.00     0.166 A 
ATOM      9  N   UNL A   1      32.251  26.439  25.265  1.00  0.00    -0.289 N 
ATOM     10  C   UNL A   1      33.488  26.042  24.825  1.00  0.00     0.206 A 
ATOM     11  C   UNL A   1      31.768  25.423  26.053  1.00  0.00     0.130 A 
ATOM     12  N   UNL A   1      33.888  24.947  25.437  1.00  0.00    -0.229 NA
BRANCH   9  13
ATOM     13  C   UNL A   1      31.668  27.709  25.057  1.00  0.00     0.143 A 
ATOM     14  C   UNL A   1      31.874  31.106  26.587  1.00  0.00     0.067 C 
ATOM     15  C   UNL A   1      31.500  29.961  25.696  1.00  0.00     0.044 A 
ATOM     16  C   UNL A   1      31.914  28.685  26.009  1.00  0.00     0.071 A 
ATOM     17  N   UNL A   1      30.779  30.229  24.593  1.00  0.00    -0.223 NA
ATOM     18  C   UNL A   1      30.549  29.192  23.774  1.00  0.00     0.224 A 
ATOM     19  N   UNL A   1      31.019  27.945  23.903  1.00  0.00    -0.200 NA
ATOM     20  Cl  UNL A   1      29.585  29.507  22.403  1.00  0.00    -0.041 Cl
ENDBRANCH   9  13
ENDBRANCH   6   8
ENDBRANCH   5   6
ENDBRANCH   4   5
ENDBRANCH   3   4
ENDBRANCH   2   3
ENDBRANCH   1   2
BRANCH   1  21
ATOM     21  C   UNL A   1      37.576  20.585  25.032  1.00  0.00     0.261 C 
BRANCH  21  22
ATOM     22  O   UNL A   1      38.766  21.097  25.601  1.00  0.00    -0.460 OA
BRANCH  22  23
ATOM     23  C   UNL A   1      39.731  20.158  25.730  1.00  0.00     0.338 C 
ATOM     24  O   UNL A   1      39.653  18.971  25.470  1.00  0.00    -0.246 OA
BRANCH  23  25
ATOM     25  C   UNL A   1      40.905  20.779  26.337  1.00  0.00     0.060 A 
ATOM     26  C   UNL A   1      41.008  20.656  27.726  1.00  0.00     0.016 A 
ATOM     27  C   UNL A   1      41.551  21.784  25.611  1.00  0.00     0.016 A 
ATOM     28  C   UNL A   1      41.503  21.728  28.422  1.00  0.00     0.010 A 
ATOM     29  C   UNL A   1      41.999  22.869  26.305  1.00  0.00     0.010 A 
ATOM     30  C   UNL A   1      41.868  22.861  27.693  1.00  0.00    -0.014 A 
BRANCH  30  31
ATOM     31  C   UNL A   1      42.176  24.071  28.408  1.00  0.00     0.031 A 
ATOM     32  C   UNL A   1      41.150  25.107  28.178  1.00  0.00     0.074 A 
ATOM     33  C   UNL A   1      43.210  24.128  29.269  1.00  0.00     0.049 A 
ATOM     34  N   UNL A   1      41.246  26.144  27.412  1.00  0.00    -0.248 NA
ATOM     35  C   UNL A   1      39.779  24.824  28.639  1.00  0.00     0.031 C 
ATOM     36  C   UNL A   1      44.063  23.036  29.752  1.00  0.00     0.029 A 
ATOM     37  N   UNL A   1      43.626  25.180  30.014  1.00  0.00    -0.354 N 
ATOM     38  C   UNL A   1      40.015  26.774  27.537  1.00  0.00     0.074 A 
ATOM     39  C   UNL A   1      39.092  25.793  28.038  1.00  0.00     0.031 C 
ATOM     40  C   UNL A   1      44.690  23.435  30.885  1.00  0.00     0.029 A 
ATOM     41  C   UNL A   1      44.375  24.831  31.135  1.00  0.00     0.049 A 
ATOM     42  H   UNL A   1      43.417  26.114  29.782  1.00  0.00     0.167 HD
ATOM     43  C   UNL A   1      39.916  28.129  27.579  1.00  0.00     0.034 A 
ATOM     44  C   UNL A   1      44.593  25.629  32.215  1.00  0.00     0.034 A 
ATOM     45  C   UNL A   1      41.121  28.775  27.144  1.00  0.00     0.049 A 
ATOM     46  C   UNL A   1      44.308  27.020  31.771  1.00  0.00     0.074 A 
ATOM     47  C   UNL A   1      41.864  28.767  25.982  1.00  0.00     0.029 A 
ATOM     48  N   UNL A   1      41.958  29.229  28.135  1.00  0.00    -0.354 N 
ATOM     49  N   UNL A   1      45.005  27.647  30.866  1.00  0.00    -0.248 NA
ATOM     50  C   UNL A   1      42.964  27.534  31.998  1.00  0.00     0.031 C 
ATOM     51  C   UNL A   1      43.222  28.776  26.414  1.00  0.00     0.029 A 
ATOM     52  C   UNL A   1      43.235  28.857  27.808  1.00  0.00     0.049 A 
ATOM     53  H   UNL A   1      41.689  29.733  28.937  1.00  0.00     0.167 HD
ATOM     54  C   UNL A   1      44.057  28.320  30.105  1.00  0.00     0.074 A 
ATOM     55  C   UNL A   1      42.832  28.287  30.903  1.00  0.00     0.031 C 
ATOM     56  C   UNL A   1      44.265  28.565  28.779  1.00  0.00     0.034 A 
BRANCH  43  57
ATOM     57  C   UNL A   1      38.878  28.833  28.402  1.00  0.00     0.023 A 
ATOM     58  C   UNL A   1      38.043  29.765  27.763  1.00  0.00     0.012 A 
ATOM     59  C   UNL A   1      38.840  28.784  29.816  1.00  0.00     0.148 A 
ATOM     60  C   UNL A   1      37.193  30.595  28.501  1.00  0.00     0.002 A 
ATOM     61  C   UNL A   1      37.927  29.536  30.536  1.00  0.00     0.091 A 
ATOM     62  F   UNL A   1      39.785  28.110  30.483  1.00  0.00    -0.205 F 
ATOM     63  C   UNL A   1      37.115  30.463  29.885  1.00  0.00     0.022 A 
BRANCH  61  64
ATOM     64  S   UNL A   1      37.761  29.351  32.315  1.00  0.00     0.127 S 
ATOM     65  O   UNL A   1      38.952  30.048  32.793  1.00  0.00    -0.237 OA
ATOM     66  O   UNL A   1      36.494  30.034  32.570  1.00  0.00    -0.237 OA
ATOM     67  O   UNL A   1      37.718  27.912  32.548  1.00  0.00    -0.744 OA
ENDBRANCH  61  64
ENDBRANCH  43  57
BRANCH  44  68
ATOM     68  C   UNL A   1      44.664  25.292  33.666  1.00  0.00     0.023 A 
ATOM     69  C   UNL A   1      43.460  25.194  34.401  1.00  0.00     0.012 A 
ATOM     70  C   UNL A   1      45.833  24.762  34.255  1.00  0.00     0.148 A 
ATOM     71  C   UNL A   1      43.409  24.533  35.635  1.00  0.00     0.002 A 
ATOM     72  C   UNL A   1      45.779  24.113  35.488  1.00  0.00     0.091 A 
ATOM     73  F   UNL A   1      46.982  24.801  33.569  1.00  0.00    -0.205 F 
ATOM     74  C   UNL A   1      44.565  23.979  36.171  1.00  0.00     0.022 A 
BRANCH  72  75
ATOM     75  S   UNL A   1      47.233  23.363  36.238  1.00  0.00     0.127 S 
ATOM     76  O   UNL A   1      48.011  24.538  36.635  1.00  0.00    -0.237 OA
ATOM     77  O   UNL A   1      46.650  22.612  37.346  1.00  0.00    -0.237 OA
ATOM     78  O   UNL A   1      47.853  22.565  35.187  1.00  0.00    -0.744 OA
ENDBRANCH  72  75
ENDBRANCH  44  68
BRANCH  56  79
ATOM     79  C   UNL A   1      45.637  28.298  28.218  1.00  0.00     0.023 A 
ATOM     80  C   UNL A   1      46.723  29.180  28.411  1.00  0.00     0.012 A 
ATOM     81  C   UNL A   1      45.875  27.028  27.674  1.00  0.00     0.148 A 
ATOM     82  C   UNL A   1      48.023  28.793  28.070  1.00  0.00     0.002 A 
ATOM     83  C   UNL A   1      47.171  26.634  27.370  1.00  0.00     0.091 A 
ATOM     84  F   UNL A   1      44.827  26.207  27.515  1.00  0.00    -0.205 F 
ATOM     85  C   UNL A   1      48.249  27.514  27.564  1.00  0.00     0.022 A 
BRANCH  83  86
ATOM     86  S   UNL A   1      47.542  24.969  26.820  1.00  0.00     0.127 S 
ATOM     87  O   UNL A   1      48.980  24.880  27.064  1.00  0.00    -0.237 OA
ATOM     88  O   UNL A   1      46.716  24.156  27.713  1.00  0.00    -0.237 OA
ATOM     89  O   UNL A   1      47.147  24.907  25.417  1.00  0.00    -0.744 OA
ENDBRANCH  83  86
ENDBRANCH  56  79
ENDBRANCH  30  31
ENDBRANCH  23  25
ENDBRANCH  22  23
ENDBRANCH  21  22
ENDBRANCH   1  21
TORSDOF 18
ENDMDL
MODEL 2
REMARK VINA RESULT:     -11.1      4.851      9.588
REMARK SMILES Cc1cc(-n2cnc(C(=O)OCCOCCOC(=O)c3ccc(-c4c5nc(c(-c6cccc(S(=O)(=O)[O-])c6F)c6ccc([nH]6)c(-c6cccc(S(=O)(=O)[O-])c6F)c6nc(c(-c7cccc(S(=O)(=O)[O-])c7F)c7ccc4[nH]7)C=C6)C=C5)cc3)c2)nc(Cl)n1
REMARK SMILES IDX 15 1 14 2 13 3 12 4 11 5 9 6 10 7 8 8 5 9 6 10 83 11 7 12
REMARK SMILES IDX 4 13 1 14 2 15 3 16 87 17 85 18 84 19 86 20 16 21 17 22
REMARK SMILES IDX 18 23 19 24 20 25 21 26 82 27 22 28 81 29 23 30 24 31 25 32
REMARK SMILES IDX 75 33 26 34 80 35 74 36 76 37 27 38 79 39 73 40 72 41 28 43
REMARK SMILES IDX 60 44 40 45 59 46 41 47 44 48 58 49 77 50 42 51 43 52 57 54
REMARK SMILES IDX 78 55 45 56 29 57 30 58 38 59 31 60 33 61 39 62 32 63 34 64
REMARK SMILES IDX 35 65 36 66 37 67 61 68 62 69 70 70 63 71 65 72 71 73 64 74
REMARK SMILES IDX 66 75 67 76 68 77 69 78 46 79 47 80 55 81 48 82 50 83 56 84
REMARK SMILES IDX 49 85 51 86 52 87 53 88 54 89
REMARK H PARENT 76 42 44 53
REMARK Flexibility Score: inf
ROOT
ATOM      1  C   UNL A   1      34.915  34.410  28.413  1.00  0.00     0.202 C 
ENDROOT
BRANCH   1   2
ATOM      2  O   UNL A   1      34.459  35.751  28.241  1.00  0.00    -0.374 OA
BRANCH   2   3
ATOM      3  C   UNL A   1      33.226  36.179  28.820  1.00  0.00     0.202 C 
BRANCH   3   4
ATOM      4  C   UNL A   1      33.272  36.923  30.155  1.00  0.00     0.261 C 
BRANCH   4   5
ATOM      5  O   UNL A   1      32.745  36.134  31.229  1.00  0.00    -0.458 OA
BRANCH   5   6
ATOM      6  C   UNL A   1      33.457  36.198  32.397  1.00  0.00     0.358 C 
ATOM      7  O   UNL A   1      33.394  37.108  33.203  1.00  0.00    -0.244 OA
BRANCH   6   8
ATOM      8  C   UNL A   1      34.224  34.970  32.614  1.00  0.00     0.166 A 
ATOM      9  N   UNL A   1      35.841  33.530  32.977  1.00  0.00    -0.289 N 
ATOM     10  C   UNL A   1      34.661  32.866  32.758  1.00  0.00     0.206 A 
ATOM     11  C   UNL A   1      35.589  34.864  32.764  1.00  0.00     0.130 A 
ATOM     12  N   UNL A   1      33.655  33.705  32.620  1.00  0.00    -0.229 NA
BRANCH   9  13
ATOM     13  C   UNL A   1      37.034  32.955  33.466  1.00  0.00     0.143 A 
ATOM     14  C   UNL A   1      40.702  33.347  32.898  1.00  0.00     0.067 C 
ATOM     15  C   UNL A   1      39.380  32.880  33.428  1.00  0.00     0.044 A 
ATOM     16  C   UNL A   1      38.214  33.296  32.824  1.00  0.00     0.071 A 
ATOM     17  N   UNL A   1      39.381  32.076  34.505  1.00  0.00    -0.223 NA
ATOM     18  C   UNL A   1      38.177  31.761  35.005  1.00  0.00     0.224 A 
ATOM     19  N   UNL A   1      36.988  32.218  34.590  1.00  0.00    -0.200 NA
ATOM     20  Cl  UNL A   1      38.163  30.693  36.334  1.00  0.00    -0.041 Cl
ENDBRANCH   9  13
ENDBRANCH   6   8
ENDBRANCH   5   6
ENDBRANCH   4   5
ENDBRANCH   3   4
ENDBRANCH   2   3
ENDBRANCH   1   2
BRANCH   1  21
ATOM     21  C   UNL A   1      33.903  33.304  28.671  1.00  0.00     0.261 C 
BRANCH  21  22
ATOM     22  O   UNL A   1      34.459  32.255  29.441  1.00  0.00    -0.460 OA
BRANCH  22  23
ATOM     23  C   UNL A   1      35.334  31.499  28.740  1.00  0.00     0.338 C 
ATOM     24  O   UNL A   1      35.233  31.120  27.587  1.00  0.00    -0.246 OA
BRANCH  23  25
ATOM     25  C   UNL A   1      36.426  31.109  29.628  1.00  0.00     0.060 A 
ATOM     26  C   UNL A   1      37.497  32.005  29.704  1.00  0.00     0.016 A 
ATOM     27  C   UNL A   1      36.542  29.753  29.952  1.00  0.00     0.016 A 
ATOM     28  C   UNL A   1      38.758  31.477  29.800  1.00  0.00     0.010 A 
ATOM     29  C   UNL A   1      37.799  29.226  30.000  1.00  0.00     0.010 A 
ATOM     30  C   UNL A   1      38.879  30.087  29.819  1.00  0.00    -0.014 A 
BRANCH  30  31
ATOM     31  C   UNL A   1      40.192  29.508  29.693  1.00  0.00     0.031 A 
ATOM     32  C   UNL A   1      40.838  29.352  31.011  1.00  0.00     0.074 A 
ATOM     33  C   UNL A   1      40.645  29.063  28.506  1.00  0.00     0.049 A 
ATOM     34  N   UNL A   1      41.773  30.090  31.514  1.00  0.00    -0.248 NA
ATOM     35  C   UNL A   1      40.200  28.444  31.981  1.00  0.00     0.031 C 
ATOM     36  C   UNL A   1      39.919  28.923  27.240  1.00  0.00     0.029 A 
ATOM     37  N   UNL A   1      41.844  28.497  28.224  1.00  0.00    -0.354 N 
ATOM     38  C   UNL A   1      42.009  29.534  32.764  1.00  0.00     0.074 A 
ATOM     39  C   UNL A   1      40.849  28.754  33.101  1.00  0.00     0.031 C 
ATOM     40  C   UNL A   1      40.601  28.076  26.431  1.00  0.00     0.029 A 
ATOM     41  C   UNL A   1      41.853  27.714  27.073  1.00  0.00     0.049 A 
ATOM     42  H   UNL A   1      42.642  28.629  28.786  1.00  0.00     0.167 HD
ATOM     43  C   UNL A   1      43.266  29.442  33.271  1.00  0.00     0.034 A 
ATOM     44  C   UNL A   1      42.784  26.769  26.772  1.00  0.00     0.034 A 
ATOM     45  C   UNL A   1      44.201  30.262  32.556  1.00  0.00     0.049 A 
ATOM     46  C   UNL A   1      43.970  27.066  27.619  1.00  0.00     0.074 A 
ATOM     47  C   UNL A   1      44.302  31.611  32.285  1.00  0.00     0.029 A 
ATOM     48  N   UNL A   1      44.985  29.621  31.627  1.00  0.00    -0.354 N 
ATOM     49  N   UNL A   1      44.685  28.150  27.505  1.00  0.00    -0.248 NA
ATOM     50  C   UNL A   1      44.072  26.377  28.898  1.00  0.00     0.031 C 
ATOM     51  C   UNL A   1      44.767  31.681  30.939  1.00  0.00     0.029 A 
ATOM     52  C   UNL A   1      44.987  30.379  30.486  1.00  0.00     0.049 A 
ATOM     53  H   UNL A   1      45.461  28.769  31.757  1.00  0.00     0.167 HD
ATOM     54  C   UNL A   1      44.959  28.522  28.816  1.00  0.00     0.074 A 
ATOM     55  C   UNL A   1      44.636  27.347  29.623  1.00  0.00     0.031 C 
ATOM     56  C   UNL A   1      45.121  29.833  29.154  1.00  0.00     0.034 A 
BRANCH  43  57
ATOM     57  C   UNL A   1      43.700  28.299  34.140  1.00  0.00     0.023 A 
ATOM     58  C   UNL A   1      44.313  28.594  35.370  1.00  0.00     0.012 A 
ATOM     59  C   UNL A   1      43.737  26.954  33.698  1.00  0.00     0.148 A 
ATOM     60  C   UNL A   1      44.916  27.589  36.134  1.00  0.00     0.002 A 
ATOM     61  C   UNL A   1      44.246  25.948  34.502  1.00  0.00     0.091 A 
ATOM     62  F   UNL A   1      43.403  26.661  32.435  1.00  0.00    -0.205 F 
ATOM     63  C   UNL A   1      44.859  26.262  35.714  1.00  0.00     0.022 A 
BRANCH  61  64
ATOM     64  S   UNL A   1      44.139  24.222  34.017  1.00  0.00     0.127 S 
ATOM     65  O   UNL A   1      42.749  23.914  34.339  1.00  0.00    -0.237 OA
ATOM     66  O   UNL A   1      44.448  24.293  32.590  1.00  0.00    -0.237 OA
ATOM     67  O   UNL A   1      45.153  23.537  34.811  1.00  0.00    -0.744 OA
ENDBRANCH  61  64
ENDBRANCH  43  57
BRANCH  44  68
ATOM     68  C   UNL A   1      42.631  25.438  26.115  1.00  0.00     0.023 A 
ATOM     69  C   UNL A   1      43.624  25.012  25.204  1.00  0.00     0.012 A 
ATOM     70  C   UNL A   1      41.724  24.467  26.594  1.00  0.00     0.148 A 
ATOM     71  C   UNL A   1      43.755  23.665  24.842  1.00  0.00     0.002 A 
ATOM     72  C   UNL A   1      41.852  23.129  26.223  1.00  0.00     0.091 A 
ATOM     73  F   UNL A   1      40.797  24.828  27.489  1.00  0.00    -0.205 F 
ATOM     74  C   UNL A   1      42.878  22.721  25.363  1.00  0.00     0.022 A 
BRANCH  72  75
ATOM     75  S   UNL A   1      40.759  21.851  26.866  1.00  0.00     0.127 S 
ATOM     76  O   UNL A   1      41.276  20.649  26.210  1.00  0.00    -0.237 OA
ATOM     77  O   UNL A   1      41.019  21.925  28.301  1.00  0.00    -0.237 OA
ATOM     78  O   UNL A   1      39.416  22.231  26.444  1.00  0.00    -0.744 OA
ENDBRANCH  72  75
ENDBRANCH  44  68
BRANCH  56  79
ATOM     79  C   UNL A   1      45.229  30.843  28.041  1.00  0.00     0.023 A 
ATOM     80  C   UNL A   1      44.096  31.417  27.423  1.00  0.00     0.012 A 
ATOM     81  C   UNL A   1      46.498  31.372  27.771  1.00  0.00     0.148 A 
ATOM     82  C   UNL A   1      44.235  32.506  26.556  1.00  0.00     0.002 A 
ATOM     83  C   UNL A   1      46.629  32.475  26.939  1.00  0.00     0.091 A 
ATOM     84  F   UNL A   1      47.554  30.815  28.383  1.00  0.00    -0.205 F 
ATOM     85  C   UNL A   1      45.500  33.045  26.327  1.00  0.00     0.022 A 
BRANCH  83  86
ATOM     86  S   UNL A   1      48.210  33.282  26.688  1.00  0.00     0.127 S 
ATOM     87  O   UNL A   1      49.079  32.154  26.360  1.00  0.00    -0.237 OA
ATOM     88  O   UNL A   1      47.923  34.181  25.569  1.00  0.00    -0.237 OA
ATOM     89  O   UNL A   1      48.523  33.962  27.939  1.00  0.00    -0.744 OA
ENDBRANCH  83  86
ENDBRANCH  56  79
ENDBRANCH  30  31
ENDBRANCH  23  25
ENDBRANCH  22  23
ENDBRANCH  21  22
ENDBRANCH   1  21
TORSDOF 18
ENDMDL
MODEL 3
REMARK VINA RESULT:     -11.1      1.927      2.194
REMARK SMILES Cc1cc(-n2cnc(C(=O)OCCOCCOC(=O)c3ccc(-c4c5nc(c(-c6cccc(S(=O)(=O)[O-])c6F)c6ccc([nH]6)c(-c6cccc(S(=O)(=O)[O-])c6F)c6nc(c(-c7cccc(S(=O)(=O)[O-])c7F)c7ccc4[nH]7)C=C6)C=C5)cc3)c2)nc(Cl)n1
REMARK SMILES IDX 15 1 14 2 13 3 12 4 11 5 9 6 10 7 8 8 5 9 6 10 83 11 7 12
REMARK SMILES IDX 4 13 1 14 2 15 3 16 87 17 85 18 84 19 86 20 16 21 17 22
REMARK SMILES IDX 18 23 19 24 20 25 21 26 82 27 22 28 81 29 23 30 24 31 25 32
REMARK SMILES IDX 75 33 26 34 80 35 74 36 76 37 27 38 79 39 73 40 72 41 28 43
REMARK SMILES IDX 60 44 40 45 59 46 41 47 44 48 58 49 77 50 42 51 43 52 57 54
REMARK SMILES IDX 78 55 45 56 29 57 30 58 38 59 31 60 33 61 39 62 32 63 34 64
REMARK SMILES IDX 35 65 36 66 37 67 61 68 62 69 70 70 63 71 65 72 71 73 64 74
REMARK SMILES IDX 66 75 67 76 68 77 69 78 46 79 47 80 55 81 48 82 50 83 56 84
REMARK SMILES IDX 49 85 51 86 52 87 53 88 54 89
REMARK H PARENT 76 42 44 53
REMARK Flexibility Score: inf
ROOT
ATOM      1  C   UNL A   1      37.386  22.697  25.106  1.00  0.00     0.202 C 
ENDROOT
BRANCH   1   2
ATOM      2  O   UNL A   1      35.963  22.794  25.110  1.00  0.00    -0.374 OA
BRANCH   2   3
ATOM      3  C   UNL A   1      35.154  21.618  25.096  1.00  0.00     0.202 C 
BRANCH   3   4
ATOM      4  C   UNL A   1      34.468  21.195  26.395  1.00  0.00     0.261 C 
BRANCH   4   5
ATOM      5  O   UNL A   1      33.061  21.466  26.373  1.00  0.00    -0.458 OA
BRANCH   5   6
ATOM      6  C   UNL A   1      32.641  22.419  27.263  1.00  0.00     0.358 C 
ATOM      7  O   UNL A   1      32.880  22.413  28.456  1.00  0.00    -0.244 OA
BRANCH   6   8
ATOM      8  C   UNL A   1      31.957  23.516  26.574  1.00  0.00     0.166 A 
ATOM      9  N   UNL A   1      31.386  25.069  25.131  1.00  0.00    -0.289 N 
ATOM     10  C   UNL A   1      30.561  25.117  26.226  1.00  0.00     0.206 A 
ATOM     11  C   UNL A   1      32.352  24.132  25.407  1.00  0.00     0.130 A 
ATOM     12  N   UNL A   1      30.825  24.143  27.071  1.00  0.00    -0.229 NA
BRANCH   9  13
ATOM     13  C   UNL A   1      31.184  25.753  23.913  1.00  0.00     0.143 A 
ATOM     14  C   UNL A   1      29.405  28.821  22.751  1.00  0.00     0.067 C 
ATOM     15  C   UNL A   1      30.232  27.571  22.774  1.00  0.00     0.044 A 
ATOM     16  C   UNL A   1      30.275  26.799  23.914  1.00  0.00     0.071 A 
ATOM     17  N   UNL A   1      30.930  27.256  21.669  1.00  0.00    -0.223 NA
ATOM     18  C   UNL A   1      31.732  26.185  21.765  1.00  0.00     0.224 A 
ATOM     19  N   UNL A   1      31.961  25.447  22.858  1.00  0.00    -0.200 NA
ATOM     20  Cl  UNL A   1      32.576  25.740  20.352  1.00  0.00    -0.041 Cl
ENDBRANCH   9  13
ENDBRANCH   6   8
ENDBRANCH   5   6
ENDBRANCH   4   5
ENDBRANCH   3   4
ENDBRANCH   2   3
ENDBRANCH   1   2
BRANCH   1  21
ATOM     21  C   UNL A   1      38.042  21.325  25.047  1.00  0.00     0.261 C 
BRANCH  21  22
ATOM     22  O   UNL A   1      38.785  21.048  26.219  1.00  0.00    -0.460 OA
BRANCH  22  23
ATOM     23  C   UNL A   1      39.884  20.298  25.976  1.00  0.00     0.338 C 
ATOM     24  O   UNL A   1      39.935  19.200  25.452  1.00  0.00    -0.246 OA
BRANCH  23  25
ATOM     25  C   UNL A   1      41.046  20.982  26.538  1.00  0.00     0.060 A 
ATOM     26  C   UNL A   1      41.180  20.910  27.927  1.00  0.00     0.016 A 
ATOM     27  C   UNL A   1      41.639  21.986  25.765  1.00  0.00     0.016 A 
ATOM     28  C   UNL A   1      41.648  22.023  28.577  1.00  0.00     0.010 A 
ATOM     29  C   UNL A   1      42.060  23.109  26.414  1.00  0.00     0.010 A 
ATOM     30  C   UNL A   1      41.957  23.143  27.803  1.00  0.00    -0.014 A 
BRANCH  30  31
ATOM     31  C   UNL A   1      42.233  24.387  28.471  1.00  0.00     0.031 A 
ATOM     32  C   UNL A   1      41.174  25.383  28.212  1.00  0.00     0.074 A 
ATOM     33  C   UNL A   1      43.270  24.506  29.321  1.00  0.00     0.049 A 
ATOM     34  N   UNL A   1      41.234  26.394  27.408  1.00  0.00    -0.248 NA
ATOM     35  C   UNL A   1      39.816  25.076  28.695  1.00  0.00     0.031 C 
ATOM     36  C   UNL A   1      44.159  23.459  29.837  1.00  0.00     0.029 A 
ATOM     37  N   UNL A   1      43.660  25.598  30.024  1.00  0.00    -0.354 N 
ATOM     38  C   UNL A   1      39.985  26.991  27.519  1.00  0.00     0.074 A 
ATOM     39  C   UNL A   1      39.095  26.002  28.064  1.00  0.00     0.031 C 
ATOM     40  C   UNL A   1      44.782  23.918  30.949  1.00  0.00     0.029 A 
ATOM     41  C   UNL A   1      44.427  25.312  31.150  1.00  0.00     0.049 A 
ATOM     42  H   UNL A   1      43.421  26.515  29.759  1.00  0.00     0.167 HD
ATOM     43  C   UNL A   1      39.845  28.342  27.514  1.00  0.00     0.034 A 
ATOM     44  C   UNL A   1      44.629  26.155  32.198  1.00  0.00     0.034 A 
ATOM     45  C   UNL A   1      41.027  29.008  27.046  1.00  0.00     0.049 A 
ATOM     46  C   UNL A   1      44.298  27.520  31.707  1.00  0.00     0.074 A 
ATOM     47  C   UNL A   1      41.762  28.979  25.878  1.00  0.00     0.029 A 
ATOM     48  N   UNL A   1      41.858  29.523  28.012  1.00  0.00    -0.354 N 
ATOM     49  N   UNL A   1      44.970  28.134  30.773  1.00  0.00    -0.248 NA
ATOM     50  C   UNL A   1      42.942  28.002  31.926  1.00  0.00     0.031 C 
ATOM     51  C   UNL A   1      43.122  29.045  26.299  1.00  0.00     0.029 A 
ATOM     52  C   UNL A   1      43.142  29.177  27.689  1.00  0.00     0.049 A 
ATOM     53  H   UNL A   1      41.579  30.048  28.798  1.00  0.00     0.167 HD
ATOM     54  C   UNL A   1      43.997  28.750  29.997  1.00  0.00     0.074 A 
ATOM     55  C   UNL A   1      42.779  28.710  30.805  1.00  0.00     0.031 C 
ATOM     56  C   UNL A   1      44.188  28.952  28.661  1.00  0.00     0.034 A 
BRANCH  43  57
ATOM     57  C   UNL A   1      38.793  29.045  28.318  1.00  0.00     0.023 A 
ATOM     58  C   UNL A   1      37.953  29.959  27.661  1.00  0.00     0.012 A 
ATOM     59  C   UNL A   1      38.744  29.013  29.733  1.00  0.00     0.148 A 
ATOM     60  C   UNL A   1      37.087  30.789  28.381  1.00  0.00     0.002 A 
ATOM     61  C   UNL A   1      37.816  29.764  30.436  1.00  0.00     0.091 A 
ATOM     62  F   UNL A   1      39.690  28.358  30.417  1.00  0.00    -0.205 F 
ATOM     63  C   UNL A   1      36.999  30.673  29.766  1.00  0.00     0.022 A 
BRANCH  61  64
ATOM     64  S   UNL A   1      37.637  29.599  32.215  1.00  0.00     0.127 S 
ATOM     65  O   UNL A   1      36.346  30.243  32.440  1.00  0.00    -0.237 OA
ATOM     66  O   UNL A   1      37.647  28.147  32.383  1.00  0.00    -0.237 OA
ATOM     67  O   UNL A   1      38.800  30.271  32.782  1.00  0.00    -0.744 OA
ENDBRANCH  61  64
ENDBRANCH  43  57
BRANCH  44  68
ATOM     68  C   UNL A   1      44.720  25.874  33.660  1.00  0.00     0.023 A 
ATOM     69  C   UNL A   1      45.998  25.799  34.260  1.00  0.00     0.012 A 
ATOM     70  C   UNL A   1      43.603  25.994  34.516  1.00  0.00     0.148 A 
ATOM     71  C   UNL A   1      46.163  25.912  35.647  1.00  0.00     0.002 A 
ATOM     72  C   UNL A   1      43.771  26.097  35.897  1.00  0.00     0.091 A 
ATOM     73  F   UNL A   1      42.382  26.109  33.980  1.00  0.00    -0.205 F 
ATOM     74  C   UNL A   1      45.050  26.077  36.464  1.00  0.00     0.022 A 
BRANCH  72  75
ATOM     75  S   UNL A   1      42.378  26.322  37.015  1.00  0.00     0.127 S 
ATOM     76  O   UNL A   1      41.866  27.630  36.604  1.00  0.00    -0.237 OA
ATOM     77  O   UNL A   1      41.523  25.192  36.663  1.00  0.00    -0.237 OA
ATOM     78  O   UNL A   1      42.942  26.296  38.359  1.00  0.00    -0.744 OA
ENDBRANCH  72  75
ENDBRANCH  44  68
BRANCH  56  79
ATOM     79  C   UNL A   1      45.563  28.706  28.099  1.00  0.00     0.023 A 
ATOM     80  C   UNL A   1      46.618  29.635  28.234  1.00  0.00     0.012 A 
ATOM     81  C   UNL A   1      45.843  27.419  27.617  1.00  0.00     0.148 A 
ATOM     82  C   UNL A   1      47.928  29.278  27.898  1.00  0.00     0.002 A 
ATOM     83  C   UNL A   1      47.149  27.057  27.320  1.00  0.00     0.091 A 
ATOM     84  F   UNL A   1      44.823  26.553  27.513  1.00  0.00    -0.205 F 
ATOM     85  C   UNL A   1      48.195  27.983  27.456  1.00  0.00     0.022 A 
BRANCH  83  86
ATOM     86  S   UNL A   1      47.575  25.380  26.851  1.00  0.00     0.127 S 
ATOM     87  O   UNL A   1      49.034  25.439  26.796  1.00  0.00    -0.237 OA
ATOM     88  O   UNL A   1      47.034  24.600  27.966  1.00  0.00    -0.237 OA
ATOM     89  O   UNL A   1      46.916  25.135  25.573  1.00  0.00    -0.744 OA
ENDBRANCH  83  86
ENDBRANCH  56  79
ENDBRANCH  30  31
ENDBRANCH  23  25
ENDBRANCH  22  23
ENDBRANCH  21  22
ENDBRANCH   1  21
TORSDOF 18
ENDMDL
