MODEL 1
REMARK VINA RESULT:     -10.4      0.000      0.000
REMARK SMILES CCOc1cccc(-c2ccc([C@@H](C)C(=O)OCCOCCOC(=O)c3ccc(-c4c5nc(c(-c6cccc(S(=O)(=O)[O-])c6F)c6ccc([nH]6)c(-c6cccc(S(=O)(=O)[O-])c6F)c6nc(c(-c7cccc(S(=O)(=O)[O-])c7F)c7ccc4[nH]7)C=C6)C=C5)cc3)cc2F)c1
REMARK SMILES IDX 19 1 18 2 17 3 15 4 16 5 13 6 14 7 12 8 9 9 10 10 90 11
REMARK SMILES IDX 11 12 89 13 91 14 8 15 4 16 5 17 92 18 6 19 7 20 3 21 2 22
REMARK SMILES IDX 1 23 20 24 21 25 22 26 23 27 24 28 25 29 26 30 27 31 88 32
REMARK SMILES IDX 28 33 87 34 29 35 30 36 31 37 81 38 32 39 86 40 80 41 82 42
REMARK SMILES IDX 33 43 85 44 79 45 78 46 34 48 66 49 46 50 65 51 47 52 50 53
REMARK SMILES IDX 64 54 83 55 48 56 49 57 63 59 84 60 51 61 35 62 36 63 44 64
REMARK SMILES IDX 37 65 39 66 45 67 38 68 40 69 41 70 42 71 43 72 67 73 68 74
REMARK SMILES IDX 76 75 69 76 71 77 77 78 70 79 72 80 73 81 74 82 75 83 52 84
REMARK SMILES IDX 53 85 61 86 54 87 56 88 62 89 55 90 57 91 58 92 59 93 60 94
REMARK H PARENT 82 47 50 58
REMARK Flexibility Score: inf
ROOT
ATOM      1  C   UNL A   1      33.856  21.696  25.150  1.00  0.00     0.202 C 
ENDROOT
BRANCH   1   2
ATOM      2  C   UNL A   1      32.703  22.224  26.008  1.00  0.00     0.261 C 
BRANCH   2   3
ATOM      3  O   UNL A   1      31.898  23.174  25.287  1.00  0.00    -0.463 OA
BRANCH   3   4
ATOM      4  C   UNL A   1      31.094  23.966  26.042  1.00  0.00     0.313 C 
ATOM      5  O   UNL A   1      30.630  23.648  27.133  1.00  0.00    -0.252 OA
BRANCH   4   6
ATOM      6  C   UNL A   1      30.783  25.311  25.404  1.00  0.00     0.126 C 
ATOM      7  C   UNL A   1      30.804  25.175  23.886  1.00  0.00     0.025 C 
BRANCH   6   8
ATOM      8  C   UNL A   1      31.571  26.526  25.882  1.00  0.00    -0.031 A 
ATOM      9  C   UNL A   1      33.248  28.669  26.762  1.00  0.00     0.018 A 
ATOM     10  C   UNL A   1      32.281  28.102  27.609  1.00  0.00     0.012 A 
ATOM     11  C   UNL A   1      33.327  28.157  25.459  1.00  0.00     0.131 A 
ATOM     12  C   UNL A   1      31.458  27.048  27.178  1.00  0.00     0.005 A 
ATOM     13  C   UNL A   1      32.509  27.114  25.022  1.00  0.00     0.044 A 
ATOM     14  F   UNL A   1      34.226  28.645  24.589  1.00  0.00    -0.206 F 
BRANCH   9  15
ATOM     15  C   UNL A   1      34.147  29.746  27.226  1.00  0.00    -0.012 A 
ATOM     16  C   UNL A   1      34.527  32.091  27.783  1.00  0.00     0.119 A 
ATOM     17  C   UNL A   1      35.869  31.835  28.043  1.00  0.00     0.046 A 
ATOM     18  C   UNL A   1      33.683  31.064  27.356  1.00  0.00     0.055 A 
ATOM     19  C   UNL A   1      36.355  30.535  27.918  1.00  0.00     0.004 A 
ATOM     20  C   UNL A   1      35.500  29.500  27.520  1.00  0.00     0.009 A 
BRANCH  16  21
ATOM     21  O   UNL A   1      34.086  33.385  27.837  1.00  0.00    -0.494 OA
BRANCH  21  22
ATOM     22  C   UNL A   1      34.903  34.214  28.675  1.00  0.00     0.226 C 
ATOM     23  C   UNL A   1      34.347  34.300  30.087  1.00  0.00     0.049 C 
ENDBRANCH  21  22
ENDBRANCH  16  21
ENDBRANCH   9  15
ENDBRANCH   6   8
ENDBRANCH   4   6
ENDBRANCH   3   4
ENDBRANCH   2   3
ENDBRANCH   1   2
BRANCH   1  24
ATOM     24  O   UNL A   1      35.044  21.315  25.844  1.00  0.00    -0.374 OA
BRANCH  24  25
ATOM     25  C   UNL A   1      36.136  20.842  25.055  1.00  0.00     0.202 C 
BRANCH  25  26
ATOM     26  C   UNL A   1      37.245  21.851  24.732  1.00  0.00     0.261 C 
BRANCH  26  27
ATOM     27  O   UNL A   1      37.735  22.526  25.903  1.00  0.00    -0.460 OA
BRANCH  27  28
ATOM     28  C   UNL A   1      38.975  22.161  26.303  1.00  0.00     0.338 C 
ATOM     29  O   UNL A   1      39.503  21.062  26.167  1.00  0.00    -0.246 OA
BRANCH  28  30
ATOM     30  C   UNL A   1      39.719  23.342  26.776  1.00  0.00     0.060 A 
ATOM     31  C   UNL A   1      39.479  24.562  26.131  1.00  0.00     0.016 A 
ATOM     32  C   UNL A   1      40.669  23.252  27.796  1.00  0.00     0.016 A 
ATOM     33  C   UNL A   1      40.207  25.696  26.488  1.00  0.00     0.010 A 
ATOM     34  C   UNL A   1      41.408  24.389  28.142  1.00  0.00     0.010 A 
ATOM     35  C   UNL A   1      41.196  25.611  27.478  1.00  0.00    -0.014 A 
BRANCH  35  36
ATOM     36  C   UNL A   1      42.054  26.787  27.769  1.00  0.00     0.031 A 
ATOM     37  C   UNL A   1      41.494  27.942  28.549  1.00  0.00     0.074 A 
ATOM     38  C   UNL A   1      43.322  26.825  27.323  1.00  0.00     0.049 A 
ATOM     39  N   UNL A   1      42.064  29.075  28.870  1.00  0.00    -0.248 NA
ATOM     40  C   UNL A   1      40.110  27.807  29.031  1.00  0.00     0.031 C 
ATOM     41  C   UNL A   1      43.979  25.767  26.557  1.00  0.00     0.029 A 
ATOM     42  N   UNL A   1      44.275  27.810  27.424  1.00  0.00    -0.354 N 
ATOM     43  C   UNL A   1      41.104  29.800  29.567  1.00  0.00     0.074 A 
ATOM     44  C   UNL A   1      39.912  28.979  29.619  1.00  0.00     0.031 C 
ATOM     45  C   UNL A   1      45.216  26.173  26.225  1.00  0.00     0.029 A 
ATOM     46  C   UNL A   1      45.428  27.529  26.730  1.00  0.00     0.049 A 
ATOM     47  H   UNL A   1      44.145  28.636  27.944  1.00  0.00     0.167 HD
ATOM     48  C   UNL A   1      41.210  31.030  30.123  1.00  0.00     0.034 A 
ATOM     49  C   UNL A   1      46.517  28.289  26.500  1.00  0.00     0.034 A 
ATOM     50  C   UNL A   1      42.401  31.836  30.086  1.00  0.00     0.049 A 
ATOM     51  C   UNL A   1      46.594  29.669  27.099  1.00  0.00     0.074 A 
ATOM     52  C   UNL A   1      42.624  33.066  30.679  1.00  0.00     0.029 A 
ATOM     53  N   UNL A   1      43.562  31.507  29.403  1.00  0.00    -0.354 N 
ATOM     54  N   UNL A   1      45.733  30.283  27.873  1.00  0.00    -0.248 NA
ATOM     55  C   UNL A   1      47.807  30.452  26.816  1.00  0.00     0.031 C 
ATOM     56  C   UNL A   1      43.907  33.497  30.327  1.00  0.00     0.029 A 
ATOM     57  C   UNL A   1      44.494  32.521  29.539  1.00  0.00     0.049 A 
ATOM     58  H   UNL A   1      43.702  30.675  28.898  1.00  0.00     0.167 HD
ATOM     59  C   UNL A   1      46.308  31.510  28.189  1.00  0.00     0.074 A 
ATOM     60  C   UNL A   1      47.604  31.540  27.545  1.00  0.00     0.031 C 
ATOM     61  C   UNL A   1      45.800  32.527  28.929  1.00  0.00     0.034 A 
BRANCH  48  62
ATOM     62  C   UNL A   1      40.010  31.580  30.846  1.00  0.00     0.023 A 
ATOM     63  C   UNL A   1      39.028  32.291  30.127  1.00  0.00     0.012 A 
ATOM     64  C   UNL A   1      39.817  31.328  32.217  1.00  0.00     0.148 A 
ATOM     65  C   UNL A   1      37.883  32.763  30.767  1.00  0.00     0.002 A 
ATOM     66  C   UNL A   1      38.653  31.766  32.840  1.00  0.00     0.091 A 
ATOM     67  F   UNL A   1      40.773  30.669  32.887  1.00  0.00    -0.205 F 
ATOM     68  C   UNL A   1      37.691  32.491  32.119  1.00  0.00     0.022 A 
BRANCH  66  69
ATOM     69  S   UNL A   1      38.279  31.403  34.559  1.00  0.00     0.127 S 
ATOM     70  O   UNL A   1      38.308  29.941  34.565  1.00  0.00    -0.237 OA
ATOM     71  O   UNL A   1      39.396  32.038  35.258  1.00  0.00    -0.237 OA
ATOM     72  O   UNL A   1      36.978  32.002  34.822  1.00  0.00    -0.744 OA
ENDBRANCH  66  69
ENDBRANCH  48  62
BRANCH  49  73
ATOM     73  C   UNL A   1      47.632  27.757  25.666  1.00  0.00     0.023 A 
ATOM     74  C   UNL A   1      48.646  26.988  26.266  1.00  0.00     0.012 A 
ATOM     75  C   UNL A   1      47.681  27.999  24.279  1.00  0.00     0.148 A 
ATOM     76  C   UNL A   1      49.705  26.491  25.504  1.00  0.00     0.002 A 
ATOM     77  C   UNL A   1      48.706  27.452  23.517  1.00  0.00     0.091 A 
ATOM     78  F   UNL A   1      46.719  28.753  23.730  1.00  0.00    -0.205 F 
ATOM     79  C   UNL A   1      49.729  26.713  24.130  1.00  0.00     0.022 A 
BRANCH  77  80
ATOM     80  S   UNL A   1      48.738  27.573  21.725  1.00  0.00     0.127 S 
ATOM     81  O   UNL A   1      49.617  28.720  21.517  1.00  0.00    -0.237 OA
ATOM     82  O   UNL A   1      49.308  26.280  21.345  1.00  0.00    -0.237 OA
ATOM     83  O   UNL A   1      47.350  27.755  21.321  1.00  0.00    -0.744 OA
ENDBRANCH  77  80
ENDBRANCH  49  73
BRANCH  61  84
ATOM     84  C   UNL A   1      46.649  33.760  29.101  1.00  0.00     0.023 A 
ATOM     85  C   UNL A   1      47.536  33.848  30.191  1.00  0.00     0.012 A 
ATOM     86  C   UNL A   1      46.624  34.796  28.146  1.00  0.00     0.148 A 
ATOM     87  C   UNL A   1      48.362  34.961  30.348  1.00  0.00     0.002 A 
ATOM     88  C   UNL A   1      47.484  35.880  28.281  1.00  0.00     0.091 A 
ATOM     89  F   UNL A   1      45.762  34.702  27.122  1.00  0.00    -0.205 F 
ATOM     90  C   UNL A   1      48.344  35.970  29.387  1.00  0.00     0.022 A 
BRANCH  88  91
ATOM     91  S   UNL A   1      47.599  37.183  27.048  1.00  0.00     0.127 S 
ATOM     92  O   UNL A   1      48.009  36.435  25.862  1.00  0.00    -0.237 OA
ATOM     93  O   UNL A   1      46.227  37.691  27.006  1.00  0.00    -0.237 OA
ATOM     94  O   UNL A   1      48.579  38.132  27.558  1.00  0.00    -0.744 OA
ENDBRANCH  88  91
ENDBRANCH  61  84
ENDBRANCH  35  36
ENDBRANCH  28  30
ENDBRANCH  27  28
ENDBRANCH  26  27
ENDBRANCH  25  26
ENDBRANCH  24  25
ENDBRANCH   1  24
TORSDOF 21
ENDMDL
MODEL 2
REMARK VINA RESULT:      -9.7      4.022      8.347
REMARK SMILES CCOc1cccc(-c2ccc([C@@H](C)C(=O)OCCOCCOC(=O)c3ccc(-c4c5nc(c(-c6cccc(S(=O)(=O)[O-])c6F)c6ccc([nH]6)c(-c6cccc(S(=O)(=O)[O-])c6F)c6nc(c(-c7cccc(S(=O)(=O)[O-])c7F)c7ccc4[nH]7)C=C6)C=C5)cc3)cc2F)c1
REMARK SMILES IDX 19 1 18 2 17 3 15 4 16 5 13 6 14 7 12 8 9 9 10 10 90 11
REMARK SMILES IDX 11 12 89 13 91 14 8 15 4 16 5 17 92 18 6 19 7 20 3 21 2 22
REMARK SMILES IDX 1 23 20 24 21 25 22 26 23 27 24 28 25 29 26 30 27 31 88 32
REMARK SMILES IDX 28 33 87 34 29 35 30 36 31 37 81 38 32 39 86 40 80 41 82 42
REMARK SMILES IDX 33 43 85 44 79 45 78 46 34 48 66 49 46 50 65 51 47 52 50 53
REMARK SMILES IDX 64 54 83 55 48 56 49 57 63 59 84 60 51 61 35 62 36 63 44 64
REMARK SMILES IDX 37 65 39 66 45 67 38 68 40 69 41 70 42 71 43 72 67 73 68 74
REMARK SMILES IDX 76 75 69 76 71 77 77 78 70 79 72 80 73 81 74 82 75 83 52 84
REMARK SMILES IDX 53 85 61 86 54 87 56 88 62 89 55 90 57 91 58 92 59 93 60 94
REMARK H PARENT 82 47 50 58
REMARK Flexibility Score: inf
ROOT
ATOM      1  C   UNL A   1      32.896  35.256  28.690  1.00  0.00     0.202 C 
ENDROOT
BRANCH   1   2
ATOM      2  C   UNL A   1      34.413  35.048  28.676  1.00  0.00     0.261 C 
BRANCH   2   3
ATOM      3  O   UNL A   1      34.813  34.123  27.650  1.00  0.00    -0.463 OA
BRANCH   3   4
ATOM      4  C   UNL A   1      35.579  33.079  28.056  1.00  0.00     0.313 C 
ATOM      5  O   UNL A   1      36.806  33.060  28.018  1.00  0.00    -0.252 OA
BRANCH   4   6
ATOM      6  C   UNL A   1      34.778  31.887  28.554  1.00  0.00     0.126 C 
ATOM      7  C   UNL A   1      35.673  30.983  29.394  1.00  0.00     0.025 C 
BRANCH   6   8
ATOM      8  C   UNL A   1      33.962  31.098  27.535  1.00  0.00    -0.031 A 
ATOM      9  C   UNL A   1      32.262  29.597  25.793  1.00  0.00     0.018 A 
ATOM     10  C   UNL A   1      33.504  29.094  26.215  1.00  0.00     0.012 A 
ATOM     11  C   UNL A   1      31.914  30.880  26.240  1.00  0.00     0.131 A 
ATOM     12  C   UNL A   1      34.339  29.830  27.072  1.00  0.00     0.005 A 
ATOM     13  C   UNL A   1      32.740  31.620  27.087  1.00  0.00     0.044 A 
ATOM     14  F   UNL A   1      30.743  31.431  25.882  1.00  0.00    -0.206 F 
BRANCH   9  15
ATOM     15  C   UNL A   1      31.360  28.807  24.930  1.00  0.00    -0.012 A 
ATOM     16  C   UNL A   1      29.569  28.702  23.276  1.00  0.00     0.119 A 
ATOM     17  C   UNL A   1      29.576  27.313  23.324  1.00  0.00     0.046 A 
ATOM     18  C   UNL A   1      30.433  29.440  24.087  1.00  0.00     0.055 A 
ATOM     19  C   UNL A   1      30.484  26.660  24.155  1.00  0.00     0.004 A 
ATOM     20  C   UNL A   1      31.372  27.401  24.945  1.00  0.00     0.009 A 
BRANCH  16  21
ATOM     21  O   UNL A   1      28.621  29.326  22.512  1.00  0.00    -0.494 OA
BRANCH  21  22
ATOM     22  C   UNL A   1      28.493  30.721  22.818  1.00  0.00     0.226 C 
ATOM     23  C   UNL A   1      28.762  31.587  21.597  1.00  0.00     0.049 C 
ENDBRANCH  21  22
ENDBRANCH  16  21
ENDBRANCH   9  15
ENDBRANCH   6   8
ENDBRANCH   4   6
ENDBRANCH   3   4
ENDBRANCH   2   3
ENDBRANCH   1   2
BRANCH   1  24
ATOM     24  O   UNL A   1      32.386  36.172  29.657  1.00  0.00    -0.374 OA
BRANCH  24  25
ATOM     25  C   UNL A   1      33.164  36.374  30.837  1.00  0.00     0.202 C 
BRANCH  25  26
ATOM     26  C   UNL A   1      32.779  35.547  32.070  1.00  0.00     0.261 C 
BRANCH  26  27
ATOM     27  O   UNL A   1      33.922  35.151  32.849  1.00  0.00    -0.460 OA
BRANCH  27  28
ATOM     28  C   UNL A   1      34.125  33.816  32.938  1.00  0.00     0.338 C 
ATOM     29  O   UNL A   1      33.283  32.952  33.160  1.00  0.00    -0.246 OA
BRANCH  28  30
ATOM     30  C   UNL A   1      35.505  33.490  32.537  1.00  0.00     0.060 A 
ATOM     31  C   UNL A   1      36.170  32.488  33.254  1.00  0.00     0.016 A 
ATOM     32  C   UNL A   1      36.157  34.183  31.514  1.00  0.00     0.016 A 
ATOM     33  C   UNL A   1      37.501  32.188  32.967  1.00  0.00     0.010 A 
ATOM     34  C   UNL A   1      37.496  33.889  31.237  1.00  0.00     0.010 A 
ATOM     35  C   UNL A   1      38.182  32.906  31.974  1.00  0.00    -0.014 A 
BRANCH  35  36
ATOM     36  C   UNL A   1      39.631  32.673  31.755  1.00  0.00     0.031 A 
ATOM     37  C   UNL A   1      40.639  33.548  32.446  1.00  0.00     0.074 A 
ATOM     38  C   UNL A   1      40.042  31.693  30.930  1.00  0.00     0.049 A 
ATOM     39  N   UNL A   1      41.943  33.536  32.353  1.00  0.00    -0.248 NA
ATOM     40  C   UNL A   1      40.109  34.574  33.358  1.00  0.00     0.031 C 
ATOM     41  C   UNL A   1      39.162  30.778  30.205  1.00  0.00     0.029 A 
ATOM     42  N   UNL A   1      41.306  31.326  30.539  1.00  0.00    -0.354 N 
ATOM     43  C   UNL A   1      42.392  34.566  33.173  1.00  0.00     0.074 A 
ATOM     44  C   UNL A   1      41.218  35.186  33.752  1.00  0.00     0.031 C 
ATOM     45  C   UNL A   1      39.910  29.978  29.428  1.00  0.00     0.029 A 
ATOM     46  C   UNL A   1      41.318  30.342  29.580  1.00  0.00     0.049 A 
ATOM     47  H   UNL A   1      42.124  31.728  30.912  1.00  0.00     0.167 HD
ATOM     48  C   UNL A   1      43.665  34.951  33.429  1.00  0.00     0.034 A 
ATOM     49  C   UNL A   1      42.343  29.817  28.879  1.00  0.00     0.034 A 
ATOM     50  C   UNL A   1      44.831  34.321  32.867  1.00  0.00     0.049 A 
ATOM     51  C   UNL A   1      43.747  30.289  29.157  1.00  0.00     0.074 A 
ATOM     52  C   UNL A   1      46.162  34.599  33.121  1.00  0.00     0.029 A 
ATOM     53  N   UNL A   1      44.808  33.306  31.924  1.00  0.00    -0.354 N 
ATOM     54  N   UNL A   1      44.164  31.166  30.037  1.00  0.00    -0.248 NA
ATOM     55  C   UNL A   1      44.825  29.679  28.363  1.00  0.00     0.031 C 
ATOM     56  C   UNL A   1      46.945  33.774  32.306  1.00  0.00     0.029 A 
ATOM     57  C   UNL A   1      46.101  32.963  31.566  1.00  0.00     0.049 A 
ATOM     58  H   UNL A   1      43.993  32.889  31.563  1.00  0.00     0.167 HD
ATOM     59  C   UNL A   1      45.550  31.195  29.922  1.00  0.00     0.074 A 
ATOM     60  C   UNL A   1      45.904  30.227  28.905  1.00  0.00     0.031 C 
ATOM     61  C   UNL A   1      46.447  31.968  30.583  1.00  0.00     0.034 A 
BRANCH  48  62
ATOM     62  C   UNL A   1      43.874  36.097  34.381  1.00  0.00     0.023 A 
ATOM     63  C   UNL A   1      44.198  35.836  35.727  1.00  0.00     0.012 A 
ATOM     64  C   UNL A   1      43.826  37.429  33.927  1.00  0.00     0.148 A 
ATOM     65  C   UNL A   1      44.448  36.883  36.613  1.00  0.00     0.002 A 
ATOM     66  C   UNL A   1      44.116  38.467  34.805  1.00  0.00     0.091 A 
ATOM     67  F   UNL A   1      43.495  37.657  32.647  1.00  0.00    -0.205 F 
ATOM     68  C   UNL A   1      44.418  38.195  36.150  1.00  0.00     0.022 A 
BRANCH  66  69
ATOM     69  S   UNL A   1      44.176  40.186  34.289  1.00  0.00     0.127 S 
ATOM     70  O   UNL A   1      45.240  40.156  33.285  1.00  0.00    -0.237 OA
ATOM     71  O   UNL A   1      42.833  40.392  33.748  1.00  0.00    -0.237 OA
ATOM     72  O   UNL A   1      44.473  40.956  35.489  1.00  0.00    -0.744 OA
ENDBRANCH  66  69
ENDBRANCH  48  62
BRANCH  49  73
ATOM     73  C   UNL A   1      42.081  28.774  27.848  1.00  0.00     0.023 A 
ATOM     74  C   UNL A   1      41.893  29.151  26.505  1.00  0.00     0.012 A 
ATOM     75  C   UNL A   1      42.031  27.408  28.192  1.00  0.00     0.148 A 
ATOM     76  C   UNL A   1      41.634  28.190  25.527  1.00  0.00     0.002 A 
ATOM     77  C   UNL A   1      41.831  26.452  27.204  1.00  0.00     0.091 A 
ATOM     78  F   UNL A   1      42.188  27.070  29.479  1.00  0.00    -0.205 F 
ATOM     79  C   UNL A   1      41.614  26.841  25.873  1.00  0.00     0.022 A 
BRANCH  77  80
ATOM     80  S   UNL A   1      41.929  24.691  27.541  1.00  0.00     0.127 S 
ATOM     81  O   UNL A   1      40.743  24.477  28.365  1.00  0.00    -0.237 OA
ATOM     82  O   UNL A   1      41.857  24.121  26.196  1.00  0.00    -0.237 OA
ATOM     83  O   UNL A   1      43.210  24.490  28.206  1.00  0.00    -0.744 OA
ENDBRANCH  77  80
ENDBRANCH  49  73
BRANCH  61  84
ATOM     84  C   UNL A   1      47.905  31.794  30.245  1.00  0.00     0.023 A 
ATOM     85  C   UNL A   1      48.690  30.892  30.991  1.00  0.00     0.012 A 
ATOM     86  C   UNL A   1      48.480  32.464  29.147  1.00  0.00     0.148 A 
ATOM     87  C   UNL A   1      50.031  30.683  30.670  1.00  0.00     0.002 A 
ATOM     88  C   UNL A   1      49.804  32.215  28.802  1.00  0.00     0.091 A 
ATOM     89  F   UNL A   1      47.721  33.330  28.458  1.00  0.00    -0.205 F 
ATOM     90  C   UNL A   1      50.583  31.335  29.569  1.00  0.00     0.022 A 
BRANCH  88  91
ATOM     91  S   UNL A   1      50.576  32.937  27.349  1.00  0.00     0.127 S 
ATOM     92  O   UNL A   1      50.624  34.352  27.709  1.00  0.00    -0.237 OA
ATOM     93  O   UNL A   1      51.878  32.269  27.326  1.00  0.00    -0.237 OA
ATOM     94  O   UNL A   1      49.708  32.607  26.227  1.00  0.00    -0.744 OA
ENDBRANCH  88  91
ENDBRANCH  61  84
ENDBRANCH  35  36
ENDBRANCH  28  30
ENDBRANCH  27  28
ENDBRANCH  26  27
ENDBRANCH  25  26
ENDBRANCH  24  25
ENDBRANCH   1  24
TORSDOF 21
ENDMDL
MODEL 3
REMARK VINA RESULT:      -9.5      4.905      8.135
REMARK SMILES CCOc1cccc(-c2ccc([C@@H](C)C(=O)OCCOCCOC(=O)c3ccc(-c4c5nc(c(-c6cccc(S(=O)(=O)[O-])c6F)c6ccc([nH]6)c(-c6cccc(S(=O)(=O)[O-])c6F)c6nc(c(-c7cccc(S(=O)(=O)[O-])c7F)c7ccc4[nH]7)C=C6)C=C5)cc3)cc2F)c1
REMARK SMILES IDX 19 1 18 2 17 3 15 4 16 5 13 6 14 7 12 8 9 9 10 10 90 11
REMARK SMILES IDX 11 12 89 13 91 14 8 15 4 16 5 17 92 18 6 19 7 20 3 21 2 22
REMARK SMILES IDX 1 23 20 24 21 25 22 26 23 27 24 28 25 29 26 30 27 31 88 32
REMARK SMILES IDX 28 33 87 34 29 35 30 36 31 37 81 38 32 39 86 40 80 41 82 42
REMARK SMILES IDX 33 43 85 44 79 45 78 46 34 48 66 49 46 50 65 51 47 52 50 53
REMARK SMILES IDX 64 54 83 55 48 56 49 57 63 59 84 60 51 61 35 62 36 63 44 64
REMARK SMILES IDX 37 65 39 66 45 67 38 68 40 69 41 70 42 71 43 72 67 73 68 74
REMARK SMILES IDX 76 75 69 76 71 77 77 78 70 79 72 80 73 81 74 82 75 83 52 84
REMARK SMILES IDX 53 85 61 86 54 87 56 88 62 89 55 90 57 91 58 92 59 93 60 94
REMARK H PARENT 82 47 50 58
REMARK Flexibility Score: inf
ROOT
ATOM      1  C   UNL A   1      44.620  18.679  24.456  1.00  0.00     0.202 C 
ENDROOT
BRANCH   1   2
ATOM      2  C   UNL A   1      43.956  18.562  25.830  1.00  0.00     0.261 C 
BRANCH   2   3
ATOM      3  O   UNL A   1      42.797  19.408  25.933  1.00  0.00    -0.463 OA
BRANCH   3   4
ATOM      4  C   UNL A   1      42.111  19.337  27.103  1.00  0.00     0.313 C 
ATOM      5  O   UNL A   1      42.500  18.740  28.102  1.00  0.00    -0.252 OA
BRANCH   4   6
ATOM      6  C   UNL A   1      40.771  20.054  27.073  1.00  0.00     0.126 C 
ATOM      7  C   UNL A   1      40.002  19.654  25.819  1.00  0.00     0.025 C 
BRANCH   6   8
ATOM      8  C   UNL A   1      40.765  21.564  27.291  1.00  0.00    -0.031 A 
ATOM      9  C   UNL A   1      40.780  24.418  27.460  1.00  0.00     0.018 A 
ATOM     10  C   UNL A   1      41.806  23.646  28.032  1.00  0.00     0.012 A 
ATOM     11  C   UNL A   1      39.737  23.721  26.835  1.00  0.00     0.131 A 
ATOM     12  C   UNL A   1      41.800  22.244  27.948  1.00  0.00     0.005 A 
ATOM     13  C   UNL A   1      39.721  22.328  26.752  1.00  0.00     0.044 A 
ATOM     14  F   UNL A   1      38.720  24.387  26.264  1.00  0.00    -0.206 F 
BRANCH   9  15
ATOM     15  C   UNL A   1      40.806  25.895  27.507  1.00  0.00    -0.012 A 
ATOM     16  C   UNL A   1      40.424  27.981  28.713  1.00  0.00     0.119 A 
ATOM     17  C   UNL A   1      40.780  28.721  27.592  1.00  0.00     0.046 A 
ATOM     18  C   UNL A   1      40.414  26.586  28.664  1.00  0.00     0.055 A 
ATOM     19  C   UNL A   1      41.170  28.059  26.429  1.00  0.00     0.004 A 
ATOM     20  C   UNL A   1      41.189  26.660  26.390  1.00  0.00     0.009 A 
BRANCH  16  21
ATOM     21  O   UNL A   1      39.971  28.646  29.820  1.00  0.00    -0.494 OA
BRANCH  21  22
ATOM     22  C   UNL A   1      40.950  28.711  30.866  1.00  0.00     0.226 C 
ATOM     23  C   UNL A   1      40.361  28.308  32.208  1.00  0.00     0.049 C 
ENDBRANCH  21  22
ENDBRANCH  16  21
ENDBRANCH   9  15
ENDBRANCH   6   8
ENDBRANCH   4   6
ENDBRANCH   3   4
ENDBRANCH   2   3
ENDBRANCH   1   2
BRANCH   1  24
ATOM     24  O   UNL A   1      44.187  19.758  23.628  1.00  0.00    -0.374 OA
BRANCH  24  25
ATOM     25  C   UNL A   1      44.950  20.964  23.678  1.00  0.00     0.202 C 
BRANCH  25  26
ATOM     26  C   UNL A   1      46.210  20.950  24.553  1.00  0.00     0.261 C 
BRANCH  26  27
ATOM     27  O   UNL A   1      46.190  21.970  25.567  1.00  0.00    -0.460 OA
BRANCH  27  28
ATOM     28  C   UNL A   1      46.435  23.226  25.126  1.00  0.00     0.338 C 
ATOM     29  O   UNL A   1      46.703  23.569  23.979  1.00  0.00    -0.246 OA
BRANCH  28  30
ATOM     30  C   UNL A   1      46.147  24.198  26.195  1.00  0.00     0.060 A 
ATOM     31  C   UNL A   1      44.867  24.766  26.230  1.00  0.00     0.016 A 
ATOM     32  C   UNL A   1      47.122  24.588  27.117  1.00  0.00     0.016 A 
ATOM     33  C   UNL A   1      44.562  25.745  27.174  1.00  0.00     0.010 A 
ATOM     34  C   UNL A   1      46.817  25.580  28.054  1.00  0.00     0.010 A 
ATOM     35  C   UNL A   1      45.543  26.179  28.076  1.00  0.00    -0.014 A 
BRANCH  35  36
ATOM     36  C   UNL A   1      45.255  27.307  28.996  1.00  0.00     0.031 A 
ATOM     37  C   UNL A   1      44.811  27.025  30.404  1.00  0.00     0.074 A 
ATOM     38  C   UNL A   1      45.376  28.577  28.569  1.00  0.00     0.049 A 
ATOM     39  N   UNL A   1      44.470  27.865  31.346  1.00  0.00    -0.248 NA
ATOM     40  C   UNL A   1      44.738  25.610  30.803  1.00  0.00     0.031 C 
ATOM     41  C   UNL A   1      45.800  28.978  27.228  1.00  0.00     0.029 A 
ATOM     42  N   UNL A   1      45.122  29.764  29.212  1.00  0.00    -0.354 N 
ATOM     43  C   UNL A   1      44.117  27.086  32.441  1.00  0.00     0.074 A 
ATOM     44  C   UNL A   1      44.281  25.703  32.045  1.00  0.00     0.031 C 
ATOM     45  C   UNL A   1      45.741  30.317  27.135  1.00  0.00     0.029 A 
ATOM     46  C   UNL A   1      45.250  30.865  28.399  1.00  0.00     0.049 A 
ATOM     47  H   UNL A   1      44.873  29.819  30.163  1.00  0.00     0.167 HD
ATOM     48  C   UNL A   1      43.706  27.486  33.668  1.00  0.00     0.034 A 
ATOM     49  C   UNL A   1      44.973  32.162  28.636  1.00  0.00     0.034 A 
ATOM     50  C   UNL A   1      43.562  28.861  34.066  1.00  0.00     0.049 A 
ATOM     51  C   UNL A   1      44.481  32.577  29.998  1.00  0.00     0.074 A 
ATOM     52  C   UNL A   1      43.217  29.363  35.309  1.00  0.00     0.029 A 
ATOM     53  N   UNL A   1      43.733  29.952  33.228  1.00  0.00    -0.354 N 
ATOM     54  N   UNL A   1      44.288  31.840  31.065  1.00  0.00    -0.248 NA
ATOM     55  C   UNL A   1      44.197  34.006  30.198  1.00  0.00     0.031 C 
ATOM     56  C   UNL A   1      43.146  30.757  35.213  1.00  0.00     0.029 A 
ATOM     57  C   UNL A   1      43.475  31.124  33.919  1.00  0.00     0.049 A 
ATOM     58  H   UNL A   1      43.999  29.901  32.282  1.00  0.00     0.167 HD
ATOM     59  C   UNL A   1      43.883  32.717  32.067  1.00  0.00     0.074 A 
ATOM     60  C   UNL A   1      43.888  34.044  31.486  1.00  0.00     0.031 C 
ATOM     61  C   UNL A   1      43.522  32.445  33.345  1.00  0.00     0.034 A 
BRANCH  48  62
ATOM     62  C   UNL A   1      43.402  26.422  34.689  1.00  0.00     0.023 A 
ATOM     63  C   UNL A   1      42.077  25.973  34.854  1.00  0.00     0.012 A 
ATOM     64  C   UNL A   1      44.436  25.815  35.427  1.00  0.00     0.148 A 
ATOM     65  C   UNL A   1      41.782  24.951  35.756  1.00  0.00     0.002 A 
ATOM     66  C   UNL A   1      44.140  24.770  36.294  1.00  0.00     0.091 A 
ATOM     67  F   UNL A   1      45.687  26.273  35.270  1.00  0.00    -0.205 F 
ATOM     68  C   UNL A   1      42.813  24.344  36.466  1.00  0.00     0.022 A 
BRANCH  66  69
ATOM     69  S   UNL A   1      45.407  23.873  37.199  1.00  0.00     0.127 S 
ATOM     70  O   UNL A   1      44.945  24.023  38.579  1.00  0.00    -0.237 OA
ATOM     71  O   UNL A   1      45.274  22.522  36.656  1.00  0.00    -0.237 OA
ATOM     72  O   UNL A   1      46.667  24.533  36.888  1.00  0.00    -0.744 OA
ENDBRANCH  66  69
ENDBRANCH  48  62
BRANCH  49  73
ATOM     73  C   UNL A   1      45.162  33.171  27.555  1.00  0.00     0.023 A 
ATOM     74  C   UNL A   1      44.092  33.482  26.695  1.00  0.00     0.012 A 
ATOM     75  C   UNL A   1      46.394  33.833  27.386  1.00  0.00     0.148 A 
ATOM     76  C   UNL A   1      44.253  34.415  25.670  1.00  0.00     0.002 A 
ATOM     77  C   UNL A   1      46.530  34.803  26.401  1.00  0.00     0.091 A 
ATOM     78  F   UNL A   1      47.408  33.507  28.199  1.00  0.00    -0.205 F 
ATOM     79  C   UNL A   1      45.466  35.083  25.529  1.00  0.00     0.022 A 
BRANCH  77  80
ATOM     80  S   UNL A   1      48.010  35.807  26.242  1.00  0.00     0.127 S 
ATOM     81  O   UNL A   1      48.424  35.954  27.634  1.00  0.00    -0.237 OA
ATOM     82  O   UNL A   1      48.872  34.948  25.429  1.00  0.00    -0.237 OA
ATOM     83  O   UNL A   1      47.584  37.029  25.572  1.00  0.00    -0.744 OA
ENDBRANCH  77  80
ENDBRANCH  49  73
BRANCH  61  84
ATOM     84  C   UNL A   1      43.114  33.603  34.219  1.00  0.00     0.023 A 
ATOM     85  C   UNL A   1      44.092  34.503  34.685  1.00  0.00     0.012 A 
ATOM     86  C   UNL A   1      41.757  33.844  34.517  1.00  0.00     0.148 A 
ATOM     87  C   UNL A   1      43.733  35.606  35.460  1.00  0.00     0.002 A 
ATOM     88  C   UNL A   1      41.401  34.971  35.249  1.00  0.00     0.091 A 
ATOM     89  F   UNL A   1      40.841  32.968  34.078  1.00  0.00    -0.205 F 
ATOM     90  C   UNL A   1      42.387  35.846  35.731  1.00  0.00     0.022 A 
BRANCH  88  91
ATOM     91  S   UNL A   1      39.689  35.413  35.571  1.00  0.00     0.127 S 
ATOM     92  O   UNL A   1      39.093  35.283  34.244  1.00  0.00    -0.237 OA
ATOM     93  O   UNL A   1      39.278  34.384  36.528  1.00  0.00    -0.237 OA
ATOM     94  O   UNL A   1      39.719  36.764  36.113  1.00  0.00    -0.744 OA
ENDBRANCH  88  91
ENDBRANCH  61  84
ENDBRANCH  35  36
ENDBRANCH  28  30
ENDBRANCH  27  28
ENDBRANCH  26  27
ENDBRANCH  25  26
ENDBRANCH  24  25
ENDBRANCH   1  24
TORSDOF 21
ENDMDL
