MODEL 1
REMARK VINA RESULT:     -10.6      0.000      0.000
REMARK SMILES CCCC[C@@H](C(=O)OCCOCCOC(=O)c1ccc(-c2c3nc(c(-c4cccc(S(=O)(=O)[O-])c4F)c4ccc([nH]4)c(-c4cccc(S(=O)(=O)[O-])c4F)c4nc(c(-c5cccc(S(=O)(=O)[O-])c5F)c5ccc2[nH]5)C=C4)C=C3)cc1)C1(O)Cc2ccccc2C1
REMARK SMILES IDX 11 1 10 2 9 3 8 4 6 5 7 6 5 7 4 8 3 9 2 10 1 11 80 12 82 13
REMARK SMILES IDX 89 14 83 15 88 16 84 17 87 18 85 19 86 20 81 21 12 23 13 24
REMARK SMILES IDX 14 25 15 26 16 27 17 28 18 29 79 30 19 31 78 32 20 33 21 34
REMARK SMILES IDX 22 35 72 36 23 37 77 38 71 39 73 40 24 41 76 42 70 43 69 44
REMARK SMILES IDX 25 46 57 47 37 48 56 49 38 50 41 51 55 52 74 53 39 54 40 55
REMARK SMILES IDX 54 57 75 58 42 59 26 60 27 61 35 62 28 63 30 64 36 65 29 66
REMARK SMILES IDX 31 67 32 68 33 69 34 70 58 71 59 72 67 73 60 74 62 75 68 76
REMARK SMILES IDX 61 77 63 78 64 79 65 80 66 81 43 82 44 83 52 84 45 85 47 86
REMARK SMILES IDX 53 87 46 88 48 89 49 90 50 91 51 92
REMARK H PARENT 81 22 73 45 41 56
REMARK Flexibility Score: inf
ROOT
ATOM      1  O   UNL A   1      32.305  30.803  26.248  1.00  0.00    -0.374 OA
ENDROOT
BRANCH   1   2
ATOM      2  C   UNL A   1      31.686  29.537  25.988  1.00  0.00     0.202 C 
BRANCH   2   3
ATOM      3  C   UNL A   1      31.217  29.307  24.556  1.00  0.00     0.261 C 
BRANCH   3   4
ATOM      4  O   UNL A   1      31.083  27.895  24.380  1.00  0.00    -0.463 OA
BRANCH   4   5
ATOM      5  C   UNL A   1      31.974  27.298  23.572  1.00  0.00     0.311 C 
ATOM      6  O   UNL A   1      32.564  27.844  22.652  1.00  0.00    -0.252 OA
BRANCH   5   7
ATOM      7  C   UNL A   1      32.239  25.873  24.024  1.00  0.00     0.131 C 
BRANCH   7   8
ATOM      8  C   UNL A   1      30.955  25.087  24.401  1.00  0.00     0.018 C 
BRANCH   8   9
ATOM      9  C   UNL A   1      30.801  23.648  23.869  1.00  0.00     0.001 C 
BRANCH   9  10
ATOM     10  C   UNL A   1      31.873  23.131  22.915  1.00  0.00    -0.003 C 
ATOM     11  C   UNL A   1      32.365  21.738  23.261  1.00  0.00     0.004 C 
ENDBRANCH   9  10
ENDBRANCH   8   9
ENDBRANCH   7   8
BRANCH   7  12
ATOM     12  C   UNL A   1      33.419  25.786  25.074  1.00  0.00     0.086 C 
ATOM     13  C   UNL A   1      33.020  25.201  26.470  1.00  0.00     0.072 C 
ATOM     14  C   UNL A   1      34.703  24.967  24.694  1.00  0.00     0.072 C 
ATOM     15  C   UNL A   1      33.523  23.793  26.399  1.00  0.00    -0.042 A 
ATOM     16  C   UNL A   1      34.563  23.697  25.479  1.00  0.00    -0.042 A 
ATOM     17  C   UNL A   1      33.122  22.691  27.138  1.00  0.00     0.004 A 
ATOM     18  C   UNL A   1      35.311  22.534  25.366  1.00  0.00     0.004 A 
ATOM     19  C   UNL A   1      33.810  21.487  26.965  1.00  0.00     0.000 A 
ATOM     20  C   UNL A   1      34.919  21.417  26.111  1.00  0.00     0.000 A 
BRANCH  12  21
ATOM     21  O   UNL A   1      33.877  27.143  25.285  1.00  0.00    -0.388 OA
ATOM     22  H   UNL A   1      34.812  27.212  25.034  1.00  0.00     0.211 HD
ENDBRANCH  12  21
ENDBRANCH   7  12
ENDBRANCH   5   7
ENDBRANCH   4   5
ENDBRANCH   3   4
ENDBRANCH   2   3
ENDBRANCH   1   2
BRANCH   1  23
ATOM     23  C   UNL A   1      31.453  31.916  26.512  1.00  0.00     0.202 C 
BRANCH  23  24
ATOM     24  C   UNL A   1      32.078  33.206  27.044  1.00  0.00     0.261 C 
BRANCH  24  25
ATOM     25  O   UNL A   1      32.993  32.970  28.101  1.00  0.00    -0.460 OA
BRANCH  25  26
ATOM     26  C   UNL A   1      34.117  33.718  28.002  1.00  0.00     0.338 C 
ATOM     27  O   UNL A   1      34.206  34.921  27.831  1.00  0.00    -0.246 OA
BRANCH  26  28
ATOM     28  C   UNL A   1      35.253  32.845  28.318  1.00  0.00     0.060 A 
ATOM     29  C   UNL A   1      35.000  31.478  28.486  1.00  0.00     0.016 A 
ATOM     30  C   UNL A   1      36.541  33.372  28.430  1.00  0.00     0.016 A 
ATOM     31  C   UNL A   1      36.040  30.630  28.838  1.00  0.00     0.010 A 
ATOM     32  C   UNL A   1      37.578  32.528  28.791  1.00  0.00     0.010 A 
ATOM     33  C   UNL A   1      37.314  31.171  29.046  1.00  0.00    -0.014 A 
BRANCH  33  34
ATOM     34  C   UNL A   1      38.329  30.408  29.786  1.00  0.00     0.031 A 
ATOM     35  C   UNL A   1      38.574  30.813  31.211  1.00  0.00     0.074 A 
ATOM     36  C   UNL A   1      39.057  29.466  29.169  1.00  0.00     0.049 A 
ATOM     37  N   UNL A   1      39.528  30.452  32.021  1.00  0.00    -0.248 NA
ATOM     38  C   UNL A   1      37.624  31.783  31.791  1.00  0.00     0.031 C 
ATOM     39  C   UNL A   1      38.871  29.024  27.788  1.00  0.00     0.029 A 
ATOM     40  N   UNL A   1      40.133  28.750  29.616  1.00  0.00    -0.354 N 
ATOM     41  C   UNL A   1      39.318  31.176  33.189  1.00  0.00     0.074 A 
ATOM     42  C   UNL A   1      38.154  32.006  32.983  1.00  0.00     0.031 C 
ATOM     43  C   UNL A   1      39.835  28.138  27.484  1.00  0.00     0.029 A 
ATOM     44  C   UNL A   1      40.718  27.982  28.638  1.00  0.00     0.049 A 
ATOM     45  H   UNL A   1      40.456  28.782  30.545  1.00  0.00     0.167 HD
ATOM     46  C   UNL A   1      40.034  31.139  34.334  1.00  0.00     0.034 A 
ATOM     47  C   UNL A   1      41.857  27.267  28.677  1.00  0.00     0.034 A 
ATOM     48  C   UNL A   1      41.181  30.297  34.511  1.00  0.00     0.049 A 
ATOM     49  C   UNL A   1      42.638  27.245  29.966  1.00  0.00     0.074 A 
ATOM     50  C   UNL A   1      41.981  30.149  35.626  1.00  0.00     0.029 A 
ATOM     51  N   UNL A   1      41.687  29.454  33.531  1.00  0.00    -0.354 N 
ATOM     52  N   UNL A   1      42.384  27.863  31.097  1.00  0.00    -0.248 NA
ATOM     53  C   UNL A   1      43.842  26.405  30.001  1.00  0.00     0.031 C 
ATOM     54  C   UNL A   1      42.980  29.221  35.317  1.00  0.00     0.029 A 
ATOM     55  C   UNL A   1      42.784  28.774  34.018  1.00  0.00     0.049 A 
ATOM     56  H   UNL A   1      41.317  29.356  32.624  1.00  0.00     0.167 HD
ATOM     57  C   UNL A   1      43.365  27.448  31.989  1.00  0.00     0.074 A 
ATOM     58  C   UNL A   1      44.216  26.523  31.267  1.00  0.00     0.031 C 
ATOM     59  C   UNL A   1      43.554  27.801  33.284  1.00  0.00     0.034 A 
BRANCH  46  60
ATOM     60  C   UNL A   1      39.573  32.006  35.474  1.00  0.00     0.023 A 
ATOM     61  C   UNL A   1      39.983  33.354  35.530  1.00  0.00     0.012 A 
ATOM     62  C   UNL A   1      38.719  31.502  36.474  1.00  0.00     0.148 A 
ATOM     63  C   UNL A   1      39.576  34.179  36.578  1.00  0.00     0.002 A 
ATOM     64  C   UNL A   1      38.282  32.341  37.493  1.00  0.00     0.091 A 
ATOM     65  F   UNL A   1      38.365  30.210  36.421  1.00  0.00    -0.205 F 
ATOM     66  C   UNL A   1      38.718  33.676  37.552  1.00  0.00     0.022 A 
BRANCH  64  67
ATOM     67  S   UNL A   1      37.123  31.811  38.757  1.00  0.00     0.127 S 
ATOM     68  O   UNL A   1      36.006  32.728  38.538  1.00  0.00    -0.237 OA
ATOM     69  O   UNL A   1      36.859  30.425  38.371  1.00  0.00    -0.237 OA
ATOM     70  O   UNL A   1      37.816  31.966  40.028  1.00  0.00    -0.744 OA
ENDBRANCH  64  67
ENDBRANCH  46  60
BRANCH  47  71
ATOM     71  C   UNL A   1      42.291  26.481  27.489  1.00  0.00     0.023 A 
ATOM     72  C   UNL A   1      43.033  27.119  26.477  1.00  0.00     0.012 A 
ATOM     73  C   UNL A   1      42.003  25.108  27.365  1.00  0.00     0.148 A 
ATOM     74  C   UNL A   1      43.453  26.414  25.348  1.00  0.00     0.002 A 
ATOM     75  C   UNL A   1      42.468  24.399  26.262  1.00  0.00     0.091 A 
ATOM     76  F   UNL A   1      41.284  24.518  28.331  1.00  0.00    -0.205 F 
ATOM     77  C   UNL A   1      43.179  25.053  25.245  1.00  0.00     0.022 A 
BRANCH  75  78
ATOM     78  S   UNL A   1      42.268  22.619  26.110  1.00  0.00     0.127 S 
ATOM     79  O   UNL A   1      42.939  22.138  27.314  1.00  0.00    -0.237 OA
ATOM     80  O   UNL A   1      40.811  22.474  26.117  1.00  0.00    -0.237 OA
ATOM     81  O   UNL A   1      42.897  22.264  24.844  1.00  0.00    -0.744 OA
ENDBRANCH  75  78
ENDBRANCH  47  71
BRANCH  59  82
ATOM     82  C   UNL A   1      44.675  27.136  34.033  1.00  0.00     0.023 A 
ATOM     83  C   UNL A   1      45.966  27.695  34.007  1.00  0.00     0.012 A 
ATOM     84  C   UNL A   1      44.408  26.028  34.860  1.00  0.00     0.148 A 
ATOM     85  C   UNL A   1      46.983  27.149  34.787  1.00  0.00     0.002 A 
ATOM     86  C   UNL A   1      45.414  25.519  35.669  1.00  0.00     0.091 A 
ATOM     87  F   UNL A   1      43.173  25.507  34.852  1.00  0.00    -0.205 F 
ATOM     88  C   UNL A   1      46.704  26.072  35.627  1.00  0.00     0.022 A 
BRANCH  86  89
ATOM     89  S   UNL A   1      45.119  24.205  36.857  1.00  0.00     0.127 S 
ATOM     90  O   UNL A   1      44.113  24.811  37.727  1.00  0.00    -0.237 OA
ATOM     91  O   UNL A   1      44.619  23.126  36.004  1.00  0.00    -0.237 OA
ATOM     92  O   UNL A   1      46.405  23.934  37.485  1.00  0.00    -0.744 OA
ENDBRANCH  86  89
ENDBRANCH  59  82
ENDBRANCH  33  34
ENDBRANCH  26  28
ENDBRANCH  25  26
ENDBRANCH  24  25
ENDBRANCH  23  24
ENDBRANCH   1  23
TORSDOF 22
ENDMDL
MODEL 2
REMARK VINA RESULT:     -10.5      4.957     10.314
REMARK SMILES CCCC[C@@H](C(=O)OCCOCCOC(=O)c1ccc(-c2c3nc(c(-c4cccc(S(=O)(=O)[O-])c4F)c4ccc([nH]4)c(-c4cccc(S(=O)(=O)[O-])c4F)c4nc(c(-c5cccc(S(=O)(=O)[O-])c5F)c5ccc2[nH]5)C=C4)C=C3)cc1)C1(O)Cc2ccccc2C1
REMARK SMILES IDX 11 1 10 2 9 3 8 4 6 5 7 6 5 7 4 8 3 9 2 10 1 11 80 12 82 13
REMARK SMILES IDX 89 14 83 15 88 16 84 17 87 18 85 19 86 20 81 21 12 23 13 24
REMARK SMILES IDX 14 25 15 26 16 27 17 28 18 29 79 30 19 31 78 32 20 33 21 34
REMARK SMILES IDX 22 35 72 36 23 37 77 38 71 39 73 40 24 41 76 42 70 43 69 44
REMARK SMILES IDX 25 46 57 47 37 48 56 49 38 50 41 51 55 52 74 53 39 54 40 55
REMARK SMILES IDX 54 57 75 58 42 59 26 60 27 61 35 62 28 63 30 64 36 65 29 66
REMARK SMILES IDX 31 67 32 68 33 69 34 70 58 71 59 72 67 73 60 74 62 75 68 76
REMARK SMILES IDX 61 77 63 78 64 79 65 80 66 81 43 82 44 83 52 84 45 85 47 86
REMARK SMILES IDX 53 87 46 88 48 89 49 90 50 91 51 92
REMARK H PARENT 81 22 73 45 41 56
REMARK Flexibility Score: inf
ROOT
ATOM      1  O   UNL A   1      35.283  20.805  24.619  1.00  0.00    -0.374 OA
ENDROOT
BRANCH   1   2
ATOM      2  C   UNL A   1      34.241  19.904  25.016  1.00  0.00     0.202 C 
BRANCH   2   3
ATOM      3  C   UNL A   1      32.819  20.350  24.695  1.00  0.00     0.261 C 
BRANCH   3   4
ATOM      4  O   UNL A   1      32.803  21.779  24.757  1.00  0.00    -0.463 OA
BRANCH   4   5
ATOM      5  C   UNL A   1      32.406  22.429  23.652  1.00  0.00     0.311 C 
ATOM      6  O   UNL A   1      32.120  21.898  22.588  1.00  0.00    -0.252 OA
BRANCH   5   7
ATOM      7  C   UNL A   1      32.248  23.913  23.929  1.00  0.00     0.131 C 
BRANCH   7   8
ATOM      8  C   UNL A   1      31.224  24.617  22.998  1.00  0.00     0.018 C 
BRANCH   8   9
ATOM      9  C   UNL A   1      29.916  25.142  23.622  1.00  0.00     0.001 C 
BRANCH   9  10
ATOM     10  C   UNL A   1      30.007  26.377  24.513  1.00  0.00    -0.003 C 
ATOM     11  C   UNL A   1      30.392  26.058  25.946  1.00  0.00     0.004 C 
ENDBRANCH   9  10
ENDBRANCH   8   9
ENDBRANCH   7   8
BRANCH   7  12
ATOM     12  C   UNL A   1      33.641  24.647  24.080  1.00  0.00     0.086 C 
ATOM     13  C   UNL A   1      33.841  25.886  23.144  1.00  0.00     0.072 C 
ATOM     14  C   UNL A   1      34.052  25.194  25.493  1.00  0.00     0.072 C 
ATOM     15  C   UNL A   1      33.593  27.042  24.061  1.00  0.00    -0.042 A 
ATOM     16  C   UNL A   1      33.837  26.673  25.381  1.00  0.00    -0.042 A 
ATOM     17  C   UNL A   1      33.229  28.341  23.740  1.00  0.00     0.004 A 
ATOM     18  C   UNL A   1      33.848  27.619  26.396  1.00  0.00     0.004 A 
ATOM     19  C   UNL A   1      33.148  29.283  24.769  1.00  0.00     0.000 A 
ATOM     20  C   UNL A   1      33.489  28.934  26.083  1.00  0.00     0.000 A 
BRANCH  12  21
ATOM     21  O   UNL A   1      34.655  23.672  23.735  1.00  0.00    -0.388 OA
ATOM     22  H   UNL A   1      35.075  23.925  22.898  1.00  0.00     0.211 HD
ENDBRANCH  12  21
ENDBRANCH   7  12
ENDBRANCH   5   7
ENDBRANCH   4   5
ENDBRANCH   3   4
ENDBRANCH   2   3
ENDBRANCH   1   2
BRANCH   1  23
ATOM     23  C   UNL A   1      36.354  21.025  25.535  1.00  0.00     0.202 C 
BRANCH  23  24
ATOM     24  C   UNL A   1      37.717  20.402  25.233  1.00  0.00     0.261 C 
BRANCH  24  25
ATOM     25  O   UNL A   1      38.760  21.363  25.213  1.00  0.00    -0.460 OA
BRANCH  25  26
ATOM     26  C   UNL A   1      39.644  21.202  26.226  1.00  0.00     0.338 C 
ATOM     27  O   UNL A   1      40.235  20.187  26.553  1.00  0.00    -0.246 OA
BRANCH  26  28
ATOM     28  C   UNL A   1      39.921  22.530  26.780  1.00  0.00     0.060 A 
ATOM     29  C   UNL A   1      39.048  23.574  26.448  1.00  0.00     0.016 A 
ATOM     30  C   UNL A   1      41.017  22.732  27.623  1.00  0.00     0.016 A 
ATOM     31  C   UNL A   1      39.308  24.856  26.910  1.00  0.00     0.010 A 
ATOM     32  C   UNL A   1      41.282  24.013  28.077  1.00  0.00     0.010 A 
ATOM     33  C   UNL A   1      40.459  25.078  27.675  1.00  0.00    -0.014 A 
BRANCH  33  34
ATOM     34  C   UNL A   1      40.979  26.443  27.847  1.00  0.00     0.031 A 
ATOM     35  C   UNL A   1      42.381  26.697  27.374  1.00  0.00     0.074 A 
ATOM     36  C   UNL A   1      40.254  27.372  28.486  1.00  0.00     0.049 A 
ATOM     37  N   UNL A   1      43.147  27.731  27.575  1.00  0.00    -0.248 NA
ATOM     38  C   UNL A   1      43.015  25.619  26.588  1.00  0.00     0.031 C 
ATOM     39  C   UNL A   1      38.887  27.192  28.971  1.00  0.00     0.029 A 
ATOM     40  N   UNL A   1      40.593  28.637  28.880  1.00  0.00    -0.354 N 
ATOM     41  C   UNL A   1      44.362  27.416  26.978  1.00  0.00     0.074 A 
ATOM     42  C   UNL A   1      44.239  26.092  26.415  1.00  0.00     0.031 C 
ATOM     43  C   UNL A   1      38.516  28.297  29.641  1.00  0.00     0.029 A 
ATOM     44  C   UNL A   1      39.632  29.240  29.656  1.00  0.00     0.049 A 
ATOM     45  H   UNL A   1      41.441  29.072  28.634  1.00  0.00     0.167 HD
ATOM     46  C   UNL A   1      45.476  28.175  26.900  1.00  0.00     0.034 A 
ATOM     47  C   UNL A   1      39.678  30.408  30.324  1.00  0.00     0.034 A 
ATOM     48  C   UNL A   1      45.564  29.492  27.462  1.00  0.00     0.049 A 
ATOM     49  C   UNL A   1      40.934  31.234  30.223  1.00  0.00     0.074 A 
ATOM     50  C   UNL A   1      46.626  30.374  27.436  1.00  0.00     0.029 A 
ATOM     51  N   UNL A   1      44.534  30.114  28.155  1.00  0.00    -0.354 N 
ATOM     52  N   UNL A   1      42.049  30.969  29.581  1.00  0.00    -0.248 NA
ATOM     53  C   UNL A   1      40.933  32.534  30.908  1.00  0.00     0.031 C 
ATOM     54  C   UNL A   1      46.240  31.529  28.124  1.00  0.00     0.029 A 
ATOM     55  C   UNL A   1      44.930  31.374  28.554  1.00  0.00     0.049 A 
ATOM     56  H   UNL A   1      43.652  29.715  28.334  1.00  0.00     0.167 HD
ATOM     57  C   UNL A   1      42.859  32.086  29.742  1.00  0.00     0.074 A 
ATOM     58  C   UNL A   1      42.105  33.032  30.541  1.00  0.00     0.031 C 
ATOM     59  C   UNL A   1      44.114  32.312  29.282  1.00  0.00     0.034 A 
BRANCH  46  60
ATOM     60  C   UNL A   1      46.658  27.609  26.162  1.00  0.00     0.023 A 
ATOM     61  C   UNL A   1      46.774  27.821  24.773  1.00  0.00     0.012 A 
ATOM     62  C   UNL A   1      47.665  26.893  26.838  1.00  0.00     0.148 A 
ATOM     63  C   UNL A   1      47.857  27.302  24.062  1.00  0.00     0.002 A 
ATOM     64  C   UNL A   1      48.762  26.415  26.131  1.00  0.00     0.091 A 
ATOM     65  F   UNL A   1      47.522  26.675  28.153  1.00  0.00    -0.205 F 
ATOM     66  C   UNL A   1      48.855  26.610  24.742  1.00  0.00     0.022 A 
BRANCH  64  67
ATOM     67  S   UNL A   1      50.134  25.571  26.923  1.00  0.00     0.127 S 
ATOM     68  O   UNL A   1      50.594  26.581  27.875  1.00  0.00    -0.237 OA
ATOM     69  O   UNL A   1      49.476  24.415  27.531  1.00  0.00    -0.237 OA
ATOM     70  O   UNL A   1      51.074  25.245  25.859  1.00  0.00    -0.744 OA
ENDBRANCH  64  67
ENDBRANCH  46  60
BRANCH  47  71
ATOM     71  C   UNL A   1      38.492  30.880  31.090  1.00  0.00     0.023 A 
ATOM     72  C   UNL A   1      38.462  30.704  32.487  1.00  0.00     0.012 A 
ATOM     73  C   UNL A   1      37.412  31.527  30.458  1.00  0.00     0.148 A 
ATOM     74  C   UNL A   1      37.365  31.133  33.236  1.00  0.00     0.002 A 
ATOM     75  C   UNL A   1      36.345  31.997  31.217  1.00  0.00     0.091 A 
ATOM     76  F   UNL A   1      37.450  31.675  29.126  1.00  0.00    -0.205 F 
ATOM     77  C   UNL A   1      36.312  31.787  32.604  1.00  0.00     0.022 A 
BRANCH  75  78
ATOM     78  S   UNL A   1      35.006  32.959  30.500  1.00  0.00     0.127 S 
ATOM     79  O   UNL A   1      34.123  33.143  31.648  1.00  0.00    -0.237 OA
ATOM     80  O   UNL A   1      35.702  34.168  30.057  1.00  0.00    -0.237 OA
ATOM     81  O   UNL A   1      34.479  32.141  29.415  1.00  0.00    -0.744 OA
ENDBRANCH  75  78
ENDBRANCH  47  71
BRANCH  59  82
ATOM     82  C   UNL A   1      44.729  33.655  29.560  1.00  0.00     0.023 A 
ATOM     83  C   UNL A   1      45.470  33.858  30.739  1.00  0.00     0.012 A 
ATOM     84  C   UNL A   1      44.671  34.670  28.585  1.00  0.00     0.148 A 
ATOM     85  C   UNL A   1      46.135  35.063  30.951  1.00  0.00     0.002 A 
ATOM     86  C   UNL A   1      45.376  35.850  28.783  1.00  0.00     0.091 A 
ATOM     87  F   UNL A   1      43.945  34.455  27.480  1.00  0.00    -0.205 F 
ATOM     88  C   UNL A   1      46.100  36.052  29.969  1.00  0.00     0.022 A 
BRANCH  86  89
ATOM     89  S   UNL A   1      45.473  37.132  27.529  1.00  0.00     0.127 S 
ATOM     90  O   UNL A   1      46.300  38.136  28.194  1.00  0.00    -0.237 OA
ATOM     91  O   UNL A   1      46.131  36.433  26.425  1.00  0.00    -0.237 OA
ATOM     92  O   UNL A   1      44.100  37.534  27.258  1.00  0.00    -0.744 OA
ENDBRANCH  86  89
ENDBRANCH  59  82
ENDBRANCH  33  34
ENDBRANCH  26  28
ENDBRANCH  25  26
ENDBRANCH  24  25
ENDBRANCH  23  24
ENDBRANCH   1  23
TORSDOF 22
ENDMDL
MODEL 3
REMARK VINA RESULT:     -10.5      4.914     10.332
REMARK SMILES CCCC[C@@H](C(=O)OCCOCCOC(=O)c1ccc(-c2c3nc(c(-c4cccc(S(=O)(=O)[O-])c4F)c4ccc([nH]4)c(-c4cccc(S(=O)(=O)[O-])c4F)c4nc(c(-c5cccc(S(=O)(=O)[O-])c5F)c5ccc2[nH]5)C=C4)C=C3)cc1)C1(O)Cc2ccccc2C1
REMARK SMILES IDX 11 1 10 2 9 3 8 4 6 5 7 6 5 7 4 8 3 9 2 10 1 11 80 12 82 13
REMARK SMILES IDX 89 14 83 15 88 16 84 17 87 18 85 19 86 20 81 21 12 23 13 24
REMARK SMILES IDX 14 25 15 26 16 27 17 28 18 29 79 30 19 31 78 32 20 33 21 34
REMARK SMILES IDX 22 35 72 36 23 37 77 38 71 39 73 40 24 41 76 42 70 43 69 44
REMARK SMILES IDX 25 46 57 47 37 48 56 49 38 50 41 51 55 52 74 53 39 54 40 55
REMARK SMILES IDX 54 57 75 58 42 59 26 60 27 61 35 62 28 63 30 64 36 65 29 66
REMARK SMILES IDX 31 67 32 68 33 69 34 70 58 71 59 72 67 73 60 74 62 75 68 76
REMARK SMILES IDX 61 77 63 78 64 79 65 80 66 81 43 82 44 83 52 84 45 85 47 86
REMARK SMILES IDX 53 87 46 88 48 89 49 90 50 91 51 92
REMARK H PARENT 81 22 73 45 41 56
REMARK Flexibility Score: inf
ROOT
ATOM      1  O   UNL A   1      35.329  21.049  24.511  1.00  0.00    -0.374 OA
ENDROOT
BRANCH   1   2
ATOM      2  C   UNL A   1      34.035  20.567  24.894  1.00  0.00     0.202 C 
BRANCH   2   3
ATOM      3  C   UNL A   1      32.863  21.493  24.589  1.00  0.00     0.261 C 
BRANCH   3   4
ATOM      4  O   UNL A   1      32.258  21.830  25.840  1.00  0.00    -0.463 OA
BRANCH   4   5
ATOM      5  C   UNL A   1      32.796  22.858  26.515  1.00  0.00     0.311 C 
ATOM      6  O   UNL A   1      33.416  22.763  27.564  1.00  0.00    -0.252 OA
BRANCH   5   7
ATOM      7  C   UNL A   1      32.629  24.155  25.742  1.00  0.00     0.131 C 
BRANCH   7   8
ATOM      8  C   UNL A   1      33.924  25.008  25.667  1.00  0.00     0.018 C 
BRANCH   8   9
ATOM      9  C   UNL A   1      34.233  25.746  24.349  1.00  0.00     0.001 C 
BRANCH   9  10
ATOM     10  C   UNL A   1      33.387  25.393  23.129  1.00  0.00    -0.003 C 
ATOM     11  C   UNL A   1      33.298  26.517  22.113  1.00  0.00     0.004 C 
ENDBRANCH   9  10
ENDBRANCH   8   9
ENDBRANCH   7   8
BRANCH   7  12
ATOM     12  C   UNL A   1      31.323  24.941  26.164  1.00  0.00     0.086 C 
ATOM     13  C   UNL A   1      31.570  26.390  26.704  1.00  0.00     0.072 C 
ATOM     14  C   UNL A   1      30.191  25.143  25.096  1.00  0.00     0.072 C 
ATOM     15  C   UNL A   1      31.217  27.249  25.530  1.00  0.00    -0.042 A 
ATOM     16  C   UNL A   1      30.335  26.578  24.688  1.00  0.00    -0.042 A 
ATOM     17  C   UNL A   1      31.609  28.551  25.260  1.00  0.00     0.004 A 
ATOM     18  C   UNL A   1      29.725  27.232  23.627  1.00  0.00     0.004 A 
ATOM     19  C   UNL A   1      31.070  29.190  24.140  1.00  0.00     0.000 A 
ATOM     20  C   UNL A   1      30.108  28.548  23.349  1.00  0.00     0.000 A 
BRANCH  12  21
ATOM     21  O   UNL A   1      30.714  24.176  27.231  1.00  0.00    -0.388 OA
ATOM     22  H   UNL A   1      31.222  23.362  27.377  1.00  0.00     0.211 HD
ENDBRANCH  12  21
ENDBRANCH   7  12
ENDBRANCH   5   7
ENDBRANCH   4   5
ENDBRANCH   3   4
ENDBRANCH   2   3
ENDBRANCH   1   2
BRANCH   1  23
ATOM     23  C   UNL A   1      36.330  21.140  25.523  1.00  0.00     0.202 C 
BRANCH  23  24
ATOM     24  C   UNL A   1      37.679  20.464  25.282  1.00  0.00     0.261 C 
BRANCH  24  25
ATOM     25  O   UNL A   1      38.750  21.392  25.236  1.00  0.00    -0.460 OA
BRANCH  25  26
ATOM     26  C   UNL A   1      39.623  21.240  26.260  1.00  0.00     0.338 C 
ATOM     27  O   UNL A   1      40.217  20.231  26.599  1.00  0.00    -0.246 OA
BRANCH  26  28
ATOM     28  C   UNL A   1      39.885  22.573  26.812  1.00  0.00     0.060 A 
ATOM     29  C   UNL A   1      39.060  23.627  26.398  1.00  0.00     0.016 A 
ATOM     30  C   UNL A   1      40.918  22.769  27.731  1.00  0.00     0.016 A 
ATOM     31  C   UNL A   1      39.311  24.912  26.857  1.00  0.00     0.010 A 
ATOM     32  C   UNL A   1      41.174  24.053  28.184  1.00  0.00     0.010 A 
ATOM     33  C   UNL A   1      40.405  25.126  27.703  1.00  0.00    -0.014 A 
BRANCH  33  34
ATOM     34  C   UNL A   1      40.938  26.483  27.891  1.00  0.00     0.031 A 
ATOM     35  C   UNL A   1      42.343  26.729  27.422  1.00  0.00     0.074 A 
ATOM     36  C   UNL A   1      40.222  27.413  28.542  1.00  0.00     0.049 A 
ATOM     37  N   UNL A   1      43.119  27.754  27.636  1.00  0.00    -0.248 NA
ATOM     38  C   UNL A   1      42.967  25.655  26.624  1.00  0.00     0.031 C 
ATOM     39  C   UNL A   1      38.853  27.240  29.024  1.00  0.00     0.029 A 
ATOM     40  N   UNL A   1      40.573  28.669  28.951  1.00  0.00    -0.354 N 
ATOM     41  C   UNL A   1      44.331  27.434  27.035  1.00  0.00     0.074 A 
ATOM     42  C   UNL A   1      44.196  26.118  26.457  1.00  0.00     0.031 C 
ATOM     43  C   UNL A   1      38.492  28.340  29.706  1.00  0.00     0.029 A 
ATOM     44  C   UNL A   1      39.618  29.272  29.733  1.00  0.00     0.049 A 
ATOM     45  H   UNL A   1      41.425  29.099  28.710  1.00  0.00     0.167 HD
ATOM     46  C   UNL A   1      45.453  28.183  26.968  1.00  0.00     0.034 A 
ATOM     47  C   UNL A   1      39.675  30.431  30.414  1.00  0.00     0.034 A 
ATOM     48  C   UNL A   1      45.553  29.492  27.544  1.00  0.00     0.049 A 
ATOM     49  C   UNL A   1      40.939  31.247  30.324  1.00  0.00     0.074 A 
ATOM     50  C   UNL A   1      46.624  30.364  27.530  1.00  0.00     0.029 A 
ATOM     51  N   UNL A   1      44.529  30.116  28.245  1.00  0.00    -0.354 N 
ATOM     52  N   UNL A   1      42.051  30.978  29.680  1.00  0.00    -0.248 NA
ATOM     53  C   UNL A   1      40.950  32.538  31.025  1.00  0.00     0.031 C 
ATOM     54  C   UNL A   1      46.249  31.515  28.231  1.00  0.00     0.029 A 
ATOM     55  C   UNL A   1      44.937  31.367  28.659  1.00  0.00     0.049 A 
ATOM     56  H   UNL A   1      43.643  29.724  28.419  1.00  0.00     0.167 HD
ATOM     57  C   UNL A   1      42.872  32.085  29.854  1.00  0.00     0.074 A 
ATOM     58  C   UNL A   1      42.127  33.029  30.664  1.00  0.00     0.031 C 
ATOM     59  C   UNL A   1      44.130  32.305  29.397  1.00  0.00     0.034 A 
BRANCH  46  60
ATOM     60  C   UNL A   1      46.630  27.614  26.223  1.00  0.00     0.023 A 
ATOM     61  C   UNL A   1      46.727  27.806  24.829  1.00  0.00     0.012 A 
ATOM     62  C   UNL A   1      47.650  26.916  26.897  1.00  0.00     0.148 A 
ATOM     63  C   UNL A   1      47.804  27.284  24.113  1.00  0.00     0.002 A 
ATOM     64  C   UNL A   1      48.742  26.435  26.183  1.00  0.00     0.091 A 
ATOM     65  F   UNL A   1      47.525  26.717  28.217  1.00  0.00    -0.205 F 
ATOM     66  C   UNL A   1      48.815  26.609  24.791  1.00  0.00     0.022 A 
BRANCH  64  67
ATOM     67  S   UNL A   1      50.130  25.613  26.971  1.00  0.00     0.127 S 
ATOM     68  O   UNL A   1      49.504  24.391  27.473  1.00  0.00    -0.237 OA
ATOM     69  O   UNL A   1      51.046  25.411  25.848  1.00  0.00    -0.237 OA
ATOM     70  O   UNL A   1      50.614  26.530  27.993  1.00  0.00    -0.744 OA
ENDBRANCH  64  67
ENDBRANCH  46  60
BRANCH  47  71
ATOM     71  C   UNL A   1      38.493  30.906  31.186  1.00  0.00     0.023 A 
ATOM     72  C   UNL A   1      38.478  30.751  32.585  1.00  0.00     0.012 A 
ATOM     73  C   UNL A   1      37.401  31.535  30.555  1.00  0.00     0.148 A 
ATOM     74  C   UNL A   1      37.386  31.182  33.340  1.00  0.00     0.002 A 
ATOM     75  C   UNL A   1      36.339  32.008  31.318  1.00  0.00     0.091 A 
ATOM     76  F   UNL A   1      37.425  31.664  29.221  1.00  0.00    -0.205 F 
ATOM     77  C   UNL A   1      36.322  31.819  32.708  1.00  0.00     0.022 A 
BRANCH  75  78
ATOM     78  S   UNL A   1      34.986  32.949  30.601  1.00  0.00     0.127 S 
ATOM     79  O   UNL A   1      34.513  32.045  29.556  1.00  0.00    -0.237 OA
ATOM     80  O   UNL A   1      34.081  33.101  31.741  1.00  0.00    -0.237 OA
ATOM     81  O   UNL A   1      35.582  34.197  30.141  1.00  0.00    -0.744 OA
ENDBRANCH  75  78
ENDBRANCH  47  71
BRANCH  59  82
ATOM     82  C   UNL A   1      44.757  33.638  29.692  1.00  0.00     0.023 A 
ATOM     83  C   UNL A   1      45.599  33.787  30.809  1.00  0.00     0.012 A 
ATOM     84  C   UNL A   1      44.606  34.703  28.782  1.00  0.00     0.148 A 
ATOM     85  C   UNL A   1      46.272  34.987  31.026  1.00  0.00     0.002 A 
ATOM     86  C   UNL A   1      45.317  35.878  28.980  1.00  0.00     0.091 A 
ATOM     87  F   UNL A   1      43.785  34.537  27.736  1.00  0.00    -0.205 F 
ATOM     88  C   UNL A   1      46.142  36.026  30.106  1.00  0.00     0.022 A 
BRANCH  86  89
ATOM     89  S   UNL A   1      45.292  37.226  27.793  1.00  0.00     0.127 S 
ATOM     90  O   UNL A   1      44.232  36.801  26.882  1.00  0.00    -0.237 OA
ATOM     91  O   UNL A   1      44.950  38.372  28.636  1.00  0.00    -0.237 OA
ATOM     92  O   UNL A   1      46.628  37.277  27.215  1.00  0.00    -0.744 OA
ENDBRANCH  86  89
ENDBRANCH  59  82
ENDBRANCH  33  34
ENDBRANCH  26  28
ENDBRANCH  25  26
ENDBRANCH  24  25
ENDBRANCH  23  24
ENDBRANCH   1  23
TORSDOF 22
ENDMDL
