MODEL 1
REMARK VINA RESULT:     -10.2      0.000      0.000
REMARK SMILES Cc1ccc(N2C(=O)N=C(OCCOCCOC(=O)c3ccc(-c4c5nc(c(-c6cccc(S(=O)(=O)[O-])c6F)c6ccc([nH]6)c(-c6cccc(S(=O)(=O)[O-])c6F)c6nc(c(-c7cccc(S(=O)(=O)[O-])c7F)c7ccc4[nH]7)C=C6)C=C5)cc3)/C(=C\c3ccccc3OCc3cccc(C(=O)[O-])c3)C2=O)cc1
REMARK SMILES IDX 13 1 12 2 11 3 10 4 6 5 7 6 102 7 8 8 9 9 83 10 103 11 84 12
REMARK SMILES IDX 5 13 1 14 2 15 3 16 105 17 4 18 104 19 85 20 86 21 90 22
REMARK SMILES IDX 87 23 89 24 88 25 91 26 92 27 93 28 94 29 101 30 95 31 97 32
REMARK SMILES IDX 96 33 98 34 99 35 100 36 14 37 15 38 16 39 17 40 18 41 19 42
REMARK SMILES IDX 20 43 21 44 82 45 22 46 81 47 23 48 24 49 25 50 75 51 26 52
REMARK SMILES IDX 80 53 74 54 76 55 27 56 79 57 73 58 72 59 28 61 60 62 40 63
REMARK SMILES IDX 59 64 41 65 44 66 58 67 77 68 42 69 43 70 57 72 78 73 45 74
REMARK SMILES IDX 29 75 30 76 38 77 31 78 33 79 39 80 32 81 34 82 35 83 36 84
REMARK SMILES IDX 37 85 61 86 62 87 70 88 63 89 65 90 71 91 64 92 66 93 67 94
REMARK SMILES IDX 68 95 69 96 46 97 47 98 55 99 48 100 50 101 56 102 49 103
REMARK SMILES IDX 51 104 52 105 53 106 54 107
REMARK H PARENT 76 60 44 71
REMARK Flexibility Score: inf
ROOT
ATOM      1  C   UNL A   1      43.780  32.740  29.846  1.00  0.00     0.202 C 
ENDROOT
BRANCH   1   2
ATOM      2  C   UNL A   1      42.672  32.356  30.795  1.00  0.00     0.260 C 
BRANCH   2   3
ATOM      3  O   UNL A   1      41.392  31.915  30.237  1.00  0.00    -0.475 OA
BRANCH   3   4
ATOM      4  C   UNL A   1      40.843  30.766  29.815  1.00  0.00     0.231 C 
ATOM      5  N   UNL A   1      40.136  28.309  28.824  1.00  0.00    -0.226 N 
ATOM      6  C   UNL A   1      41.099  28.467  29.825  1.00  0.00     0.358 C 
ATOM      7  C   UNL A   1      39.280  29.336  28.461  1.00  0.00     0.272 C 
ATOM      8  O   UNL A   1      41.576  27.522  30.450  1.00  0.00    -0.245 OA
ATOM      9  N   UNL A   1      41.554  29.728  30.104  1.00  0.00    -0.156 NA
ATOM     10  C   UNL A   1      39.538  30.600  29.169  1.00  0.00     0.103 C 
ATOM     11  O   UNL A   1      38.308  29.217  27.713  1.00  0.00    -0.268 OA
ATOM     12  C   UNL A   1      38.415  31.296  29.379  1.00  0.00     0.031 C 
BRANCH   5  13
ATOM     13  C   UNL A   1      39.918  27.033  28.221  1.00  0.00     0.054 A 
ATOM     14  C   UNL A   1      39.601  23.106  26.488  1.00  0.00     0.044 C 
ATOM     15  C   UNL A   1      39.692  24.483  27.064  1.00  0.00    -0.051 A 
ATOM     16  C   UNL A   1      38.903  24.831  28.163  1.00  0.00     0.005 A 
ATOM     17  C   UNL A   1      40.544  25.437  26.504  1.00  0.00     0.005 A 
ATOM     18  C   UNL A   1      39.043  26.084  28.757  1.00  0.00     0.027 A 
ATOM     19  C   UNL A   1      40.638  26.707  27.065  1.00  0.00     0.027 A 
ENDBRANCH   5  13
BRANCH  12  20
ATOM     20  C   UNL A   1      38.334  32.441  30.221  1.00  0.00     0.018 A 
ATOM     21  C   UNL A   1      38.985  33.688  29.886  1.00  0.00     0.012 A 
ATOM     22  C   UNL A   1      37.426  32.462  31.212  1.00  0.00     0.127 A 
ATOM     23  C   UNL A   1      38.936  34.937  30.464  1.00  0.00     0.001 A 
ATOM     24  C   UNL A   1      37.586  33.633  31.920  1.00  0.00     0.047 A 
ATOM     25  C   UNL A   1      38.171  34.886  31.544  1.00  0.00     0.004 A 
BRANCH  22  26
ATOM     26  O   UNL A   1      36.207  31.770  31.350  1.00  0.00    -0.488 OA
BRANCH  26  27
ATOM     27  C   UNL A   1      35.018  32.201  30.603  1.00  0.00     0.265 C 
BRANCH  27  28
ATOM     28  C   UNL A   1      34.398  33.615  30.433  1.00  0.00    -0.010 A 
ATOM     29  C   UNL A   1      34.241  34.074  29.098  1.00  0.00     0.007 A 
ATOM     30  C   UNL A   1      34.089  34.547  31.421  1.00  0.00     0.017 A 
ATOM     31  C   UNL A   1      33.654  35.300  28.759  1.00  0.00     0.001 A 
ATOM     32  C   UNL A   1      33.549  35.822  31.091  1.00  0.00    -0.002 A 
ATOM     33  C   UNL A   1      33.276  36.171  29.763  1.00  0.00     0.010 A 
BRANCH  32  34
ATOM     34  C   UNL A   1      33.279  36.842  32.129  1.00  0.00     0.071 C 
ATOM     35  O   UNL A   1      34.080  37.678  32.555  1.00  0.00    -0.545 OA
ATOM     36  O   UNL A   1      32.040  36.749  32.627  1.00  0.00    -0.545 OA
ENDBRANCH  32  34
ENDBRANCH  27  28
ENDBRANCH  26  27
ENDBRANCH  22  26
ENDBRANCH  12  20
ENDBRANCH   3   4
ENDBRANCH   2   3
ENDBRANCH   1   2
BRANCH   1  37
ATOM     37  O   UNL A   1      44.344  31.584  29.258  1.00  0.00    -0.374 OA
BRANCH  37  38
ATOM     38  C   UNL A   1      44.955  31.785  28.008  1.00  0.00     0.202 C 
BRANCH  38  39
ATOM     39  C   UNL A   1      44.186  30.930  27.013  1.00  0.00     0.261 C 
BRANCH  39  40
ATOM     40  O   UNL A   1      43.780  29.723  27.743  1.00  0.00    -0.460 OA
BRANCH  40  41
ATOM     41  C   UNL A   1      44.169  28.510  27.229  1.00  0.00     0.338 C 
ATOM     42  O   UNL A   1      43.925  28.157  26.083  1.00  0.00    -0.246 OA
BRANCH  41  43
ATOM     43  C   UNL A   1      44.824  27.585  28.263  1.00  0.00     0.060 A 
ATOM     44  C   UNL A   1      44.226  26.354  28.625  1.00  0.00     0.016 A 
ATOM     45  C   UNL A   1      45.891  27.990  29.063  1.00  0.00     0.016 A 
ATOM     46  C   UNL A   1      44.531  25.668  29.867  1.00  0.00     0.010 A 
ATOM     47  C   UNL A   1      46.164  27.332  30.314  1.00  0.00     0.010 A 
ATOM     48  C   UNL A   1      45.328  26.299  30.847  1.00  0.00    -0.014 A 
BRANCH  48  49
ATOM     49  C   UNL A   1      45.072  26.189  32.451  1.00  0.00     0.031 A 
ATOM     50  C   UNL A   1      44.509  27.449  32.986  1.00  0.00     0.074 A 
ATOM     51  C   UNL A   1      45.347  25.344  33.558  1.00  0.00     0.049 A 
ATOM     52  N   UNL A   1      44.462  27.770  34.242  1.00  0.00    -0.248 NA
ATOM     53  C   UNL A   1      44.076  28.526  32.093  1.00  0.00     0.031 C 
ATOM     54  C   UNL A   1      44.372  25.089  34.640  1.00  0.00     0.029 A 
ATOM     55  N   UNL A   1      46.236  24.283  33.888  1.00  0.00    -0.354 N 
ATOM     56  C   UNL A   1      43.535  28.766  34.260  1.00  0.00     0.074 A 
ATOM     57  C   UNL A   1      43.722  29.436  33.002  1.00  0.00     0.031 C 
ATOM     58  C   UNL A   1      44.799  24.130  35.486  1.00  0.00     0.029 A 
ATOM     59  C   UNL A   1      46.134  23.590  35.118  1.00  0.00     0.049 A 
ATOM     60  H   UNL A   1      46.938  24.025  33.248  1.00  0.00     0.167 HD
ATOM     61  C   UNL A   1      42.418  28.599  35.025  1.00  0.00     0.034 A 
ATOM     62  C   UNL A   1      46.700  22.509  35.854  1.00  0.00     0.034 A 
ATOM     63  C   UNL A   1      42.555  27.537  36.100  1.00  0.00     0.049 A 
ATOM     64  C   UNL A   1      46.577  23.128  37.248  1.00  0.00     0.074 A 
ATOM     65  C   UNL A   1      41.688  26.590  36.628  1.00  0.00     0.029 A 
ATOM     66  N   UNL A   1      43.810  27.234  36.727  1.00  0.00    -0.354 N 
ATOM     67  N   UNL A   1      46.442  24.435  37.355  1.00  0.00    -0.248 NA
ATOM     68  C   UNL A   1      46.349  22.454  38.522  1.00  0.00     0.031 C 
ATOM     69  C   UNL A   1      42.408  25.735  37.527  1.00  0.00     0.029 A 
ATOM     70  C   UNL A   1      43.746  26.122  37.592  1.00  0.00     0.049 A 
ATOM     71  H   UNL A   1      44.633  27.751  36.568  1.00  0.00     0.167 HD
ATOM     72  C   UNL A   1      45.663  24.681  38.437  1.00  0.00     0.074 A 
ATOM     73  C   UNL A   1      45.799  23.461  39.236  1.00  0.00     0.031 C 
ATOM     74  C   UNL A   1      44.808  25.743  38.572  1.00  0.00     0.034 A 
BRANCH  61  75
ATOM     75  C   UNL A   1      41.105  29.327  34.604  1.00  0.00     0.023 A 
ATOM     76  C   UNL A   1      40.476  28.923  33.416  1.00  0.00     0.012 A 
ATOM     77  C   UNL A   1      40.427  30.391  35.298  1.00  0.00     0.148 A 
ATOM     78  C   UNL A   1      39.245  29.464  32.995  1.00  0.00     0.002 A 
ATOM     79  C   UNL A   1      39.137  30.817  34.964  1.00  0.00     0.091 A 
ATOM     80  F   UNL A   1      41.068  31.138  36.202  1.00  0.00    -0.205 F 
ATOM     81  C   UNL A   1      38.547  30.366  33.793  1.00  0.00     0.022 A 
BRANCH  79  82
ATOM     82  S   UNL A   1      38.153  31.892  36.042  1.00  0.00     0.127 S 
ATOM     83  O   UNL A   1      39.076  32.992  36.318  1.00  0.00    -0.237 OA
ATOM     84  O   UNL A   1      37.026  32.248  35.180  1.00  0.00    -0.237 OA
ATOM     85  O   UNL A   1      37.787  31.085  37.201  1.00  0.00    -0.744 OA
ENDBRANCH  79  82
ENDBRANCH  61  75
BRANCH  62  86
ATOM     86  C   UNL A   1      47.459  21.024  35.536  1.00  0.00     0.023 A 
ATOM     87  C   UNL A   1      46.990  20.260  34.376  1.00  0.00     0.012 A 
ATOM     88  C   UNL A   1      48.854  20.744  35.844  1.00  0.00     0.148 A 
ATOM     89  C   UNL A   1      47.904  19.579  33.451  1.00  0.00     0.002 A 
ATOM     90  C   UNL A   1      49.769  20.121  34.877  1.00  0.00     0.091 A 
ATOM     91  F   UNL A   1      49.347  21.246  36.982  1.00  0.00    -0.205 F 
ATOM     92  C   UNL A   1      49.293  19.580  33.668  1.00  0.00     0.022 A 
BRANCH  90  93
ATOM     93  S   UNL A   1      51.617  20.596  34.781  1.00  0.00     0.127 S 
ATOM     94  O   UNL A   1      51.956  20.286  33.397  1.00  0.00    -0.237 OA
ATOM     95  O   UNL A   1      51.613  22.037  35.058  1.00  0.00    -0.237 OA
ATOM     96  O   UNL A   1      52.261  19.767  35.790  1.00  0.00    -0.744 OA
ENDBRANCH  90  93
ENDBRANCH  62  86
BRANCH  74  97
ATOM     97  C   UNL A   1      45.007  26.573  39.800  1.00  0.00     0.023 A 
ATOM     98  C   UNL A   1      44.197  26.406  40.944  1.00  0.00     0.012 A 
ATOM     99  C   UNL A   1      46.135  27.408  39.903  1.00  0.00     0.148 A 
ATOM    100  C   UNL A   1      44.473  27.077  42.128  1.00  0.00     0.002 A 
ATOM    101  C   UNL A   1      46.468  27.980  41.113  1.00  0.00     0.091 A 
ATOM    102  F   UNL A   1      46.895  27.661  38.833  1.00  0.00    -0.205 F 
ATOM    103  C   UNL A   1      45.624  27.847  42.219  1.00  0.00     0.022 A 
BRANCH 101 104
ATOM    104  S   UNL A   1      48.046  28.795  41.337  1.00  0.00     0.127 S 
ATOM    105  O   UNL A   1      48.972  27.753  40.901  1.00  0.00    -0.237 OA
ATOM    106  O   UNL A   1      47.919  29.933  40.426  1.00  0.00    -0.237 OA
ATOM    107  O   UNL A   1      48.126  29.158  42.746  1.00  0.00    -0.744 OA
ENDBRANCH 101 104
ENDBRANCH  74  97
ENDBRANCH  48  49
ENDBRANCH  41  43
ENDBRANCH  40  41
ENDBRANCH  39  40
ENDBRANCH  38  39
ENDBRANCH  37  38
ENDBRANCH   1  37
TORSDOF 22
ENDMDL
MODEL 2
REMARK VINA RESULT:     -10.1      6.088     12.877
REMARK SMILES Cc1ccc(N2C(=O)N=C(OCCOCCOC(=O)c3ccc(-c4c5nc(c(-c6cccc(S(=O)(=O)[O-])c6F)c6ccc([nH]6)c(-c6cccc(S(=O)(=O)[O-])c6F)c6nc(c(-c7cccc(S(=O)(=O)[O-])c7F)c7ccc4[nH]7)C=C6)C=C5)cc3)/C(=C\c3ccccc3OCc3cccc(C(=O)[O-])c3)C2=O)cc1
REMARK SMILES IDX 13 1 12 2 11 3 10 4 6 5 7 6 102 7 8 8 9 9 83 10 103 11 84 12
REMARK SMILES IDX 5 13 1 14 2 15 3 16 105 17 4 18 104 19 85 20 86 21 90 22
REMARK SMILES IDX 87 23 89 24 88 25 91 26 92 27 93 28 94 29 101 30 95 31 97 32
REMARK SMILES IDX 96 33 98 34 99 35 100 36 14 37 15 38 16 39 17 40 18 41 19 42
REMARK SMILES IDX 20 43 21 44 82 45 22 46 81 47 23 48 24 49 25 50 75 51 26 52
REMARK SMILES IDX 80 53 74 54 76 55 27 56 79 57 73 58 72 59 28 61 60 62 40 63
REMARK SMILES IDX 59 64 41 65 44 66 58 67 77 68 42 69 43 70 57 72 78 73 45 74
REMARK SMILES IDX 29 75 30 76 38 77 31 78 33 79 39 80 32 81 34 82 35 83 36 84
REMARK SMILES IDX 37 85 61 86 62 87 70 88 63 89 65 90 71 91 64 92 66 93 67 94
REMARK SMILES IDX 68 95 69 96 46 97 47 98 55 99 48 100 50 101 56 102 49 103
REMARK SMILES IDX 51 104 52 105 53 106 54 107
REMARK H PARENT 76 60 44 71
REMARK Flexibility Score: inf
ROOT
ATOM      1  C   UNL A   1      43.382  31.278  37.745  1.00  0.00     0.202 C 
ENDROOT
BRANCH   1   2
ATOM      2  C   UNL A   1      42.453  32.293  38.362  1.00  0.00     0.260 C 
BRANCH   2   3
ATOM      3  O   UNL A   1      41.929  33.369  37.518  1.00  0.00    -0.475 OA
BRANCH   3   4
ATOM      4  C   UNL A   1      42.396  34.199  36.573  1.00  0.00     0.231 C 
ATOM      5  N   UNL A   1      43.754  35.818  34.825  1.00  0.00    -0.226 N 
ATOM      6  C   UNL A   1      44.055  34.461  34.981  1.00  0.00     0.358 C 
ATOM      7  C   UNL A   1      42.588  36.374  35.325  1.00  0.00     0.272 C 
ATOM      8  O   UNL A   1      44.825  33.857  34.238  1.00  0.00    -0.245 OA
ATOM      9  N   UNL A   1      43.488  33.780  36.026  1.00  0.00    -0.156 NA
ATOM     10  C   UNL A   1      41.758  35.424  36.083  1.00  0.00     0.103 C 
ATOM     11  O   UNL A   1      42.185  37.512  35.082  1.00  0.00    -0.268 OA
ATOM     12  C   UNL A   1      40.452  35.681  35.951  1.00  0.00     0.031 C 
BRANCH   5  13
ATOM     13  C   UNL A   1      44.591  36.659  34.031  1.00  0.00     0.054 A 
ATOM     14  C   UNL A   1      47.388  38.990  31.735  1.00  0.00     0.044 C 
ATOM     15  C   UNL A   1      46.399  38.210  32.542  1.00  0.00    -0.051 A 
ATOM     16  C   UNL A   1      45.371  37.516  31.901  1.00  0.00     0.005 A 
ATOM     17  C   UNL A   1      46.479  38.181  33.936  1.00  0.00     0.005 A 
ATOM     18  C   UNL A   1      44.497  36.720  32.637  1.00  0.00     0.027 A 
ATOM     19  C   UNL A   1      45.568  37.430  34.673  1.00  0.00     0.027 A 
ENDBRANCH   5  13
BRANCH  12  20
ATOM     20  C   UNL A   1      39.419  34.806  36.393  1.00  0.00     0.018 A 
ATOM     21  C   UNL A   1      39.171  34.559  37.796  1.00  0.00     0.012 A 
ATOM     22  C   UNL A   1      38.483  34.403  35.516  1.00  0.00     0.127 A 
ATOM     23  C   UNL A   1      38.168  33.876  38.447  1.00  0.00     0.001 A 
ATOM     24  C   UNL A   1      37.643  33.519  36.158  1.00  0.00     0.047 A 
ATOM     25  C   UNL A   1      37.355  33.339  37.550  1.00  0.00     0.004 A 
BRANCH  22  26
ATOM     26  O   UNL A   1      38.025  35.003  34.327  1.00  0.00    -0.488 OA
BRANCH  26  27
ATOM     27  C   UNL A   1      37.364  34.196  33.293  1.00  0.00     0.265 C 
BRANCH  27  28
ATOM     28  C   UNL A   1      36.104  34.497  32.438  1.00  0.00    -0.010 A 
ATOM     29  C   UNL A   1      36.016  33.821  31.192  1.00  0.00     0.007 A 
ATOM     30  C   UNL A   1      35.104  35.439  32.674  1.00  0.00     0.017 A 
ATOM     31  C   UNL A   1      34.925  33.934  30.319  1.00  0.00     0.001 A 
ATOM     32  C   UNL A   1      34.022  35.611  31.766  1.00  0.00    -0.002 A 
ATOM     33  C   UNL A   1      33.904  34.815  30.621  1.00  0.00     0.010 A 
BRANCH  32  34
ATOM     34  C   UNL A   1      32.993  36.653  31.976  1.00  0.00     0.071 C 
ATOM     35  O   UNL A   1      32.876  37.373  32.971  1.00  0.00    -0.545 OA
ATOM     36  O   UNL A   1      32.124  36.725  30.961  1.00  0.00    -0.545 OA
ENDBRANCH  32  34
ENDBRANCH  27  28
ENDBRANCH  26  27
ENDBRANCH  22  26
ENDBRANCH  12  20
ENDBRANCH   3   4
ENDBRANCH   2   3
ENDBRANCH   1   2
BRANCH   1  37
ATOM     37  O   UNL A   1      42.654  30.144  37.318  1.00  0.00    -0.374 OA
BRANCH  37  38
ATOM     38  C   UNL A   1      42.367  30.100  35.942  1.00  0.00     0.202 C 
BRANCH  38  39
ATOM     39  C   UNL A   1      41.067  29.322  35.800  1.00  0.00     0.261 C 
BRANCH  39  40
ATOM     40  O   UNL A   1      40.697  29.405  34.382  1.00  0.00    -0.460 OA
BRANCH  40  41
ATOM     41  C   UNL A   1      39.531  30.059  34.069  1.00  0.00     0.338 C 
ATOM     42  O   UNL A   1      38.420  29.602  34.304  1.00  0.00    -0.246 OA
BRANCH  41  43
ATOM     43  C   UNL A   1      39.746  31.357  33.279  1.00  0.00     0.060 A 
ATOM     44  C   UNL A   1      39.210  31.519  31.979  1.00  0.00     0.016 A 
ATOM     45  C   UNL A   1      40.654  32.337  33.679  1.00  0.00     0.016 A 
ATOM     46  C   UNL A   1      39.728  32.489  31.031  1.00  0.00     0.010 A 
ATOM     47  C   UNL A   1      41.195  33.271  32.726  1.00  0.00     0.010 A 
ATOM     48  C   UNL A   1      40.909  33.205  31.324  1.00  0.00    -0.014 A 
BRANCH  48  49
ATOM     49  C   UNL A   1      42.055  33.575  30.230  1.00  0.00     0.031 A 
ATOM     50  C   UNL A   1      42.840  32.376  29.856  1.00  0.00     0.074 A 
ATOM     51  C   UNL A   1      42.672  34.695  29.612  1.00  0.00     0.049 A 
ATOM     52  N   UNL A   1      43.980  32.395  29.238  1.00  0.00    -0.248 NA
ATOM     53  C   UNL A   1      42.439  31.040  30.300  1.00  0.00     0.031 C 
ATOM     54  C   UNL A   1      43.057  34.718  28.185  1.00  0.00     0.029 A 
ATOM     55  N   UNL A   1      42.800  36.093  29.838  1.00  0.00    -0.354 N 
ATOM     56  C   UNL A   1      44.089  31.120  28.777  1.00  0.00     0.074 A 
ATOM     57  C   UNL A   1      43.447  30.329  29.791  1.00  0.00     0.031 C 
ATOM     58  C   UNL A   1      43.472  35.941  27.796  1.00  0.00     0.029 A 
ATOM     59  C   UNL A   1      43.441  36.937  28.898  1.00  0.00     0.049 A 
ATOM     60  H   UNL A   1      42.436  36.484  30.664  1.00  0.00     0.167 HD
ATOM     61  C   UNL A   1      44.204  30.923  27.432  1.00  0.00     0.034 A 
ATOM     62  C   UNL A   1      43.764  38.302  28.644  1.00  0.00     0.034 A 
ATOM     63  C   UNL A   1      44.645  32.153  26.660  1.00  0.00     0.049 A 
ATOM     64  C   UNL A   1      45.120  38.067  27.977  1.00  0.00     0.074 A 
ATOM     65  C   UNL A   1      44.313  32.674  25.417  1.00  0.00     0.029 A 
ATOM     66  N   UNL A   1      45.494  33.157  27.234  1.00  0.00    -0.354 N 
ATOM     67  N   UNL A   1      45.744  36.924  28.186  1.00  0.00    -0.248 NA
ATOM     68  C   UNL A   1      45.758  38.845  26.920  1.00  0.00     0.031 C 
ATOM     69  C   UNL A   1      44.928  33.961  25.263  1.00  0.00     0.029 A 
ATOM     70  C   UNL A   1      45.665  34.283  26.401  1.00  0.00     0.049 A 
ATOM     71  H   UNL A   1      45.913  33.070  28.120  1.00  0.00     0.167 HD
ATOM     72  C   UNL A   1      46.430  36.617  27.058  1.00  0.00     0.074 A 
ATOM     73  C   UNL A   1      46.577  37.911  26.388  1.00  0.00     0.031 C 
ATOM     74  C   UNL A   1      46.692  35.348  26.610  1.00  0.00     0.034 A 
BRANCH  61  75
ATOM     75  C   UNL A   1      43.690  29.582  26.824  1.00  0.00     0.023 A 
ATOM     76  C   UNL A   1      42.367  29.530  26.358  1.00  0.00     0.012 A 
ATOM     77  C   UNL A   1      44.419  28.350  26.666  1.00  0.00     0.148 A 
ATOM     78  C   UNL A   1      41.839  28.390  25.719  1.00  0.00     0.002 A 
ATOM     79  C   UNL A   1      43.948  27.279  25.900  1.00  0.00     0.091 A 
ATOM     80  F   UNL A   1      45.520  28.109  27.385  1.00  0.00    -0.205 F 
ATOM     81  C   UNL A   1      42.641  27.288  25.438  1.00  0.00     0.022 A 
BRANCH  79  82
ATOM     82  S   UNL A   1      45.003  25.888  25.413  1.00  0.00     0.127 S 
ATOM     83  O   UNL A   1      46.064  26.547  24.653  1.00  0.00    -0.237 OA
ATOM     84  O   UNL A   1      45.427  25.352  26.706  1.00  0.00    -0.237 OA
ATOM     85  O   UNL A   1      44.158  24.984  24.640  1.00  0.00    -0.744 OA
ENDBRANCH  79  82
ENDBRANCH  61  75
BRANCH  62  86
ATOM     86  C   UNL A   1      43.128  39.837  28.992  1.00  0.00     0.023 A 
ATOM     87  C   UNL A   1      41.725  40.082  28.645  1.00  0.00     0.012 A 
ATOM     88  C   UNL A   1      43.564  40.660  30.111  1.00  0.00     0.148 A 
ATOM     89  C   UNL A   1      40.801  40.801  29.531  1.00  0.00     0.002 A 
ATOM     90  C   UNL A   1      42.619  41.317  31.026  1.00  0.00     0.091 A 
ATOM     91  F   UNL A   1      44.868  40.654  30.410  1.00  0.00    -0.205 F 
ATOM     92  C   UNL A   1      41.239  41.346  30.751  1.00  0.00     0.022 A 
BRANCH  90  93
ATOM     93  S   UNL A   1      42.990  41.522  32.889  1.00  0.00     0.127 S 
ATOM     94  O   UNL A   1      43.871  42.684  32.915  1.00  0.00    -0.237 OA
ATOM     95  O   UNL A   1      41.671  41.791  33.472  1.00  0.00    -0.237 OA
ATOM     96  O   UNL A   1      43.600  40.259  33.280  1.00  0.00    -0.744 OA
ENDBRANCH  90  93
ENDBRANCH  62  86
BRANCH  74  97
ATOM     97  C   UNL A   1      48.133  35.045  26.348  1.00  0.00     0.023 A 
ATOM     98  C   UNL A   1      48.739  35.352  25.111  1.00  0.00     0.012 A 
ATOM     99  C   UNL A   1      48.961  34.622  27.404  1.00  0.00     0.148 A 
ATOM    100  C   UNL A   1      50.105  35.200  24.918  1.00  0.00     0.002 A 
ATOM    101  C   UNL A   1      50.329  34.584  27.241  1.00  0.00     0.091 A 
ATOM    102  F   UNL A   1      48.434  34.248  28.574  1.00  0.00    -0.205 F 
ATOM    103  C   UNL A   1      50.905  34.838  25.993  1.00  0.00     0.022 A 
BRANCH 101 104
ATOM    104  S   UNL A   1      51.412  34.337  28.645  1.00  0.00     0.127 S 
ATOM    105  O   UNL A   1      52.670  34.877  28.134  1.00  0.00    -0.237 OA
ATOM    106  O   UNL A   1      50.757  35.153  29.667  1.00  0.00    -0.237 OA
ATOM    107  O   UNL A   1      51.408  32.907  28.923  1.00  0.00    -0.744 OA
ENDBRANCH 101 104
ENDBRANCH  74  97
ENDBRANCH  48  49
ENDBRANCH  41  43
ENDBRANCH  40  41
ENDBRANCH  39  40
ENDBRANCH  38  39
ENDBRANCH  37  38
ENDBRANCH   1  37
TORSDOF 22
ENDMDL
MODEL 3
REMARK VINA RESULT:      -9.9      3.798     10.572
REMARK SMILES Cc1ccc(N2C(=O)N=C(OCCOCCOC(=O)c3ccc(-c4c5nc(c(-c6cccc(S(=O)(=O)[O-])c6F)c6ccc([nH]6)c(-c6cccc(S(=O)(=O)[O-])c6F)c6nc(c(-c7cccc(S(=O)(=O)[O-])c7F)c7ccc4[nH]7)C=C6)C=C5)cc3)/C(=C\c3ccccc3OCc3cccc(C(=O)[O-])c3)C2=O)cc1
REMARK SMILES IDX 13 1 12 2 11 3 10 4 6 5 7 6 102 7 8 8 9 9 83 10 103 11 84 12
REMARK SMILES IDX 5 13 1 14 2 15 3 16 105 17 4 18 104 19 85 20 86 21 90 22
REMARK SMILES IDX 87 23 89 24 88 25 91 26 92 27 93 28 94 29 101 30 95 31 97 32
REMARK SMILES IDX 96 33 98 34 99 35 100 36 14 37 15 38 16 39 17 40 18 41 19 42
REMARK SMILES IDX 20 43 21 44 82 45 22 46 81 47 23 48 24 49 25 50 75 51 26 52
REMARK SMILES IDX 80 53 74 54 76 55 27 56 79 57 73 58 72 59 28 61 60 62 40 63
REMARK SMILES IDX 59 64 41 65 44 66 58 67 77 68 42 69 43 70 57 72 78 73 45 74
REMARK SMILES IDX 29 75 30 76 38 77 31 78 33 79 39 80 32 81 34 82 35 83 36 84
REMARK SMILES IDX 37 85 61 86 62 87 70 88 63 89 65 90 71 91 64 92 66 93 67 94
REMARK SMILES IDX 68 95 69 96 46 97 47 98 55 99 48 100 50 101 56 102 49 103
REMARK SMILES IDX 51 104 52 105 53 106 54 107
REMARK H PARENT 76 60 44 71
REMARK Flexibility Score: inf
ROOT
ATOM      1  C   UNL A   1      46.213  27.281  25.484  1.00  0.00     0.202 C 
ENDROOT
BRANCH   1   2
ATOM      2  C   UNL A   1      45.699  25.944  25.011  1.00  0.00     0.260 C 
BRANCH   2   3
ATOM      3  O   UNL A   1      44.292  25.612  25.241  1.00  0.00    -0.475 OA
BRANCH   3   4
ATOM      4  C   UNL A   1      43.393  25.756  26.227  1.00  0.00     0.231 C 
ATOM      5  N   UNL A   1      41.620  26.491  28.186  1.00  0.00    -0.226 N 
ATOM      6  C   UNL A   1      41.498  26.923  26.861  1.00  0.00     0.358 C 
ATOM      7  C   UNL A   1      42.466  25.455  28.545  1.00  0.00     0.272 C 
ATOM      8  O   UNL A   1      40.509  27.519  26.440  1.00  0.00    -0.245 OA
ATOM      9  N   UNL A   1      42.539  26.698  26.000  1.00  0.00    -0.156 NA
ATOM     10  C   UNL A   1      43.258  24.923  27.425  1.00  0.00     0.103 C 
ATOM     11  O   UNL A   1      42.497  24.918  29.653  1.00  0.00    -0.268 OA
ATOM     12  C   UNL A   1      43.489  23.611  27.551  1.00  0.00     0.031 C 
BRANCH   5  13
ATOM     13  C   UNL A   1      40.776  27.029  29.204  1.00  0.00     0.054 A 
ATOM     14  C   UNL A   1      38.241  28.328  32.431  1.00  0.00     0.044 C 
ATOM     15  C   UNL A   1      39.103  27.896  31.288  1.00  0.00    -0.051 A 
ATOM     16  C   UNL A   1      40.363  28.472  31.109  1.00  0.00     0.005 A 
ATOM     17  C   UNL A   1      38.656  26.933  30.380  1.00  0.00     0.005 A 
ATOM     18  C   UNL A   1      41.205  28.016  30.097  1.00  0.00     0.027 A 
ATOM     19  C   UNL A   1      39.477  26.522  29.335  1.00  0.00     0.027 A 
ENDBRANCH   5  13
BRANCH  12  20
ATOM     20  C   UNL A   1      44.039  22.796  26.521  1.00  0.00     0.018 A 
ATOM     21  C   UNL A   1      45.423  22.902  26.115  1.00  0.00     0.012 A 
ATOM     22  C   UNL A   1      43.346  21.727  26.092  1.00  0.00     0.127 A 
ATOM     23  C   UNL A   1      46.191  22.145  25.259  1.00  0.00     0.001 A 
ATOM     24  C   UNL A   1      44.046  21.146  25.058  1.00  0.00     0.047 A 
ATOM     25  C   UNL A   1      45.436  21.203  24.715  1.00  0.00     0.004 A 
BRANCH  22  26
ATOM     26  O   UNL A   1      42.365  20.953  26.742  1.00  0.00    -0.488 OA
BRANCH  26  27
ATOM     27  C   UNL A   1      41.020  20.819  26.165  1.00  0.00     0.265 C 
BRANCH  27  28
ATOM     28  C   UNL A   1      39.835  21.822  26.141  1.00  0.00    -0.010 A 
ATOM     29  C   UNL A   1      40.042  23.052  26.821  1.00  0.00     0.007 A 
ATOM     30  C   UNL A   1      38.548  21.627  25.645  1.00  0.00     0.017 A 
ATOM     31  C   UNL A   1      39.102  24.091  26.856  1.00  0.00     0.001 A 
ATOM     32  C   UNL A   1      37.560  22.649  25.729  1.00  0.00    -0.002 A 
ATOM     33  C   UNL A   1      37.860  23.901  26.281  1.00  0.00     0.010 A 
BRANCH  32  34
ATOM     34  C   UNL A   1      36.173  22.427  25.266  1.00  0.00     0.071 C 
ATOM     35  O   UNL A   1      35.233  23.219  25.371  1.00  0.00    -0.545 OA
ATOM     36  O   UNL A   1      36.001  21.212  24.733  1.00  0.00    -0.545 OA
ENDBRANCH  32  34
ENDBRANCH  27  28
ENDBRANCH  26  27
ENDBRANCH  22  26
ENDBRANCH  12  20
ENDBRANCH   3   4
ENDBRANCH   2   3
ENDBRANCH   1   2
BRANCH   1  37
ATOM     37  O   UNL A   1      47.566  27.447  25.106  1.00  0.00    -0.374 OA
BRANCH  37  38
ATOM     38  C   UNL A   1      48.278  26.254  24.889  1.00  0.00     0.202 C 
BRANCH  38  39
ATOM     39  C   UNL A   1      49.687  26.494  25.409  1.00  0.00     0.261 C 
BRANCH  39  40
ATOM     40  O   UNL A   1      49.569  26.592  26.869  1.00  0.00    -0.460 OA
BRANCH  40  41
ATOM     41  C   UNL A   1      49.573  25.421  27.585  1.00  0.00     0.338 C 
ATOM     42  O   UNL A   1      50.279  24.463  27.302  1.00  0.00    -0.246 OA
BRANCH  41  43
ATOM     43  C   UNL A   1      48.514  25.374  28.695  1.00  0.00     0.060 A 
ATOM     44  C   UNL A   1      47.148  25.160  28.395  1.00  0.00     0.016 A 
ATOM     45  C   UNL A   1      48.785  25.764  30.007  1.00  0.00     0.016 A 
ATOM     46  C   UNL A   1      46.077  25.539  29.299  1.00  0.00     0.010 A 
ATOM     47  C   UNL A   1      47.723  26.178  30.886  1.00  0.00     0.010 A 
ATOM     48  C   UNL A   1      46.361  26.293  30.457  1.00  0.00    -0.014 A 
BRANCH  48  49
ATOM     49  C   UNL A   1      45.412  27.482  31.036  1.00  0.00     0.031 A 
ATOM     50  C   UNL A   1      44.624  27.014  32.199  1.00  0.00     0.074 A 
ATOM     51  C   UNL A   1      44.958  28.788  30.715  1.00  0.00     0.049 A 
ATOM     52  N   UNL A   1      43.591  27.624  32.694  1.00  0.00    -0.248 NA
ATOM     53  C   UNL A   1      44.878  25.708  32.811  1.00  0.00     0.031 C 
ATOM     54  C   UNL A   1      44.790  29.855  31.725  1.00  0.00     0.029 A 
ATOM     55  N   UNL A   1      44.878  29.632  29.573  1.00  0.00    -0.354 N 
ATOM     56  C   UNL A   1      43.479  27.066  33.929  1.00  0.00     0.074 A 
ATOM     57  C   UNL A   1      43.917  25.710  33.737  1.00  0.00     0.031 C 
ATOM     58  C   UNL A   1      44.509  31.045  31.156  1.00  0.00     0.029 A 
ATOM     59  C   UNL A   1      44.432  30.972  29.674  1.00  0.00     0.049 A 
ATOM     60  H   UNL A   1      45.138  29.277  28.692  1.00  0.00     0.167 HD
ATOM     61  C   UNL A   1      43.553  27.881  35.019  1.00  0.00     0.034 A 
ATOM     62  C   UNL A   1      44.229  32.155  28.904  1.00  0.00     0.034 A 
ATOM     63  C   UNL A   1      43.302  29.347  34.717  1.00  0.00     0.049 A 
ATOM     64  C   UNL A   1      42.976  32.651  29.627  1.00  0.00     0.074 A 
ATOM     65  C   UNL A   1      43.844  30.531  35.197  1.00  0.00     0.029 A 
ATOM     66  N   UNL A   1      42.437  29.776  33.656  1.00  0.00    -0.354 N 
ATOM     67  N   UNL A   1      42.264  31.794  30.331  1.00  0.00    -0.248 NA
ATOM     68  C   UNL A   1      42.547  34.027  29.857  1.00  0.00     0.031 C 
ATOM     69  C   UNL A   1      43.333  31.632  34.432  1.00  0.00     0.029 A 
ATOM     70  C   UNL A   1      42.455  31.171  33.453  1.00  0.00     0.049 A 
ATOM     71  H   UNL A   1      41.887  29.157  33.123  1.00  0.00     0.167 HD
ATOM     72  C   UNL A   1      41.735  32.464  31.384  1.00  0.00     0.074 A 
ATOM     73  C   UNL A   1      41.764  33.861  30.946  1.00  0.00     0.031 C 
ATOM     74  C   UNL A   1      41.471  31.923  32.616  1.00  0.00     0.034 A 
BRANCH  61  75
ATOM     75  C   UNL A   1      44.074  27.289  36.365  1.00  0.00     0.023 A 
ATOM     76  C   UNL A   1      43.172  26.570  37.165  1.00  0.00     0.012 A 
ATOM     77  C   UNL A   1      45.403  27.379  36.911  1.00  0.00     0.148 A 
ATOM     78  C   UNL A   1      43.568  25.929  38.355  1.00  0.00     0.002 A 
ATOM     79  C   UNL A   1      45.830  26.619  38.005  1.00  0.00     0.091 A 
ATOM     80  F   UNL A   1      46.253  28.322  36.492  1.00  0.00    -0.205 F 
ATOM     81  C   UNL A   1      44.904  25.903  38.747  1.00  0.00     0.022 A 
BRANCH  79  82
ATOM     82  S   UNL A   1      47.577  26.466  38.466  1.00  0.00     0.127 S 
ATOM     83  O   UNL A   1      47.528  25.515  39.576  1.00  0.00    -0.237 OA
ATOM     84  O   UNL A   1      48.176  25.937  37.241  1.00  0.00    -0.237 OA
ATOM     85  O   UNL A   1      48.026  27.808  38.819  1.00  0.00    -0.744 OA
ENDBRANCH  79  82
ENDBRANCH  61  75
BRANCH  62  86
ATOM     86  C   UNL A   1      44.893  32.898  27.530  1.00  0.00     0.023 A 
ATOM     87  C   UNL A   1      44.198  32.706  26.254  1.00  0.00     0.012 A 
ATOM     88  C   UNL A   1      45.631  34.153  27.564  1.00  0.00     0.148 A 
ATOM     89  C   UNL A   1      43.993  33.793  25.289  1.00  0.00     0.002 A 
ATOM     90  C   UNL A   1      45.363  35.254  26.628  1.00  0.00     0.091 A 
ATOM     91  F   UNL A   1      46.444  34.362  28.605  1.00  0.00    -0.205 F 
ATOM     92  C   UNL A   1      44.513  35.078  25.521  1.00  0.00     0.022 A 
BRANCH  90  93
ATOM     93  S   UNL A   1      45.496  37.086  27.155  1.00  0.00     0.127 S 
ATOM     94  O   UNL A   1      44.275  37.666  26.609  1.00  0.00    -0.237 OA
ATOM     95  O   UNL A   1      45.491  37.020  28.621  1.00  0.00    -0.237 OA
ATOM     96  O   UNL A   1      46.739  37.549  26.555  1.00  0.00    -0.744 OA
ENDBRANCH  90  93
ENDBRANCH  62  86
BRANCH  74  97
ATOM     97  C   UNL A   1      40.070  32.102  33.107  1.00  0.00     0.023 A 
ATOM     98  C   UNL A   1      38.965  31.602  32.386  1.00  0.00     0.012 A 
ATOM     99  C   UNL A   1      39.843  32.609  34.400  1.00  0.00     0.148 A 
ATOM    100  C   UNL A   1      37.680  31.646  32.911  1.00  0.00     0.002 A 
ATOM    101  C   UNL A   1      38.585  32.544  34.960  1.00  0.00     0.091 A 
ATOM    102  F   UNL A   1      40.839  33.162  35.099  1.00  0.00    -0.205 F 
ATOM    103  C   UNL A   1      37.494  32.096  34.210  1.00  0.00     0.022 A 
BRANCH 101 104
ATOM    104  S   UNL A   1      38.335  32.905  36.696  1.00  0.00     0.127 S 
ATOM    105  O   UNL A   1      39.170  31.883  37.324  1.00  0.00    -0.237 OA
ATOM    106  O   UNL A   1      38.853  34.271  36.787  1.00  0.00    -0.237 OA
ATOM    107  O   UNL A   1      36.904  32.786  36.940  1.00  0.00    -0.744 OA
ENDBRANCH 101 104
ENDBRANCH  74  97
ENDBRANCH  48  49
ENDBRANCH  41  43
ENDBRANCH  40  41
ENDBRANCH  39  40
ENDBRANCH  38  39
ENDBRANCH  37  38
ENDBRANCH   1  37
TORSDOF 22
ENDMDL
