MODEL 1
REMARK VINA RESULT:     -10.8      0.000      0.000
REMARK SMILES Cc1cccc(-c2cc(OCC(=O)OCCOCCOC(=O)c3ccc(-c4c5nc(c(-c6cccc(S(=O)(=O)[O-])c6F)c6ccc([nH]6)c(-c6cccc(S(=O)(=O)[O-])c6F)c6nc(c(-c7cccc(S(=O)(=O)[O-])c7F)c7ccc4[nH]7)C=C6)C=C5)cc3)nc(Nc3ccccc3C)n2)c1
REMARK SMILES IDX 16 1 15 2 14 3 12 4 13 5 11 6 10 7 9 8 7 9 8 10 96 11 87 12
REMARK SMILES IDX 86 13 6 14 1 15 2 16 3 17 97 18 4 19 5 20 88 21 89 23 90 24
REMARK SMILES IDX 94 25 91 26 93 27 95 28 92 29 17 30 18 31 19 32 20 33 21 34
REMARK SMILES IDX 22 35 23 36 24 37 85 38 25 39 84 40 26 41 27 42 28 43 78 44
REMARK SMILES IDX 29 45 83 46 77 47 79 48 30 49 82 50 76 51 75 52 31 54 63 55
REMARK SMILES IDX 43 56 62 57 44 58 47 59 61 60 80 61 45 62 46 63 60 65 81 66
REMARK SMILES IDX 48 67 32 68 33 69 41 70 34 71 36 72 42 73 35 74 37 75 38 76
REMARK SMILES IDX 39 77 40 78 64 79 65 80 73 81 66 82 68 83 74 84 67 85 69 86
REMARK SMILES IDX 70 87 71 88 72 89 49 90 50 91 58 92 51 93 53 94 59 95 52 96
REMARK SMILES IDX 54 97 55 98 56 99 57 100
REMARK H PARENT 88 22 79 53 47 64
REMARK Flexibility Score: inf
ROOT
ATOM      1  C   UNL A   1      37.175  29.099  29.337  1.00  0.00     0.202 C 
ENDROOT
BRANCH   1   2
ATOM      2  C   UNL A   1      38.462  28.369  29.071  1.00  0.00     0.261 C 
BRANCH   2   3
ATOM      3  O   UNL A   1      39.409  29.002  28.190  1.00  0.00    -0.461 OA
BRANCH   3   4
ATOM      4  C   UNL A   1      40.117  28.149  27.389  1.00  0.00     0.344 C 
ATOM      5  O   UNL A   1      41.035  28.458  26.651  1.00  0.00    -0.248 OA
BRANCH   4   6
ATOM      6  C   UNL A   1      39.594  26.721  27.427  1.00  0.00     0.353 C 
BRANCH   6   7
ATOM      7  O   UNL A   1      40.498  25.639  27.477  1.00  0.00    -0.466 OA
BRANCH   7   8
ATOM      8  C   UNL A   1      39.998  24.463  26.995  1.00  0.00     0.219 A 
ATOM      9  C   UNL A   1      38.409  23.056  26.026  1.00  0.00     0.080 A 
ATOM     10  C   UNL A   1      38.747  24.330  26.431  1.00  0.00     0.097 A 
ATOM     11  N   UNL A   1      39.265  22.019  26.166  1.00  0.00    -0.212 NA
ATOM     12  C   UNL A   1      40.469  22.251  26.718  1.00  0.00     0.231 A 
ATOM     13  N   UNL A   1      40.856  23.448  27.155  1.00  0.00    -0.177 NA
BRANCH   9  14
ATOM     14  C   UNL A   1      37.134  22.744  25.351  1.00  0.00     0.001 A 
ATOM     15  C   UNL A   1      33.822  20.989  26.207  1.00  0.00     0.044 C 
ATOM     16  C   UNL A   1      34.869  21.752  25.443  1.00  0.00    -0.050 A 
ATOM     17  C   UNL A   1      34.629  22.186  24.145  1.00  0.00     0.003 A 
ATOM     18  C   UNL A   1      36.129  22.011  26.004  1.00  0.00     0.013 A 
ATOM     19  C   UNL A   1      35.613  22.900  23.457  1.00  0.00     0.001 A 
ATOM     20  C   UNL A   1      36.848  23.186  24.057  1.00  0.00     0.010 A 
ENDBRANCH   9  14
BRANCH  12  21
ATOM     21  N   UNL A   1      41.418  21.233  26.855  1.00  0.00    -0.324 N 
ATOM     22  H   UNL A   1      41.297  20.593  27.594  1.00  0.00     0.170 HD
BRANCH  21  23
ATOM     23  C   UNL A   1      42.525  21.057  26.018  1.00  0.00     0.044 A 
ATOM     24  C   UNL A   1      43.145  22.187  25.472  1.00  0.00     0.026 A 
ATOM     25  C   UNL A   1      43.081  19.787  25.784  1.00  0.00    -0.027 A 
ATOM     26  C   UNL A   1      44.359  22.073  24.797  1.00  0.00     0.002 A 
ATOM     27  C   UNL A   1      44.321  19.685  25.140  1.00  0.00     0.005 A 
ATOM     28  C   UNL A   1      42.359  18.539  26.192  1.00  0.00     0.046 C 
ATOM     29  C   UNL A   1      44.964  20.827  24.665  1.00  0.00     0.000 A 
ENDBRANCH  21  23
ENDBRANCH  12  21
ENDBRANCH   7   8
ENDBRANCH   6   7
ENDBRANCH   4   6
ENDBRANCH   3   4
ENDBRANCH   2   3
ENDBRANCH   1   2
BRANCH   1  30
ATOM     30  O   UNL A   1      36.642  29.517  28.102  1.00  0.00    -0.374 OA
BRANCH  30  31
ATOM     31  C   UNL A   1      35.238  29.560  28.037  1.00  0.00     0.202 C 
BRANCH  31  32
ATOM     32  C   UNL A   1      34.945  31.000  27.643  1.00  0.00     0.261 C 
BRANCH  32  33
ATOM     33  O   UNL A   1      36.106  31.857  27.626  1.00  0.00    -0.460 OA
BRANCH  33  34
ATOM     34  C   UNL A   1      36.086  32.920  28.476  1.00  0.00     0.338 C 
ATOM     35  O   UNL A   1      35.126  33.681  28.584  1.00  0.00    -0.246 OA
BRANCH  34  36
ATOM     36  C   UNL A   1      37.346  32.973  29.263  1.00  0.00     0.060 A 
ATOM     37  C   UNL A   1      37.619  32.009  30.238  1.00  0.00     0.016 A 
ATOM     38  C   UNL A   1      38.116  34.134  29.202  1.00  0.00     0.016 A 
ATOM     39  C   UNL A   1      38.551  32.290  31.243  1.00  0.00     0.010 A 
ATOM     40  C   UNL A   1      38.930  34.467  30.258  1.00  0.00     0.010 A 
ATOM     41  C   UNL A   1      39.138  33.549  31.292  1.00  0.00    -0.014 A 
BRANCH  41  42
ATOM     42  C   UNL A   1      40.157  33.961  32.245  1.00  0.00     0.031 A 
ATOM     43  C   UNL A   1      39.654  34.532  33.506  1.00  0.00     0.074 A 
ATOM     44  C   UNL A   1      41.456  33.608  32.118  1.00  0.00     0.049 A 
ATOM     45  N   UNL A   1      40.403  35.153  34.340  1.00  0.00    -0.248 NA
ATOM     46  C   UNL A   1      38.257  34.458  33.932  1.00  0.00     0.031 C 
ATOM     47  C   UNL A   1      42.472  33.463  33.160  1.00  0.00     0.029 A 
ATOM     48  N   UNL A   1      42.159  33.196  30.980  1.00  0.00    -0.354 N 
ATOM     49  C   UNL A   1      39.696  35.272  35.511  1.00  0.00     0.074 A 
ATOM     50  C   UNL A   1      38.337  34.926  35.179  1.00  0.00     0.031 C 
ATOM     51  C   UNL A   1      43.679  33.314  32.580  1.00  0.00     0.029 A 
ATOM     52  C   UNL A   1      43.504  33.539  31.152  1.00  0.00     0.049 A 
ATOM     53  H   UNL A   1      41.773  32.745  30.195  1.00  0.00     0.167 HD
ATOM     54  C   UNL A   1      40.396  35.483  36.658  1.00  0.00     0.034 A 
ATOM     55  C   UNL A   1      44.096  34.481  30.364  1.00  0.00     0.034 A 
ATOM     56  C   UNL A   1      41.849  35.554  36.366  1.00  0.00     0.049 A 
ATOM     57  C   UNL A   1      44.482  35.683  31.193  1.00  0.00     0.074 A 
ATOM     58  C   UNL A   1      42.913  34.674  36.502  1.00  0.00     0.029 A 
ATOM     59  N   UNL A   1      42.305  36.538  35.493  1.00  0.00    -0.354 N 
ATOM     60  N   UNL A   1      44.428  35.710  32.496  1.00  0.00    -0.248 NA
ATOM     61  C   UNL A   1      44.863  36.970  30.629  1.00  0.00     0.031 C 
ATOM     62  C   UNL A   1      44.007  35.154  35.706  1.00  0.00     0.029 A 
ATOM     63  C   UNL A   1      43.625  36.341  35.104  1.00  0.00     0.049 A 
ATOM     64  H   UNL A   1      41.751  37.291  35.183  1.00  0.00     0.167 HD
ATOM     65  C   UNL A   1      44.514  36.994  32.937  1.00  0.00     0.074 A 
ATOM     66  C   UNL A   1      44.846  37.744  31.727  1.00  0.00     0.031 C 
ATOM     67  C   UNL A   1      44.245  37.347  34.235  1.00  0.00     0.034 A 
BRANCH  54  68
ATOM     68  C   UNL A   1      39.798  35.324  38.045  1.00  0.00     0.023 A 
ATOM     69  C   UNL A   1      39.535  36.507  38.767  1.00  0.00     0.012 A 
ATOM     70  C   UNL A   1      39.495  34.110  38.715  1.00  0.00     0.148 A 
ATOM     71  C   UNL A   1      39.084  36.497  40.092  1.00  0.00     0.002 A 
ATOM     72  C   UNL A   1      39.112  34.096  40.063  1.00  0.00     0.091 A 
ATOM     73  F   UNL A   1      39.482  32.957  38.038  1.00  0.00    -0.205 F 
ATOM     74  C   UNL A   1      38.905  35.292  40.753  1.00  0.00     0.022 A 
BRANCH  72  75
ATOM     75  S   UNL A   1      38.948  32.572  41.017  1.00  0.00     0.127 S 
ATOM     76  O   UNL A   1      38.050  31.774  40.176  1.00  0.00    -0.237 OA
ATOM     77  O   UNL A   1      40.322  32.078  41.068  1.00  0.00    -0.237 OA
ATOM     78  O   UNL A   1      38.362  32.962  42.293  1.00  0.00    -0.744 OA
ENDBRANCH  72  75
ENDBRANCH  54  68
BRANCH  55  79
ATOM     79  C   UNL A   1      43.598  34.500  28.944  1.00  0.00     0.023 A 
ATOM     80  C   UNL A   1      42.635  35.479  28.588  1.00  0.00     0.012 A 
ATOM     81  C   UNL A   1      44.282  33.834  27.908  1.00  0.00     0.148 A 
ATOM     82  C   UNL A   1      42.438  35.857  27.252  1.00  0.00     0.002 A 
ATOM     83  C   UNL A   1      44.102  34.234  26.584  1.00  0.00     0.091 A 
ATOM     84  F   UNL A   1      45.131  32.852  28.235  1.00  0.00    -0.205 F 
ATOM     85  C   UNL A   1      43.198  35.257  26.256  1.00  0.00     0.022 A 
BRANCH  83  86
ATOM     86  S   UNL A   1      45.104  33.592  25.234  1.00  0.00     0.127 S 
ATOM     87  O   UNL A   1      46.408  34.177  25.534  1.00  0.00    -0.237 OA
ATOM     88  O   UNL A   1      45.019  32.148  25.452  1.00  0.00    -0.237 OA
ATOM     89  O   UNL A   1      44.468  34.063  24.013  1.00  0.00    -0.744 OA
ENDBRANCH  83  86
ENDBRANCH  55  79
BRANCH  67  90
ATOM     90  C   UNL A   1      44.471  38.747  34.766  1.00  0.00     0.023 A 
ATOM     91  C   UNL A   1      45.280  38.975  35.893  1.00  0.00     0.012 A 
ATOM     92  C   UNL A   1      43.813  39.880  34.229  1.00  0.00     0.148 A 
ATOM     93  C   UNL A   1      45.594  40.263  36.330  1.00  0.00     0.002 A 
ATOM     94  C   UNL A   1      44.098  41.161  34.679  1.00  0.00     0.091 A 
ATOM     95  F   UNL A   1      42.846  39.736  33.321  1.00  0.00    -0.205 F 
ATOM     96  C   UNL A   1      45.026  41.359  35.700  1.00  0.00     0.022 A 
BRANCH  94  97
ATOM     97  S   UNL A   1      43.262  42.606  34.017  1.00  0.00     0.127 S 
ATOM     98  O   UNL A   1      43.831  43.670  34.846  1.00  0.00    -0.237 OA
ATOM     99  O   UNL A   1      43.718  42.600  32.627  1.00  0.00    -0.237 OA
ATOM    100  O   UNL A   1      41.836  42.378  34.195  1.00  0.00    -0.744 OA
ENDBRANCH  94  97
ENDBRANCH  67  90
ENDBRANCH  41  42
ENDBRANCH  34  36
ENDBRANCH  33  34
ENDBRANCH  32  33
ENDBRANCH  31  32
ENDBRANCH  30  31
ENDBRANCH   1  30
TORSDOF 22
ENDMDL
MODEL 2
REMARK VINA RESULT:     -10.7      4.624      8.001
REMARK SMILES Cc1cccc(-c2cc(OCC(=O)OCCOCCOC(=O)c3ccc(-c4c5nc(c(-c6cccc(S(=O)(=O)[O-])c6F)c6ccc([nH]6)c(-c6cccc(S(=O)(=O)[O-])c6F)c6nc(c(-c7cccc(S(=O)(=O)[O-])c7F)c7ccc4[nH]7)C=C6)C=C5)cc3)nc(Nc3ccccc3C)n2)c1
REMARK SMILES IDX 16 1 15 2 14 3 12 4 13 5 11 6 10 7 9 8 7 9 8 10 96 11 87 12
REMARK SMILES IDX 86 13 6 14 1 15 2 16 3 17 97 18 4 19 5 20 88 21 89 23 90 24
REMARK SMILES IDX 94 25 91 26 93 27 95 28 92 29 17 30 18 31 19 32 20 33 21 34
REMARK SMILES IDX 22 35 23 36 24 37 85 38 25 39 84 40 26 41 27 42 28 43 78 44
REMARK SMILES IDX 29 45 83 46 77 47 79 48 30 49 82 50 76 51 75 52 31 54 63 55
REMARK SMILES IDX 43 56 62 57 44 58 47 59 61 60 80 61 45 62 46 63 60 65 81 66
REMARK SMILES IDX 48 67 32 68 33 69 41 70 34 71 36 72 42 73 35 74 37 75 38 76
REMARK SMILES IDX 39 77 40 78 64 79 65 80 73 81 66 82 68 83 74 84 67 85 69 86
REMARK SMILES IDX 70 87 71 88 72 89 49 90 50 91 58 92 51 93 53 94 59 95 52 96
REMARK SMILES IDX 54 97 55 98 56 99 57 100
REMARK H PARENT 88 22 79 53 47 64
REMARK Flexibility Score: inf
ROOT
ATOM      1  C   UNL A   1      41.892  22.304  28.216  1.00  0.00     0.202 C 
ENDROOT
BRANCH   1   2
ATOM      2  C   UNL A   1      41.650  20.971  27.564  1.00  0.00     0.261 C 
BRANCH   2   3
ATOM      3  O   UNL A   1      41.162  20.979  26.209  1.00  0.00    -0.461 OA
BRANCH   3   4
ATOM      4  C   UNL A   1      40.329  19.944  25.885  1.00  0.00     0.344 C 
ATOM      5  O   UNL A   1      40.669  18.797  25.659  1.00  0.00    -0.248 OA
BRANCH   4   6
ATOM      6  C   UNL A   1      38.876  20.371  25.739  1.00  0.00     0.353 C 
BRANCH   6   7
ATOM      7  O   UNL A   1      38.559  21.715  25.452  1.00  0.00    -0.466 OA
BRANCH   7   8
ATOM      8  C   UNL A   1      37.225  21.961  25.297  1.00  0.00     0.219 A 
ATOM      9  C   UNL A   1      35.325  23.253  24.893  1.00  0.00     0.080 A 
ATOM     10  C   UNL A   1      36.700  23.196  24.980  1.00  0.00     0.097 A 
ATOM     11  N   UNL A   1      34.557  22.158  25.092  1.00  0.00    -0.212 NA
ATOM     12  C   UNL A   1      35.164  20.994  25.385  1.00  0.00     0.231 A 
ATOM     13  N   UNL A   1      36.483  20.868  25.511  1.00  0.00    -0.177 NA
BRANCH   9  14
ATOM     14  C   UNL A   1      34.599  24.479  24.507  1.00  0.00     0.001 A 
ATOM     15  C   UNL A   1      33.521  27.780  26.159  1.00  0.00     0.044 C 
ATOM     16  C   UNL A   1      33.734  26.716  25.118  1.00  0.00    -0.050 A 
ATOM     17  C   UNL A   1      33.290  26.897  23.814  1.00  0.00     0.003 A 
ATOM     18  C   UNL A   1      34.348  25.497  25.443  1.00  0.00     0.013 A 
ATOM     19  C   UNL A   1      33.505  25.898  22.861  1.00  0.00     0.001 A 
ATOM     20  C   UNL A   1      34.163  24.707  23.200  1.00  0.00     0.010 A 
ENDBRANCH   9  14
BRANCH  12  21
ATOM     21  N   UNL A   1      34.433  19.815  25.563  1.00  0.00    -0.324 N 
ATOM     22  H   UNL A   1      34.425  19.415  26.462  1.00  0.00     0.170 HD
BRANCH  21  23
ATOM     23  C   UNL A   1      33.714  19.163  24.555  1.00  0.00     0.044 A 
ATOM     24  C   UNL A   1      32.655  19.839  23.936  1.00  0.00     0.026 A 
ATOM     25  C   UNL A   1      34.080  17.888  24.090  1.00  0.00    -0.027 A 
ATOM     26  C   UNL A   1      32.042  19.308  22.804  1.00  0.00     0.002 A 
ATOM     27  C   UNL A   1      33.487  17.381  22.928  1.00  0.00     0.005 A 
ATOM     28  C   UNL A   1      35.081  17.054  24.831  1.00  0.00     0.046 C 
ATOM     29  C   UNL A   1      32.483  18.098  22.279  1.00  0.00     0.000 A 
ENDBRANCH  21  23
ENDBRANCH  12  21
ENDBRANCH   7   8
ENDBRANCH   6   7
ENDBRANCH   4   6
ENDBRANCH   3   4
ENDBRANCH   2   3
ENDBRANCH   1   2
BRANCH   1  30
ATOM     30  O   UNL A   1      40.790  23.136  27.941  1.00  0.00    -0.374 OA
BRANCH  30  31
ATOM     31  C   UNL A   1      40.961  24.491  28.274  1.00  0.00     0.202 C 
BRANCH  31  32
ATOM     32  C   UNL A   1      40.278  25.226  27.131  1.00  0.00     0.261 C 
BRANCH  32  33
ATOM     33  O   UNL A   1      39.683  26.485  27.509  1.00  0.00    -0.460 OA
BRANCH  33  34
ATOM     34  C   UNL A   1      40.455  27.594  27.342  1.00  0.00     0.338 C 
ATOM     35  O   UNL A   1      40.812  28.009  26.242  1.00  0.00    -0.246 OA
BRANCH  34  36
ATOM     36  C   UNL A   1      40.734  28.228  28.657  1.00  0.00     0.060 A 
ATOM     37  C   UNL A   1      39.858  28.055  29.733  1.00  0.00     0.016 A 
ATOM     38  C   UNL A   1      41.728  29.205  28.723  1.00  0.00     0.016 A 
ATOM     39  C   UNL A   1      39.882  28.967  30.794  1.00  0.00     0.010 A 
ATOM     40  C   UNL A   1      41.665  30.175  29.694  1.00  0.00     0.010 A 
ATOM     41  C   UNL A   1      40.729  30.067  30.726  1.00  0.00    -0.014 A 
BRANCH  41  42
ATOM     42  C   UNL A   1      40.893  31.062  31.774  1.00  0.00     0.031 A 
ATOM     43  C   UNL A   1      41.754  30.663  32.900  1.00  0.00     0.074 A 
ATOM     44  C   UNL A   1      40.516  32.351  31.619  1.00  0.00     0.049 A 
ATOM     45  N   UNL A   1      41.813  31.316  34.002  1.00  0.00    -0.248 NA
ATOM     46  C   UNL A   1      42.621  29.485  32.884  1.00  0.00     0.031 C 
ATOM     47  C   UNL A   1      41.040  33.545  32.280  1.00  0.00     0.029 A 
ATOM     48  N   UNL A   1      39.596  32.906  30.722  1.00  0.00    -0.354 N 
ATOM     49  C   UNL A   1      42.913  30.861  34.686  1.00  0.00     0.074 A 
ATOM     50  C   UNL A   1      43.318  29.655  34.009  1.00  0.00     0.031 C 
ATOM     51  C   UNL A   1      40.237  34.591  32.000  1.00  0.00     0.029 A 
ATOM     52  C   UNL A   1      39.073  34.069  31.299  1.00  0.00     0.049 A 
ATOM     53  H   UNL A   1      39.358  32.542  29.839  1.00  0.00     0.167 HD
ATOM     54  C   UNL A   1      43.446  31.667  35.643  1.00  0.00     0.034 A 
ATOM     55  C   UNL A   1      37.761  34.144  31.661  1.00  0.00     0.034 A 
ATOM     56  C   UNL A   1      42.665  32.925  35.746  1.00  0.00     0.049 A 
ATOM     57  C   UNL A   1      37.644  34.271  33.161  1.00  0.00     0.074 A 
ATOM     58  C   UNL A   1      42.850  34.224  35.295  1.00  0.00     0.029 A 
ATOM     59  N   UNL A   1      41.313  32.845  36.070  1.00  0.00    -0.354 N 
ATOM     60  N   UNL A   1      38.661  34.474  33.952  1.00  0.00    -0.248 NA
ATOM     61  C   UNL A   1      36.401  34.084  33.896  1.00  0.00     0.031 C 
ATOM     62  C   UNL A   1      41.593  34.914  35.365  1.00  0.00     0.029 A 
ATOM     63  C   UNL A   1      40.644  34.049  35.883  1.00  0.00     0.049 A 
ATOM     64  H   UNL A   1      40.879  32.023  36.394  1.00  0.00     0.167 HD
ATOM     65  C   UNL A   1      38.305  34.218  35.240  1.00  0.00     0.074 A 
ATOM     66  C   UNL A   1      36.858  34.032  35.159  1.00  0.00     0.031 C 
ATOM     67  C   UNL A   1      39.225  34.114  36.252  1.00  0.00     0.034 A 
BRANCH  54  68
ATOM     68  C   UNL A   1      44.818  31.447  36.256  1.00  0.00     0.023 A 
ATOM     69  C   UNL A   1      45.926  31.941  35.537  1.00  0.00     0.012 A 
ATOM     70  C   UNL A   1      45.118  30.771  37.468  1.00  0.00     0.148 A 
ATOM     71  C   UNL A   1      47.247  31.713  35.938  1.00  0.00     0.002 A 
ATOM     72  C   UNL A   1      46.439  30.480  37.833  1.00  0.00     0.091 A 
ATOM     73  F   UNL A   1      44.140  30.480  38.332  1.00  0.00    -0.205 F 
ATOM     74  C   UNL A   1      47.507  30.953  37.067  1.00  0.00     0.022 A 
BRANCH  72  75
ATOM     75  S   UNL A   1      46.855  29.422  39.235  1.00  0.00     0.127 S 
ATOM     76  O   UNL A   1      46.335  30.192  40.370  1.00  0.00    -0.237 OA
ATOM     77  O   UNL A   1      46.109  28.201  38.945  1.00  0.00    -0.237 OA
ATOM     78  O   UNL A   1      48.308  29.301  39.226  1.00  0.00    -0.744 OA
ENDBRANCH  72  75
ENDBRANCH  54  68
BRANCH  55  79
ATOM     79  C   UNL A   1      36.825  33.394  30.752  1.00  0.00     0.023 A 
ATOM     80  C   UNL A   1      36.407  32.098  31.150  1.00  0.00     0.012 A 
ATOM     81  C   UNL A   1      36.101  34.041  29.733  1.00  0.00     0.148 A 
ATOM     82  C   UNL A   1      35.245  31.514  30.627  1.00  0.00     0.002 A 
ATOM     83  C   UNL A   1      34.931  33.467  29.236  1.00  0.00     0.091 A 
ATOM     84  F   UNL A   1      36.540  35.228  29.296  1.00  0.00    -0.205 F 
ATOM     85  C   UNL A   1      34.491  32.215  29.695  1.00  0.00     0.022 A 
BRANCH  83  86
ATOM     86  S   UNL A   1      33.832  34.332  28.104  1.00  0.00     0.127 S 
ATOM     87  O   UNL A   1      32.929  33.259  27.695  1.00  0.00    -0.237 OA
ATOM     88  O   UNL A   1      33.227  35.338  28.977  1.00  0.00    -0.237 OA
ATOM     89  O   UNL A   1      34.688  34.868  27.057  1.00  0.00    -0.744 OA
ENDBRANCH  83  86
ENDBRANCH  55  79
BRANCH  67  90
ATOM     90  C   UNL A   1      38.830  33.967  37.706  1.00  0.00     0.023 A 
ATOM     91  C   UNL A   1      39.332  34.840  38.687  1.00  0.00     0.012 A 
ATOM     92  C   UNL A   1      38.024  32.899  38.171  1.00  0.00     0.148 A 
ATOM     93  C   UNL A   1      38.893  34.794  40.011  1.00  0.00     0.002 A 
ATOM     94  C   UNL A   1      37.609  32.831  39.493  1.00  0.00     0.091 A 
ATOM     95  F   UNL A   1      37.702  31.890  37.360  1.00  0.00    -0.205 F 
ATOM     96  C   UNL A   1      38.004  33.807  40.407  1.00  0.00     0.022 A 
BRANCH  94  97
ATOM     97  S   UNL A   1      36.599  31.477  40.101  1.00  0.00     0.127 S 
ATOM     98  O   UNL A   1      36.437  31.849  41.507  1.00  0.00    -0.237 OA
ATOM     99  O   UNL A   1      35.393  31.619  39.285  1.00  0.00    -0.237 OA
ATOM    100  O   UNL A   1      37.355  30.256  39.866  1.00  0.00    -0.744 OA
ENDBRANCH  94  97
ENDBRANCH  67  90
ENDBRANCH  41  42
ENDBRANCH  34  36
ENDBRANCH  33  34
ENDBRANCH  32  33
ENDBRANCH  31  32
ENDBRANCH  30  31
ENDBRANCH   1  30
TORSDOF 22
ENDMDL
MODEL 3
REMARK VINA RESULT:     -10.6      2.301      4.288
REMARK SMILES Cc1cccc(-c2cc(OCC(=O)OCCOCCOC(=O)c3ccc(-c4c5nc(c(-c6cccc(S(=O)(=O)[O-])c6F)c6ccc([nH]6)c(-c6cccc(S(=O)(=O)[O-])c6F)c6nc(c(-c7cccc(S(=O)(=O)[O-])c7F)c7ccc4[nH]7)C=C6)C=C5)cc3)nc(Nc3ccccc3C)n2)c1
REMARK SMILES IDX 16 1 15 2 14 3 12 4 13 5 11 6 10 7 9 8 7 9 8 10 96 11 87 12
REMARK SMILES IDX 86 13 6 14 1 15 2 16 3 17 97 18 4 19 5 20 88 21 89 23 90 24
REMARK SMILES IDX 94 25 91 26 93 27 95 28 92 29 17 30 18 31 19 32 20 33 21 34
REMARK SMILES IDX 22 35 23 36 24 37 85 38 25 39 84 40 26 41 27 42 28 43 78 44
REMARK SMILES IDX 29 45 83 46 77 47 79 48 30 49 82 50 76 51 75 52 31 54 63 55
REMARK SMILES IDX 43 56 62 57 44 58 47 59 61 60 80 61 45 62 46 63 60 65 81 66
REMARK SMILES IDX 48 67 32 68 33 69 41 70 34 71 36 72 42 73 35 74 37 75 38 76
REMARK SMILES IDX 39 77 40 78 64 79 65 80 73 81 66 82 68 83 74 84 67 85 69 86
REMARK SMILES IDX 70 87 71 88 72 89 49 90 50 91 58 92 51 93 53 94 59 95 52 96
REMARK SMILES IDX 54 97 55 98 56 99 57 100
REMARK H PARENT 88 22 79 53 47 64
REMARK Flexibility Score: inf
ROOT
ATOM      1  C   UNL A   1      39.399  28.004  28.884  1.00  0.00     0.202 C 
ENDROOT
BRANCH   1   2
ATOM      2  C   UNL A   1      40.012  26.883  28.092  1.00  0.00     0.261 C 
BRANCH   2   3
ATOM      3  O   UNL A   1      39.137  25.821  27.667  1.00  0.00    -0.461 OA
BRANCH   3   4
ATOM      4  C   UNL A   1      39.662  24.976  26.730  1.00  0.00     0.344 C 
ATOM      5  O   UNL A   1      40.838  24.887  26.426  1.00  0.00    -0.248 OA
BRANCH   4   6
ATOM      6  C   UNL A   1      38.604  24.167  25.994  1.00  0.00     0.353 C 
BRANCH   6   7
ATOM      7  O   UNL A   1      37.674  23.394  26.721  1.00  0.00    -0.466 OA
BRANCH   7   8
ATOM      8  C   UNL A   1      36.477  23.210  26.091  1.00  0.00     0.219 A 
ATOM      9  C   UNL A   1      34.792  22.004  25.017  1.00  0.00     0.080 A 
ATOM     10  C   UNL A   1      36.013  21.985  25.658  1.00  0.00     0.097 A 
ATOM     11  N   UNL A   1      34.100  23.153  24.846  1.00  0.00    -0.212 NA
ATOM     12  C   UNL A   1      34.630  24.296  25.315  1.00  0.00     0.231 A 
ATOM     13  N   UNL A   1      35.815  24.361  25.920  1.00  0.00    -0.177 NA
BRANCH   9  14
ATOM     14  C   UNL A   1      34.121  20.779  24.542  1.00  0.00     0.001 A 
ATOM     15  C   UNL A   1      34.743  16.985  24.619  1.00  0.00     0.044 C 
ATOM     16  C   UNL A   1      34.079  18.311  24.367  1.00  0.00    -0.050 A 
ATOM     17  C   UNL A   1      32.844  18.379  23.733  1.00  0.00     0.003 A 
ATOM     18  C   UNL A   1      34.704  19.514  24.725  1.00  0.00     0.013 A 
ATOM     19  C   UNL A   1      32.242  19.620  23.516  1.00  0.00     0.001 A 
ATOM     20  C   UNL A   1      32.867  20.807  23.926  1.00  0.00     0.010 A 
ENDBRANCH   9  14
BRANCH  12  21
ATOM     21  N   UNL A   1      33.950  25.514  25.208  1.00  0.00    -0.324 N 
ATOM     22  H   UNL A   1      34.044  26.156  25.949  1.00  0.00     0.170 HD
BRANCH  21  23
ATOM     23  C   UNL A   1      33.147  25.886  24.125  1.00  0.00     0.044 A 
ATOM     24  C   UNL A   1      33.756  26.144  22.891  1.00  0.00     0.026 A 
ATOM     25  C   UNL A   1      31.745  25.922  24.221  1.00  0.00    -0.027 A 
ATOM     26  C   UNL A   1      32.983  26.325  21.745  1.00  0.00     0.002 A 
ATOM     27  C   UNL A   1      30.978  26.064  23.059  1.00  0.00     0.005 A 
ATOM     28  C   UNL A   1      31.059  25.831  25.550  1.00  0.00     0.046 C 
ATOM     29  C   UNL A   1      31.597  26.247  21.824  1.00  0.00     0.000 A 
ENDBRANCH  21  23
ENDBRANCH  12  21
ENDBRANCH   7   8
ENDBRANCH   6   7
ENDBRANCH   4   6
ENDBRANCH   3   4
ENDBRANCH   2   3
ENDBRANCH   1   2
BRANCH   1  30
ATOM     30  O   UNL A   1      38.117  28.263  28.364  1.00  0.00    -0.374 OA
BRANCH  30  31
ATOM     31  C   UNL A   1      38.027  29.375  27.510  1.00  0.00     0.202 C 
BRANCH  31  32
ATOM     32  C   UNL A   1      36.560  29.770  27.594  1.00  0.00     0.261 C 
BRANCH  32  33
ATOM     33  O   UNL A   1      36.240  30.623  28.712  1.00  0.00    -0.460 OA
BRANCH  33  34
ATOM     34  C   UNL A   1      36.514  31.949  28.561  1.00  0.00     0.338 C 
ATOM     35  O   UNL A   1      35.787  32.722  27.941  1.00  0.00    -0.246 OA
BRANCH  34  36
ATOM     36  C   UNL A   1      37.759  32.303  29.290  1.00  0.00     0.060 A 
ATOM     37  C   UNL A   1      38.297  31.436  30.247  1.00  0.00     0.016 A 
ATOM     38  C   UNL A   1      38.228  33.614  29.201  1.00  0.00     0.016 A 
ATOM     39  C   UNL A   1      39.180  31.937  31.210  1.00  0.00     0.010 A 
ATOM     40  C   UNL A   1      38.987  34.135  30.221  1.00  0.00     0.010 A 
ATOM     41  C   UNL A   1      39.454  33.299  31.239  1.00  0.00    -0.014 A 
BRANCH  41  42
ATOM     42  C   UNL A   1      40.387  33.946  32.148  1.00  0.00     0.031 A 
ATOM     43  C   UNL A   1      39.799  34.489  33.383  1.00  0.00     0.074 A 
ATOM     44  C   UNL A   1      41.728  33.830  32.016  1.00  0.00     0.049 A 
ATOM     45  N   UNL A   1      40.428  35.285  34.167  1.00  0.00    -0.248 NA
ATOM     46  C   UNL A   1      38.443  34.187  33.840  1.00  0.00     0.031 C 
ATOM     47  C   UNL A   1      42.762  33.934  33.044  1.00  0.00     0.029 A 
ATOM     48  N   UNL A   1      42.485  33.487  30.890  1.00  0.00    -0.354 N 
ATOM     49  C   UNL A   1      39.722  35.342  35.342  1.00  0.00     0.074 A 
ATOM     50  C   UNL A   1      38.446  34.734  35.057  1.00  0.00     0.031 C 
ATOM     51  C   UNL A   1      43.971  33.975  32.451  1.00  0.00     0.029 A 
ATOM     52  C   UNL A   1      43.746  34.079  31.016  1.00  0.00     0.049 A 
ATOM     53  H   UNL A   1      42.182  32.927  30.139  1.00  0.00     0.167 HD
ATOM     54  C   UNL A   1      40.381  35.744  36.462  1.00  0.00     0.034 A 
ATOM     55  C   UNL A   1      44.147  35.065  30.165  1.00  0.00     0.034 A 
ATOM     56  C   UNL A   1      41.794  36.063  36.139  1.00  0.00     0.049 A 
ATOM     57  C   UNL A   1      44.314  36.364  30.917  1.00  0.00     0.074 A 
ATOM     58  C   UNL A   1      43.002  35.402  36.303  1.00  0.00     0.029 A 
ATOM     59  N   UNL A   1      42.053  37.060  35.202  1.00  0.00    -0.354 N 
ATOM     60  N   UNL A   1      44.267  36.458  32.217  1.00  0.00    -0.248 NA
ATOM     61  C   UNL A   1      44.447  37.664  30.273  1.00  0.00     0.031 C 
ATOM     62  C   UNL A   1      43.982  36.026  35.460  1.00  0.00     0.029 A 
ATOM     63  C   UNL A   1      43.383  37.086  34.800  1.00  0.00     0.049 A 
ATOM     64  H   UNL A   1      41.368  37.679  34.861  1.00  0.00     0.167 HD
ATOM     65  C   UNL A   1      44.119  37.761  32.582  1.00  0.00     0.074 A 
ATOM     66  C   UNL A   1      44.297  38.485  31.326  1.00  0.00     0.031 C 
ATOM     67  C   UNL A   1      43.801  38.135  33.863  1.00  0.00     0.034 A 
BRANCH  54  68
ATOM     68  C   UNL A   1      39.834  35.562  37.867  1.00  0.00     0.023 A 
ATOM     69  C   UNL A   1      39.549  36.733  38.600  1.00  0.00     0.012 A 
ATOM     70  C   UNL A   1      39.599  34.336  38.544  1.00  0.00     0.148 A 
ATOM     71  C   UNL A   1      39.141  36.704  39.938  1.00  0.00     0.002 A 
ATOM     72  C   UNL A   1      39.261  34.307  39.903  1.00  0.00     0.091 A 
ATOM     73  F   UNL A   1      39.608  33.184  37.864  1.00  0.00    -0.205 F 
ATOM     74  C   UNL A   1      39.029  35.493  40.602  1.00  0.00     0.022 A 
BRANCH  72  75
ATOM     75  S   UNL A   1      39.186  32.776  40.858  1.00  0.00     0.127 S 
ATOM     76  O   UNL A   1      38.821  33.260  42.193  1.00  0.00    -0.237 OA
ATOM     77  O   UNL A   1      38.130  32.029  40.180  1.00  0.00    -0.237 OA
ATOM     78  O   UNL A   1      40.522  32.198  40.790  1.00  0.00    -0.744 OA
ENDBRANCH  72  75
ENDBRANCH  54  68
BRANCH  55  79
ATOM     79  C   UNL A   1      43.643  34.908  28.755  1.00  0.00     0.023 A 
ATOM     80  C   UNL A   1      42.620  35.787  28.312  1.00  0.00     0.012 A 
ATOM     81  C   UNL A   1      44.360  34.182  27.786  1.00  0.00     0.148 A 
ATOM     82  C   UNL A   1      42.395  36.013  26.947  1.00  0.00     0.002 A 
ATOM     83  C   UNL A   1      44.150  34.433  26.429  1.00  0.00     0.091 A 
ATOM     84  F   UNL A   1      45.269  33.291  28.202  1.00  0.00    -0.205 F 
ATOM     85  C   UNL A   1      43.184  35.361  26.009  1.00  0.00     0.022 A 
BRANCH  83  86
ATOM     86  S   UNL A   1      45.182  33.716  25.141  1.00  0.00     0.127 S 
ATOM     87  O   UNL A   1      44.573  34.274  23.935  1.00  0.00    -0.237 OA
ATOM     88  O   UNL A   1      46.499  34.263  25.467  1.00  0.00    -0.237 OA
ATOM     89  O   UNL A   1      45.063  32.275  25.297  1.00  0.00    -0.744 OA
ENDBRANCH  83  86
ENDBRANCH  55  79
BRANCH  67  90
ATOM     90  C   UNL A   1      43.770  39.581  34.310  1.00  0.00     0.023 A 
ATOM     91  C   UNL A   1      42.972  40.530  33.648  1.00  0.00     0.012 A 
ATOM     92  C   UNL A   1      44.606  40.076  35.341  1.00  0.00     0.148 A 
ATOM     93  C   UNL A   1      42.842  41.840  34.113  1.00  0.00     0.002 A 
ATOM     94  C   UNL A   1      44.502  41.385  35.788  1.00  0.00     0.091 A 
ATOM     95  F   UNL A   1      45.566  39.310  35.862  1.00  0.00    -0.205 F 
ATOM     96  C   UNL A   1      43.585  42.258  35.206  1.00  0.00     0.022 A 
BRANCH  94  97
ATOM     97  S   UNL A   1      45.563  42.031  37.085  1.00  0.00     0.127 S 
ATOM     98  O   UNL A   1      46.890  41.793  36.514  1.00  0.00    -0.237 OA
ATOM     99  O   UNL A   1      45.156  43.435  37.128  1.00  0.00    -0.237 OA
ATOM    100  O   UNL A   1      45.261  41.269  38.287  1.00  0.00    -0.744 OA
ENDBRANCH  94  97
ENDBRANCH  67  90
ENDBRANCH  41  42
ENDBRANCH  34  36
ENDBRANCH  33  34
ENDBRANCH  32  33
ENDBRANCH  31  32
ENDBRANCH  30  31
ENDBRANCH   1  30
TORSDOF 22
ENDMDL
