MODEL 1
REMARK VINA RESULT:     -10.0      0.000      0.000
REMARK SMILES Cc1nc2n(n1)[C@@H](c1ccc([N+](=O)[O-])o1)CC(C(=O)OCCOCCOC(=O)c1ccc(-c3c4nc(c(-c5cccc(S(=O)(=O)[O-])c5F)c5ccc([nH]5)c(-c5cccc(S(=O)(=O)[O-])c5F)c5nc(c(-c6cccc(S(=O)(=O)[O-])c6F)c6ccc3[nH]6)C=C5)C=C4)cc1)=N2
REMARK SMILES IDX 24 1 23 2 22 3 21 4 20 5 18 6 19 7 17 8 1 9 2 10 3 11 6 12
REMARK SMILES IDX 4 13 5 14 92 15 7 16 16 17 8 18 9 19 15 20 10 21 11 22 12 23
REMARK SMILES IDX 13 24 14 25 25 26 26 27 27 28 28 29 29 30 30 31 91 32 31 33
REMARK SMILES IDX 90 34 32 35 33 36 34 37 84 38 35 39 89 40 83 41 85 42 36 43
REMARK SMILES IDX 88 44 82 45 81 46 37 48 69 49 49 50 68 51 50 52 53 53 67 54
REMARK SMILES IDX 86 55 51 56 52 57 66 59 87 60 54 61 38 62 39 63 47 64 40 65
REMARK SMILES IDX 42 66 48 67 41 68 43 69 44 70 45 71 46 72 70 73 71 74 79 75
REMARK SMILES IDX 72 76 74 77 80 78 73 79 75 80 76 81 77 82 78 83 55 84 56 85
REMARK SMILES IDX 64 86 57 87 59 88 65 89 58 90 60 91 61 92 62 93 63 94
REMARK H PARENT 85 47 53 58
REMARK Flexibility Score: inf
ROOT
ATOM      1  C   UNL A   1      41.452  20.356  25.912  1.00  0.00     0.202 C 
ENDROOT
BRANCH   1   2
ATOM      2  O   UNL A   1      42.811  20.222  25.508  1.00  0.00    -0.374 OA
BRANCH   2   3
ATOM      3  C   UNL A   1      43.725  21.270  25.825  1.00  0.00     0.202 C 
BRANCH   3   4
ATOM      4  C   UNL A   1      45.124  21.158  25.218  1.00  0.00     0.261 C 
BRANCH   4   5
ATOM      5  O   UNL A   1      45.977  22.208  25.694  1.00  0.00    -0.459 OA
BRANCH   5   6
ATOM      6  C   UNL A   1      46.118  23.250  24.854  1.00  0.00     0.352 C 
ATOM      7  O   UNL A   1      46.037  23.250  23.638  1.00  0.00    -0.245 OA
BRANCH   6   8
ATOM      8  C   UNL A   1      46.315  24.537  25.652  1.00  0.00     0.132 C 
ATOM      9  C   UNL A   1      46.367  30.289  26.118  1.00  0.00     0.092 C 
ATOM     10  C   UNL A   1      46.393  28.821  26.257  1.00  0.00     0.149 A 
ATOM     11  N   UNL A   1      45.718  28.003  25.394  1.00  0.00    -0.195 NA
ATOM     12  N   UNL A   1      47.127  28.184  27.177  1.00  0.00    -0.154 NA
ATOM     13  C   UNL A   1      46.055  26.789  25.770  1.00  0.00     0.249 A 
ATOM     14  N   UNL A   1      46.826  26.897  26.896  1.00  0.00    -0.219 N 
ATOM     15  N   UNL A   1      45.818  25.621  25.143  1.00  0.00    -0.209 NA
ATOM     16  C   UNL A   1      47.424  25.774  27.594  1.00  0.00     0.184 C 
ATOM     17  C   UNL A   1      47.023  24.426  26.980  1.00  0.00     0.100 C 
BRANCH  16  18
ATOM     18  C   UNL A   1      47.109  25.817  29.067  1.00  0.00     0.136 A 
ATOM     19  C   UNL A   1      47.758  26.295  30.196  1.00  0.00     0.056 A 
ATOM     20  O   UNL A   1      45.922  25.238  29.437  1.00  0.00    -0.404 OA
ATOM     21  C   UNL A   1      46.930  26.003  31.311  1.00  0.00     0.134 A 
ATOM     22  C   UNL A   1      45.830  25.369  30.789  1.00  0.00     0.433 A 
BRANCH  22  23
ATOM     23  N   UNL A   1      44.663  24.826  31.409  1.00  0.00     0.102 N 
ATOM     24  O   UNL A   1      44.254  25.428  32.409  1.00  0.00    -0.256 OA
ATOM     25  O   UNL A   1      44.182  23.803  30.908  1.00  0.00    -0.256 OA
ENDBRANCH  22  23
ENDBRANCH  16  18
ENDBRANCH   6   8
ENDBRANCH   5   6
ENDBRANCH   4   5
ENDBRANCH   3   4
ENDBRANCH   2   3
ENDBRANCH   1   2
BRANCH   1  26
ATOM     26  C   UNL A   1      41.078  20.477  27.400  1.00  0.00     0.261 C 
BRANCH  26  27
ATOM     27  O   UNL A   1      40.732  21.777  27.878  1.00  0.00    -0.460 OA
BRANCH  27  28
ATOM     28  C   UNL A   1      41.816  22.440  28.357  1.00  0.00     0.338 C 
ATOM     29  O   UNL A   1      42.773  21.944  28.933  1.00  0.00    -0.246 OA
BRANCH  28  30
ATOM     30  C   UNL A   1      41.775  23.868  28.030  1.00  0.00     0.060 A 
ATOM     31  C   UNL A   1      42.976  24.480  27.660  1.00  0.00     0.016 A 
ATOM     32  C   UNL A   1      40.641  24.623  28.329  1.00  0.00     0.016 A 
ATOM     33  C   UNL A   1      43.068  25.867  27.659  1.00  0.00     0.010 A 
ATOM     34  C   UNL A   1      40.747  26.013  28.347  1.00  0.00     0.010 A 
ATOM     35  C   UNL A   1      41.964  26.643  28.037  1.00  0.00    -0.014 A 
BRANCH  35  36
ATOM     36  C   UNL A   1      42.129  28.116  28.041  1.00  0.00     0.031 A 
ATOM     37  C   UNL A   1      40.829  28.863  27.991  1.00  0.00     0.074 A 
ATOM     38  C   UNL A   1      43.205  28.677  28.649  1.00  0.00     0.049 A 
ATOM     39  N   UNL A   1      40.071  29.027  29.035  1.00  0.00    -0.248 NA
ATOM     40  C   UNL A   1      40.155  29.176  26.731  1.00  0.00     0.031 C 
ATOM     41  C   UNL A   1      43.801  28.139  29.881  1.00  0.00     0.029 A 
ATOM     42  N   UNL A   1      43.828  29.900  28.481  1.00  0.00    -0.354 N 
ATOM     43  C   UNL A   1      38.808  29.392  28.590  1.00  0.00     0.074 A 
ATOM     44  C   UNL A   1      38.917  29.493  27.152  1.00  0.00     0.031 C 
ATOM     45  C   UNL A   1      44.564  29.096  30.448  1.00  0.00     0.029 A 
ATOM     46  C   UNL A   1      44.613  30.274  29.577  1.00  0.00     0.049 A 
ATOM     47  H   UNL A   1      43.728  30.451  27.671  1.00  0.00     0.167 HD
ATOM     48  C   UNL A   1      37.760  29.572  29.441  1.00  0.00     0.034 A 
ATOM     49  C   UNL A   1      44.722  31.554  30.042  1.00  0.00     0.034 A 
ATOM     50  C   UNL A   1      38.069  29.361  30.830  1.00  0.00     0.049 A 
ATOM     51  C   UNL A   1      43.384  31.739  30.706  1.00  0.00     0.074 A 
ATOM     52  C   UNL A   1      37.877  28.381  31.777  1.00  0.00     0.029 A 
ATOM     53  N   UNL A   1      38.800  30.327  31.478  1.00  0.00    -0.354 N 
ATOM     54  N   UNL A   1      43.040  31.260  31.872  1.00  0.00    -0.248 NA
ATOM     55  C   UNL A   1      42.266  32.141  29.855  1.00  0.00     0.031 C 
ATOM     56  C   UNL A   1      38.887  28.604  32.769  1.00  0.00     0.029 A 
ATOM     57  C   UNL A   1      39.647  29.694  32.349  1.00  0.00     0.049 A 
ATOM     58  H   UNL A   1      38.727  31.299  31.341  1.00  0.00     0.167 HD
ATOM     59  C   UNL A   1      41.670  31.009  31.775  1.00  0.00     0.074 A 
ATOM     60  C   UNL A   1      41.251  31.616  30.525  1.00  0.00     0.031 C 
ATOM     61  C   UNL A   1      40.989  30.170  32.613  1.00  0.00     0.034 A 
BRANCH  48  62
ATOM     62  C   UNL A   1      36.431  30.145  29.096  1.00  0.00     0.023 A 
ATOM     63  C   UNL A   1      35.670  29.384  28.182  1.00  0.00     0.012 A 
ATOM     64  C   UNL A   1      36.022  31.454  29.405  1.00  0.00     0.148 A 
ATOM     65  C   UNL A   1      34.566  29.925  27.532  1.00  0.00     0.002 A 
ATOM     66  C   UNL A   1      34.900  31.986  28.762  1.00  0.00     0.091 A 
ATOM     67  F   UNL A   1      36.757  32.173  30.266  1.00  0.00    -0.205 F 
ATOM     68  C   UNL A   1      34.187  31.229  27.814  1.00  0.00     0.022 A 
BRANCH  66  69
ATOM     69  S   UNL A   1      34.291  33.656  29.033  1.00  0.00     0.127 S 
ATOM     70  O   UNL A   1      33.958  33.634  30.457  1.00  0.00    -0.237 OA
ATOM     71  O   UNL A   1      35.464  34.464  28.697  1.00  0.00    -0.237 OA
ATOM     72  O   UNL A   1      33.164  33.822  28.128  1.00  0.00    -0.744 OA
ENDBRANCH  66  69
ENDBRANCH  48  62
BRANCH  49  73
ATOM     73  C   UNL A   1      45.354  32.571  29.137  1.00  0.00     0.023 A 
ATOM     74  C   UNL A   1      46.563  33.154  29.589  1.00  0.00     0.012 A 
ATOM     75  C   UNL A   1      44.848  33.019  27.901  1.00  0.00     0.148 A 
ATOM     76  C   UNL A   1      47.289  34.053  28.804  1.00  0.00     0.002 A 
ATOM     77  C   UNL A   1      45.609  33.858  27.088  1.00  0.00     0.091 A 
ATOM     78  F   UNL A   1      43.620  32.647  27.524  1.00  0.00    -0.205 F 
ATOM     79  C   UNL A   1      46.831  34.376  27.536  1.00  0.00     0.022 A 
BRANCH  77  80
ATOM     80  S   UNL A   1      45.140  34.255  25.395  1.00  0.00     0.127 S 
ATOM     81  O   UNL A   1      44.050  35.208  25.597  1.00  0.00    -0.237 OA
ATOM     82  O   UNL A   1      46.380  34.836  24.879  1.00  0.00    -0.237 OA
ATOM     83  O   UNL A   1      44.759  32.990  24.783  1.00  0.00    -0.744 OA
ENDBRANCH  77  80
ENDBRANCH  49  73
BRANCH  61  84
ATOM     84  C   UNL A   1      41.781  29.582  33.746  1.00  0.00     0.023 A 
ATOM     85  C   UNL A   1      42.242  28.256  33.635  1.00  0.00     0.012 A 
ATOM     86  C   UNL A   1      42.113  30.328  34.898  1.00  0.00     0.148 A 
ATOM     87  C   UNL A   1      43.028  27.687  34.635  1.00  0.00     0.002 A 
ATOM     88  C   UNL A   1      42.937  29.770  35.870  1.00  0.00     0.091 A 
ATOM     89  F   UNL A   1      41.626  31.571  35.029  1.00  0.00    -0.205 F 
ATOM     90  C   UNL A   1      43.390  28.448  35.742  1.00  0.00     0.022 A 
BRANCH  88  91
ATOM     91  S   UNL A   1      43.525  30.686  37.300  1.00  0.00     0.127 S 
ATOM     92  O   UNL A   1      44.272  31.779  36.678  1.00  0.00    -0.237 OA
ATOM     93  O   UNL A   1      42.268  31.093  37.933  1.00  0.00    -0.237 OA
ATOM     94  O   UNL A   1      44.329  29.758  38.084  1.00  0.00    -0.744 OA
ENDBRANCH  88  91
ENDBRANCH  61  84
ENDBRANCH  35  36
ENDBRANCH  28  30
ENDBRANCH  27  28
ENDBRANCH  26  27
ENDBRANCH   1  26
TORSDOF 19
ENDMDL
MODEL 2
REMARK VINA RESULT:      -9.7      4.736     10.793
REMARK SMILES Cc1nc2n(n1)[C@@H](c1ccc([N+](=O)[O-])o1)CC(C(=O)OCCOCCOC(=O)c1ccc(-c3c4nc(c(-c5cccc(S(=O)(=O)[O-])c5F)c5ccc([nH]5)c(-c5cccc(S(=O)(=O)[O-])c5F)c5nc(c(-c6cccc(S(=O)(=O)[O-])c6F)c6ccc3[nH]6)C=C5)C=C4)cc1)=N2
REMARK SMILES IDX 24 1 23 2 22 3 21 4 20 5 18 6 19 7 17 8 1 9 2 10 3 11 6 12
REMARK SMILES IDX 4 13 5 14 92 15 7 16 16 17 8 18 9 19 15 20 10 21 11 22 12 23
REMARK SMILES IDX 13 24 14 25 25 26 26 27 27 28 28 29 29 30 30 31 91 32 31 33
REMARK SMILES IDX 90 34 32 35 33 36 34 37 84 38 35 39 89 40 83 41 85 42 36 43
REMARK SMILES IDX 88 44 82 45 81 46 37 48 69 49 49 50 68 51 50 52 53 53 67 54
REMARK SMILES IDX 86 55 51 56 52 57 66 59 87 60 54 61 38 62 39 63 47 64 40 65
REMARK SMILES IDX 42 66 48 67 41 68 43 69 44 70 45 71 46 72 70 73 71 74 79 75
REMARK SMILES IDX 72 76 74 77 80 78 73 79 75 80 76 81 77 82 78 83 55 84 56 85
REMARK SMILES IDX 64 86 57 87 59 88 65 89 58 90 60 91 61 92 62 93 63 94
REMARK H PARENT 85 47 53 58
REMARK Flexibility Score: inf
ROOT
ATOM      1  C   UNL A   1      33.696  30.465  27.193  1.00  0.00     0.202 C 
ENDROOT
BRANCH   1   2
ATOM      2  O   UNL A   1      32.339  30.259  26.813  1.00  0.00    -0.374 OA
BRANCH   2   3
ATOM      3  C   UNL A   1      32.059  29.837  25.481  1.00  0.00     0.202 C 
BRANCH   3   4
ATOM      4  C   UNL A   1      33.042  28.839  24.864  1.00  0.00     0.261 C 
BRANCH   4   5
ATOM      5  O   UNL A   1      32.393  28.015  23.887  1.00  0.00    -0.459 OA
BRANCH   5   6
ATOM      6  C   UNL A   1      33.111  26.956  23.470  1.00  0.00     0.352 C 
ATOM      7  O   UNL A   1      33.970  26.925  22.606  1.00  0.00    -0.245 OA
BRANCH   6   8
ATOM      8  C   UNL A   1      32.773  25.733  24.320  1.00  0.00     0.132 C 
ATOM      9  C   UNL A   1      29.181  22.659  27.629  1.00  0.00     0.092 C 
ATOM     10  C   UNL A   1      30.255  23.237  26.801  1.00  0.00     0.149 A 
ATOM     11  N   UNL A   1      29.998  24.167  25.833  1.00  0.00    -0.195 NA
ATOM     12  N   UNL A   1      31.551  22.955  26.980  1.00  0.00    -0.154 NA
ATOM     13  C   UNL A   1      31.189  24.509  25.390  1.00  0.00     0.249 A 
ATOM     14  N   UNL A   1      32.112  23.715  26.015  1.00  0.00    -0.219 N 
ATOM     15  N   UNL A   1      31.518  25.521  24.565  1.00  0.00    -0.209 NA
ATOM     16  C   UNL A   1      33.547  23.812  25.818  1.00  0.00     0.184 C 
ATOM     17  C   UNL A   1      33.921  24.855  24.755  1.00  0.00     0.100 C 
BRANCH  16  18
ATOM     18  C   UNL A   1      34.146  22.468  25.496  1.00  0.00     0.136 A 
ATOM     19  C   UNL A   1      35.436  21.978  25.347  1.00  0.00     0.056 A 
ATOM     20  O   UNL A   1      33.249  21.458  25.263  1.00  0.00    -0.404 OA
ATOM     21  C   UNL A   1      35.327  20.604  25.012  1.00  0.00     0.134 A 
ATOM     22  C   UNL A   1      33.979  20.344  24.983  1.00  0.00     0.433 A 
BRANCH  22  23
ATOM     23  N   UNL A   1      33.248  19.150  24.697  1.00  0.00     0.102 N 
ATOM     24  O   UNL A   1      32.152  19.040  25.260  1.00  0.00    -0.256 OA
ATOM     25  O   UNL A   1      33.778  18.333  23.934  1.00  0.00    -0.256 OA
ENDBRANCH  22  23
ENDBRANCH  16  18
ENDBRANCH   6   8
ENDBRANCH   5   6
ENDBRANCH   4   5
ENDBRANCH   3   4
ENDBRANCH   2   3
ENDBRANCH   1   2
BRANCH   1  26
ATOM     26  C   UNL A   1      34.097  31.661  28.075  1.00  0.00     0.261 C 
BRANCH  26  27
ATOM     27  O   UNL A   1      35.311  32.335  27.742  1.00  0.00    -0.460 OA
BRANCH  27  28
ATOM     28  C   UNL A   1      35.771  33.082  28.779  1.00  0.00     0.338 C 
ATOM     29  O   UNL A   1      35.278  34.116  29.201  1.00  0.00    -0.246 OA
BRANCH  28  30
ATOM     30  C   UNL A   1      36.924  32.459  29.434  1.00  0.00     0.060 A 
ATOM     31  C   UNL A   1      37.764  31.668  28.645  1.00  0.00     0.016 A 
ATOM     32  C   UNL A   1      37.021  32.451  30.824  1.00  0.00     0.016 A 
ATOM     33  C   UNL A   1      38.664  30.801  29.255  1.00  0.00     0.010 A 
ATOM     34  C   UNL A   1      37.910  31.565  31.430  1.00  0.00     0.010 A 
ATOM     35  C   UNL A   1      38.718  30.717  30.653  1.00  0.00    -0.014 A 
BRANCH  35  36
ATOM     36  C   UNL A   1      39.678  29.757  31.246  1.00  0.00     0.031 A 
ATOM     37  C   UNL A   1      39.714  28.433  30.541  1.00  0.00     0.074 A 
ATOM     38  C   UNL A   1      40.788  30.212  31.879  1.00  0.00     0.049 A 
ATOM     39  N   UNL A   1      40.348  28.249  29.421  1.00  0.00    -0.248 NA
ATOM     40  C   UNL A   1      38.787  27.348  30.867  1.00  0.00     0.031 C 
ATOM     41  C   UNL A   1      41.532  31.402  31.439  1.00  0.00     0.029 A 
ATOM     42  N   UNL A   1      41.607  29.640  32.836  1.00  0.00    -0.354 N 
ATOM     43  C   UNL A   1      39.871  27.078  28.850  1.00  0.00     0.074 A 
ATOM     44  C   UNL A   1      38.919  26.543  29.798  1.00  0.00     0.031 C 
ATOM     45  C   UNL A   1      42.764  31.373  31.989  1.00  0.00     0.029 A 
ATOM     46  C   UNL A   1      42.870  30.236  32.909  1.00  0.00     0.049 A 
ATOM     47  H   UNL A   1      41.328  28.888  33.408  1.00  0.00     0.167 HD
ATOM     48  C   UNL A   1      40.288  26.640  27.629  1.00  0.00     0.034 A 
ATOM     49  C   UNL A   1      44.031  29.551  33.132  1.00  0.00     0.034 A 
ATOM     50  C   UNL A   1      41.261  27.483  26.988  1.00  0.00     0.049 A 
ATOM     51  C   UNL A   1      44.229  28.870  31.803  1.00  0.00     0.074 A 
ATOM     52  C   UNL A   1      41.289  28.421  25.980  1.00  0.00     0.029 A 
ATOM     53  N   UNL A   1      42.548  27.458  27.469  1.00  0.00    -0.354 N 
ATOM     54  N   UNL A   1      44.679  29.437  30.716  1.00  0.00    -0.248 NA
ATOM     55  C   UNL A   1      43.523  27.608  31.588  1.00  0.00     0.031 C 
ATOM     56  C   UNL A   1      42.451  29.221  26.233  1.00  0.00     0.029 A 
ATOM     57  C   UNL A   1      43.045  28.733  27.396  1.00  0.00     0.049 A 
ATOM     58  H   UNL A   1      43.026  26.666  27.806  1.00  0.00     0.167 HD
ATOM     59  C   UNL A   1      44.044  28.772  29.665  1.00  0.00     0.074 A 
ATOM     60  C   UNL A   1      43.383  27.631  30.271  1.00  0.00     0.031 C 
ATOM     61  C   UNL A   1      43.932  29.279  28.401  1.00  0.00     0.034 A 
BRANCH  48  62
ATOM     62  C   UNL A   1      39.992  25.317  27.017  1.00  0.00     0.023 A 
ATOM     63  C   UNL A   1      38.629  25.075  26.743  1.00  0.00     0.012 A 
ATOM     64  C   UNL A   1      40.906  24.250  26.943  1.00  0.00     0.148 A 
ATOM     65  C   UNL A   1      38.161  23.795  26.468  1.00  0.00     0.002 A 
ATOM     66  C   UNL A   1      40.432  22.969  26.647  1.00  0.00     0.091 A 
ATOM     67  F   UNL A   1      42.197  24.487  27.215  1.00  0.00    -0.205 F 
ATOM     68  C   UNL A   1      39.061  22.739  26.429  1.00  0.00     0.022 A 
BRANCH  66  69
ATOM     69  S   UNL A   1      41.483  21.511  26.558  1.00  0.00     0.127 S 
ATOM     70  O   UNL A   1      40.518  20.456  26.252  1.00  0.00    -0.237 OA
ATOM     71  O   UNL A   1      42.380  21.853  25.454  1.00  0.00    -0.237 OA
ATOM     72  O   UNL A   1      42.134  21.409  27.856  1.00  0.00    -0.744 OA
ENDBRANCH  66  69
ENDBRANCH  48  62
BRANCH  49  73
ATOM     73  C   UNL A   1      44.190  28.862  34.456  1.00  0.00     0.023 A 
ATOM     74  C   UNL A   1      45.331  29.211  35.216  1.00  0.00     0.012 A 
ATOM     75  C   UNL A   1      43.329  27.887  34.998  1.00  0.00     0.148 A 
ATOM     76  C   UNL A   1      45.549  28.700  36.499  1.00  0.00     0.002 A 
ATOM     77  C   UNL A   1      43.508  27.434  36.305  1.00  0.00     0.091 A 
ATOM     78  F   UNL A   1      42.350  27.384  34.239  1.00  0.00    -0.205 F 
ATOM     79  C   UNL A   1      44.617  27.840  37.059  1.00  0.00     0.022 A 
BRANCH  77  80
ATOM     80  S   UNL A   1      42.302  26.395  37.145  1.00  0.00     0.127 S 
ATOM     81  O   UNL A   1      42.285  25.203  36.298  1.00  0.00    -0.237 OA
ATOM     82  O   UNL A   1      42.936  26.213  38.451  1.00  0.00    -0.237 OA
ATOM     83  O   UNL A   1      41.066  27.162  37.169  1.00  0.00    -0.744 OA
ENDBRANCH  77  80
ENDBRANCH  49  73
BRANCH  61  84
ATOM     84  C   UNL A   1      44.631  30.585  28.149  1.00  0.00     0.023 A 
ATOM     85  C   UNL A   1      45.976  30.565  27.729  1.00  0.00     0.012 A 
ATOM     86  C   UNL A   1      43.974  31.827  28.278  1.00  0.00     0.148 A 
ATOM     87  C   UNL A   1      46.649  31.748  27.429  1.00  0.00     0.002 A 
ATOM     88  C   UNL A   1      44.636  33.001  27.931  1.00  0.00     0.091 A 
ATOM     89  F   UNL A   1      42.712  31.849  28.733  1.00  0.00    -0.205 F 
ATOM     90  C   UNL A   1      45.975  32.962  27.513  1.00  0.00     0.022 A 
BRANCH  88  91
ATOM     91  S   UNL A   1      43.840  34.613  27.933  1.00  0.00     0.127 S 
ATOM     92  O   UNL A   1      43.021  34.551  26.723  1.00  0.00    -0.237 OA
ATOM     93  O   UNL A   1      43.080  34.570  29.184  1.00  0.00    -0.237 OA
ATOM     94  O   UNL A   1      44.909  35.602  27.903  1.00  0.00    -0.744 OA
ENDBRANCH  88  91
ENDBRANCH  61  84
ENDBRANCH  35  36
ENDBRANCH  28  30
ENDBRANCH  27  28
ENDBRANCH  26  27
ENDBRANCH   1  26
TORSDOF 19
ENDMDL
MODEL 3
REMARK VINA RESULT:      -9.6      4.105      7.562
REMARK SMILES Cc1nc2n(n1)[C@@H](c1ccc([N+](=O)[O-])o1)CC(C(=O)OCCOCCOC(=O)c1ccc(-c3c4nc(c(-c5cccc(S(=O)(=O)[O-])c5F)c5ccc([nH]5)c(-c5cccc(S(=O)(=O)[O-])c5F)c5nc(c(-c6cccc(S(=O)(=O)[O-])c6F)c6ccc3[nH]6)C=C5)C=C4)cc1)=N2
REMARK SMILES IDX 24 1 23 2 22 3 21 4 20 5 18 6 19 7 17 8 1 9 2 10 3 11 6 12
REMARK SMILES IDX 4 13 5 14 92 15 7 16 16 17 8 18 9 19 15 20 10 21 11 22 12 23
REMARK SMILES IDX 13 24 14 25 25 26 26 27 27 28 28 29 29 30 30 31 91 32 31 33
REMARK SMILES IDX 90 34 32 35 33 36 34 37 84 38 35 39 89 40 83 41 85 42 36 43
REMARK SMILES IDX 88 44 82 45 81 46 37 48 69 49 49 50 68 51 50 52 53 53 67 54
REMARK SMILES IDX 86 55 51 56 52 57 66 59 87 60 54 61 38 62 39 63 47 64 40 65
REMARK SMILES IDX 42 66 48 67 41 68 43 69 44 70 45 71 46 72 70 73 71 74 79 75
REMARK SMILES IDX 72 76 74 77 80 78 73 79 75 80 76 81 77 82 78 83 55 84 56 85
REMARK SMILES IDX 64 86 57 87 59 88 65 89 58 90 60 91 61 92 62 93 63 94
REMARK H PARENT 85 47 53 58
REMARK Flexibility Score: inf
ROOT
ATOM      1  C   UNL A   1      38.174  21.744  25.727  1.00  0.00     0.202 C 
ENDROOT
BRANCH   1   2
ATOM      2  O   UNL A   1      37.406  20.800  24.987  1.00  0.00    -0.374 OA
BRANCH   2   3
ATOM      3  C   UNL A   1      36.050  21.116  24.677  1.00  0.00     0.202 C 
BRANCH   3   4
ATOM      4  C   UNL A   1      35.053  21.041  25.835  1.00  0.00     0.261 C 
BRANCH   4   5
ATOM      5  O   UNL A   1      34.027  22.033  25.695  1.00  0.00    -0.459 OA
BRANCH   5   6
ATOM      6  C   UNL A   1      34.400  23.285  26.015  1.00  0.00     0.352 C 
ATOM      7  O   UNL A   1      35.068  23.649  26.968  1.00  0.00    -0.245 OA
BRANCH   6   8
ATOM      8  C   UNL A   1      33.941  24.257  24.931  1.00  0.00     0.132 C 
ATOM      9  C   UNL A   1      32.645  25.547  19.457  1.00  0.00     0.092 C 
ATOM     10  C   UNL A   1      32.888  25.457  20.909  1.00  0.00     0.149 A 
ATOM     11  N   UNL A   1      32.876  24.260  21.568  1.00  0.00    -0.195 NA
ATOM     12  N   UNL A   1      33.206  26.513  21.666  1.00  0.00    -0.154 NA
ATOM     13  C   UNL A   1      33.223  24.566  22.799  1.00  0.00     0.249 A 
ATOM     14  N   UNL A   1      33.331  25.929  22.877  1.00  0.00    -0.219 N 
ATOM     15  N   UNL A   1      33.544  23.738  23.811  1.00  0.00    -0.209 NA
ATOM     16  C   UNL A   1      33.733  26.654  24.068  1.00  0.00     0.184 C 
ATOM     17  C   UNL A   1      33.942  25.727  25.274  1.00  0.00     0.100 C 
BRANCH  16  18
ATOM     18  C   UNL A   1      32.756  27.755  24.392  1.00  0.00     0.136 A 
ATOM     19  C   UNL A   1      32.536  28.583  25.484  1.00  0.00     0.056 A 
ATOM     20  O   UNL A   1      31.827  28.030  23.422  1.00  0.00    -0.404 OA
ATOM     21  C   UNL A   1      31.426  29.408  25.168  1.00  0.00     0.134 A 
ATOM     22  C   UNL A   1      31.043  29.032  23.904  1.00  0.00     0.433 A 
BRANCH  22  23
ATOM     23  N   UNL A   1      29.986  29.487  23.057  1.00  0.00     0.102 N 
ATOM     24  O   UNL A   1      29.781  28.812  22.041  1.00  0.00    -0.256 OA
ATOM     25  O   UNL A   1      29.390  30.514  23.401  1.00  0.00    -0.256 OA
ENDBRANCH  22  23
ENDBRANCH  16  18
ENDBRANCH   6   8
ENDBRANCH   5   6
ENDBRANCH   4   5
ENDBRANCH   3   4
ENDBRANCH   2   3
ENDBRANCH   1   2
BRANCH   1  26
ATOM     26  C   UNL A   1      39.631  21.442  26.121  1.00  0.00     0.261 C 
BRANCH  26  27
ATOM     27  O   UNL A   1      40.131  22.078  27.297  1.00  0.00    -0.460 OA
BRANCH  27  28
ATOM     28  C   UNL A   1      41.489  22.096  27.320  1.00  0.00     0.338 C 
ATOM     29  O   UNL A   1      42.228  21.154  27.077  1.00  0.00    -0.246 OA
BRANCH  28  30
ATOM     30  C   UNL A   1      42.016  23.435  27.593  1.00  0.00     0.060 A 
ATOM     31  C   UNL A   1      41.219  24.299  28.350  1.00  0.00     0.016 A 
ATOM     32  C   UNL A   1      43.138  23.900  26.910  1.00  0.00     0.016 A 
ATOM     33  C   UNL A   1      41.504  25.659  28.366  1.00  0.00     0.010 A 
ATOM     34  C   UNL A   1      43.406  25.268  26.912  1.00  0.00     0.010 A 
ATOM     35  C   UNL A   1      42.578  26.159  27.618  1.00  0.00    -0.014 A 
BRANCH  35  36
ATOM     36  C   UNL A   1      42.819  27.620  27.653  1.00  0.00     0.031 A 
ATOM     37  C   UNL A   1      41.558  28.434  27.658  1.00  0.00     0.074 A 
ATOM     38  C   UNL A   1      43.938  28.111  28.242  1.00  0.00     0.049 A 
ATOM     39  N   UNL A   1      40.838  28.610  28.727  1.00  0.00    -0.248 NA
ATOM     40  C   UNL A   1      40.866  28.813  26.426  1.00  0.00     0.031 C 
ATOM     41  C   UNL A   1      44.540  27.511  29.443  1.00  0.00     0.029 A 
ATOM     42  N   UNL A   1      44.618  29.304  28.086  1.00  0.00    -0.354 N 
ATOM     43  C   UNL A   1      39.584  29.049  28.329  1.00  0.00     0.074 A 
ATOM     44  C   UNL A   1      39.658  29.181  26.891  1.00  0.00     0.031 C 
ATOM     45  C   UNL A   1      45.367  28.414  30.010  1.00  0.00     0.029 A 
ATOM     46  C   UNL A   1      45.452  29.610  29.167  1.00  0.00     0.049 A 
ATOM     47  H   UNL A   1      44.525  29.881  27.293  1.00  0.00     0.167 HD
ATOM     48  C   UNL A   1      38.570  29.260  29.214  1.00  0.00     0.034 A 
ATOM     49  C   UNL A   1      45.640  30.870  29.660  1.00  0.00     0.034 A 
ATOM     50  C   UNL A   1      38.907  28.998  30.588  1.00  0.00     0.049 A 
ATOM     51  C   UNL A   1      44.332  31.106  30.367  1.00  0.00     0.074 A 
ATOM     52  C   UNL A   1      38.692  28.004  31.516  1.00  0.00     0.029 A 
ATOM     53  N   UNL A   1      39.705  29.908  31.238  1.00  0.00    -0.354 N 
ATOM     54  N   UNL A   1      43.996  30.615  31.531  1.00  0.00    -0.248 NA
ATOM     55  C   UNL A   1      43.213  31.586  29.559  1.00  0.00     0.031 C 
ATOM     56  C   UNL A   1      39.739  28.150  32.483  1.00  0.00     0.029 A 
ATOM     57  C   UNL A   1      40.542  29.211  32.068  1.00  0.00     0.049 A 
ATOM     58  H   UNL A   1      39.678  30.886  31.127  1.00  0.00     0.167 HD
ATOM     59  C   UNL A   1      42.612  30.436  31.467  1.00  0.00     0.074 A 
ATOM     60  C   UNL A   1      42.191  31.096  30.245  1.00  0.00     0.031 C 
ATOM     61  C   UNL A   1      41.913  29.612  32.304  1.00  0.00     0.034 A 
BRANCH  48  62
ATOM     62  C   UNL A   1      37.264  29.908  28.922  1.00  0.00     0.023 A 
ATOM     63  C   UNL A   1      36.394  29.157  28.102  1.00  0.00     0.012 A 
ATOM     64  C   UNL A   1      36.966  31.257  29.182  1.00  0.00     0.148 A 
ATOM     65  C   UNL A   1      35.288  29.742  27.493  1.00  0.00     0.002 A 
ATOM     66  C   UNL A   1      35.843  31.834  28.583  1.00  0.00     0.091 A 
ATOM     67  F   UNL A   1      37.804  31.965  29.954  1.00  0.00    -0.205 F 
ATOM     68  C   UNL A   1      35.018  31.083  27.726  1.00  0.00     0.022 A 
BRANCH  66  69
ATOM     69  S   UNL A   1      35.369  33.556  28.798  1.00  0.00     0.127 S 
ATOM     70  O   UNL A   1      34.391  33.471  29.882  1.00  0.00    -0.237 OA
ATOM     71  O   UNL A   1      36.641  34.175  29.174  1.00  0.00    -0.237 OA
ATOM     72  O   UNL A   1      34.844  33.989  27.512  1.00  0.00    -0.744 OA
ENDBRANCH  66  69
ENDBRANCH  48  62
BRANCH  49  73
ATOM     73  C   UNL A   1      46.298  31.877  28.762  1.00  0.00     0.023 A 
ATOM     74  C   UNL A   1      47.127  31.363  27.737  1.00  0.00     0.012 A 
ATOM     75  C   UNL A   1      46.190  33.278  28.859  1.00  0.00     0.148 A 
ATOM     76  C   UNL A   1      47.731  32.193  26.789  1.00  0.00     0.002 A 
ATOM     77  C   UNL A   1      46.731  34.100  27.871  1.00  0.00     0.091 A 
ATOM     78  F   UNL A   1      45.581  33.816  29.922  1.00  0.00    -0.205 F 
ATOM     79  C   UNL A   1      47.502  33.560  26.833  1.00  0.00     0.022 A 
BRANCH  77  80
ATOM     80  S   UNL A   1      46.408  35.869  27.795  1.00  0.00     0.127 S 
ATOM     81  O   UNL A   1      47.073  36.246  26.548  1.00  0.00    -0.237 OA
ATOM     82  O   UNL A   1      44.946  35.895  27.746  1.00  0.00    -0.237 OA
ATOM     83  O   UNL A   1      46.987  36.430  29.006  1.00  0.00    -0.744 OA
ENDBRANCH  77  80
ENDBRANCH  49  73
BRANCH  61  84
ATOM     84  C   UNL A   1      42.705  28.956  33.399  1.00  0.00     0.023 A 
ATOM     85  C   UNL A   1      42.909  29.657  34.603  1.00  0.00     0.012 A 
ATOM     86  C   UNL A   1      43.215  27.645  33.276  1.00  0.00     0.148 A 
ATOM     87  C   UNL A   1      43.589  29.067  35.667  1.00  0.00     0.002 A 
ATOM     88  C   UNL A   1      43.850  27.045  34.359  1.00  0.00     0.091 A 
ATOM     89  F   UNL A   1      43.070  26.999  32.109  1.00  0.00    -0.205 F 
ATOM     90  C   UNL A   1      44.043  27.758  35.552  1.00  0.00     0.022 A 
BRANCH  88  91
ATOM     91  S   UNL A   1      44.410  25.337  34.343  1.00  0.00     0.127 S 
ATOM     92  O   UNL A   1      45.249  25.300  33.145  1.00  0.00    -0.237 OA
ATOM     93  O   UNL A   1      45.148  25.251  35.604  1.00  0.00    -0.237 OA
ATOM     94  O   UNL A   1      43.212  24.510  34.280  1.00  0.00    -0.744 OA
ENDBRANCH  88  91
ENDBRANCH  61  84
ENDBRANCH  35  36
ENDBRANCH  28  30
ENDBRANCH  27  28
ENDBRANCH  26  27
ENDBRANCH   1  26
TORSDOF 19
ENDMDL
