MODEL 1
REMARK VINA RESULT:     -12.2      0.000      0.000
REMARK SMILES O=C(OCCOCCOC(=O)c1ccc(-c2c3nc(c(-c4cccc(S(=O)(=O)[O-])c4F)c4ccc([nH]4)c(-c4cccc(S(=O)(=O)[O-])c4F)c4nc(c(-c5cccc(S(=O)(=O)[O-])c5F)c5ccc2[nH]5)C=C4)C=C3)cc1)c1ccc(C[C@H]2SC(=O)N(c3ccccc3)C2=O)cc1
REMARK SMILES IDX 6 1 5 2 4 3 3 4 2 5 1 6 75 7 76 8 94 9 77 10 93 11 78 12
REMARK SMILES IDX 79 13 80 14 81 15 91 16 82 17 84 18 92 19 83 20 85 21 86 22
REMARK SMILES IDX 90 23 87 24 89 25 88 26 7 27 8 28 9 29 10 30 11 31 12 32
REMARK SMILES IDX 13 33 74 34 14 35 73 36 15 37 16 38 17 39 67 40 18 41 72 42
REMARK SMILES IDX 66 43 68 44 19 45 71 46 65 47 64 48 20 50 52 51 32 52 51 53
REMARK SMILES IDX 33 54 36 55 50 56 69 57 34 58 35 59 49 61 70 62 37 63 21 64
REMARK SMILES IDX 22 65 30 66 23 67 25 68 31 69 24 70 26 71 27 72 28 73 29 74
REMARK SMILES IDX 53 75 54 76 62 77 55 78 57 79 63 80 56 81 58 82 59 83 60 84
REMARK SMILES IDX 61 85 38 86 39 87 47 88 40 89 42 90 48 91 41 92 43 93 44 94
REMARK SMILES IDX 45 95 46 96
REMARK H PARENT 68 49 36 60
REMARK Flexibility Score: inf
ROOT
ATOM      1  O   UNL A   1      32.127  30.772  26.699  1.00  0.00    -0.374 OA
ENDROOT
BRANCH   1   2
ATOM      2  C   UNL A   1      31.753  29.506  26.157  1.00  0.00     0.202 C 
BRANCH   2   3
ATOM      3  C   UNL A   1      31.862  29.469  24.635  1.00  0.00     0.261 C 
BRANCH   3   4
ATOM      4  O   UNL A   1      30.561  29.250  24.045  1.00  0.00    -0.460 OA
BRANCH   4   5
ATOM      5  C   UNL A   1      30.267  28.279  23.146  1.00  0.00     0.338 C 
ATOM      6  O   UNL A   1      29.753  28.531  22.063  1.00  0.00    -0.246 OA
BRANCH   5   7
ATOM      7  C   UNL A   1      30.618  26.882  23.459  1.00  0.00     0.060 A 
ATOM      8  C   UNL A   1      30.149  26.257  24.616  1.00  0.00     0.016 A 
ATOM      9  C   UNL A   1      31.384  26.165  22.538  1.00  0.00     0.016 A 
ATOM     10  C   UNL A   1      30.517  24.947  24.898  1.00  0.00     0.004 A 
ATOM     11  C   UNL A   1      31.746  24.844  22.818  1.00  0.00     0.004 A 
ATOM     12  C   UNL A   1      31.335  24.236  24.013  1.00  0.00    -0.046 A 
BRANCH  12  13
ATOM     13  C   UNL A   1      31.781  22.840  24.366  1.00  0.00     0.060 C 
BRANCH  13  14
ATOM     14  C   UNL A   1      32.981  22.342  23.544  1.00  0.00     0.151 C 
ATOM     15  S   UNL A   1      34.582  22.693  24.306  1.00  0.00    -0.050 SA
ATOM     16  C   UNL A   1      32.901  20.833  23.489  1.00  0.00     0.248 C 
ATOM     17  C   UNL A   1      34.735  21.068  24.936  1.00  0.00     0.293 C 
ATOM     18  N   UNL A   1      33.785  20.237  24.381  1.00  0.00    -0.240 N 
ATOM     19  O   UNL A   1      32.047  20.283  22.798  1.00  0.00    -0.273 OA
ATOM     20  O   UNL A   1      35.631  20.798  25.720  1.00  0.00    -0.261 OA
BRANCH  18  21
ATOM     21  C   UNL A   1      33.713  18.846  24.711  1.00  0.00     0.053 A 
ATOM     22  C   UNL A   1      34.667  17.931  24.242  1.00  0.00     0.027 A 
ATOM     23  C   UNL A   1      32.657  18.342  25.490  1.00  0.00     0.027 A 
ATOM     24  C   UNL A   1      34.565  16.565  24.528  1.00  0.00     0.002 A 
ATOM     25  C   UNL A   1      32.545  16.975  25.764  1.00  0.00     0.002 A 
ATOM     26  C   UNL A   1      33.499  16.087  25.280  1.00  0.00     0.000 A 
ENDBRANCH  18  21
ENDBRANCH  13  14
ENDBRANCH  12  13
ENDBRANCH   5   7
ENDBRANCH   4   5
ENDBRANCH   3   4
ENDBRANCH   2   3
ENDBRANCH   1   2
BRANCH   1  27
ATOM     27  C   UNL A   1      31.212  31.841  26.421  1.00  0.00     0.202 C 
BRANCH  27  28
ATOM     28  C   UNL A   1      31.884  33.169  26.783  1.00  0.00     0.261 C 
BRANCH  28  29
ATOM     29  O   UNL A   1      32.795  32.914  27.860  1.00  0.00    -0.460 OA
BRANCH  29  30
ATOM     30  C   UNL A   1      33.886  33.720  27.869  1.00  0.00     0.338 C 
ATOM     31  O   UNL A   1      33.900  34.932  27.732  1.00  0.00    -0.246 OA
BRANCH  30  32
ATOM     32  C   UNL A   1      35.058  32.906  28.268  1.00  0.00     0.060 A 
ATOM     33  C   UNL A   1      34.854  31.557  28.589  1.00  0.00     0.016 A 
ATOM     34  C   UNL A   1      36.350  33.446  28.288  1.00  0.00     0.016 A 
ATOM     35  C   UNL A   1      35.927  30.766  28.997  1.00  0.00     0.010 A 
ATOM     36  C   UNL A   1      37.424  32.655  28.682  1.00  0.00     0.010 A 
ATOM     37  C   UNL A   1      37.207  31.329  29.088  1.00  0.00    -0.014 A 
BRANCH  37  38
ATOM     38  C   UNL A   1      38.287  30.626  29.810  1.00  0.00     0.031 A 
ATOM     39  C   UNL A   1      38.550  31.030  31.235  1.00  0.00     0.074 A 
ATOM     40  C   UNL A   1      39.051  29.708  29.195  1.00  0.00     0.049 A 
ATOM     41  N   UNL A   1      39.486  30.628  32.051  1.00  0.00    -0.248 NA
ATOM     42  C   UNL A   1      37.642  32.040  31.810  1.00  0.00     0.031 C 
ATOM     43  C   UNL A   1      38.898  29.270  27.810  1.00  0.00     0.029 A 
ATOM     44  N   UNL A   1      40.136  29.008  29.655  1.00  0.00    -0.354 N 
ATOM     45  C   UNL A   1      39.302  31.357  33.220  1.00  0.00     0.074 A 
ATOM     46  C   UNL A   1      38.178  32.238  33.004  1.00  0.00     0.031 C 
ATOM     47  C   UNL A   1      39.879  28.397  27.520  1.00  0.00     0.029 A 
ATOM     48  C   UNL A   1      40.734  28.231  28.692  1.00  0.00     0.049 A 
ATOM     49  H   UNL A   1      40.455  29.056  30.585  1.00  0.00     0.167 HD
ATOM     50  C   UNL A   1      39.997  31.284  34.379  1.00  0.00     0.034 A 
ATOM     51  C   UNL A   1      41.857  27.487  28.755  1.00  0.00     0.034 A 
ATOM     52  C   UNL A   1      41.098  30.387  34.589  1.00  0.00     0.049 A 
ATOM     53  C   UNL A   1      42.604  27.410  30.062  1.00  0.00     0.074 A 
ATOM     54  C   UNL A   1      41.836  30.184  35.739  1.00  0.00     0.029 A 
ATOM     55  N   UNL A   1      41.625  29.549  33.617  1.00  0.00    -0.354 N 
ATOM     56  N   UNL A   1      42.337  27.998  31.204  1.00  0.00    -0.248 NA
ATOM     57  C   UNL A   1      43.787  26.537  30.101  1.00  0.00     0.031 C 
ATOM     58  C   UNL A   1      42.824  29.235  35.458  1.00  0.00     0.029 A 
ATOM     59  C   UNL A   1      42.684  28.829  34.139  1.00  0.00     0.049 A 
ATOM     60  H   UNL A   1      41.293  29.477  32.693  1.00  0.00     0.167 HD
ATOM     61  C   UNL A   1      43.292  27.541  32.105  1.00  0.00     0.074 A 
ATOM     62  C   UNL A   1      44.134  26.610  31.380  1.00  0.00     0.031 C 
ATOM     63  C   UNL A   1      43.469  27.867  33.409  1.00  0.00     0.034 A 
BRANCH  50  64
ATOM     64  C   UNL A   1      39.557  32.172  35.512  1.00  0.00     0.023 A 
ATOM     65  C   UNL A   1      38.709  31.654  36.513  1.00  0.00     0.012 A 
ATOM     66  C   UNL A   1      40.008  33.502  35.606  1.00  0.00     0.148 A 
ATOM     67  C   UNL A   1      38.291  32.455  37.573  1.00  0.00     0.002 A 
ATOM     68  C   UNL A   1      39.621  34.283  36.689  1.00  0.00     0.091 A 
ATOM     69  F   UNL A   1      40.789  33.984  34.630  1.00  0.00    -0.205 F 
ATOM     70  C   UNL A   1      38.755  33.765  37.667  1.00  0.00     0.022 A 
BRANCH  68  71
ATOM     71  S   UNL A   1      40.220  35.957  36.941  1.00  0.00     0.127 S 
ATOM     72  O   UNL A   1      39.533  36.334  38.176  1.00  0.00    -0.237 OA
ATOM     73  O   UNL A   1      41.662  35.750  37.085  1.00  0.00    -0.237 OA
ATOM     74  O   UNL A   1      39.830  36.705  35.755  1.00  0.00    -0.744 OA
ENDBRANCH  68  71
ENDBRANCH  50  64
BRANCH  51  75
ATOM     75  C   UNL A   1      42.308  26.716  27.563  1.00  0.00     0.023 A 
ATOM     76  C   UNL A   1      43.068  27.360  26.568  1.00  0.00     0.012 A 
ATOM     77  C   UNL A   1      42.015  25.345  27.421  1.00  0.00     0.148 A 
ATOM     78  C   UNL A   1      43.505  26.663  25.441  1.00  0.00     0.002 A 
ATOM     79  C   UNL A   1      42.499  24.643  26.322  1.00  0.00     0.091 A 
ATOM     80  F   UNL A   1      41.276  24.751  28.370  1.00  0.00    -0.205 F 
ATOM     81  C   UNL A   1      43.228  25.303  25.323  1.00  0.00     0.022 A 
BRANCH  79  82
ATOM     82  S   UNL A   1      42.303  22.865  26.153  1.00  0.00     0.127 S 
ATOM     83  O   UNL A   1      40.850  22.721  26.161  1.00  0.00    -0.237 OA
ATOM     84  O   UNL A   1      42.940  22.613  24.859  1.00  0.00    -0.237 OA
ATOM     85  O   UNL A   1      43.006  22.284  27.289  1.00  0.00    -0.744 OA
ENDBRANCH  79  82
ENDBRANCH  51  75
BRANCH  63  86
ATOM     86  C   UNL A   1      44.589  27.190  34.153  1.00  0.00     0.023 A 
ATOM     87  C   UNL A   1      45.880  27.751  34.135  1.00  0.00     0.012 A 
ATOM     88  C   UNL A   1      44.340  26.048  34.940  1.00  0.00     0.148 A 
ATOM     89  C   UNL A   1      46.915  27.169  34.866  1.00  0.00     0.002 A 
ATOM     90  C   UNL A   1      45.363  25.501  35.703  1.00  0.00     0.091 A 
ATOM     91  F   UNL A   1      43.108  25.519  34.929  1.00  0.00    -0.205 F 
ATOM     92  C   UNL A   1      46.654  26.052  35.658  1.00  0.00     0.022 A 
BRANCH  90  93
ATOM     93  S   UNL A   1      45.090  24.126  36.827  1.00  0.00     0.127 S 
ATOM     94  O   UNL A   1      44.073  24.672  37.723  1.00  0.00    -0.237 OA
ATOM     95  O   UNL A   1      44.611  23.077  35.927  1.00  0.00    -0.237 OA
ATOM     96  O   UNL A   1      46.384  23.849  37.438  1.00  0.00    -0.744 OA
ENDBRANCH  90  93
ENDBRANCH  63  86
ENDBRANCH  37  38
ENDBRANCH  30  32
ENDBRANCH  29  30
ENDBRANCH  28  29
ENDBRANCH  27  28
ENDBRANCH   1  27
TORSDOF 20
ENDMDL
MODEL 2
REMARK VINA RESULT:     -11.7      1.812      2.127
REMARK SMILES O=C(OCCOCCOC(=O)c1ccc(-c2c3nc(c(-c4cccc(S(=O)(=O)[O-])c4F)c4ccc([nH]4)c(-c4cccc(S(=O)(=O)[O-])c4F)c4nc(c(-c5cccc(S(=O)(=O)[O-])c5F)c5ccc2[nH]5)C=C4)C=C3)cc1)c1ccc(C[C@H]2SC(=O)N(c3ccccc3)C2=O)cc1
REMARK SMILES IDX 6 1 5 2 4 3 3 4 2 5 1 6 75 7 76 8 94 9 77 10 93 11 78 12
REMARK SMILES IDX 79 13 80 14 81 15 91 16 82 17 84 18 92 19 83 20 85 21 86 22
REMARK SMILES IDX 90 23 87 24 89 25 88 26 7 27 8 28 9 29 10 30 11 31 12 32
REMARK SMILES IDX 13 33 74 34 14 35 73 36 15 37 16 38 17 39 67 40 18 41 72 42
REMARK SMILES IDX 66 43 68 44 19 45 71 46 65 47 64 48 20 50 52 51 32 52 51 53
REMARK SMILES IDX 33 54 36 55 50 56 69 57 34 58 35 59 49 61 70 62 37 63 21 64
REMARK SMILES IDX 22 65 30 66 23 67 25 68 31 69 24 70 26 71 27 72 28 73 29 74
REMARK SMILES IDX 53 75 54 76 62 77 55 78 57 79 63 80 56 81 58 82 59 83 60 84
REMARK SMILES IDX 61 85 38 86 39 87 47 88 40 89 42 90 48 91 41 92 43 93 44 94
REMARK SMILES IDX 45 95 46 96
REMARK H PARENT 68 49 36 60
REMARK Flexibility Score: inf
ROOT
ATOM      1  O   UNL A   1      32.020  30.639  26.843  1.00  0.00    -0.374 OA
ENDROOT
BRANCH   1   2
ATOM      2  C   UNL A   1      31.743  29.392  26.207  1.00  0.00     0.202 C 
BRANCH   2   3
ATOM      3  C   UNL A   1      31.963  29.446  24.698  1.00  0.00     0.261 C 
BRANCH   3   4
ATOM      4  O   UNL A   1      30.706  29.289  24.003  1.00  0.00    -0.460 OA
BRANCH   4   5
ATOM      5  C   UNL A   1      30.453  28.355  23.053  1.00  0.00     0.338 C 
ATOM      6  O   UNL A   1      30.024  28.657  21.946  1.00  0.00    -0.246 OA
BRANCH   5   7
ATOM      7  C   UNL A   1      30.746  26.940  23.342  1.00  0.00     0.060 A 
ATOM      8  C   UNL A   1      30.207  26.300  24.459  1.00  0.00     0.016 A 
ATOM      9  C   UNL A   1      31.530  26.223  22.436  1.00  0.00     0.016 A 
ATOM     10  C   UNL A   1      30.521  24.972  24.721  1.00  0.00     0.004 A 
ATOM     11  C   UNL A   1      31.838  24.885  22.694  1.00  0.00     0.004 A 
ATOM     12  C   UNL A   1      31.355  24.259  23.853  1.00  0.00    -0.046 A 
BRANCH  12  13
ATOM     13  C   UNL A   1      31.742  22.841  24.186  1.00  0.00     0.060 C 
BRANCH  13  14
ATOM     14  C   UNL A   1      32.941  22.315  23.379  1.00  0.00     0.151 C 
ATOM     15  S   UNL A   1      34.536  22.593  24.181  1.00  0.00    -0.050 SA
ATOM     16  C   UNL A   1      32.808  20.811  23.294  1.00  0.00     0.248 C 
ATOM     17  C   UNL A   1      34.618  20.952  24.782  1.00  0.00     0.293 C 
ATOM     18  N   UNL A   1      33.651  20.167  24.192  1.00  0.00    -0.240 N 
ATOM     19  O   UNL A   1      31.950  20.304  22.575  1.00  0.00    -0.273 OA
ATOM     20  O   UNL A   1      35.487  20.636  25.579  1.00  0.00    -0.261 OA
BRANCH  18  21
ATOM     21  C   UNL A   1      33.522  18.773  24.494  1.00  0.00     0.053 A 
ATOM     22  C   UNL A   1      34.193  17.796  23.745  1.00  0.00     0.027 A 
ATOM     23  C   UNL A   1      32.684  18.334  25.534  1.00  0.00     0.027 A 
ATOM     24  C   UNL A   1      34.026  16.433  24.013  1.00  0.00     0.002 A 
ATOM     25  C   UNL A   1      32.505  16.972  25.794  1.00  0.00     0.002 A 
ATOM     26  C   UNL A   1      33.175  16.022  25.031  1.00  0.00     0.000 A 
ENDBRANCH  18  21
ENDBRANCH  13  14
ENDBRANCH  12  13
ENDBRANCH   5   7
ENDBRANCH   4   5
ENDBRANCH   3   4
ENDBRANCH   2   3
ENDBRANCH   1   2
BRANCH   1  27
ATOM     27  C   UNL A   1      31.288  31.758  26.323  1.00  0.00     0.202 C 
BRANCH  27  28
ATOM     28  C   UNL A   1      31.956  33.049  26.804  1.00  0.00     0.261 C 
BRANCH  28  29
ATOM     29  O   UNL A   1      32.893  32.696  27.830  1.00  0.00    -0.460 OA
BRANCH  29  30
ATOM     30  C   UNL A   1      33.955  33.535  27.926  1.00  0.00     0.338 C 
ATOM     31  O   UNL A   1      33.932  34.753  27.861  1.00  0.00    -0.246 OA
BRANCH  30  32
ATOM     32  C   UNL A   1      35.140  32.737  28.321  1.00  0.00     0.060 A 
ATOM     33  C   UNL A   1      34.972  31.364  28.547  1.00  0.00     0.016 A 
ATOM     34  C   UNL A   1      36.409  33.318  28.427  1.00  0.00     0.016 A 
ATOM     35  C   UNL A   1      36.057  30.585  28.948  1.00  0.00     0.010 A 
ATOM     36  C   UNL A   1      37.495  32.540  28.815  1.00  0.00     0.010 A 
ATOM     37  C   UNL A   1      37.311  31.184  29.126  1.00  0.00    -0.014 A 
BRANCH  37  38
ATOM     38  C   UNL A   1      38.387  30.473  29.846  1.00  0.00     0.031 A 
ATOM     39  C   UNL A   1      38.629  30.845  31.283  1.00  0.00     0.074 A 
ATOM     40  C   UNL A   1      39.166  29.574  29.221  1.00  0.00     0.049 A 
ATOM     41  N   UNL A   1      39.557  30.431  32.102  1.00  0.00    -0.248 NA
ATOM     42  C   UNL A   1      37.705  31.835  31.870  1.00  0.00     0.031 C 
ATOM     43  C   UNL A   1      39.034  29.167  27.824  1.00  0.00     0.029 A 
ATOM     44  N   UNL A   1      40.250  28.872  29.678  1.00  0.00    -0.354 N 
ATOM     45  C   UNL A   1      39.353  31.132  33.284  1.00  0.00     0.074 A 
ATOM     46  C   UNL A   1      38.225  32.010  33.075  1.00  0.00     0.031 C 
ATOM     47  C   UNL A   1      40.025  28.308  27.526  1.00  0.00     0.029 A 
ATOM     48  C   UNL A   1      40.866  28.121  28.706  1.00  0.00     0.049 A 
ATOM     49  H   UNL A   1      40.557  28.900  30.613  1.00  0.00     0.167 HD
ATOM     50  C   UNL A   1      40.033  31.038  34.450  1.00  0.00     0.034 A 
ATOM     51  C   UNL A   1      41.993  27.385  28.766  1.00  0.00     0.034 A 
ATOM     52  C   UNL A   1      41.138  30.144  34.654  1.00  0.00     0.049 A 
ATOM     53  C   UNL A   1      42.725  27.283  30.081  1.00  0.00     0.074 A 
ATOM     54  C   UNL A   1      41.863  29.921  35.809  1.00  0.00     0.029 A 
ATOM     55  N   UNL A   1      41.684  29.333  33.671  1.00  0.00    -0.354 N 
ATOM     56  N   UNL A   1      42.439  27.843  31.232  1.00  0.00    -0.248 NA
ATOM     57  C   UNL A   1      43.913  26.418  30.115  1.00  0.00     0.031 C 
ATOM     58  C   UNL A   1      42.862  28.986  35.519  1.00  0.00     0.029 A 
ATOM     59  C   UNL A   1      42.742  28.609  34.190  1.00  0.00     0.049 A 
ATOM     60  H   UNL A   1      41.365  29.279  32.741  1.00  0.00     0.167 HD
ATOM     61  C   UNL A   1      43.386  27.372  32.134  1.00  0.00     0.074 A 
ATOM     62  C   UNL A   1      44.244  26.465  31.399  1.00  0.00     0.031 C 
ATOM     63  C   UNL A   1      43.543  27.670  33.448  1.00  0.00     0.034 A 
BRANCH  50  64
ATOM     64  C   UNL A   1      39.573  31.897  35.598  1.00  0.00     0.023 A 
ATOM     65  C   UNL A   1      39.987  33.243  35.668  1.00  0.00     0.012 A 
ATOM     66  C   UNL A   1      38.707  31.387  36.583  1.00  0.00     0.148 A 
ATOM     67  C   UNL A   1      39.572  34.060  36.718  1.00  0.00     0.002 A 
ATOM     68  C   UNL A   1      38.263  32.219  37.604  1.00  0.00     0.091 A 
ATOM     69  F   UNL A   1      38.348  30.098  36.515  1.00  0.00    -0.205 F 
ATOM     70  C   UNL A   1      38.703  33.552  37.679  1.00  0.00     0.022 A 
BRANCH  68  71
ATOM     71  S   UNL A   1      37.086  31.682  38.850  1.00  0.00     0.127 S 
ATOM     72  O   UNL A   1      37.866  31.835  40.078  1.00  0.00    -0.237 OA
ATOM     73  O   UNL A   1      36.004  32.654  38.690  1.00  0.00    -0.237 OA
ATOM     74  O   UNL A   1      36.730  30.314  38.502  1.00  0.00    -0.744 OA
ENDBRANCH  68  71
ENDBRANCH  50  64
BRANCH  51  75
ATOM     75  C   UNL A   1      42.466  26.644  27.562  1.00  0.00     0.023 A 
ATOM     76  C   UNL A   1      43.233  27.317  26.592  1.00  0.00     0.012 A 
ATOM     77  C   UNL A   1      42.186  25.275  27.386  1.00  0.00     0.148 A 
ATOM     78  C   UNL A   1      43.690  26.649  25.455  1.00  0.00     0.002 A 
ATOM     79  C   UNL A   1      42.688  24.602  26.278  1.00  0.00     0.091 A 
ATOM     80  F   UNL A   1      41.439  24.654  28.312  1.00  0.00    -0.205 F 
ATOM     81  C   UNL A   1      43.426  25.290  25.303  1.00  0.00     0.022 A 
BRANCH  79  82
ATOM     82  S   UNL A   1      42.508  22.827  26.065  1.00  0.00     0.127 S 
ATOM     83  O   UNL A   1      43.303  22.309  27.175  1.00  0.00    -0.237 OA
ATOM     84  O   UNL A   1      41.062  22.651  26.208  1.00  0.00    -0.237 OA
ATOM     85  O   UNL A   1      43.017  22.539  24.731  1.00  0.00    -0.744 OA
ENDBRANCH  79  82
ENDBRANCH  51  75
BRANCH  63  86
ATOM     86  C   UNL A   1      44.659  26.984  34.190  1.00  0.00     0.023 A 
ATOM     87  C   UNL A   1      44.426  25.744  34.814  1.00  0.00     0.012 A 
ATOM     88  C   UNL A   1      45.959  27.528  34.193  1.00  0.00     0.148 A 
ATOM     89  C   UNL A   1      45.463  25.069  35.456  1.00  0.00     0.002 A 
ATOM     90  C   UNL A   1      46.997  26.827  34.793  1.00  0.00     0.091 A 
ATOM     91  F   UNL A   1      46.156  28.719  33.609  1.00  0.00    -0.205 F 
ATOM     92  C   UNL A   1      46.750  25.603  35.435  1.00  0.00     0.022 A 
BRANCH  90  93
ATOM     93  S   UNL A   1      48.701  27.394  34.724  1.00  0.00     0.127 S 
ATOM     94  O   UNL A   1      48.903  27.555  33.286  1.00  0.00    -0.237 OA
ATOM     95  O   UNL A   1      48.644  28.648  35.476  1.00  0.00    -0.237 OA
ATOM     96  O   UNL A   1      49.494  26.349  35.358  1.00  0.00    -0.744 OA
ENDBRANCH  90  93
ENDBRANCH  63  86
ENDBRANCH  37  38
ENDBRANCH  30  32
ENDBRANCH  29  30
ENDBRANCH  28  29
ENDBRANCH  27  28
ENDBRANCH   1  27
TORSDOF 20
ENDMDL
MODEL 3
REMARK VINA RESULT:     -11.2      2.131      7.892
REMARK SMILES O=C(OCCOCCOC(=O)c1ccc(-c2c3nc(c(-c4cccc(S(=O)(=O)[O-])c4F)c4ccc([nH]4)c(-c4cccc(S(=O)(=O)[O-])c4F)c4nc(c(-c5cccc(S(=O)(=O)[O-])c5F)c5ccc2[nH]5)C=C4)C=C3)cc1)c1ccc(C[C@H]2SC(=O)N(c3ccccc3)C2=O)cc1
REMARK SMILES IDX 6 1 5 2 4 3 3 4 2 5 1 6 75 7 76 8 94 9 77 10 93 11 78 12
REMARK SMILES IDX 79 13 80 14 81 15 91 16 82 17 84 18 92 19 83 20 85 21 86 22
REMARK SMILES IDX 90 23 87 24 89 25 88 26 7 27 8 28 9 29 10 30 11 31 12 32
REMARK SMILES IDX 13 33 74 34 14 35 73 36 15 37 16 38 17 39 67 40 18 41 72 42
REMARK SMILES IDX 66 43 68 44 19 45 71 46 65 47 64 48 20 50 52 51 32 52 51 53
REMARK SMILES IDX 33 54 36 55 50 56 69 57 34 58 35 59 49 61 70 62 37 63 21 64
REMARK SMILES IDX 22 65 30 66 23 67 25 68 31 69 24 70 26 71 27 72 28 73 29 74
REMARK SMILES IDX 53 75 54 76 62 77 55 78 57 79 63 80 56 81 58 82 59 83 60 84
REMARK SMILES IDX 61 85 38 86 39 87 47 88 40 89 42 90 48 91 41 92 43 93 44 94
REMARK SMILES IDX 45 95 46 96
REMARK H PARENT 68 49 36 60
REMARK Flexibility Score: inf
ROOT
ATOM      1  O   UNL A   1      32.384  30.683  27.208  1.00  0.00    -0.374 OA
ENDROOT
BRANCH   1   2
ATOM      2  C   UNL A   1      32.420  29.370  26.650  1.00  0.00     0.202 C 
BRANCH   2   3
ATOM      3  C   UNL A   1      32.505  29.386  25.125  1.00  0.00     0.261 C 
BRANCH   3   4
ATOM      4  O   UNL A   1      31.332  28.767  24.552  1.00  0.00    -0.460 OA
BRANCH   4   5
ATOM      5  C   UNL A   1      31.348  27.763  23.642  1.00  0.00     0.338 C 
ATOM      6  O   UNL A   1      31.397  27.980  22.437  1.00  0.00    -0.246 OA
BRANCH   5   7
ATOM      7  C   UNL A   1      31.357  26.366  24.113  1.00  0.00     0.060 A 
ATOM      8  C   UNL A   1      32.174  25.963  25.171  1.00  0.00     0.016 A 
ATOM      9  C   UNL A   1      30.480  25.457  23.520  1.00  0.00     0.016 A 
ATOM     10  C   UNL A   1      32.181  24.634  25.579  1.00  0.00     0.004 A 
ATOM     11  C   UNL A   1      30.480  24.123  23.937  1.00  0.00     0.004 A 
ATOM     12  C   UNL A   1      31.350  23.698  24.952  1.00  0.00    -0.046 A 
BRANCH  12  13
ATOM     13  C   UNL A   1      31.419  22.248  25.358  1.00  0.00     0.060 C 
BRANCH  13  14
ATOM     14  C   UNL A   1      32.267  21.377  24.418  1.00  0.00     0.151 C 
ATOM     15  S   UNL A   1      32.520  22.103  22.783  1.00  0.00    -0.050 SA
ATOM     16  C   UNL A   1      33.652  21.277  25.016  1.00  0.00     0.248 C 
ATOM     17  C   UNL A   1      34.122  22.677  23.191  1.00  0.00     0.293 C 
ATOM     18  N   UNL A   1      34.551  22.124  24.379  1.00  0.00    -0.240 N 
ATOM     19  O   UNL A   1      33.847  20.593  26.018  1.00  0.00    -0.273 OA
ATOM     20  O   UNL A   1      34.715  23.426  22.431  1.00  0.00    -0.261 OA
BRANCH  18  21
ATOM     21  C   UNL A   1      35.844  22.412  24.922  1.00  0.00     0.053 A 
ATOM     22  C   UNL A   1      36.887  21.474  24.871  1.00  0.00     0.027 A 
ATOM     23  C   UNL A   1      36.103  23.637  25.561  1.00  0.00     0.027 A 
ATOM     24  C   UNL A   1      38.133  21.743  25.446  1.00  0.00     0.002 A 
ATOM     25  C   UNL A   1      37.343  23.900  26.150  1.00  0.00     0.002 A 
ATOM     26  C   UNL A   1      38.358  22.952  26.094  1.00  0.00     0.000 A 
ENDBRANCH  18  21
ENDBRANCH  13  14
ENDBRANCH  12  13
ENDBRANCH   5   7
ENDBRANCH   4   5
ENDBRANCH   3   4
ENDBRANCH   2   3
ENDBRANCH   1   2
BRANCH   1  27
ATOM     27  C   UNL A   1      31.466  31.584  26.573  1.00  0.00     0.202 C 
BRANCH  27  28
ATOM     28  C   UNL A   1      31.873  33.020  26.914  1.00  0.00     0.261 C 
BRANCH  28  29
ATOM     29  O   UNL A   1      33.104  32.960  27.647  1.00  0.00    -0.460 OA
BRANCH  29  30
ATOM     30  C   UNL A   1      33.350  34.054  28.410  1.00  0.00     0.338 C 
ATOM     31  O   UNL A   1      32.672  35.065  28.478  1.00  0.00    -0.246 OA
BRANCH  30  32
ATOM     32  C   UNL A   1      34.487  33.743  29.308  1.00  0.00     0.060 A 
ATOM     33  C   UNL A   1      35.760  34.212  28.956  1.00  0.00     0.016 A 
ATOM     34  C   UNL A   1      34.303  33.038  30.504  1.00  0.00     0.016 A 
ATOM     35  C   UNL A   1      36.860  33.915  29.760  1.00  0.00     0.010 A 
ATOM     36  C   UNL A   1      35.397  32.752  31.314  1.00  0.00     0.010 A 
ATOM     37  C   UNL A   1      36.685  33.145  30.917  1.00  0.00    -0.014 A 
BRANCH  37  38
ATOM     38  C   UNL A   1      37.848  32.550  31.607  1.00  0.00     0.031 A 
ATOM     39  C   UNL A   1      38.530  31.385  30.944  1.00  0.00     0.074 A 
ATOM     40  C   UNL A   1      38.239  32.989  32.815  1.00  0.00     0.049 A 
ATOM     41  N   UNL A   1      39.511  30.642  31.379  1.00  0.00    -0.248 NA
ATOM     42  C   UNL A   1      38.023  30.996  29.614  1.00  0.00     0.031 C 
ATOM     43  C   UNL A   1      37.625  34.088  33.555  1.00  0.00     0.029 A 
ATOM     44  N   UNL A   1      39.228  32.531  33.646  1.00  0.00    -0.354 N 
ATOM     45  C   UNL A   1      39.715  29.680  30.397  1.00  0.00     0.074 A 
ATOM     46  C   UNL A   1      38.748  29.920  29.351  1.00  0.00     0.031 C 
ATOM     47  C   UNL A   1      38.230  34.199  34.751  1.00  0.00     0.029 A 
ATOM     48  C   UNL A   1      39.260  33.168  34.863  1.00  0.00     0.049 A 
ATOM     49  H   UNL A   1      39.855  31.814  33.395  1.00  0.00     0.167 HD
ATOM     50  C   UNL A   1      40.642  28.694  30.360  1.00  0.00     0.034 A 
ATOM     51  C   UNL A   1      40.025  32.927  35.946  1.00  0.00     0.034 A 
ATOM     52  C   UNL A   1      41.613  28.479  31.395  1.00  0.00     0.049 A 
ATOM     53  C   UNL A   1      41.060  31.833  35.875  1.00  0.00     0.074 A 
ATOM     54  C   UNL A   1      42.636  27.551  31.437  1.00  0.00     0.029 A 
ATOM     55  N   UNL A   1      41.673  29.200  32.578  1.00  0.00    -0.354 N 
ATOM     56  N   UNL A   1      41.337  31.020  34.884  1.00  0.00    -0.248 NA
ATOM     57  C   UNL A   1      41.914  31.648  37.057  1.00  0.00     0.031 C 
ATOM     58  C   UNL A   1      43.305  27.699  32.656  1.00  0.00     0.029 A 
ATOM     59  C   UNL A   1      42.713  28.735  33.362  1.00  0.00     0.049 A 
ATOM     60  H   UNL A   1      41.066  29.935  32.823  1.00  0.00     0.167 HD
ATOM     61  C   UNL A   1      42.417  30.253  35.306  1.00  0.00     0.074 A 
ATOM     62  C   UNL A   1      42.757  30.713  36.637  1.00  0.00     0.031 C 
ATOM     63  C   UNL A   1      43.064  29.251  34.661  1.00  0.00     0.034 A 
BRANCH  50  64
ATOM     64  C   UNL A   1      40.665  27.804  29.147  1.00  0.00     0.023 A 
ATOM     65  C   UNL A   1      39.756  26.729  29.055  1.00  0.00     0.012 A 
ATOM     66  C   UNL A   1      41.556  28.048  28.085  1.00  0.00     0.148 A 
ATOM     67  C   UNL A   1      39.755  25.892  27.941  1.00  0.00     0.002 A 
ATOM     68  C   UNL A   1      41.521  27.236  26.958  1.00  0.00     0.091 A 
ATOM     69  F   UNL A   1      42.432  29.056  28.204  1.00  0.00    -0.205 F 
ATOM     70  C   UNL A   1      40.629  26.152  26.888  1.00  0.00     0.022 A 
BRANCH  68  71
ATOM     71  S   UNL A   1      42.555  27.529  25.519  1.00  0.00     0.127 S 
ATOM     72  O   UNL A   1      43.893  27.504  26.108  1.00  0.00    -0.237 OA
ATOM     73  O   UNL A   1      42.240  26.377  24.674  1.00  0.00    -0.237 OA
ATOM     74  O   UNL A   1      42.134  28.813  24.977  1.00  0.00    -0.744 OA
ENDBRANCH  68  71
ENDBRANCH  50  64
BRANCH  51  75
ATOM     75  C   UNL A   1      39.878  33.771  37.165  1.00  0.00     0.023 A 
ATOM     76  C   UNL A   1      38.848  33.489  38.083  1.00  0.00     0.012 A 
ATOM     77  C   UNL A   1      40.767  34.830  37.436  1.00  0.00     0.148 A 
ATOM     78  C   UNL A   1      38.688  34.262  39.234  1.00  0.00     0.002 A 
ATOM     79  C   UNL A   1      40.635  35.563  38.611  1.00  0.00     0.091 A 
ATOM     80  F   UNL A   1      41.732  35.095  36.543  1.00  0.00    -0.205 F 
ATOM     81  C   UNL A   1      39.586  35.292  39.502  1.00  0.00     0.022 A 
BRANCH  79  82
ATOM     82  S   UNL A   1      41.821  36.820  39.101  1.00  0.00     0.127 S 
ATOM     83  O   UNL A   1      42.401  37.202  37.818  1.00  0.00    -0.237 OA
ATOM     84  O   UNL A   1      40.955  37.830  39.711  1.00  0.00    -0.237 OA
ATOM     85  O   UNL A   1      42.723  36.162  40.037  1.00  0.00    -0.744 OA
ENDBRANCH  79  82
ENDBRANCH  51  75
BRANCH  63  86
ATOM     86  C   UNL A   1      44.228  28.605  35.363  1.00  0.00     0.023 A 
ATOM     87  C   UNL A   1      45.535  29.071  35.125  1.00  0.00     0.012 A 
ATOM     88  C   UNL A   1      44.016  27.597  36.324  1.00  0.00     0.148 A 
ATOM     89  C   UNL A   1      46.618  28.523  35.811  1.00  0.00     0.002 A 
ATOM     90  C   UNL A   1      45.093  27.089  37.038  1.00  0.00     0.091 A 
ATOM     91  F   UNL A   1      42.766  27.155  36.524  1.00  0.00    -0.205 F 
ATOM     92  C   UNL A   1      46.397  27.541  36.775  1.00  0.00     0.022 A 
BRANCH  90  93
ATOM     93  S   UNL A   1      44.886  25.897  38.367  1.00  0.00     0.127 S 
ATOM     94  O   UNL A   1      43.961  26.599  39.254  1.00  0.00    -0.237 OA
ATOM     95  O   UNL A   1      44.307  24.748  37.669  1.00  0.00    -0.237 OA
ATOM     96  O   UNL A   1      46.219  25.664  38.904  1.00  0.00    -0.744 OA
ENDBRANCH  90  93
ENDBRANCH  63  86
ENDBRANCH  37  38
ENDBRANCH  30  32
ENDBRANCH  29  30
ENDBRANCH  28  29
ENDBRANCH  27  28
ENDBRANCH   1  27
TORSDOF 20
ENDMDL
