MODEL 1
REMARK VINA RESULT:      -9.6      0.000      0.000
REMARK SMILES O=C(CNC(=O)OCC1=Cc2ccccc2S1(=O)=O)OCCOCCOC(=O)c1ccc(-c2c3nc(c(-c4cccc(S(=O)(=O)[O-])c4F)c4ccc([nH]4)c(-c4cccc(S(=O)(=O)[O-])c4F)c4nc(c(-c5cccc(S(=O)(=O)[O-])c5F)c5ccc2[nH]5)C=C4)C=C3)cc1
REMARK SMILES IDX 22 1 21 2 20 3 2 4 1 5 3 6 4 7 5 8 6 10 7 11 8 12 9 13 10 14
REMARK SMILES IDX 17 15 11 16 16 17 18 18 19 19 12 20 15 21 13 22 14 23 23 24
REMARK SMILES IDX 24 25 25 26 26 27 27 28 28 29 29 30 30 31 91 32 31 33 90 34
REMARK SMILES IDX 32 35 33 36 34 37 84 38 35 39 89 40 83 41 85 42 36 43 88 44
REMARK SMILES IDX 82 45 81 46 37 48 69 49 49 50 68 51 50 52 53 53 67 54 86 55
REMARK SMILES IDX 51 56 52 57 66 59 87 60 54 61 38 62 39 63 47 64 40 65 42 66
REMARK SMILES IDX 48 67 41 68 43 69 44 70 45 71 46 72 70 73 71 74 79 75 72 76
REMARK SMILES IDX 74 77 80 78 73 79 75 80 76 81 77 82 78 83 55 84 56 85 64 86
REMARK SMILES IDX 57 87 59 88 65 89 58 90 60 91 61 92 62 93 63 94
REMARK H PARENT 4 9 85 47 53 58
REMARK Flexibility Score: inf
ROOT
ATOM      1  C   UNL A   1      32.928  35.672  28.936  1.00  0.00     0.202 C 
ENDROOT
BRANCH   1   2
ATOM      2  C   UNL A   1      32.643  36.085  30.380  1.00  0.00     0.261 C 
BRANCH   2   3
ATOM      3  O   UNL A   1      33.636  36.956  30.946  1.00  0.00    -0.462 OA
BRANCH   3   4
ATOM      4  C   UNL A   1      33.586  37.458  32.199  1.00  0.00     0.325 C 
ATOM      5  O   UNL A   1      33.002  38.526  32.397  1.00  0.00    -0.250 OA
BRANCH   4   6
ATOM      6  C   UNL A   1      34.313  36.773  33.352  1.00  0.00     0.242 C 
BRANCH   6   7
ATOM      7  N   UNL A   1      34.071  35.362  33.578  1.00  0.00    -0.311 N 
ATOM      8  C   UNL A   1      35.004  34.393  33.789  1.00  0.00     0.407 C 
ATOM      9  H   UNL A   1      33.131  35.073  33.579  1.00  0.00     0.167 HD
ATOM     10  O   UNL A   1      34.683  33.237  34.001  1.00  0.00    -0.225 OA
BRANCH   8  11
ATOM     11  O   UNL A   1      36.277  34.859  33.735  1.00  0.00    -0.444 OA
BRANCH  11  12
ATOM     12  C   UNL A   1      37.310  33.855  33.796  1.00  0.00     0.283 C 
BRANCH  12  13
ATOM     13  C   UNL A   1      38.128  34.051  35.016  1.00  0.00     0.087 C 
ATOM     14  C   UNL A   1      39.126  34.935  35.213  1.00  0.00     0.029 C 
ATOM     15  S   UNL A   1      37.711  33.201  36.471  1.00  0.00     0.206 S 
ATOM     16  C   UNL A   1      39.521  35.029  36.605  1.00  0.00    -0.005 A 
ATOM     17  C   UNL A   1      38.832  34.144  37.429  1.00  0.00     0.079 A 
ATOM     18  O   UNL A   1      36.371  33.525  36.906  1.00  0.00    -0.219 OA
ATOM     19  O   UNL A   1      38.213  31.843  36.424  1.00  0.00    -0.219 OA
ATOM     20  C   UNL A   1      40.411  35.933  37.156  1.00  0.00     0.009 A 
ATOM     21  C   UNL A   1      38.990  34.108  38.800  1.00  0.00     0.021 A 
ATOM     22  C   UNL A   1      40.596  35.923  38.541  1.00  0.00     0.001 A 
ATOM     23  C   UNL A   1      39.894  35.015  39.356  1.00  0.00     0.001 A 
ENDBRANCH  12  13
ENDBRANCH  11  12
ENDBRANCH   8  11
ENDBRANCH   6   7
ENDBRANCH   4   6
ENDBRANCH   3   4
ENDBRANCH   2   3
ENDBRANCH   1   2
BRANCH   1  24
ATOM     24  O   UNL A   1      34.307  35.550  28.585  1.00  0.00    -0.374 OA
BRANCH  24  25
ATOM     25  C   UNL A   1      34.614  34.418  27.762  1.00  0.00     0.202 C 
BRANCH  25  26
ATOM     26  C   UNL A   1      33.619  33.252  27.844  1.00  0.00     0.261 C 
BRANCH  26  27
ATOM     27  O   UNL A   1      34.230  32.076  28.392  1.00  0.00    -0.460 OA
BRANCH  27  28
ATOM     28  C   UNL A   1      34.740  32.232  29.639  1.00  0.00     0.338 C 
ATOM     29  O   UNL A   1      34.175  32.721  30.604  1.00  0.00    -0.246 OA
BRANCH  28  30
ATOM     30  C   UNL A   1      36.030  31.516  29.736  1.00  0.00     0.060 A 
ATOM     31  C   UNL A   1      36.048  30.330  30.480  1.00  0.00     0.016 A 
ATOM     32  C   UNL A   1      37.191  31.976  29.109  1.00  0.00     0.016 A 
ATOM     33  C   UNL A   1      37.239  29.632  30.651  1.00  0.00     0.010 A 
ATOM     34  C   UNL A   1      38.389  31.275  29.284  1.00  0.00     0.010 A 
ATOM     35  C   UNL A   1      38.424  30.126  30.091  1.00  0.00    -0.014 A 
BRANCH  35  36
ATOM     36  C   UNL A   1      39.714  29.514  30.485  1.00  0.00     0.031 A 
ATOM     37  C   UNL A   1      40.414  30.029  31.715  1.00  0.00     0.074 A 
ATOM     38  C   UNL A   1      40.231  28.492  29.781  1.00  0.00     0.049 A 
ATOM     39  N   UNL A   1      41.538  29.635  32.251  1.00  0.00    -0.248 NA
ATOM     40  C   UNL A   1      39.758  31.134  32.436  1.00  0.00     0.031 C 
ATOM     41  C   UNL A   1      39.641  27.916  28.573  1.00  0.00     0.029 A 
ATOM     42  N   UNL A   1      41.379  27.768  29.974  1.00  0.00    -0.354 N 
ATOM     43  C   UNL A   1      41.737  30.453  33.358  1.00  0.00     0.074 A 
ATOM     44  C   UNL A   1      40.628  31.381  33.404  1.00  0.00     0.031 C 
ATOM     45  C   UNL A   1      40.447  26.942  28.117  1.00  0.00     0.029 A 
ATOM     46  C   UNL A   1      41.617  26.843  28.986  1.00  0.00     0.049 A 
ATOM     47  H   UNL A   1      41.976  27.899  30.745  1.00  0.00     0.167 HD
ATOM     48  C   UNL A   1      42.739  30.419  34.267  1.00  0.00     0.034 A 
ATOM     49  C   UNL A   1      42.673  26.029  28.794  1.00  0.00     0.034 A 
ATOM     50  C   UNL A   1      43.832  29.486  34.221  1.00  0.00     0.049 A 
ATOM     51  C   UNL A   1      43.788  26.029  29.809  1.00  0.00     0.074 A 
ATOM     52  C   UNL A   1      44.884  29.348  35.109  1.00  0.00     0.029 A 
ATOM     53  N   UNL A   1      44.022  28.538  33.228  1.00  0.00    -0.354 N 
ATOM     54  N   UNL A   1      43.904  26.734  30.909  1.00  0.00    -0.248 NA
ATOM     55  C   UNL A   1      44.896  25.093  29.576  1.00  0.00     0.031 C 
ATOM     56  C   UNL A   1      45.727  28.338  34.634  1.00  0.00     0.029 A 
ATOM     57  C   UNL A   1      45.177  27.817  33.475  1.00  0.00     0.049 A 
ATOM     58  H   UNL A   1      43.422  28.397  32.460  1.00  0.00     0.167 HD
ATOM     59  C   UNL A   1      45.081  26.304  31.514  1.00  0.00     0.074 A 
ATOM     60  C   UNL A   1      45.618  25.252  30.675  1.00  0.00     0.031 C 
ATOM     61  C   UNL A   1      45.676  26.747  32.649  1.00  0.00     0.034 A 
BRANCH  48  62
ATOM     62  C   UNL A   1      42.689  31.402  35.408  1.00  0.00     0.023 A 
ATOM     63  C   UNL A   1      42.025  31.053  36.602  1.00  0.00     0.012 A 
ATOM     64  C   UNL A   1      43.360  32.638  35.326  1.00  0.00     0.148 A 
ATOM     65  C   UNL A   1      42.009  31.927  37.688  1.00  0.00     0.002 A 
ATOM     66  C   UNL A   1      43.379  33.485  36.429  1.00  0.00     0.091 A 
ATOM     67  F   UNL A   1      43.967  32.960  34.176  1.00  0.00    -0.205 F 
ATOM     68  C   UNL A   1      42.696  33.136  37.606  1.00  0.00     0.022 A 
BRANCH  66  69
ATOM     69  S   UNL A   1      44.297  35.028  36.455  1.00  0.00     0.127 S 
ATOM     70  O   UNL A   1      43.579  35.816  35.453  1.00  0.00    -0.237 OA
ATOM     71  O   UNL A   1      44.104  35.474  37.835  1.00  0.00    -0.237 OA
ATOM     72  O   UNL A   1      45.670  34.687  36.107  1.00  0.00    -0.744 OA
ENDBRANCH  66  69
ENDBRANCH  48  62
BRANCH  49  73
ATOM     73  C   UNL A   1      42.730  25.138  27.600  1.00  0.00     0.023 A 
ATOM     74  C   UNL A   1      43.307  25.600  26.401  1.00  0.00     0.012 A 
ATOM     75  C   UNL A   1      42.200  23.833  27.647  1.00  0.00     0.148 A 
ATOM     76  C   UNL A   1      43.311  24.798  25.259  1.00  0.00     0.002 A 
ATOM     77  C   UNL A   1      42.265  23.017  26.524  1.00  0.00     0.091 A 
ATOM     78  F   UNL A   1      41.641  23.416  28.792  1.00  0.00    -0.205 F 
ATOM     79  C   UNL A   1      42.799  23.504  25.322  1.00  0.00     0.022 A 
BRANCH  77  80
ATOM     80  S   UNL A   1      41.752  21.296  26.560  1.00  0.00     0.127 S 
ATOM     81  O   UNL A   1      40.300  21.415  26.450  1.00  0.00    -0.237 OA
ATOM     82  O   UNL A   1      42.421  20.758  25.376  1.00  0.00    -0.237 OA
ATOM     83  O   UNL A   1      42.251  20.766  27.822  1.00  0.00    -0.744 OA
ENDBRANCH  77  80
ENDBRANCH  49  73
BRANCH  61  84
ATOM     84  C   UNL A   1      46.955  26.069  33.070  1.00  0.00     0.023 A 
ATOM     85  C   UNL A   1      48.199  26.624  32.708  1.00  0.00     0.012 A 
ATOM     86  C   UNL A   1      46.923  24.899  33.854  1.00  0.00     0.148 A 
ATOM     87  C   UNL A   1      49.389  25.995  33.071  1.00  0.00     0.002 A 
ATOM     88  C   UNL A   1      48.114  24.309  34.260  1.00  0.00     0.091 A 
ATOM     89  F   UNL A   1      45.731  24.377  34.178  1.00  0.00    -0.205 F 
ATOM     90  C   UNL A   1      49.347  24.844  33.853  1.00  0.00     0.022 A 
BRANCH  88  91
ATOM     91  S   UNL A   1      48.159  22.883  35.351  1.00  0.00     0.127 S 
ATOM     92  O   UNL A   1      47.342  21.919  34.615  1.00  0.00    -0.237 OA
ATOM     93  O   UNL A   1      49.588  22.568  35.390  1.00  0.00    -0.237 OA
ATOM     94  O   UNL A   1      47.605  23.332  36.621  1.00  0.00    -0.744 OA
ENDBRANCH  88  91
ENDBRANCH  61  84
ENDBRANCH  35  36
ENDBRANCH  28  30
ENDBRANCH  27  28
ENDBRANCH  26  27
ENDBRANCH  25  26
ENDBRANCH  24  25
ENDBRANCH   1  24
TORSDOF 21
ENDMDL
MODEL 2
REMARK VINA RESULT:      -8.6      4.277      8.272
REMARK SMILES O=C(CNC(=O)OCC1=Cc2ccccc2S1(=O)=O)OCCOCCOC(=O)c1ccc(-c2c3nc(c(-c4cccc(S(=O)(=O)[O-])c4F)c4ccc([nH]4)c(-c4cccc(S(=O)(=O)[O-])c4F)c4nc(c(-c5cccc(S(=O)(=O)[O-])c5F)c5ccc2[nH]5)C=C4)C=C3)cc1
REMARK SMILES IDX 22 1 21 2 20 3 2 4 1 5 3 6 4 7 5 8 6 10 7 11 8 12 9 13 10 14
REMARK SMILES IDX 17 15 11 16 16 17 18 18 19 19 12 20 15 21 13 22 14 23 23 24
REMARK SMILES IDX 24 25 25 26 26 27 27 28 28 29 29 30 30 31 91 32 31 33 90 34
REMARK SMILES IDX 32 35 33 36 34 37 84 38 35 39 89 40 83 41 85 42 36 43 88 44
REMARK SMILES IDX 82 45 81 46 37 48 69 49 49 50 68 51 50 52 53 53 67 54 86 55
REMARK SMILES IDX 51 56 52 57 66 59 87 60 54 61 38 62 39 63 47 64 40 65 42 66
REMARK SMILES IDX 48 67 41 68 43 69 44 70 45 71 46 72 70 73 71 74 79 75 72 76
REMARK SMILES IDX 74 77 80 78 73 79 75 80 76 81 77 82 78 83 55 84 56 85 64 86
REMARK SMILES IDX 57 87 59 88 65 89 58 90 60 91 61 92 62 93 63 94
REMARK H PARENT 4 9 85 47 53 58
REMARK Flexibility Score: inf
ROOT
ATOM      1  C   UNL A   1      33.056  29.908  25.712  1.00  0.00     0.202 C 
ENDROOT
BRANCH   1   2
ATOM      2  C   UNL A   1      33.083  28.388  25.870  1.00  0.00     0.261 C 
BRANCH   2   3
ATOM      3  O   UNL A   1      33.554  27.687  24.708  1.00  0.00    -0.462 OA
BRANCH   3   4
ATOM      4  C   UNL A   1      32.870  27.585  23.548  1.00  0.00     0.325 C 
ATOM      5  O   UNL A   1      33.487  27.605  22.481  1.00  0.00    -0.250 OA
BRANCH   4   6
ATOM      6  C   UNL A   1      31.345  27.534  23.534  1.00  0.00     0.242 C 
BRANCH   6   7
ATOM      7  N   UNL A   1      30.699  26.342  23.020  1.00  0.00    -0.311 N 
ATOM      8  C   UNL A   1      30.686  25.105  23.590  1.00  0.00     0.407 C 
ATOM      9  H   UNL A   1      30.219  26.437  22.166  1.00  0.00     0.167 HD
ATOM     10  O   UNL A   1      30.079  24.179  23.082  1.00  0.00    -0.225 OA
BRANCH   8  11
ATOM     11  O   UNL A   1      31.399  25.042  24.742  1.00  0.00    -0.444 OA
BRANCH  11  12
ATOM     12  C   UNL A   1      31.462  23.744  25.364  1.00  0.00     0.283 C 
BRANCH  12  13
ATOM     13  C   UNL A   1      32.726  23.067  24.986  1.00  0.00     0.087 C 
ATOM     14  C   UNL A   1      33.692  23.513  24.161  1.00  0.00     0.029 C 
ATOM     15  S   UNL A   1      33.179  21.594  25.787  1.00  0.00     0.206 S 
ATOM     16  C   UNL A   1      34.900  22.715  24.232  1.00  0.00    -0.005 A 
ATOM     17  C   UNL A   1      34.784  21.624  25.089  1.00  0.00     0.079 A 
ATOM     18  O   UNL A   1      33.310  21.789  27.214  1.00  0.00    -0.219 OA
ATOM     19  O   UNL A   1      32.473  20.469  25.211  1.00  0.00    -0.219 OA
ATOM     20  C   UNL A   1      36.112  22.985  23.621  1.00  0.00     0.009 A 
ATOM     21  C   UNL A   1      35.829  20.767  25.370  1.00  0.00     0.021 A 
ATOM     22  C   UNL A   1      37.191  22.136  23.883  1.00  0.00     0.001 A 
ATOM     23  C   UNL A   1      37.050  21.035  24.748  1.00  0.00     0.001 A 
ENDBRANCH  12  13
ENDBRANCH  11  12
ENDBRANCH   8  11
ENDBRANCH   6   7
ENDBRANCH   4   6
ENDBRANCH   3   4
ENDBRANCH   2   3
ENDBRANCH   1   2
BRANCH   1  24
ATOM     24  O   UNL A   1      32.417  30.630  26.766  1.00  0.00    -0.374 OA
BRANCH  24  25
ATOM     25  C   UNL A   1      33.194  31.707  27.306  1.00  0.00     0.202 C 
BRANCH  25  26
ATOM     26  C   UNL A   1      32.457  33.045  27.452  1.00  0.00     0.261 C 
BRANCH  26  27
ATOM     27  O   UNL A   1      33.365  34.118  27.737  1.00  0.00    -0.460 OA
BRANCH  27  28
ATOM     28  C   UNL A   1      33.697  34.245  29.046  1.00  0.00     0.338 C 
ATOM     29  O   UNL A   1      33.040  34.791  29.917  1.00  0.00    -0.246 OA
BRANCH  28  30
ATOM     30  C   UNL A   1      34.894  33.425  29.332  1.00  0.00     0.060 A 
ATOM     31  C   UNL A   1      34.717  32.298  30.145  1.00  0.00     0.016 A 
ATOM     32  C   UNL A   1      36.154  33.732  28.812  1.00  0.00     0.016 A 
ATOM     33  C   UNL A   1      35.809  31.509  30.491  1.00  0.00     0.010 A 
ATOM     34  C   UNL A   1      37.252  32.940  29.163  1.00  0.00     0.010 A 
ATOM     35  C   UNL A   1      37.089  31.853  30.039  1.00  0.00    -0.014 A 
BRANCH  35  36
ATOM     36  C   UNL A   1      38.265  31.158  30.612  1.00  0.00     0.031 A 
ATOM     37  C   UNL A   1      38.710  31.517  32.005  1.00  0.00     0.074 A 
ATOM     38  C   UNL A   1      38.897  30.196  29.918  1.00  0.00     0.049 A 
ATOM     39  N   UNL A   1      39.697  31.029  32.708  1.00  0.00    -0.248 NA
ATOM     40  C   UNL A   1      37.939  32.565  32.697  1.00  0.00     0.031 C 
ATOM     41  C   UNL A   1      38.554  29.770  28.562  1.00  0.00     0.029 A 
ATOM     42  N   UNL A   1      39.972  29.415  30.255  1.00  0.00    -0.354 N 
ATOM     43  C   UNL A   1      39.681  31.720  33.914  1.00  0.00     0.074 A 
ATOM     44  C   UNL A   1      38.600  32.678  33.840  1.00  0.00     0.031 C 
ATOM     45  C   UNL A   1      39.420  28.819  28.172  1.00  0.00     0.029 A 
ATOM     46  C   UNL A   1      40.390  28.588  29.239  1.00  0.00     0.049 A 
ATOM     47  H   UNL A   1      40.403  29.443  31.140  1.00  0.00     0.167 HD
ATOM     48  C   UNL A   1      40.479  31.556  34.994  1.00  0.00     0.034 A 
ATOM     49  C   UNL A   1      41.451  27.761  29.174  1.00  0.00     0.034 A 
ATOM     50  C   UNL A   1      41.545  30.593  35.066  1.00  0.00     0.049 A 
ATOM     51  C   UNL A   1      42.338  27.615  30.384  1.00  0.00     0.074 A 
ATOM     52  C   UNL A   1      42.395  30.327  36.125  1.00  0.00     0.029 A 
ATOM     53  N   UNL A   1      41.917  29.747  34.033  1.00  0.00    -0.354 N 
ATOM     54  N   UNL A   1      42.242  28.198  31.555  1.00  0.00    -0.248 NA
ATOM     55  C   UNL A   1      43.456  26.668  30.275  1.00  0.00     0.031 C 
ATOM     56  C   UNL A   1      43.301  29.341  35.720  1.00  0.00     0.029 A 
ATOM     57  C   UNL A   1      42.988  28.964  34.425  1.00  0.00     0.049 A 
ATOM     58  H   UNL A   1      41.482  29.709  33.150  1.00  0.00     0.167 HD
ATOM     59  C   UNL A   1      43.266  27.666  32.331  1.00  0.00     0.074 A 
ATOM     60  C   UNL A   1      43.945  26.687  31.506  1.00  0.00     0.031 C 
ATOM     61  C   UNL A   1      43.627  27.967  33.604  1.00  0.00     0.034 A 
BRANCH  48  62
ATOM     62  C   UNL A   1      40.215  32.417  36.203  1.00  0.00     0.023 A 
ATOM     63  C   UNL A   1      40.975  33.589  36.405  1.00  0.00     0.012 A 
ATOM     64  C   UNL A   1      39.172  32.108  37.096  1.00  0.00     0.148 A 
ATOM     65  C   UNL A   1      40.715  34.426  37.489  1.00  0.00     0.002 A 
ATOM     66  C   UNL A   1      38.888  32.971  38.149  1.00  0.00     0.091 A 
ATOM     67  F   UNL A   1      38.476  30.980  36.900  1.00  0.00    -0.205 F 
ATOM     68  C   UNL A   1      39.664  34.125  38.352  1.00  0.00     0.022 A 
BRANCH  66  69
ATOM     69  S   UNL A   1      37.511  32.716  39.272  1.00  0.00     0.127 S 
ATOM     70  O   UNL A   1      36.368  32.797  38.362  1.00  0.00    -0.237 OA
ATOM     71  O   UNL A   1      37.784  31.376  39.790  1.00  0.00    -0.237 OA
ATOM     72  O   UNL A   1      37.592  33.783  40.260  1.00  0.00    -0.744 OA
ENDBRANCH  66  69
ENDBRANCH  48  62
BRANCH  49  73
ATOM     73  C   UNL A   1      41.734  26.996  27.926  1.00  0.00     0.023 A 
ATOM     74  C   UNL A   1      42.295  27.649  26.810  1.00  0.00     0.012 A 
ATOM     75  C   UNL A   1      41.434  25.622  27.837  1.00  0.00     0.148 A 
ATOM     76  C   UNL A   1      42.508  26.959  25.616  1.00  0.00     0.002 A 
ATOM     77  C   UNL A   1      41.708  24.927  26.666  1.00  0.00     0.091 A 
ATOM     78  F   UNL A   1      40.886  25.022  28.903  1.00  0.00    -0.205 F 
ATOM     79  C   UNL A   1      42.223  25.597  25.546  1.00  0.00     0.022 A 
BRANCH  77  80
ATOM     80  S   UNL A   1      41.498  23.148  26.537  1.00  0.00     0.127 S 
ATOM     81  O   UNL A   1      42.093  22.686  27.788  1.00  0.00    -0.237 OA
ATOM     82  O   UNL A   1      40.043  23.021  26.460  1.00  0.00    -0.237 OA
ATOM     83  O   UNL A   1      42.197  22.760  25.319  1.00  0.00    -0.744 OA
ENDBRANCH  77  80
ENDBRANCH  49  73
BRANCH  61  84
ATOM     84  C   UNL A   1      44.785  27.203  34.194  1.00  0.00     0.023 A 
ATOM     85  C   UNL A   1      46.105  27.647  33.978  1.00  0.00     0.012 A 
ATOM     86  C   UNL A   1      44.561  26.063  34.991  1.00  0.00     0.148 A 
ATOM     87  C   UNL A   1      47.186  26.937  34.499  1.00  0.00     0.002 A 
ATOM     88  C   UNL A   1      45.641  25.393  35.553  1.00  0.00     0.091 A 
ATOM     89  F   UNL A   1      43.300  25.647  35.175  1.00  0.00    -0.205 F 
ATOM     90  C   UNL A   1      46.954  25.817  35.293  1.00  0.00     0.022 A 
BRANCH  88  91
ATOM     91  S   UNL A   1      45.435  24.001  36.670  1.00  0.00     0.127 S 
ATOM     92  O   UNL A   1      44.608  24.586  37.725  1.00  0.00    -0.237 OA
ATOM     93  O   UNL A   1      44.746  23.025  35.824  1.00  0.00    -0.237 OA
ATOM     94  O   UNL A   1      46.778  23.609  37.073  1.00  0.00    -0.744 OA
ENDBRANCH  88  91
ENDBRANCH  61  84
ENDBRANCH  35  36
ENDBRANCH  28  30
ENDBRANCH  27  28
ENDBRANCH  26  27
ENDBRANCH  25  26
ENDBRANCH  24  25
ENDBRANCH   1  24
TORSDOF 21
ENDMDL
MODEL 3
REMARK VINA RESULT:      -8.1      6.368     13.900
REMARK SMILES O=C(CNC(=O)OCC1=Cc2ccccc2S1(=O)=O)OCCOCCOC(=O)c1ccc(-c2c3nc(c(-c4cccc(S(=O)(=O)[O-])c4F)c4ccc([nH]4)c(-c4cccc(S(=O)(=O)[O-])c4F)c4nc(c(-c5cccc(S(=O)(=O)[O-])c5F)c5ccc2[nH]5)C=C4)C=C3)cc1
REMARK SMILES IDX 22 1 21 2 20 3 2 4 1 5 3 6 4 7 5 8 6 10 7 11 8 12 9 13 10 14
REMARK SMILES IDX 17 15 11 16 16 17 18 18 19 19 12 20 15 21 13 22 14 23 23 24
REMARK SMILES IDX 24 25 25 26 26 27 27 28 28 29 29 30 30 31 91 32 31 33 90 34
REMARK SMILES IDX 32 35 33 36 34 37 84 38 35 39 89 40 83 41 85 42 36 43 88 44
REMARK SMILES IDX 82 45 81 46 37 48 69 49 49 50 68 51 50 52 53 53 67 54 86 55
REMARK SMILES IDX 51 56 52 57 66 59 87 60 54 61 38 62 39 63 47 64 40 65 42 66
REMARK SMILES IDX 48 67 41 68 43 69 44 70 45 71 46 72 70 73 71 74 79 75 72 76
REMARK SMILES IDX 74 77 80 78 73 79 75 80 76 81 77 82 78 83 55 84 56 85 64 86
REMARK SMILES IDX 57 87 59 88 65 89 58 90 60 91 61 92 62 93 63 94
REMARK H PARENT 4 9 85 47 53 58
REMARK Flexibility Score: inf
ROOT
ATOM      1  C   UNL A   1      48.090  23.012  39.307  1.00  0.00     0.202 C 
ENDROOT
BRANCH   1   2
ATOM      2  C   UNL A   1      47.513  21.626  39.021  1.00  0.00     0.261 C 
BRANCH   2   3
ATOM      3  O   UNL A   1      46.824  21.037  40.136  1.00  0.00    -0.462 OA
BRANCH   3   4
ATOM      4  C   UNL A   1      46.825  19.717  40.423  1.00  0.00     0.325 C 
ATOM      5  O   UNL A   1      47.648  18.982  39.875  1.00  0.00    -0.250 OA
BRANCH   4   6
ATOM      6  C   UNL A   1      45.771  19.111  41.345  1.00  0.00     0.242 C 
BRANCH   6   7
ATOM      7  N   UNL A   1      45.200  19.947  42.382  1.00  0.00    -0.311 N 
ATOM      8  C   UNL A   1      44.232  19.600  43.276  1.00  0.00     0.407 C 
ATOM      9  H   UNL A   1      45.549  20.865  42.448  1.00  0.00     0.167 HD
ATOM     10  O   UNL A   1      43.850  20.379  44.132  1.00  0.00    -0.225 OA
BRANCH   8  11
ATOM     11  O   UNL A   1      43.773  18.336  43.100  1.00  0.00    -0.444 OA
BRANCH  11  12
ATOM     12  C   UNL A   1      44.431  17.321  43.883  1.00  0.00     0.283 C 
BRANCH  12  13
ATOM     13  C   UNL A   1      43.710  16.034  43.744  1.00  0.00     0.087 C 
ATOM     14  C   UNL A   1      42.877  15.652  42.758  1.00  0.00     0.029 C 
ATOM     15  S   UNL A   1      44.052  14.738  44.849  1.00  0.00     0.206 S 
ATOM     16  C   UNL A   1      42.565  14.236  42.807  1.00  0.00    -0.005 A 
ATOM     17  C   UNL A   1      43.140  13.588  43.896  1.00  0.00     0.079 A 
ATOM     18  O   UNL A   1      45.445  14.356  44.798  1.00  0.00    -0.219 OA
ATOM     19  O   UNL A   1      43.338  14.936  46.094  1.00  0.00    -0.219 OA
ATOM     20  C   UNL A   1      41.856  13.508  41.867  1.00  0.00     0.009 A 
ATOM     21  C   UNL A   1      43.041  12.227  44.105  1.00  0.00     0.021 A 
ATOM     22  C   UNL A   1      41.735  12.128  42.050  1.00  0.00     0.001 A 
ATOM     23  C   UNL A   1      42.320  11.493  43.162  1.00  0.00     0.001 A 
ENDBRANCH  12  13
ENDBRANCH  11  12
ENDBRANCH   8  11
ENDBRANCH   6   7
ENDBRANCH   4   6
ENDBRANCH   3   4
ENDBRANCH   2   3
ENDBRANCH   1   2
BRANCH   1  24
ATOM     24  O   UNL A   1      47.545  24.083  38.536  1.00  0.00    -0.374 OA
BRANCH  24  25
ATOM     25  C   UNL A   1      48.043  25.381  38.883  1.00  0.00     0.202 C 
BRANCH  25  26
ATOM     26  C   UNL A   1      47.392  26.558  38.142  1.00  0.00     0.261 C 
BRANCH  26  27
ATOM     27  O   UNL A   1      48.158  26.946  36.994  1.00  0.00    -0.460 OA
BRANCH  27  28
ATOM     28  C   UNL A   1      47.800  26.328  35.840  1.00  0.00     0.338 C 
ATOM     29  O   UNL A   1      48.255  25.286  35.398  1.00  0.00    -0.246 OA
BRANCH  28  30
ATOM     30  C   UNL A   1      46.602  26.989  35.280  1.00  0.00     0.060 A 
ATOM     31  C   UNL A   1      45.393  26.284  35.347  1.00  0.00     0.016 A 
ATOM     32  C   UNL A   1      46.645  28.267  34.717  1.00  0.00     0.016 A 
ATOM     33  C   UNL A   1      44.237  26.827  34.797  1.00  0.00     0.010 A 
ATOM     34  C   UNL A   1      45.483  28.811  34.161  1.00  0.00     0.010 A 
ATOM     35  C   UNL A   1      44.286  28.074  34.161  1.00  0.00    -0.014 A 
BRANCH  35  36
ATOM     36  C   UNL A   1      43.118  28.523  33.369  1.00  0.00     0.031 A 
ATOM     37  C   UNL A   1      42.098  29.413  34.026  1.00  0.00     0.074 A 
ATOM     38  C   UNL A   1      42.993  28.176  32.076  1.00  0.00     0.049 A 
ATOM     39  N   UNL A   1      41.011  29.936  33.523  1.00  0.00    -0.248 NA
ATOM     40  C   UNL A   1      42.333  29.762  35.439  1.00  0.00     0.031 C 
ATOM     41  C   UNL A   1      43.919  27.316  31.339  1.00  0.00     0.029 A 
ATOM     42  N   UNL A   1      42.024  28.493  31.159  1.00  0.00    -0.354 N 
ATOM     43  C   UNL A   1      40.423  30.656  34.557  1.00  0.00     0.074 A 
ATOM     44  C   UNL A   1      41.261  30.486  35.723  1.00  0.00     0.031 C 
ATOM     45  C   UNL A   1      43.459  27.153  30.088  1.00  0.00     0.029 A 
ATOM     46  C   UNL A   1      42.197  27.876  29.943  1.00  0.00     0.049 A 
ATOM     47  H   UNL A   1      41.277  29.103  31.353  1.00  0.00     0.167 HD
ATOM     48  C   UNL A   1      39.300  31.411  34.531  1.00  0.00     0.034 A 
ATOM     49  C   UNL A   1      41.411  27.877  28.849  1.00  0.00     0.034 A 
ATOM     50  C   UNL A   1      38.477  31.586  33.364  1.00  0.00     0.049 A 
ATOM     51  C   UNL A   1      40.153  28.706  28.856  1.00  0.00     0.074 A 
ATOM     52  C   UNL A   1      37.334  32.352  33.224  1.00  0.00     0.029 A 
ATOM     53  N   UNL A   1      38.703  30.977  32.139  1.00  0.00    -0.354 N 
ATOM     54  N   UNL A   1      39.670  29.468  29.808  1.00  0.00    -0.248 NA
ATOM     55  C   UNL A   1      39.353  28.706  27.624  1.00  0.00     0.031 C 
ATOM     56  C   UNL A   1      36.850  32.180  31.923  1.00  0.00     0.029 A 
ATOM     57  C   UNL A   1      37.716  31.342  31.240  1.00  0.00     0.049 A 
ATOM     58  H   UNL A   1      39.454  30.373  31.939  1.00  0.00     0.167 HD
ATOM     59  C   UNL A   1      38.529  30.062  29.279  1.00  0.00     0.074 A 
ATOM     60  C   UNL A   1      38.416  29.598  27.911  1.00  0.00     0.031 C 
ATOM     61  C   UNL A   1      37.642  30.900  29.871  1.00  0.00     0.034 A 
BRANCH  48  62
ATOM     62  C   UNL A   1      38.905  32.130  35.795  1.00  0.00     0.023 A 
ATOM     63  C   UNL A   1      39.209  33.499  35.943  1.00  0.00     0.012 A 
ATOM     64  C   UNL A   1      38.171  31.473  36.801  1.00  0.00     0.148 A 
ATOM     65  C   UNL A   1      38.809  34.196  37.082  1.00  0.00     0.002 A 
ATOM     66  C   UNL A   1      37.736  32.185  37.913  1.00  0.00     0.091 A 
ATOM     67  F   UNL A   1      37.911  30.167  36.651  1.00  0.00    -0.205 F 
ATOM     68  C   UNL A   1      38.063  33.544  38.059  1.00  0.00     0.022 A 
BRANCH  66  69
ATOM     69  S   UNL A   1      36.704  31.459  39.191  1.00  0.00     0.127 S 
ATOM     70  O   UNL A   1      37.573  31.557  40.363  1.00  0.00    -0.237 OA
ATOM     71  O   UNL A   1      35.555  32.366  39.206  1.00  0.00    -0.237 OA
ATOM     72  O   UNL A   1      36.409  30.103  38.750  1.00  0.00    -0.744 OA
ENDBRANCH  66  69
ENDBRANCH  48  62
BRANCH  49  73
ATOM     73  C   UNL A   1      41.788  27.075  27.650  1.00  0.00     0.023 A 
ATOM     74  C   UNL A   1      42.322  27.713  26.513  1.00  0.00     0.012 A 
ATOM     75  C   UNL A   1      41.605  25.678  27.630  1.00  0.00     0.148 A 
ATOM     76  C   UNL A   1      42.621  26.981  25.363  1.00  0.00     0.002 A 
ATOM     77  C   UNL A   1      41.965  24.948  26.504  1.00  0.00     0.091 A 
ATOM     78  F   UNL A   1      41.082  25.090  28.715  1.00  0.00    -0.205 F 
ATOM     79  C   UNL A   1      42.451  25.599  25.361  1.00  0.00     0.022 A 
BRANCH  77  80
ATOM     80  S   UNL A   1      41.906  23.153  26.467  1.00  0.00     0.127 S 
ATOM     81  O   UNL A   1      40.468  22.900  26.512  1.00  0.00    -0.237 OA
ATOM     82  O   UNL A   1      42.546  22.857  25.185  1.00  0.00    -0.237 OA
ATOM     83  O   UNL A   1      42.665  22.713  27.630  1.00  0.00    -0.744 OA
ENDBRANCH  77  80
ENDBRANCH  49  73
BRANCH  61  84
ATOM     84  C   UNL A   1      36.494  31.400  29.030  1.00  0.00     0.023 A 
ATOM     85  C   UNL A   1      36.410  32.765  28.692  1.00  0.00     0.012 A 
ATOM     86  C   UNL A   1      35.516  30.507  28.548  1.00  0.00     0.148 A 
ATOM     87  C   UNL A   1      35.342  33.244  27.935  1.00  0.00     0.002 A 
ATOM     88  C   UNL A   1      34.486  30.983  27.746  1.00  0.00     0.091 A 
ATOM     89  F   UNL A   1      35.604  29.214  28.890  1.00  0.00    -0.205 F 
ATOM     90  C   UNL A   1      34.386  32.353  27.455  1.00  0.00     0.022 A 
BRANCH  88  91
ATOM     91  S   UNL A   1      33.266  29.895  27.001  1.00  0.00     0.127 S 
ATOM     92  O   UNL A   1      32.119  30.790  26.855  1.00  0.00    -0.237 OA
ATOM     93  O   UNL A   1      33.913  29.522  25.742  1.00  0.00    -0.237 OA
ATOM     94  O   UNL A   1      33.086  28.793  27.936  1.00  0.00    -0.744 OA
ENDBRANCH  88  91
ENDBRANCH  61  84
ENDBRANCH  35  36
ENDBRANCH  28  30
ENDBRANCH  27  28
ENDBRANCH  26  27
ENDBRANCH  25  26
ENDBRANCH  24  25
ENDBRANCH   1  24
TORSDOF 21
ENDMDL
