MODEL 1
REMARK VINA RESULT:     -10.0      0.000      0.000
REMARK SMILES COc1ccc(C[N@@H+](CC(=O)OCCOCCOC(=O)c2ccc(-c3c4nc(c(-c5cccc(S(=O)(=O)[O-])c5F)c5ccc([nH]5)c(-c5cccc(S(=O)(=O)[O-])c5F)c5nc(c(-c6cccc(S(=O)(=O)[O-])c6F)c6ccc3[nH]6)C=C5)C=C4)cc2)C(C)(C)C)cc1C#N
REMARK SMILES IDX 14 1 13 2 12 3 10 4 11 5 9 6 8 7 7 9 6 10 3 11 4 12 89 13
REMARK SMILES IDX 5 14 88 15 2 16 1 17 90 18 91 19 84 20 85 21 86 22 87 23
REMARK SMILES IDX 15 24 16 25 17 26 18 27 19 28 20 29 21 30 22 31 83 32 23 33
REMARK SMILES IDX 82 34 24 35 25 36 26 37 76 38 27 39 81 40 75 41 77 42 28 43
REMARK SMILES IDX 80 44 74 45 73 46 29 48 61 49 41 50 60 51 42 52 45 53 59 54
REMARK SMILES IDX 78 55 43 56 44 57 58 59 79 60 46 61 30 62 31 63 39 64 32 65
REMARK SMILES IDX 34 66 40 67 33 68 35 69 36 70 37 71 38 72 62 73 63 74 71 75
REMARK SMILES IDX 64 76 66 77 72 78 65 79 67 80 68 81 69 82 70 83 47 84 48 85
REMARK SMILES IDX 56 86 49 87 51 88 57 89 50 90 52 91 53 92 54 93 55 94
REMARK H PARENT 8 8 77 47 45 58
REMARK Flexibility Score: inf
ROOT
ATOM      1  C   UNL A   1      32.774  28.468  26.669  1.00  0.00     0.202 C 
ENDROOT
BRANCH   1   2
ATOM      2  C   UNL A   1      33.805  28.811  25.589  1.00  0.00     0.261 C 
BRANCH   2   3
ATOM      3  O   UNL A   1      34.213  27.675  24.785  1.00  0.00    -0.459 OA
BRANCH   3   4
ATOM      4  C   UNL A   1      33.303  27.199  23.894  1.00  0.00     0.361 C 
ATOM      5  O   UNL A   1      32.753  27.905  23.051  1.00  0.00    -0.245 OA
BRANCH   4   6
ATOM      6  C   UNL A   1      32.887  25.734  24.102  1.00  0.00     0.387 C 
BRANCH   6   7
ATOM      7  N   UNL A   1      32.130  25.320  25.326  1.00  0.00    -0.318 N 
ATOM      8  H   UNL A   1      31.858  26.147  25.857  1.00  0.00     0.349 HD
BRANCH   7   9
ATOM      9  C   UNL A   1      33.038  24.579  26.237  1.00  0.00     0.299 C 
BRANCH   9  10
ATOM     10  C   UNL A   1      33.778  23.398  25.645  1.00  0.00     0.008 A 
ATOM     11  C   UNL A   1      35.195  21.046  25.024  1.00  0.00     0.136 A 
ATOM     12  C   UNL A   1      35.851  22.281  25.081  1.00  0.00     0.048 A 
ATOM     13  C   UNL A   1      33.811  20.991  25.216  1.00  0.00     0.094 A 
ATOM     14  C   UNL A   1      35.148  23.456  25.371  1.00  0.00     0.013 A 
ATOM     15  C   UNL A   1      33.107  22.176  25.478  1.00  0.00     0.033 A 
BRANCH  11  16
ATOM     16  O   UNL A   1      36.028  19.962  24.923  1.00  0.00    -0.495 OA
ATOM     17  C   UNL A   1      37.421  20.267  24.984  1.00  0.00     0.278 C 
ENDBRANCH  11  16
BRANCH  13  18
ATOM     18  C   UNL A   1      33.088  19.761  25.306  1.00  0.00     0.103 C 
ATOM     19  N   UNL A   1      32.497  18.758  25.329  1.00  0.00    -0.192 NA
ENDBRANCH  13  18
ENDBRANCH   9  10
ENDBRANCH   7   9
BRANCH   7  20
ATOM     20  C   UNL A   1      30.719  24.872  25.130  1.00  0.00     0.090 C 
ATOM     21  C   UNL A   1      30.246  23.973  26.262  1.00  0.00     0.078 C 
ATOM     22  C   UNL A   1      29.692  26.029  25.045  1.00  0.00     0.078 C 
ATOM     23  C   UNL A   1      30.523  24.113  23.788  1.00  0.00     0.078 C 
ENDBRANCH   7  20
ENDBRANCH   6   7
ENDBRANCH   4   6
ENDBRANCH   3   4
ENDBRANCH   2   3
ENDBRANCH   1   2
BRANCH   1  24
ATOM     24  O   UNL A   1      31.663  29.348  26.828  1.00  0.00    -0.374 OA
BRANCH  24  25
ATOM     25  C   UNL A   1      31.408  30.267  25.770  1.00  0.00     0.202 C 
BRANCH  25  26
ATOM     26  C   UNL A   1      31.496  31.768  26.131  1.00  0.00     0.261 C 
BRANCH  26  27
ATOM     27  O   UNL A   1      31.969  32.012  27.477  1.00  0.00    -0.460 OA
BRANCH  27  28
ATOM     28  C   UNL A   1      32.867  33.022  27.601  1.00  0.00     0.338 C 
ATOM     29  O   UNL A   1      32.613  34.217  27.610  1.00  0.00    -0.246 OA
BRANCH  28  30
ATOM     30  C   UNL A   1      34.210  32.509  27.962  1.00  0.00     0.060 A 
ATOM     31  C   UNL A   1      34.316  31.133  28.190  1.00  0.00     0.016 A 
ATOM     32  C   UNL A   1      35.312  33.333  28.190  1.00  0.00     0.016 A 
ATOM     33  C   UNL A   1      35.480  30.594  28.738  1.00  0.00     0.010 A 
ATOM     34  C   UNL A   1      36.494  32.780  28.722  1.00  0.00     0.010 A 
ATOM     35  C   UNL A   1      36.566  31.417  29.065  1.00  0.00    -0.014 A 
BRANCH  35  36
ATOM     36  C   UNL A   1      37.673  30.856  29.902  1.00  0.00     0.031 A 
ATOM     37  C   UNL A   1      38.680  29.909  29.289  1.00  0.00     0.074 A 
ATOM     38  C   UNL A   1      37.850  31.256  31.179  1.00  0.00     0.049 A 
ATOM     39  N   UNL A   1      39.771  29.406  29.813  1.00  0.00    -0.248 NA
ATOM     40  C   UNL A   1      38.432  29.473  27.906  1.00  0.00     0.031 C 
ATOM     41  C   UNL A   1      36.967  32.163  31.911  1.00  0.00     0.029 A 
ATOM     42  N   UNL A   1      38.839  30.951  32.086  1.00  0.00    -0.354 N 
ATOM     43  C   UNL A   1      40.322  28.580  28.837  1.00  0.00     0.074 A 
ATOM     44  C   UNL A   1      39.432  28.629  27.699  1.00  0.00     0.031 C 
ATOM     45  C   UNL A   1      37.455  32.348  33.148  1.00  0.00     0.029 A 
ATOM     46  C   UNL A   1      38.668  31.547  33.315  1.00  0.00     0.049 A 
ATOM     47  H   UNL A   1      39.599  30.362  31.876  1.00  0.00     0.167 HD
ATOM     48  C   UNL A   1      41.471  27.858  28.869  1.00  0.00     0.034 A 
ATOM     49  C   UNL A   1      39.388  31.451  34.452  1.00  0.00     0.034 A 
ATOM     50  C   UNL A   1      42.371  27.809  29.989  1.00  0.00     0.049 A 
ATOM     51  C   UNL A   1      40.642  30.614  34.475  1.00  0.00     0.074 A 
ATOM     52  C   UNL A   1      43.582  27.145  30.090  1.00  0.00     0.029 A 
ATOM     53  N   UNL A   1      42.154  28.423  31.212  1.00  0.00    -0.354 N 
ATOM     54  N   UNL A   1      41.202  29.937  33.503  1.00  0.00    -0.248 NA
ATOM     55  C   UNL A   1      41.381  30.556  35.746  1.00  0.00     0.031 C 
ATOM     56  C   UNL A   1      44.069  27.310  31.390  1.00  0.00     0.029 A 
ATOM     57  C   UNL A   1      43.194  28.131  32.080  1.00  0.00     0.049 A 
ATOM     58  H   UNL A   1      41.376  28.984  31.432  1.00  0.00     0.167 HD
ATOM     59  C   UNL A   1      42.375  29.407  34.032  1.00  0.00     0.074 A 
ATOM     60  C   UNL A   1      42.456  29.858  35.404  1.00  0.00     0.031 C 
ATOM     61  C   UNL A   1      43.297  28.613  33.434  1.00  0.00     0.034 A 
BRANCH  48  62
ATOM     62  C   UNL A   1      41.830  27.054  27.642  1.00  0.00     0.023 A 
ATOM     63  C   UNL A   1      42.477  27.676  26.554  1.00  0.00     0.012 A 
ATOM     64  C   UNL A   1      41.588  25.666  27.597  1.00  0.00     0.148 A 
ATOM     65  C   UNL A   1      42.836  26.939  25.425  1.00  0.00     0.002 A 
ATOM     66  C   UNL A   1      41.995  24.929  26.491  1.00  0.00     0.091 A 
ATOM     67  F   UNL A   1      40.964  25.093  28.636  1.00  0.00    -0.205 F 
ATOM     68  C   UNL A   1      42.604  25.566  25.398  1.00  0.00     0.022 A 
BRANCH  66  69
ATOM     69  S   UNL A   1      41.822  23.144  26.396  1.00  0.00     0.127 S 
ATOM     70  O   UNL A   1      42.470  22.718  27.637  1.00  0.00    -0.237 OA
ATOM     71  O   UNL A   1      40.368  22.978  26.380  1.00  0.00    -0.237 OA
ATOM     72  O   UNL A   1      42.496  22.735  25.172  1.00  0.00    -0.744 OA
ENDBRANCH  66  69
ENDBRANCH  48  62
BRANCH  49  73
ATOM     73  C   UNL A   1      38.949  32.179  35.679  1.00  0.00     0.023 A 
ATOM     74  C   UNL A   1      39.226  33.551  35.827  1.00  0.00     0.012 A 
ATOM     75  C   UNL A   1      38.265  31.503  36.709  1.00  0.00     0.148 A 
ATOM     76  C   UNL A   1      38.862  34.229  36.993  1.00  0.00     0.002 A 
ATOM     77  C   UNL A   1      37.851  32.196  37.838  1.00  0.00     0.091 A 
ATOM     78  F   UNL A   1      38.027  30.192  36.557  1.00  0.00    -0.205 F 
ATOM     79  C   UNL A   1      38.166  33.555  37.993  1.00  0.00     0.022 A 
BRANCH  77  80
ATOM     80  S   UNL A   1      36.839  31.439  39.114  1.00  0.00     0.127 S 
ATOM     81  O   UNL A   1      36.464  30.174  38.488  1.00  0.00    -0.237 OA
ATOM     82  O   UNL A   1      37.792  31.324  40.219  1.00  0.00    -0.237 OA
ATOM     83  O   UNL A   1      35.745  32.370  39.358  1.00  0.00    -0.744 OA
ENDBRANCH  77  80
ENDBRANCH  49  73
BRANCH  61  84
ATOM     84  C   UNL A   1      44.515  28.217  34.233  1.00  0.00     0.023 A 
ATOM     85  C   UNL A   1      45.662  29.035  34.240  1.00  0.00     0.012 A 
ATOM     86  C   UNL A   1      44.495  27.054  35.031  1.00  0.00     0.148 A 
ATOM     87  C   UNL A   1      46.783  28.681  34.992  1.00  0.00     0.002 A 
ATOM     88  C   UNL A   1      45.592  26.738  35.822  1.00  0.00     0.091 A 
ATOM     89  F   UNL A   1      43.401  26.280  35.003  1.00  0.00    -0.205 F 
ATOM     90  C   UNL A   1      46.743  27.540  35.791  1.00  0.00     0.022 A 
BRANCH  88  91
ATOM     91  S   UNL A   1      45.598  25.343  36.955  1.00  0.00     0.127 S 
ATOM     92  O   UNL A   1      46.109  24.271  36.102  1.00  0.00    -0.237 OA
ATOM     93  O   UNL A   1      46.528  25.793  37.991  1.00  0.00    -0.237 OA
ATOM     94  O   UNL A   1      44.221  25.178  37.402  1.00  0.00    -0.744 OA
ENDBRANCH  88  91
ENDBRANCH  61  84
ENDBRANCH  35  36
ENDBRANCH  28  30
ENDBRANCH  27  28
ENDBRANCH  26  27
ENDBRANCH  25  26
ENDBRANCH  24  25
ENDBRANCH   1  24
TORSDOF 23
ENDMDL
MODEL 2
REMARK VINA RESULT:      -9.4      2.853      7.882
REMARK SMILES COc1ccc(C[N@@H+](CC(=O)OCCOCCOC(=O)c2ccc(-c3c4nc(c(-c5cccc(S(=O)(=O)[O-])c5F)c5ccc([nH]5)c(-c5cccc(S(=O)(=O)[O-])c5F)c5nc(c(-c6cccc(S(=O)(=O)[O-])c6F)c6ccc3[nH]6)C=C5)C=C4)cc2)C(C)(C)C)cc1C#N
REMARK SMILES IDX 14 1 13 2 12 3 10 4 11 5 9 6 8 7 7 9 6 10 3 11 4 12 89 13
REMARK SMILES IDX 5 14 88 15 2 16 1 17 90 18 91 19 84 20 85 21 86 22 87 23
REMARK SMILES IDX 15 24 16 25 17 26 18 27 19 28 20 29 21 30 22 31 83 32 23 33
REMARK SMILES IDX 82 34 24 35 25 36 26 37 76 38 27 39 81 40 75 41 77 42 28 43
REMARK SMILES IDX 80 44 74 45 73 46 29 48 61 49 41 50 60 51 42 52 45 53 59 54
REMARK SMILES IDX 78 55 43 56 44 57 58 59 79 60 46 61 30 62 31 63 39 64 32 65
REMARK SMILES IDX 34 66 40 67 33 68 35 69 36 70 37 71 38 72 62 73 63 74 71 75
REMARK SMILES IDX 64 76 66 77 72 78 65 79 67 80 68 81 69 82 70 83 47 84 48 85
REMARK SMILES IDX 56 86 49 87 51 88 57 89 50 90 52 91 53 92 54 93 55 94
REMARK H PARENT 8 8 77 47 45 58
REMARK Flexibility Score: inf
ROOT
ATOM      1  C   UNL A   1      32.982  28.643  26.555  1.00  0.00     0.202 C 
ENDROOT
BRANCH   1   2
ATOM      2  C   UNL A   1      33.825  28.677  25.276  1.00  0.00     0.261 C 
BRANCH   2   3
ATOM      3  O   UNL A   1      33.050  28.871  24.066  1.00  0.00    -0.459 OA
BRANCH   3   4
ATOM      4  C   UNL A   1      33.496  28.241  22.948  1.00  0.00     0.361 C 
ATOM      5  O   UNL A   1      34.524  28.564  22.357  1.00  0.00    -0.245 OA
BRANCH   4   6
ATOM      6  C   UNL A   1      32.546  27.177  22.372  1.00  0.00     0.387 C 
BRANCH   6   7
ATOM      7  N   UNL A   1      32.356  25.865  23.068  1.00  0.00    -0.318 N 
ATOM      8  H   UNL A   1      32.964  25.819  23.885  1.00  0.00     0.349 HD
BRANCH   7   9
ATOM      9  C   UNL A   1      32.837  24.770  22.188  1.00  0.00     0.299 C 
BRANCH   9  10
ATOM     10  C   UNL A   1      33.631  23.666  22.853  1.00  0.00     0.008 A 
ATOM     11  C   UNL A   1      34.900  21.782  24.518  1.00  0.00     0.136 A 
ATOM     12  C   UNL A   1      35.585  22.920  24.073  1.00  0.00     0.048 A 
ATOM     13  C   UNL A   1      33.592  21.550  24.079  1.00  0.00     0.094 A 
ATOM     14  C   UNL A   1      34.965  23.849  23.230  1.00  0.00     0.013 A 
ATOM     15  C   UNL A   1      32.985  22.471  23.212  1.00  0.00     0.033 A 
BRANCH  11  16
ATOM     16  O   UNL A   1      35.555  21.064  25.484  1.00  0.00    -0.495 OA
ATOM     17  C   UNL A   1      36.888  21.495  25.753  1.00  0.00     0.278 C 
ENDBRANCH  11  16
BRANCH  13  18
ATOM     18  C   UNL A   1      32.780  20.491  24.590  1.00  0.00     0.103 C 
ATOM     19  N   UNL A   1      32.146  19.594  24.977  1.00  0.00    -0.192 NA
ENDBRANCH  13  18
ENDBRANCH   9  10
ENDBRANCH   7   9
BRANCH   7  20
ATOM     20  C   UNL A   1      31.110  25.701  23.873  1.00  0.00     0.090 C 
ATOM     21  C   UNL A   1      30.171  24.670  23.264  1.00  0.00     0.078 C 
ATOM     22  C   UNL A   1      31.354  25.245  25.334  1.00  0.00     0.078 C 
ATOM     23  C   UNL A   1      30.331  27.036  24.034  1.00  0.00     0.078 C 
ENDBRANCH   7  20
ENDBRANCH   6   7
ENDBRANCH   4   6
ENDBRANCH   3   4
ENDBRANCH   2   3
ENDBRANCH   1   2
BRANCH   1  24
ATOM     24  O   UNL A   1      33.329  29.547  27.602  1.00  0.00    -0.374 OA
BRANCH  24  25
ATOM     25  C   UNL A   1      33.340  30.935  27.284  1.00  0.00     0.202 C 
BRANCH  25  26
ATOM     26  C   UNL A   1      34.638  31.705  27.623  1.00  0.00     0.261 C 
BRANCH  26  27
ATOM     27  O   UNL A   1      34.465  32.704  28.654  1.00  0.00    -0.460 OA
BRANCH  27  28
ATOM     28  C   UNL A   1      34.970  32.376  29.870  1.00  0.00     0.338 C 
ATOM     29  O   UNL A   1      34.406  32.508  30.945  1.00  0.00    -0.246 OA
BRANCH  28  30
ATOM     30  C   UNL A   1      36.230  31.607  29.741  1.00  0.00     0.060 A 
ATOM     31  C   UNL A   1      36.256  30.339  30.331  1.00  0.00     0.016 A 
ATOM     32  C   UNL A   1      37.394  32.127  29.174  1.00  0.00     0.016 A 
ATOM     33  C   UNL A   1      37.456  29.635  30.447  1.00  0.00     0.010 A 
ATOM     34  C   UNL A   1      38.599  31.403  29.272  1.00  0.00     0.010 A 
ATOM     35  C   UNL A   1      38.654  30.181  29.969  1.00  0.00    -0.014 A 
BRANCH  35  36
ATOM     36  C   UNL A   1      39.949  29.537  30.358  1.00  0.00     0.031 A 
ATOM     37  C   UNL A   1      40.656  29.965  31.625  1.00  0.00     0.074 A 
ATOM     38  C   UNL A   1      40.454  28.507  29.648  1.00  0.00     0.049 A 
ATOM     39  N   UNL A   1      41.721  29.455  32.193  1.00  0.00    -0.248 NA
ATOM     40  C   UNL A   1      40.090  31.112  32.352  1.00  0.00     0.031 C 
ATOM     41  C   UNL A   1      39.890  27.978  28.407  1.00  0.00     0.029 A 
ATOM     42  N   UNL A   1      41.557  27.716  29.874  1.00  0.00    -0.354 N 
ATOM     43  C   UNL A   1      41.966  30.230  33.323  1.00  0.00     0.074 A 
ATOM     44  C   UNL A   1      40.952  31.261  33.347  1.00  0.00     0.031 C 
ATOM     45  C   UNL A   1      40.643  26.950  27.985  1.00  0.00     0.029 A 
ATOM     46  C   UNL A   1      41.765  26.763  28.904  1.00  0.00     0.049 A 
ATOM     47  H   UNL A   1      42.144  27.822  30.658  1.00  0.00     0.167 HD
ATOM     48  C   UNL A   1      42.930  30.095  34.268  1.00  0.00     0.034 A 
ATOM     49  C   UNL A   1      42.751  25.852  28.755  1.00  0.00     0.034 A 
ATOM     50  C   UNL A   1      43.936  29.067  34.263  1.00  0.00     0.049 A 
ATOM     51  C   UNL A   1      43.832  25.744  29.800  1.00  0.00     0.074 A 
ATOM     52  C   UNL A   1      44.920  28.824  35.207  1.00  0.00     0.029 A 
ATOM     53  N   UNL A   1      44.111  28.128  33.259  1.00  0.00    -0.354 N 
ATOM     54  N   UNL A   1      43.973  26.413  30.917  1.00  0.00    -0.248 NA
ATOM     55  C   UNL A   1      44.874  24.728  29.577  1.00  0.00     0.031 C 
ATOM     56  C   UNL A   1      45.723  27.776  34.746  1.00  0.00     0.029 A 
ATOM     57  C   UNL A   1      45.201  27.323  33.547  1.00  0.00     0.049 A 
ATOM     58  H   UNL A   1      43.544  28.046  32.458  1.00  0.00     0.167 HD
ATOM     59  C   UNL A   1      45.091  25.875  31.548  1.00  0.00     0.074 A 
ATOM     60  C   UNL A   1      45.578  24.810  30.698  1.00  0.00     0.031 C 
ATOM     61  C   UNL A   1      45.663  26.237  32.722  1.00  0.00     0.034 A 
BRANCH  48  62
ATOM     62  C   UNL A   1      42.944  31.088  35.406  1.00  0.00     0.023 A 
ATOM     63  C   UNL A   1      42.282  30.789  36.614  1.00  0.00     0.012 A 
ATOM     64  C   UNL A   1      43.673  32.290  35.299  1.00  0.00     0.148 A 
ATOM     65  C   UNL A   1      42.308  31.688  37.680  1.00  0.00     0.002 A 
ATOM     66  C   UNL A   1      43.738  33.157  36.384  1.00  0.00     0.091 A 
ATOM     67  F   UNL A   1      44.290  32.563  34.140  1.00  0.00    -0.205 F 
ATOM     68  C   UNL A   1      43.043  32.865  37.569  1.00  0.00     0.022 A 
BRANCH  66  69
ATOM     69  S   UNL A   1      44.729  34.654  36.373  1.00  0.00     0.127 S 
ATOM     70  O   UNL A   1      46.066  34.123  36.105  1.00  0.00    -0.237 OA
ATOM     71  O   UNL A   1      44.138  35.403  35.264  1.00  0.00    -0.237 OA
ATOM     72  O   UNL A   1      44.556  35.265  37.683  1.00  0.00    -0.744 OA
ENDBRANCH  66  69
ENDBRANCH  48  62
BRANCH  49  73
ATOM     73  C   UNL A   1      42.763  24.952  27.565  1.00  0.00     0.023 A 
ATOM     74  C   UNL A   1      43.320  25.393  26.349  1.00  0.00     0.012 A 
ATOM     75  C   UNL A   1      42.209  23.659  27.636  1.00  0.00     0.148 A 
ATOM     76  C   UNL A   1      43.292  24.576  25.216  1.00  0.00     0.002 A 
ATOM     77  C   UNL A   1      42.241  22.828  26.523  1.00  0.00     0.091 A 
ATOM     78  F   UNL A   1      41.669  23.264  28.797  1.00  0.00    -0.205 F 
ATOM     79  C   UNL A   1      42.763  23.291  25.305  1.00  0.00     0.022 A 
BRANCH  77  80
ATOM     80  S   UNL A   1      41.700  21.117  26.584  1.00  0.00     0.127 S 
ATOM     81  O   UNL A   1      40.247  21.261  26.531  1.00  0.00    -0.237 OA
ATOM     82  O   UNL A   1      42.312  20.568  25.374  1.00  0.00    -0.237 OA
ATOM     83  O   UNL A   1      42.233  20.576  27.827  1.00  0.00    -0.744 OA
ENDBRANCH  77  80
ENDBRANCH  49  73
BRANCH  61  84
ATOM     84  C   UNL A   1      46.855  25.444  33.203  1.00  0.00     0.023 A 
ATOM     85  C   UNL A   1      48.165  25.882  32.923  1.00  0.00     0.012 A 
ATOM     86  C   UNL A   1      46.670  24.288  33.989  1.00  0.00     0.148 A 
ATOM     87  C   UNL A   1      49.268  25.161  33.381  1.00  0.00     0.002 A 
ATOM     88  C   UNL A   1      47.772  23.607  34.490  1.00  0.00     0.091 A 
ATOM     89  F   UNL A   1      45.417  23.878  34.235  1.00  0.00    -0.205 F 
ATOM     90  C   UNL A   1      49.072  24.031  34.173  1.00  0.00     0.022 A 
BRANCH  88  91
ATOM     91  S   UNL A   1      47.619  22.200  35.597  1.00  0.00     0.127 S 
ATOM     92  O   UNL A   1      46.874  21.252  34.770  1.00  0.00    -0.237 OA
ATOM     93  O   UNL A   1      49.017  21.838  35.829  1.00  0.00    -0.237 OA
ATOM     94  O   UNL A   1      46.913  22.686  36.775  1.00  0.00    -0.744 OA
ENDBRANCH  88  91
ENDBRANCH  61  84
ENDBRANCH  35  36
ENDBRANCH  28  30
ENDBRANCH  27  28
ENDBRANCH  26  27
ENDBRANCH  25  26
ENDBRANCH  24  25
ENDBRANCH   1  24
TORSDOF 23
ENDMDL
MODEL 3
REMARK VINA RESULT:      -9.2      3.234      8.152
REMARK SMILES COc1ccc(C[N@@H+](CC(=O)OCCOCCOC(=O)c2ccc(-c3c4nc(c(-c5cccc(S(=O)(=O)[O-])c5F)c5ccc([nH]5)c(-c5cccc(S(=O)(=O)[O-])c5F)c5nc(c(-c6cccc(S(=O)(=O)[O-])c6F)c6ccc3[nH]6)C=C5)C=C4)cc2)C(C)(C)C)cc1C#N
REMARK SMILES IDX 14 1 13 2 12 3 10 4 11 5 9 6 8 7 7 9 6 10 3 11 4 12 89 13
REMARK SMILES IDX 5 14 88 15 2 16 1 17 90 18 91 19 84 20 85 21 86 22 87 23
REMARK SMILES IDX 15 24 16 25 17 26 18 27 19 28 20 29 21 30 22 31 83 32 23 33
REMARK SMILES IDX 82 34 24 35 25 36 26 37 76 38 27 39 81 40 75 41 77 42 28 43
REMARK SMILES IDX 80 44 74 45 73 46 29 48 61 49 41 50 60 51 42 52 45 53 59 54
REMARK SMILES IDX 78 55 43 56 44 57 58 59 79 60 46 61 30 62 31 63 39 64 32 65
REMARK SMILES IDX 34 66 40 67 33 68 35 69 36 70 37 71 38 72 62 73 63 74 71 75
REMARK SMILES IDX 64 76 66 77 72 78 65 79 67 80 68 81 69 82 70 83 47 84 48 85
REMARK SMILES IDX 56 86 49 87 51 88 57 89 50 90 52 91 53 92 54 93 55 94
REMARK H PARENT 8 8 77 47 45 58
REMARK Flexibility Score: inf
ROOT
ATOM      1  C   UNL A   1      31.775  28.386  26.220  1.00  0.00     0.202 C 
ENDROOT
BRANCH   1   2
ATOM      2  C   UNL A   1      32.251  26.960  26.513  1.00  0.00     0.261 C 
BRANCH   2   3
ATOM      3  O   UNL A   1      31.179  25.984  26.572  1.00  0.00    -0.459 OA
BRANCH   3   4
ATOM      4  C   UNL A   1      31.441  24.758  26.048  1.00  0.00     0.361 C 
ATOM      5  O   UNL A   1      30.641  24.139  25.349  1.00  0.00    -0.245 OA
BRANCH   4   6
ATOM      6  C   UNL A   1      32.759  24.115  26.510  1.00  0.00     0.387 C 
BRANCH   6   7
ATOM      7  N   UNL A   1      33.452  23.096  25.660  1.00  0.00    -0.318 N 
ATOM      8  H   UNL A   1      33.022  23.071  24.735  1.00  0.00     0.349 HD
BRANCH   7   9
ATOM      9  C   UNL A   1      33.205  21.743  26.218  1.00  0.00     0.299 C 
BRANCH   9  10
ATOM     10  C   UNL A   1      32.749  20.679  25.242  1.00  0.00     0.008 A 
ATOM     11  C   UNL A   1      32.394  18.660  23.312  1.00  0.00     0.136 A 
ATOM     12  C   UNL A   1      32.151  20.002  22.996  1.00  0.00     0.048 A 
ATOM     13  C   UNL A   1      32.758  18.315  24.618  1.00  0.00     0.094 A 
ATOM     14  C   UNL A   1      32.308  21.007  23.956  1.00  0.00     0.013 A 
ATOM     15  C   UNL A   1      32.886  19.324  25.584  1.00  0.00     0.033 A 
BRANCH  11  16
ATOM     16  O   UNL A   1      32.389  17.811  22.236  1.00  0.00    -0.495 OA
ATOM     17  C   UNL A   1      32.109  18.431  20.982  1.00  0.00     0.278 C 
ENDBRANCH  11  16
BRANCH  13  18
ATOM     18  C   UNL A   1      33.153  16.992  24.989  1.00  0.00     0.103 C 
ATOM     19  N   UNL A   1      33.480  15.931  25.339  1.00  0.00    -0.192 NA
ENDBRANCH  13  18
ENDBRANCH   9  10
ENDBRANCH   7   9
BRANCH   7  20
ATOM     20  C   UNL A   1      34.797  23.463  25.124  1.00  0.00     0.090 C 
ATOM     21  C   UNL A   1      35.862  22.452  25.522  1.00  0.00     0.078 C 
ATOM     22  C   UNL A   1      34.858  23.563  23.580  1.00  0.00     0.078 C 
ATOM     23  C   UNL A   1      35.257  24.869  25.599  1.00  0.00     0.078 C 
ENDBRANCH   7  20
ENDBRANCH   6   7
ENDBRANCH   4   6
ENDBRANCH   3   4
ENDBRANCH   2   3
ENDBRANCH   1   2
BRANCH   1  24
ATOM     24  O   UNL A   1      31.966  29.370  27.235  1.00  0.00    -0.374 OA
BRANCH  24  25
ATOM     25  C   UNL A   1      33.148  30.161  27.156  1.00  0.00     0.202 C 
BRANCH  25  26
ATOM     26  C   UNL A   1      33.021  31.631  27.619  1.00  0.00     0.261 C 
BRANCH  26  27
ATOM     27  O   UNL A   1      34.295  32.275  27.856  1.00  0.00    -0.460 OA
BRANCH  27  28
ATOM     28  C   UNL A   1      34.811  32.098  29.099  1.00  0.00     0.338 C 
ATOM     29  O   UNL A   1      34.259  32.367  30.154  1.00  0.00    -0.246 OA
BRANCH  28  30
ATOM     30  C   UNL A   1      36.068  31.314  29.055  1.00  0.00     0.060 A 
ATOM     31  C   UNL A   1      36.062  30.080  29.715  1.00  0.00     0.016 A 
ATOM     32  C   UNL A   1      37.254  31.792  28.499  1.00  0.00     0.016 A 
ATOM     33  C   UNL A   1      37.250  29.375  29.909  1.00  0.00     0.010 A 
ATOM     34  C   UNL A   1      38.448  31.065  28.677  1.00  0.00     0.010 A 
ATOM     35  C   UNL A   1      38.469  29.884  29.442  1.00  0.00    -0.014 A 
BRANCH  35  36
ATOM     36  C   UNL A   1      39.743  29.252  29.909  1.00  0.00     0.031 A 
ATOM     37  C   UNL A   1      40.407  29.736  31.179  1.00  0.00     0.074 A 
ATOM     38  C   UNL A   1      40.267  28.186  29.268  1.00  0.00     0.049 A 
ATOM     39  N   UNL A   1      41.447  29.248  31.810  1.00  0.00    -0.248 NA
ATOM     40  C   UNL A   1      39.823  30.921  31.829  1.00  0.00     0.031 C 
ATOM     41  C   UNL A   1      39.745  27.602  28.034  1.00  0.00     0.029 A 
ATOM     42  N   UNL A   1      41.356  27.401  29.572  1.00  0.00    -0.354 N 
ATOM     43  C   UNL A   1      41.655  30.076  32.909  1.00  0.00     0.074 A 
ATOM     44  C   UNL A   1      40.649  31.112  32.847  1.00  0.00     0.031 C 
ATOM     45  C   UNL A   1      40.506  26.550  27.689  1.00  0.00     0.029 A 
ATOM     46  C   UNL A   1      41.592  26.401  28.657  1.00  0.00     0.049 A 
ATOM     47  H   UNL A   1      41.914  27.542  30.371  1.00  0.00     0.167 HD
ATOM     48  C   UNL A   1      42.582  29.981  33.895  1.00  0.00     0.034 A 
ATOM     49  C   UNL A   1      42.576  25.479  28.588  1.00  0.00     0.034 A 
ATOM     50  C   UNL A   1      43.581  28.948  33.977  1.00  0.00     0.049 A 
ATOM     51  C   UNL A   1      43.617  25.415  29.676  1.00  0.00     0.074 A 
ATOM     52  C   UNL A   1      44.528  28.745  34.967  1.00  0.00     0.029 A 
ATOM     53  N   UNL A   1      43.786  27.962  33.026  1.00  0.00    -0.354 N 
ATOM     54  N   UNL A   1      43.722  26.136  30.765  1.00  0.00    -0.248 NA
ATOM     55  C   UNL A   1      44.659  24.385  29.541  1.00  0.00     0.031 C 
ATOM     56  C   UNL A   1      45.340  27.673  34.587  1.00  0.00     0.029 A 
ATOM     57  C   UNL A   1      44.859  27.165  33.392  1.00  0.00     0.049 A 
ATOM     58  H   UNL A   1      43.248  27.844  32.209  1.00  0.00     0.167 HD
ATOM     59  C   UNL A   1      44.812  25.623  31.462  1.00  0.00     0.074 A 
ATOM     60  C   UNL A   1      45.323  24.517  30.682  1.00  0.00     0.031 C 
ATOM     61  C   UNL A   1      45.344  26.038  32.638  1.00  0.00     0.034 A 
BRANCH  48  62
ATOM     62  C   UNL A   1      42.562  31.027  34.984  1.00  0.00     0.023 A 
ATOM     63  C   UNL A   1      41.875  30.780  36.190  1.00  0.00     0.012 A 
ATOM     64  C   UNL A   1      43.283  32.230  34.836  1.00  0.00     0.148 A 
ATOM     65  C   UNL A   1      41.869  31.729  37.212  1.00  0.00     0.002 A 
ATOM     66  C   UNL A   1      43.316  33.148  35.880  1.00  0.00     0.091 A 
ATOM     67  F   UNL A   1      43.924  32.453  33.680  1.00  0.00    -0.205 F 
ATOM     68  C   UNL A   1      42.596  32.907  37.061  1.00  0.00     0.022 A 
BRANCH  66  69
ATOM     69  S   UNL A   1      44.294  34.653  35.819  1.00  0.00     0.127 S 
ATOM     70  O   UNL A   1      43.976  35.159  34.483  1.00  0.00    -0.237 OA
ATOM     71  O   UNL A   1      43.723  35.433  36.917  1.00  0.00    -0.237 OA
ATOM     72  O   UNL A   1      45.678  34.246  36.014  1.00  0.00    -0.744 OA
ENDBRANCH  66  69
ENDBRANCH  48  62
BRANCH  49  73
ATOM     73  C   UNL A   1      42.626  24.523  27.444  1.00  0.00     0.023 A 
ATOM     74  C   UNL A   1      43.318  24.863  26.266  1.00  0.00     0.012 A 
ATOM     75  C   UNL A   1      41.973  23.277  27.519  1.00  0.00     0.148 A 
ATOM     76  C   UNL A   1      43.329  23.996  25.171  1.00  0.00     0.002 A 
ATOM     77  C   UNL A   1      42.040  22.392  26.451  1.00  0.00     0.091 A 
ATOM     78  F   UNL A   1      41.305  22.979  28.643  1.00  0.00    -0.205 F 
ATOM     79  C   UNL A   1      42.700  22.757  25.267  1.00  0.00     0.022 A 
BRANCH  77  80
ATOM     80  S   UNL A   1      41.370  20.729  26.535  1.00  0.00     0.127 S 
ATOM     81  O   UNL A   1      41.761  20.317  27.882  1.00  0.00    -0.237 OA
ATOM     82  O   UNL A   1      39.939  20.975  26.355  1.00  0.00    -0.237 OA
ATOM     83  O   UNL A   1      41.996  19.993  25.445  1.00  0.00    -0.744 OA
ENDBRANCH  77  80
ENDBRANCH  49  73
BRANCH  61  84
ATOM     84  C   UNL A   1      46.511  25.263  33.199  1.00  0.00     0.023 A 
ATOM     85  C   UNL A   1      46.296  24.202  34.102  1.00  0.00     0.012 A 
ATOM     86  C   UNL A   1      47.825  25.552  32.778  1.00  0.00     0.148 A 
ATOM     87  C   UNL A   1      47.372  23.472  34.608  1.00  0.00     0.002 A 
ATOM     88  C   UNL A   1      48.886  24.784  33.242  1.00  0.00     0.091 A 
ATOM     89  F   UNL A   1      48.013  26.573  31.929  1.00  0.00    -0.205 F 
ATOM     90  C   UNL A   1      48.664  23.755  34.170  1.00  0.00     0.022 A 
BRANCH  88  91
ATOM     91  S   UNL A   1      50.571  25.011  32.661  1.00  0.00     0.127 S 
ATOM     92  O   UNL A   1      50.713  26.465  32.725  1.00  0.00    -0.237 OA
ATOM     93  O   UNL A   1      51.344  24.279  33.665  1.00  0.00    -0.237 OA
ATOM     94  O   UNL A   1      50.618  24.441  31.321  1.00  0.00    -0.744 OA
ENDBRANCH  88  91
ENDBRANCH  61  84
ENDBRANCH  35  36
ENDBRANCH  28  30
ENDBRANCH  27  28
ENDBRANCH  26  27
ENDBRANCH  25  26
ENDBRANCH  24  25
ENDBRANCH   1  24
TORSDOF 23
ENDMDL
