MODEL 1
REMARK VINA RESULT:     -11.9      0.000      0.000
REMARK SMILES CC(=O)Nc1ccc(/C(=C\c2ccc(S(C)(=O)=O)cc2)C(=O)OCCOCCOC(=O)c2ccc(-c3c4nc(c(-c5cccc(S(=O)(=O)[O-])c5F)c5ccc([nH]5)c(-c5cccc(S(=O)(=O)[O-])c5F)c5nc(c(-c6cccc(S(=O)(=O)[O-])c6F)c6ccc3[nH]6)C=C5)C=C4)cc2)cc1
REMARK SMILES IDX 27 1 26 2 25 3 24 4 23 5 21 6 22 7 9 8 10 9 8 10 5 11 6 12
REMARK SMILES IDX 96 13 7 14 95 15 4 16 1 17 2 18 3 19 11 21 12 22 20 23 13 24
REMARK SMILES IDX 19 25 14 26 15 27 16 28 17 29 18 30 28 31 29 32 30 33 31 34
REMARK SMILES IDX 32 35 33 36 94 37 34 38 93 39 35 40 36 41 37 42 87 43 38 44
REMARK SMILES IDX 92 45 86 46 88 47 39 48 91 49 85 50 84 51 40 53 72 54 52 55
REMARK SMILES IDX 71 56 53 57 56 58 70 59 89 60 54 61 55 62 69 64 90 65 57 66
REMARK SMILES IDX 41 67 42 68 50 69 43 70 45 71 51 72 44 73 46 74 47 75 48 76
REMARK SMILES IDX 49 77 73 78 74 79 82 80 75 81 77 82 83 83 76 84 78 85 79 86
REMARK SMILES IDX 80 87 81 88 58 89 59 90 67 91 60 92 62 93 68 94 61 95 63 96
REMARK SMILES IDX 64 97 65 98 66 99
REMARK H PARENT 4 20 88 52 56 63
REMARK Flexibility Score: inf
ROOT
ATOM      1  C   UNL A   1      31.756  29.406  25.873  1.00  0.00     0.202 C 
ENDROOT
BRANCH   1   2
ATOM      2  O   UNL A   1      31.185  29.113  24.597  1.00  0.00    -0.374 OA
BRANCH   2   3
ATOM      3  C   UNL A   1      32.081  28.781  23.535  1.00  0.00     0.202 C 
BRANCH   3   4
ATOM      4  C   UNL A   1      33.092  27.662  23.809  1.00  0.00     0.261 C 
BRANCH   4   5
ATOM      5  O   UNL A   1      32.537  26.378  23.488  1.00  0.00    -0.460 OA
BRANCH   5   6
ATOM      6  C   UNL A   1      33.319  25.585  22.709  1.00  0.00     0.338 C 
ATOM      7  O   UNL A   1      33.997  25.956  21.762  1.00  0.00    -0.246 OA
BRANCH   6   8
ATOM      8  C   UNL A   1      33.397  24.193  23.271  1.00  0.00     0.067 C 
ATOM      9  C   UNL A   1      32.281  23.434  23.148  1.00  0.00     0.024 C 
BRANCH   8  10
ATOM     10  C   UNL A   1      34.670  23.794  23.942  1.00  0.00    -0.011 A 
ATOM     11  C   UNL A   1      36.887  22.823  25.440  1.00  0.00     0.041 A 
ATOM     12  C   UNL A   1      36.753  22.530  24.080  1.00  0.00     0.027 A 
ATOM     13  C   UNL A   1      35.976  23.701  26.014  1.00  0.00     0.027 A 
ATOM     14  C   UNL A   1      35.669  23.024  23.339  1.00  0.00     0.011 A 
ATOM     15  C   UNL A   1      34.887  24.176  25.276  1.00  0.00     0.011 A 
BRANCH  11  16
ATOM     16  N   UNL A   1      37.967  22.245  26.124  1.00  0.00    -0.326 N 
ATOM     17  C   UNL A   1      39.448  24.226  26.483  1.00  0.00     0.114 C 
ATOM     18  C   UNL A   1      39.173  22.747  26.523  1.00  0.00     0.221 C 
ATOM     19  O   UNL A   1      40.019  21.970  26.975  1.00  0.00    -0.275 OA
ATOM     20  H   UNL A   1      37.831  21.299  26.362  1.00  0.00     0.169 HD
ENDBRANCH  11  16
ENDBRANCH   8  10
BRANCH   9  21
ATOM     21  C   UNL A   1      32.161  22.003  23.464  1.00  0.00    -0.025 A 
ATOM     22  C   UNL A   1      32.032  21.129  22.376  1.00  0.00     0.009 A 
ATOM     23  C   UNL A   1      32.338  21.481  24.753  1.00  0.00     0.009 A 
ATOM     24  C   UNL A   1      32.226  19.760  22.543  1.00  0.00     0.021 A 
ATOM     25  C   UNL A   1      32.539  20.107  24.927  1.00  0.00     0.021 A 
ATOM     26  C   UNL A   1      32.521  19.262  23.813  1.00  0.00     0.067 A 
BRANCH  26  27
ATOM     27  S   UNL A   1      33.069  17.577  23.955  1.00  0.00     0.175 S 
ATOM     28  C   UNL A   1      34.718  17.701  24.585  1.00  0.00     0.163 C 
ATOM     29  O   UNL A   1      32.241  16.949  24.967  1.00  0.00    -0.224 OA
ATOM     30  O   UNL A   1      33.139  17.018  22.617  1.00  0.00    -0.224 OA
ENDBRANCH  26  27
ENDBRANCH   9  21
ENDBRANCH   6   8
ENDBRANCH   5   6
ENDBRANCH   4   5
ENDBRANCH   3   4
ENDBRANCH   2   3
ENDBRANCH   1   2
BRANCH   1  31
ATOM     31  C   UNL A   1      32.408  30.778  26.072  1.00  0.00     0.261 C 
BRANCH  31  32
ATOM     32  O   UNL A   1      32.799  31.003  27.433  1.00  0.00    -0.460 OA
BRANCH  32  33
ATOM     33  C   UNL A   1      33.725  31.975  27.603  1.00  0.00     0.338 C 
ATOM     34  O   UNL A   1      33.537  33.185  27.598  1.00  0.00    -0.246 OA
BRANCH  33  35
ATOM     35  C   UNL A   1      35.005  31.365  27.995  1.00  0.00     0.060 A 
ATOM     36  C   UNL A   1      35.063  29.969  28.109  1.00  0.00     0.016 A 
ATOM     37  C   UNL A   1      36.114  32.154  28.299  1.00  0.00     0.016 A 
ATOM     38  C   UNL A   1      36.219  29.356  28.583  1.00  0.00     0.010 A 
ATOM     39  C   UNL A   1      37.270  31.540  28.781  1.00  0.00     0.010 A 
ATOM     40  C   UNL A   1      37.311  30.145  28.963  1.00  0.00    -0.014 A 
BRANCH  40  41
ATOM     41  C   UNL A   1      38.437  29.560  29.723  1.00  0.00     0.031 A 
ATOM     42  C   UNL A   1      38.595  29.945  31.167  1.00  0.00     0.074 A 
ATOM     43  C   UNL A   1      39.332  28.757  29.126  1.00  0.00     0.049 A 
ATOM     44  N   UNL A   1      39.576  29.695  31.990  1.00  0.00    -0.248 NA
ATOM     45  C   UNL A   1      37.499  30.735  31.755  1.00  0.00     0.031 C 
ATOM     46  C   UNL A   1      39.261  28.292  27.743  1.00  0.00     0.029 A 
ATOM     47  N   UNL A   1      40.500  28.222  29.604  1.00  0.00    -0.354 N 
ATOM     48  C   UNL A   1      39.243  30.335  33.177  1.00  0.00     0.074 A 
ATOM     49  C   UNL A   1      37.973  30.992  32.964  1.00  0.00     0.031 C 
ATOM     50  C   UNL A   1      40.357  27.564  27.472  1.00  0.00     0.029 A 
ATOM     51  C   UNL A   1      41.223  27.548  28.650  1.00  0.00     0.049 A 
ATOM     52  H   UNL A   1      40.793  28.312  30.540  1.00  0.00     0.167 HD
ATOM     53  C   UNL A   1      39.932  30.370  34.342  1.00  0.00     0.034 A 
ATOM     54  C   UNL A   1      42.457  27.010  28.714  1.00  0.00     0.034 A 
ATOM     55  C   UNL A   1      41.189  29.705  34.544  1.00  0.00     0.049 A 
ATOM     56  C   UNL A   1      43.230  27.101  30.005  1.00  0.00     0.074 A 
ATOM     57  C   UNL A   1      41.955  29.639  35.694  1.00  0.00     0.029 A 
ATOM     58  N   UNL A   1      41.874  29.001  33.564  1.00  0.00    -0.354 N 
ATOM     59  N   UNL A   1      42.872  27.639  31.146  1.00  0.00    -0.248 NA
ATOM     60  C   UNL A   1      44.570  26.494  30.024  1.00  0.00     0.031 C 
ATOM     61  C   UNL A   1      43.120  28.925  35.398  1.00  0.00     0.029 A 
ATOM     62  C   UNL A   1      43.060  28.508  34.077  1.00  0.00     0.049 A 
ATOM     63  H   UNL A   1      41.562  28.871  32.639  1.00  0.00     0.167 HD
ATOM     64  C   UNL A   1      43.913  27.385  32.033  1.00  0.00     0.074 A 
ATOM     65  C   UNL A   1      44.921  26.654  31.293  1.00  0.00     0.031 C 
ATOM     66  C   UNL A   1      44.023  27.726  33.341  1.00  0.00     0.034 A 
BRANCH  53  67
ATOM     67  C   UNL A   1      39.332  31.156  35.479  1.00  0.00     0.023 A 
ATOM     68  C   UNL A   1      38.376  30.556  36.322  1.00  0.00     0.012 A 
ATOM     69  C   UNL A   1      39.719  32.489  35.716  1.00  0.00     0.148 A 
ATOM     70  C   UNL A   1      37.774  31.284  37.349  1.00  0.00     0.002 A 
ATOM     71  C   UNL A   1      39.154  33.193  36.772  1.00  0.00     0.091 A 
ATOM     72  F   UNL A   1      40.612  33.054  34.890  1.00  0.00    -0.205 F 
ATOM     73  C   UNL A   1      38.170  32.600  37.577  1.00  0.00     0.022 A 
BRANCH  71  74
ATOM     74  S   UNL A   1      39.661  34.865  37.192  1.00  0.00     0.127 S 
ATOM     75  O   UNL A   1      39.199  35.616  36.027  1.00  0.00    -0.237 OA
ATOM     76  O   UNL A   1      38.905  35.118  38.420  1.00  0.00    -0.237 OA
ATOM     77  O   UNL A   1      41.104  34.808  37.373  1.00  0.00    -0.744 OA
ENDBRANCH  71  74
ENDBRANCH  53  67
BRANCH  54  78
ATOM     78  C   UNL A   1      43.012  26.291  27.535  1.00  0.00     0.023 A 
ATOM     79  C   UNL A   1      43.692  27.025  26.544  1.00  0.00     0.012 A 
ATOM     80  C   UNL A   1      42.913  24.892  27.408  1.00  0.00     0.148 A 
ATOM     81  C   UNL A   1      44.246  26.382  25.437  1.00  0.00     0.002 A 
ATOM     82  C   UNL A   1      43.510  24.251  26.328  1.00  0.00     0.091 A 
ATOM     83  F   UNL A   1      42.257  24.214  28.360  1.00  0.00    -0.205 F 
ATOM     84  C   UNL A   1      44.163  24.996  25.333  1.00  0.00     0.022 A 
BRANCH  82  85
ATOM     85  S   UNL A   1      43.563  22.463  26.168  1.00  0.00     0.127 S 
ATOM     86  O   UNL A   1      43.055  22.031  27.468  1.00  0.00    -0.237 OA
ATOM     87  O   UNL A   1      42.655  22.236  25.044  1.00  0.00    -0.237 OA
ATOM     88  O   UNL A   1      44.955  22.129  25.898  1.00  0.00    -0.744 OA
ENDBRANCH  82  85
ENDBRANCH  54  78
BRANCH  66  89
ATOM     89  C   UNL A   1      45.235  27.253  34.101  1.00  0.00     0.023 A 
ATOM     90  C   UNL A   1      46.384  28.061  34.178  1.00  0.00     0.012 A 
ATOM     91  C   UNL A   1      45.176  26.056  34.843  1.00  0.00     0.148 A 
ATOM     92  C   UNL A   1      47.465  27.677  34.974  1.00  0.00     0.002 A 
ATOM     93  C   UNL A   1      46.233  25.706  35.673  1.00  0.00     0.091 A 
ATOM     94  F   UNL A   1      44.077  25.295  34.739  1.00  0.00    -0.205 F 
ATOM     95  C   UNL A   1      47.382  26.510  35.731  1.00  0.00     0.022 A 
BRANCH  93  96
ATOM     96  S   UNL A   1      46.173  24.281  36.765  1.00  0.00     0.127 S 
ATOM     97  O   UNL A   1      46.431  23.183  35.835  1.00  0.00    -0.237 OA
ATOM     98  O   UNL A   1      47.266  24.562  37.697  1.00  0.00    -0.237 OA
ATOM     99  O   UNL A   1      44.846  24.286  37.366  1.00  0.00    -0.744 OA
ENDBRANCH  93  96
ENDBRANCH  66  89
ENDBRANCH  40  41
ENDBRANCH  33  35
ENDBRANCH  32  33
ENDBRANCH  31  32
ENDBRANCH   1  31
TORSDOF 21
ENDMDL
MODEL 2
REMARK VINA RESULT:     -11.8      1.396      7.385
REMARK SMILES CC(=O)Nc1ccc(/C(=C\c2ccc(S(C)(=O)=O)cc2)C(=O)OCCOCCOC(=O)c2ccc(-c3c4nc(c(-c5cccc(S(=O)(=O)[O-])c5F)c5ccc([nH]5)c(-c5cccc(S(=O)(=O)[O-])c5F)c5nc(c(-c6cccc(S(=O)(=O)[O-])c6F)c6ccc3[nH]6)C=C5)C=C4)cc2)cc1
REMARK SMILES IDX 27 1 26 2 25 3 24 4 23 5 21 6 22 7 9 8 10 9 8 10 5 11 6 12
REMARK SMILES IDX 96 13 7 14 95 15 4 16 1 17 2 18 3 19 11 21 12 22 20 23 13 24
REMARK SMILES IDX 19 25 14 26 15 27 16 28 17 29 18 30 28 31 29 32 30 33 31 34
REMARK SMILES IDX 32 35 33 36 94 37 34 38 93 39 35 40 36 41 37 42 87 43 38 44
REMARK SMILES IDX 92 45 86 46 88 47 39 48 91 49 85 50 84 51 40 53 72 54 52 55
REMARK SMILES IDX 71 56 53 57 56 58 70 59 89 60 54 61 55 62 69 64 90 65 57 66
REMARK SMILES IDX 41 67 42 68 50 69 43 70 45 71 51 72 44 73 46 74 47 75 48 76
REMARK SMILES IDX 49 77 73 78 74 79 82 80 75 81 77 82 83 83 76 84 78 85 79 86
REMARK SMILES IDX 80 87 81 88 58 89 59 90 67 91 60 92 62 93 68 94 61 95 63 96
REMARK SMILES IDX 64 97 65 98 66 99
REMARK H PARENT 4 20 88 52 56 63
REMARK Flexibility Score: inf
ROOT
ATOM      1  C   UNL A   1      31.283  28.788  25.573  1.00  0.00     0.202 C 
ENDROOT
BRANCH   1   2
ATOM      2  O   UNL A   1      31.939  27.679  26.190  1.00  0.00    -0.374 OA
BRANCH   2   3
ATOM      3  C   UNL A   1      32.652  26.780  25.339  1.00  0.00     0.202 C 
BRANCH   3   4
ATOM      4  C   UNL A   1      32.986  27.281  23.930  1.00  0.00     0.261 C 
BRANCH   4   5
ATOM      5  O   UNL A   1      34.036  26.499  23.342  1.00  0.00    -0.460 OA
BRANCH   5   6
ATOM      6  C   UNL A   1      33.630  25.558  22.450  1.00  0.00     0.338 C 
ATOM      7  O   UNL A   1      33.426  25.740  21.258  1.00  0.00    -0.246 OA
BRANCH   6   8
ATOM      8  C   UNL A   1      33.632  24.191  23.076  1.00  0.00     0.067 C 
ATOM      9  C   UNL A   1      32.481  23.483  22.973  1.00  0.00     0.024 C 
BRANCH   8  10
ATOM     10  C   UNL A   1      34.876  23.761  23.782  1.00  0.00    -0.011 A 
ATOM     11  C   UNL A   1      37.029  22.723  25.326  1.00  0.00     0.041 A 
ATOM     12  C   UNL A   1      36.955  22.494  23.950  1.00  0.00     0.027 A 
ATOM     13  C   UNL A   1      36.092  23.572  25.902  1.00  0.00     0.027 A 
ATOM     14  C   UNL A   1      35.903  23.022  23.187  1.00  0.00     0.011 A 
ATOM     15  C   UNL A   1      35.034  24.081  25.140  1.00  0.00     0.011 A 
BRANCH  11  16
ATOM     16  N   UNL A   1      38.081  22.114  26.029  1.00  0.00    -0.326 N 
ATOM     17  C   UNL A   1      39.412  24.101  26.755  1.00  0.00     0.114 C 
ATOM     18  C   UNL A   1      39.220  22.617  26.590  1.00  0.00     0.221 C 
ATOM     19  O   UNL A   1      40.068  21.830  27.018  1.00  0.00    -0.275 OA
ATOM     20  H   UNL A   1      37.980  21.141  26.137  1.00  0.00     0.169 HD
ENDBRANCH  11  16
ENDBRANCH   8  10
BRANCH   9  21
ATOM     21  C   UNL A   1      32.287  22.076  23.353  1.00  0.00    -0.025 A 
ATOM     22  C   UNL A   1      32.117  21.161  22.305  1.00  0.00     0.009 A 
ATOM     23  C   UNL A   1      32.432  21.605  24.666  1.00  0.00     0.009 A 
ATOM     24  C   UNL A   1      32.240  19.793  22.536  1.00  0.00     0.021 A 
ATOM     25  C   UNL A   1      32.562  20.232  24.903  1.00  0.00     0.021 A 
ATOM     26  C   UNL A   1      32.505  19.339  23.829  1.00  0.00     0.067 A 
BRANCH  26  27
ATOM     27  S   UNL A   1      32.965  17.636  24.050  1.00  0.00     0.175 S 
ATOM     28  C   UNL A   1      34.669  17.698  24.523  1.00  0.00     0.163 C 
ATOM     29  O   UNL A   1      32.198  17.136  25.176  1.00  0.00    -0.224 OA
ATOM     30  O   UNL A   1      32.880  16.981  22.758  1.00  0.00    -0.224 OA
ENDBRANCH  26  27
ENDBRANCH   9  21
ENDBRANCH   6   8
ENDBRANCH   5   6
ENDBRANCH   4   5
ENDBRANCH   3   4
ENDBRANCH   2   3
ENDBRANCH   1   2
BRANCH   1  31
ATOM     31  C   UNL A   1      31.779  30.198  25.911  1.00  0.00     0.261 C 
BRANCH  31  32
ATOM     32  O   UNL A   1      32.692  30.204  27.016  1.00  0.00    -0.460 OA
BRANCH  32  33
ATOM     33  C   UNL A   1      33.275  31.400  27.263  1.00  0.00     0.338 C 
ATOM     34  O   UNL A   1      32.737  32.500  27.264  1.00  0.00    -0.246 OA
BRANCH  33  35
ATOM     35  C   UNL A   1      34.653  31.182  27.729  1.00  0.00     0.060 A 
ATOM     36  C   UNL A   1      35.056  29.869  28.007  1.00  0.00     0.016 A 
ATOM     37  C   UNL A   1      35.518  32.256  27.943  1.00  0.00     0.016 A 
ATOM     38  C   UNL A   1      36.313  29.627  28.555  1.00  0.00     0.010 A 
ATOM     39  C   UNL A   1      36.773  32.014  28.499  1.00  0.00     0.010 A 
ATOM     40  C   UNL A   1      37.158  30.705  28.844  1.00  0.00    -0.014 A 
BRANCH  40  41
ATOM     41  C   UNL A   1      38.368  30.514  29.672  1.00  0.00     0.031 A 
ATOM     42  C   UNL A   1      39.490  29.685  29.110  1.00  0.00     0.074 A 
ATOM     43  C   UNL A   1      38.441  31.012  30.917  1.00  0.00     0.049 A 
ATOM     44  N   UNL A   1      40.571  29.248  29.695  1.00  0.00    -0.248 NA
ATOM     45  C   UNL A   1      39.361  29.285  27.699  1.00  0.00     0.031 C 
ATOM     46  C   UNL A   1      37.430  31.855  31.551  1.00  0.00     0.029 A 
ATOM     47  N   UNL A   1      39.399  30.845  31.884  1.00  0.00    -0.354 N 
ATOM     48  C   UNL A   1      41.228  28.481  28.742  1.00  0.00     0.074 A 
ATOM     49  C   UNL A   1      40.419  28.506  27.544  1.00  0.00     0.031 C 
ATOM     50  C   UNL A   1      37.806  32.107  32.816  1.00  0.00     0.029 A 
ATOM     51  C   UNL A   1      39.061  31.410  33.090  1.00  0.00     0.049 A 
ATOM     52  H   UNL A   1      40.245  30.367  31.729  1.00  0.00     0.167 HD
ATOM     53  C   UNL A   1      42.404  27.817  28.853  1.00  0.00     0.034 A 
ATOM     54  C   UNL A   1      39.682  31.342  34.284  1.00  0.00     0.034 A 
ATOM     55  C   UNL A   1      43.203  27.808  30.046  1.00  0.00     0.049 A 
ATOM     56  C   UNL A   1      40.963  30.557  34.402  1.00  0.00     0.074 A 
ATOM     57  C   UNL A   1      44.429  27.203  30.258  1.00  0.00     0.029 A 
ATOM     58  N   UNL A   1      42.847  28.422  31.238  1.00  0.00    -0.354 N 
ATOM     59  N   UNL A   1      41.619  29.902  33.474  1.00  0.00    -0.248 NA
ATOM     60  C   UNL A   1      41.602  30.519  35.726  1.00  0.00     0.031 C 
ATOM     61  C   UNL A   1      44.796  27.422  31.590  1.00  0.00     0.029 A 
ATOM     62  C   UNL A   1      43.821  28.201  32.194  1.00  0.00     0.049 A 
ATOM     63  H   UNL A   1      42.021  28.940  31.382  1.00  0.00     0.167 HD
ATOM     64  C   UNL A   1      42.773  29.424  34.084  1.00  0.00     0.074 A 
ATOM     65  C   UNL A   1      42.722  29.856  35.466  1.00  0.00     0.031 C 
ATOM     66  C   UNL A   1      43.783  28.694  33.549  1.00  0.00     0.034 A 
BRANCH  53  67
ATOM     67  C   UNL A   1      42.883  27.050  27.648  1.00  0.00     0.023 A 
ATOM     68  C   UNL A   1      43.377  27.742  26.523  1.00  0.00     0.012 A 
ATOM     69  C   UNL A   1      42.849  25.642  27.630  1.00  0.00     0.148 A 
ATOM     70  C   UNL A   1      43.779  27.049  25.382  1.00  0.00     0.002 A 
ATOM     71  C   UNL A   1      43.299  24.957  26.509  1.00  0.00     0.091 A 
ATOM     72  F   UNL A   1      42.354  24.999  28.698  1.00  0.00    -0.205 F 
ATOM     73  C   UNL A   1      43.747  25.657  25.378  1.00  0.00     0.022 A 
BRANCH  71  74
ATOM     74  S   UNL A   1      43.372  23.163  26.445  1.00  0.00     0.127 S 
ATOM     75  O   UNL A   1      42.551  22.875  25.270  1.00  0.00    -0.237 OA
ATOM     76  O   UNL A   1      44.803  22.917  26.263  1.00  0.00    -0.237 OA
ATOM     77  O   UNL A   1      42.835  22.698  27.716  1.00  0.00    -0.744 OA
ENDBRANCH  71  74
ENDBRANCH  53  67
BRANCH  54  78
ATOM     78  C   UNL A   1      39.125  32.083  35.449  1.00  0.00     0.023 A 
ATOM     79  C   UNL A   1      39.207  33.489  35.469  1.00  0.00     0.012 A 
ATOM     80  C   UNL A   1      38.480  31.417  36.510  1.00  0.00     0.148 A 
ATOM     81  C   UNL A   1      38.676  34.218  36.533  1.00  0.00     0.002 A 
ATOM     82  C   UNL A   1      37.908  32.151  37.542  1.00  0.00     0.091 A 
ATOM     83  F   UNL A   1      38.418  30.079  36.473  1.00  0.00    -0.205 F 
ATOM     84  C   UNL A   1      38.019  33.551  37.563  1.00  0.00     0.022 A 
BRANCH  82  85
ATOM     85  S   UNL A   1      36.938  31.395  38.851  1.00  0.00     0.127 S 
ATOM     86  O   UNL A   1      37.829  31.530  40.001  1.00  0.00    -0.237 OA
ATOM     87  O   UNL A   1      35.755  32.255  38.881  1.00  0.00    -0.237 OA
ATOM     88  O   UNL A   1      36.681  30.029  38.416  1.00  0.00    -0.744 OA
ENDBRANCH  82  85
ENDBRANCH  54  78
BRANCH  66  89
ATOM     89  C   UNL A   1      44.968  28.372  34.422  1.00  0.00     0.023 A 
ATOM     90  C   UNL A   1      46.055  29.262  34.502  1.00  0.00     0.012 A 
ATOM     91  C   UNL A   1      44.934  27.239  35.261  1.00  0.00     0.148 A 
ATOM     92  C   UNL A   1      47.100  29.022  35.395  1.00  0.00     0.002 A 
ATOM     93  C   UNL A   1      45.952  27.034  36.184  1.00  0.00     0.091 A 
ATOM     94  F   UNL A   1      43.896  26.397  35.154  1.00  0.00    -0.205 F 
ATOM     95  C   UNL A   1      47.040  27.919  36.245  1.00  0.00     0.022 A 
BRANCH  93  96
ATOM     96  S   UNL A   1      45.908  25.704  37.391  1.00  0.00     0.127 S 
ATOM     97  O   UNL A   1      45.600  24.550  36.549  1.00  0.00    -0.237 OA
ATOM     98  O   UNL A   1      47.271  25.727  37.922  1.00  0.00    -0.237 OA
ATOM     99  O   UNL A   1      44.875  26.064  38.353  1.00  0.00    -0.744 OA
ENDBRANCH  93  96
ENDBRANCH  66  89
ENDBRANCH  40  41
ENDBRANCH  33  35
ENDBRANCH  32  33
ENDBRANCH  31  32
ENDBRANCH   1  31
TORSDOF 21
ENDMDL
MODEL 3
REMARK VINA RESULT:     -11.7      1.620      7.518
REMARK SMILES CC(=O)Nc1ccc(/C(=C\c2ccc(S(C)(=O)=O)cc2)C(=O)OCCOCCOC(=O)c2ccc(-c3c4nc(c(-c5cccc(S(=O)(=O)[O-])c5F)c5ccc([nH]5)c(-c5cccc(S(=O)(=O)[O-])c5F)c5nc(c(-c6cccc(S(=O)(=O)[O-])c6F)c6ccc3[nH]6)C=C5)C=C4)cc2)cc1
REMARK SMILES IDX 27 1 26 2 25 3 24 4 23 5 21 6 22 7 9 8 10 9 8 10 5 11 6 12
REMARK SMILES IDX 96 13 7 14 95 15 4 16 1 17 2 18 3 19 11 21 12 22 20 23 13 24
REMARK SMILES IDX 19 25 14 26 15 27 16 28 17 29 18 30 28 31 29 32 30 33 31 34
REMARK SMILES IDX 32 35 33 36 94 37 34 38 93 39 35 40 36 41 37 42 87 43 38 44
REMARK SMILES IDX 92 45 86 46 88 47 39 48 91 49 85 50 84 51 40 53 72 54 52 55
REMARK SMILES IDX 71 56 53 57 56 58 70 59 89 60 54 61 55 62 69 64 90 65 57 66
REMARK SMILES IDX 41 67 42 68 50 69 43 70 45 71 51 72 44 73 46 74 47 75 48 76
REMARK SMILES IDX 49 77 73 78 74 79 82 80 75 81 77 82 83 83 76 84 78 85 79 86
REMARK SMILES IDX 80 87 81 88 58 89 59 90 67 91 60 92 62 93 68 94 61 95 63 96
REMARK SMILES IDX 64 97 65 98 66 99
REMARK H PARENT 4 20 88 52 56 63
REMARK Flexibility Score: inf
ROOT
ATOM      1  C   UNL A   1      32.467  28.785  25.412  1.00  0.00     0.202 C 
ENDROOT
BRANCH   1   2
ATOM      2  O   UNL A   1      33.174  27.747  26.094  1.00  0.00    -0.374 OA
BRANCH   2   3
ATOM      3  C   UNL A   1      33.846  26.773  25.294  1.00  0.00     0.202 C 
BRANCH   3   4
ATOM      4  C   UNL A   1      33.593  26.825  23.784  1.00  0.00     0.261 C 
BRANCH   4   5
ATOM      5  O   UNL A   1      33.719  25.522  23.196  1.00  0.00    -0.460 OA
BRANCH   5   6
ATOM      6  C   UNL A   1      32.622  24.727  23.301  1.00  0.00     0.338 C 
ATOM      7  O   UNL A   1      31.490  25.017  22.940  1.00  0.00    -0.246 OA
BRANCH   6   8
ATOM      8  C   UNL A   1      33.002  23.348  23.760  1.00  0.00     0.067 C 
ATOM      9  C   UNL A   1      32.046  22.393  23.648  1.00  0.00     0.024 C 
BRANCH   8  10
ATOM     10  C   UNL A   1      34.371  23.167  24.330  1.00  0.00    -0.011 A 
ATOM     11  C   UNL A   1      36.842  22.528  25.589  1.00  0.00     0.041 A 
ATOM     12  C   UNL A   1      36.708  22.478  24.199  1.00  0.00     0.027 A 
ATOM     13  C   UNL A   1      35.775  23.016  26.333  1.00  0.00     0.027 A 
ATOM     14  C   UNL A   1      35.495  22.810  23.578  1.00  0.00     0.011 A 
ATOM     15  C   UNL A   1      34.561  23.328  25.712  1.00  0.00     0.011 A 
BRANCH  11  16
ATOM     16  N   UNL A   1      38.070  22.127  26.137  1.00  0.00    -0.326 N 
ATOM     17  C   UNL A   1      39.137  24.330  26.640  1.00  0.00     0.114 C 
ATOM     18  C   UNL A   1      39.176  22.830  26.521  1.00  0.00     0.221 C 
ATOM     19  O   UNL A   1      40.197  22.209  26.830  1.00  0.00    -0.275 OA
ATOM     20  H   UNL A   1      38.151  21.154  26.270  1.00  0.00     0.169 HD
ENDBRANCH  11  16
ENDBRANCH   8  10
BRANCH   9  21
ATOM     21  C   UNL A   1      32.224  20.951  23.870  1.00  0.00    -0.025 A 
ATOM     22  C   UNL A   1      32.214  20.134  22.731  1.00  0.00     0.009 A 
ATOM     23  C   UNL A   1      32.564  20.399  25.113  1.00  0.00     0.009 A 
ATOM     24  C   UNL A   1      32.680  18.824  22.798  1.00  0.00     0.021 A 
ATOM     25  C   UNL A   1      33.039  19.085  25.187  1.00  0.00     0.021 A 
ATOM     26  C   UNL A   1      33.130  18.320  24.019  1.00  0.00     0.067 A 
BRANCH  26  27
ATOM     27  S   UNL A   1      34.003  16.772  24.026  1.00  0.00     0.175 S 
ATOM     28  C   UNL A   1      32.959  15.680  24.948  1.00  0.00     0.163 C 
ATOM     29  O   UNL A   1      34.048  16.308  22.652  1.00  0.00    -0.224 OA
ATOM     30  O   UNL A   1      35.233  16.958  24.775  1.00  0.00    -0.224 OA
ENDBRANCH  26  27
ENDBRANCH   9  21
ENDBRANCH   6   8
ENDBRANCH   5   6
ENDBRANCH   4   5
ENDBRANCH   3   4
ENDBRANCH   2   3
ENDBRANCH   1   2
BRANCH   1  31
ATOM     31  C   UNL A   1      32.290  30.127  26.129  1.00  0.00     0.261 C 
BRANCH  31  32
ATOM     32  O   UNL A   1      33.072  30.212  27.327  1.00  0.00    -0.460 OA
BRANCH  32  33
ATOM     33  C   UNL A   1      33.744  31.376  27.484  1.00  0.00     0.338 C 
ATOM     34  O   UNL A   1      33.300  32.511  27.361  1.00  0.00    -0.246 OA
BRANCH  33  35
ATOM     35  C   UNL A   1      35.085  31.096  28.021  1.00  0.00     0.060 A 
ATOM     36  C   UNL A   1      35.350  29.802  28.491  1.00  0.00     0.016 A 
ATOM     37  C   UNL A   1      36.047  32.102  28.114  1.00  0.00     0.016 A 
ATOM     38  C   UNL A   1      36.566  29.520  29.108  1.00  0.00     0.010 A 
ATOM     39  C   UNL A   1      37.261  31.821  28.739  1.00  0.00     0.010 A 
ATOM     40  C   UNL A   1      37.507  30.542  29.274  1.00  0.00    -0.014 A 
BRANCH  40  41
ATOM     41  C   UNL A   1      38.676  30.355  30.161  1.00  0.00     0.031 A 
ATOM     42  C   UNL A   1      39.754  29.403  29.723  1.00  0.00     0.074 A 
ATOM     43  C   UNL A   1      38.746  30.968  31.353  1.00  0.00     0.049 A 
ATOM     44  N   UNL A   1      40.784  28.956  30.387  1.00  0.00    -0.248 NA
ATOM     45  C   UNL A   1      39.640  28.875  28.353  1.00  0.00     0.031 C 
ATOM     46  C   UNL A   1      37.777  31.934  31.866  1.00  0.00     0.029 A 
ATOM     47  N   UNL A   1      39.660  30.834  32.367  1.00  0.00    -0.354 N 
ATOM     48  C   UNL A   1      41.415  28.056  29.537  1.00  0.00     0.074 A 
ATOM     49  C   UNL A   1      40.647  28.016  28.313  1.00  0.00     0.031 C 
ATOM     50  C   UNL A   1      38.131  32.285  33.113  1.00  0.00     0.029 A 
ATOM     51  C   UNL A   1      39.327  31.538  33.499  1.00  0.00     0.049 A 
ATOM     52  H   UNL A   1      40.476  30.289  32.290  1.00  0.00     0.167 HD
ATOM     53  C   UNL A   1      42.538  27.331  29.755  1.00  0.00     0.034 A 
ATOM     54  C   UNL A   1      39.904  31.547  34.717  1.00  0.00     0.034 A 
ATOM     55  C   UNL A   1      43.299  27.387  30.972  1.00  0.00     0.049 A 
ATOM     56  C   UNL A   1      41.124  30.695  34.956  1.00  0.00     0.074 A 
ATOM     57  C   UNL A   1      44.473  26.727  31.286  1.00  0.00     0.029 A 
ATOM     58  N   UNL A   1      42.950  28.138  32.085  1.00  0.00    -0.354 N 
ATOM     59  N   UNL A   1      41.761  29.909  34.120  1.00  0.00    -0.248 NA
ATOM     60  C   UNL A   1      41.719  30.745  36.300  1.00  0.00     0.031 C 
ATOM     61  C   UNL A   1      44.814  27.052  32.603  1.00  0.00     0.029 A 
ATOM     62  C   UNL A   1      43.877  27.949  33.093  1.00  0.00     0.049 A 
ATOM     63  H   UNL A   1      42.158  28.720  32.147  1.00  0.00     0.167 HD
ATOM     64  C   UNL A   1      42.860  29.419  34.816  1.00  0.00     0.074 A 
ATOM     65  C   UNL A   1      42.798  29.988  36.147  1.00  0.00     0.031 C 
ATOM     66  C   UNL A   1      43.833  28.575  34.391  1.00  0.00     0.034 A 
BRANCH  53  67
ATOM     67  C   UNL A   1      42.999  26.419  28.648  1.00  0.00     0.023 A 
ATOM     68  C   UNL A   1      42.436  25.133  28.513  1.00  0.00     0.012 A 
ATOM     69  C   UNL A   1      43.989  26.835  27.736  1.00  0.00     0.148 A 
ATOM     70  C   UNL A   1      42.886  24.258  27.525  1.00  0.00     0.002 A 
ATOM     71  C   UNL A   1      44.396  25.977  26.722  1.00  0.00     0.091 A 
ATOM     72  F   UNL A   1      44.533  28.051  27.892  1.00  0.00    -0.205 F 
ATOM     73  C   UNL A   1      43.860  24.683  26.625  1.00  0.00     0.022 A 
BRANCH  71  74
ATOM     74  S   UNL A   1      45.586  26.468  25.468  1.00  0.00     0.127 S 
ATOM     75  O   UNL A   1      45.800  25.210  24.756  1.00  0.00    -0.237 OA
ATOM     76  O   UNL A   1      44.841  27.477  24.713  1.00  0.00    -0.237 OA
ATOM     77  O   UNL A   1      46.737  26.985  26.194  1.00  0.00    -0.744 OA
ENDBRANCH  71  74
ENDBRANCH  53  67
BRANCH  54  78
ATOM     78  C   UNL A   1      39.365  32.434  35.783  1.00  0.00     0.023 A 
ATOM     79  C   UNL A   1      38.440  31.910  36.706  1.00  0.00     0.012 A 
ATOM     80  C   UNL A   1      39.790  33.770  35.919  1.00  0.00     0.148 A 
ATOM     81  C   UNL A   1      37.931  32.705  37.733  1.00  0.00     0.002 A 
ATOM     82  C   UNL A   1      39.318  34.543  36.974  1.00  0.00     0.091 A 
ATOM     83  F   UNL A   1      40.667  34.250  35.026  1.00  0.00    -0.205 F 
ATOM     84  C   UNL A   1      38.376  34.017  37.873  1.00  0.00     0.022 A 
BRANCH  82  85
ATOM     85  S   UNL A   1      39.922  36.201  37.310  1.00  0.00     0.127 S 
ATOM     86  O   UNL A   1      41.247  35.930  37.863  1.00  0.00    -0.237 OA
ATOM     87  O   UNL A   1      39.920  36.796  35.973  1.00  0.00    -0.237 OA
ATOM     88  O   UNL A   1      38.966  36.792  38.236  1.00  0.00    -0.744 OA
ENDBRANCH  82  85
ENDBRANCH  54  78
BRANCH  66  89
ATOM     89  C   UNL A   1      44.966  28.263  35.334  1.00  0.00     0.023 A 
ATOM     90  C   UNL A   1      46.111  29.081  35.364  1.00  0.00     0.012 A 
ATOM     91  C   UNL A   1      44.827  27.227  36.280  1.00  0.00     0.148 A 
ATOM     92  C   UNL A   1      47.110  28.862  36.314  1.00  0.00     0.002 A 
ATOM     93  C   UNL A   1      45.800  27.048  37.255  1.00  0.00     0.091 A 
ATOM     94  F   UNL A   1      43.735  26.451  36.220  1.00  0.00    -0.205 F 
ATOM     95  C   UNL A   1      46.947  27.858  37.267  1.00  0.00     0.022 A 
BRANCH  93  96
ATOM     96  S   UNL A   1      45.627  25.853  38.585  1.00  0.00     0.127 S 
ATOM     97  O   UNL A   1      44.425  26.337  39.263  1.00  0.00    -0.237 OA
ATOM     98  O   UNL A   1      45.452  24.600  37.852  1.00  0.00    -0.237 OA
ATOM     99  O   UNL A   1      46.854  25.935  39.365  1.00  0.00    -0.744 OA
ENDBRANCH  93  96
ENDBRANCH  66  89
ENDBRANCH  40  41
ENDBRANCH  33  35
ENDBRANCH  32  33
ENDBRANCH  31  32
ENDBRANCH   1  31
TORSDOF 21
ENDMDL
