MODEL 1
REMARK VINA RESULT:     -10.2      0.000      0.000
REMARK SMILES CC(C)([NH2+]C[C@@H]1CCCO1)C(=O)OCCOCCOC(=O)c1ccc(-c2c3nc(c(-c4cccc(S(=O)(=O)[O-])c4F)c4ccc([nH]4)c(-c4cccc(S(=O)(=O)[O-])c4F)c4nc(c(-c5cccc(S(=O)(=O)[O-])c5F)c5ccc2[nH]5)C=C4)C=C3)cc1
REMARK SMILES IDX 16 1 15 2 14 3 13 4 11 5 12 6 2 7 1 8 3 9 4 10 5 13 6 14
REMARK SMILES IDX 7 15 10 16 8 17 9 18 17 19 18 20 19 21 20 22 21 23 22 24
REMARK SMILES IDX 23 25 84 26 24 27 83 28 25 29 26 30 27 31 77 32 28 33 82 34
REMARK SMILES IDX 76 35 78 36 29 37 81 38 75 39 74 40 30 42 62 43 42 44 61 45
REMARK SMILES IDX 43 46 46 47 60 48 79 49 44 50 45 51 59 53 80 54 47 55 31 56
REMARK SMILES IDX 32 57 40 58 33 59 35 60 41 61 34 62 36 63 37 64 38 65 39 66
REMARK SMILES IDX 63 67 64 68 72 69 65 70 67 71 73 72 66 73 68 74 69 75 70 76
REMARK SMILES IDX 71 77 48 78 49 79 57 80 50 81 52 82 58 83 51 84 53 85 54 86
REMARK SMILES IDX 55 87 56 88
REMARK H PARENT 4 11 4 12 78 41 46 52
REMARK Flexibility Score: inf
ROOT
ATOM      1  O   UNL A   1      32.863  29.318  25.380  1.00  0.00    -0.374 OA
ENDROOT
BRANCH   1   2
ATOM      2  C   UNL A   1      32.829  27.984  24.867  1.00  0.00     0.202 C 
BRANCH   2   3
ATOM      3  C   UNL A   1      32.201  26.935  25.789  1.00  0.00     0.261 C 
BRANCH   3   4
ATOM      4  O   UNL A   1      33.161  25.913  26.110  1.00  0.00    -0.459 OA
BRANCH   4   5
ATOM      5  C   UNL A   1      32.658  24.672  26.321  1.00  0.00     0.367 C 
ATOM      6  O   UNL A   1      31.560  24.461  26.835  1.00  0.00    -0.245 OA
BRANCH   5   7
ATOM      7  C   UNL A   1      33.597  23.525  25.879  1.00  0.00     0.188 C 
ATOM      8  C   UNL A   1      34.203  22.948  27.184  1.00  0.00     0.092 C 
ATOM      9  C   UNL A   1      34.745  24.156  25.083  1.00  0.00     0.092 C 
BRANCH   7  10
ATOM     10  N   UNL A   1      32.962  22.317  25.265  1.00  0.00    -0.330 N 
ATOM     11  H   UNL A   1      33.638  21.948  24.595  1.00  0.00     0.347 HD
ATOM     12  H   UNL A   1      32.078  22.689  24.919  1.00  0.00     0.347 HD
BRANCH  10  13
ATOM     13  C   UNL A   1      32.521  21.172  26.082  1.00  0.00     0.293 C 
BRANCH  13  14
ATOM     14  C   UNL A   1      33.015  19.803  25.613  1.00  0.00     0.173 C 
ATOM     15  C   UNL A   1      34.332  19.782  24.862  1.00  0.00     0.040 C 
ATOM     16  O   UNL A   1      32.093  19.223  24.667  1.00  0.00    -0.372 OA
ATOM     17  C   UNL A   1      34.281  18.387  24.272  1.00  0.00     0.031 C 
ATOM     18  C   UNL A   1      32.803  18.186  23.976  1.00  0.00     0.161 C 
ENDBRANCH  13  14
ENDBRANCH  10  13
ENDBRANCH   7  10
ENDBRANCH   5   7
ENDBRANCH   4   5
ENDBRANCH   3   4
ENDBRANCH   2   3
ENDBRANCH   1   2
BRANCH   1  19
ATOM     19  C   UNL A   1      31.643  30.058  25.301  1.00  0.00     0.202 C 
BRANCH  19  20
ATOM     20  C   UNL A   1      31.509  31.249  26.254  1.00  0.00     0.261 C 
BRANCH  20  21
ATOM     21  O   UNL A   1      32.416  31.146  27.363  1.00  0.00    -0.460 OA
BRANCH  21  22
ATOM     22  C   UNL A   1      33.221  32.218  27.528  1.00  0.00     0.338 C 
ATOM     23  O   UNL A   1      32.880  33.397  27.561  1.00  0.00    -0.246 OA
BRANCH  22  24
ATOM     24  C   UNL A   1      34.593  31.787  27.847  1.00  0.00     0.060 A 
ATOM     25  C   UNL A   1      34.786  30.423  28.096  1.00  0.00     0.016 A 
ATOM     26  C   UNL A   1      35.656  32.687  27.965  1.00  0.00     0.016 A 
ATOM     27  C   UNL A   1      36.019  29.964  28.544  1.00  0.00     0.010 A 
ATOM     28  C   UNL A   1      36.897  32.223  28.418  1.00  0.00     0.010 A 
ATOM     29  C   UNL A   1      37.067  30.870  28.759  1.00  0.00    -0.014 A 
BRANCH  29  30
ATOM     30  C   UNL A   1      38.266  30.402  29.495  1.00  0.00     0.031 A 
ATOM     31  C   UNL A   1      38.482  30.868  30.910  1.00  0.00     0.074 A 
ATOM     32  C   UNL A   1      39.115  29.522  28.936  1.00  0.00     0.049 A 
ATOM     33  N   UNL A   1      39.405  30.512  31.765  1.00  0.00    -0.248 NA
ATOM     34  C   UNL A   1      37.530  31.863  31.433  1.00  0.00     0.031 C 
ATOM     35  C   UNL A   1      39.014  29.000  27.574  1.00  0.00     0.029 A 
ATOM     36  N   UNL A   1      40.233  28.914  29.448  1.00  0.00    -0.354 N 
ATOM     37  C   UNL A   1      39.157  31.249  32.918  1.00  0.00     0.074 A 
ATOM     38  C   UNL A   1      38.012  32.090  32.646  1.00  0.00     0.031 C 
ATOM     39  C   UNL A   1      40.038  28.158  27.354  1.00  0.00     0.029 A 
ATOM     40  C   UNL A   1      40.869  28.088  28.553  1.00  0.00     0.049 A 
ATOM     41  H   UNL A   1      40.550  29.057  30.369  1.00  0.00     0.167 HD
ATOM     42  C   UNL A   1      39.808  31.212  34.106  1.00  0.00     0.034 A 
ATOM     43  C   UNL A   1      41.995  27.359  28.689  1.00  0.00     0.034 A 
ATOM     44  C   UNL A   1      40.931  30.359  34.384  1.00  0.00     0.049 A 
ATOM     45  C   UNL A   1      42.703  27.338  30.020  1.00  0.00     0.074 A 
ATOM     46  C   UNL A   1      41.631  30.216  35.569  1.00  0.00     0.029 A 
ATOM     47  N   UNL A   1      41.527  29.510  33.464  1.00  0.00    -0.354 N 
ATOM     48  N   UNL A   1      42.378  27.941  31.138  1.00  0.00    -0.248 NA
ATOM     49  C   UNL A   1      43.909  26.503  30.118  1.00  0.00     0.031 C 
ATOM     50  C   UNL A   1      42.664  29.297  35.359  1.00  0.00     0.029 A 
ATOM     51  C   UNL A   1      42.592  28.848  34.051  1.00  0.00     0.049 A 
ATOM     52  H   UNL A   1      41.236  29.395  32.531  1.00  0.00     0.167 HD
ATOM     53  C   UNL A   1      43.316  27.531  32.080  1.00  0.00     0.074 A 
ATOM     54  C   UNL A   1      44.207  26.609  31.405  1.00  0.00     0.031 C 
ATOM     55  C   UNL A   1      43.440  27.895  33.381  1.00  0.00     0.034 A 
BRANCH  42  56
ATOM     56  C   UNL A   1      39.295  32.100  35.208  1.00  0.00     0.023 A 
ATOM     57  C   UNL A   1      38.283  31.627  36.069  1.00  0.00     0.012 A 
ATOM     58  C   UNL A   1      39.847  33.376  35.427  1.00  0.00     0.148 A 
ATOM     59  C   UNL A   1      37.807  32.422  37.110  1.00  0.00     0.002 A 
ATOM     60  C   UNL A   1      39.397  34.147  36.493  1.00  0.00     0.091 A 
ATOM     61  F   UNL A   1      40.790  33.818  34.583  1.00  0.00    -0.205 F 
ATOM     62  C   UNL A   1      38.372  33.676  37.329  1.00  0.00     0.022 A 
BRANCH  60  63
ATOM     63  S   UNL A   1      40.113  35.743  36.901  1.00  0.00     0.127 S 
ATOM     64  O   UNL A   1      39.503  36.016  38.203  1.00  0.00    -0.237 OA
ATOM     65  O   UNL A   1      41.543  35.437  36.951  1.00  0.00    -0.237 OA
ATOM     66  O   UNL A   1      39.722  36.644  35.827  1.00  0.00    -0.744 OA
ENDBRANCH  60  63
ENDBRANCH  42  56
BRANCH  43  67
ATOM     67  C   UNL A   1      42.495  26.545  27.545  1.00  0.00     0.023 A 
ATOM     68  C   UNL A   1      43.371  27.124  26.607  1.00  0.00     0.012 A 
ATOM     69  C   UNL A   1      42.121  25.196  27.395  1.00  0.00     0.148 A 
ATOM     70  C   UNL A   1      43.841  26.382  25.522  1.00  0.00     0.002 A 
ATOM     71  C   UNL A   1      42.638  24.446  26.346  1.00  0.00     0.091 A 
ATOM     72  F   UNL A   1      41.271  24.670  28.288  1.00  0.00    -0.205 F 
ATOM     73  C   UNL A   1      43.485  25.041  25.398  1.00  0.00     0.022 A 
BRANCH  71  74
ATOM     74  S   UNL A   1      42.339  22.682  26.190  1.00  0.00     0.127 S 
ATOM     75  O   UNL A   1      40.880  22.628  26.155  1.00  0.00    -0.237 OA
ATOM     76  O   UNL A   1      42.999  22.373  24.921  1.00  0.00    -0.237 OA
ATOM     77  O   UNL A   1      42.970  22.074  27.354  1.00  0.00    -0.744 OA
ENDBRANCH  71  74
ENDBRANCH  43  67
BRANCH  55  78
ATOM     78  C   UNL A   1      44.562  27.276  34.174  1.00  0.00     0.023 A 
ATOM     79  C   UNL A   1      45.834  27.881  34.177  1.00  0.00     0.012 A 
ATOM     80  C   UNL A   1      44.342  26.129  34.964  1.00  0.00     0.148 A 
ATOM     81  C   UNL A   1      46.880  27.333  34.920  1.00  0.00     0.002 A 
ATOM     82  C   UNL A   1      45.375  25.618  35.740  1.00  0.00     0.091 A 
ATOM     83  F   UNL A   1      43.130  25.554  34.937  1.00  0.00    -0.205 F 
ATOM     84  C   UNL A   1      46.648  26.209  35.709  1.00  0.00     0.022 A 
BRANCH  82  85
ATOM     85  S   UNL A   1      45.136  24.231  36.857  1.00  0.00     0.127 S 
ATOM     86  O   UNL A   1      44.096  24.742  37.750  1.00  0.00    -0.237 OA
ATOM     87  O   UNL A   1      44.693  23.170  35.951  1.00  0.00    -0.237 OA
ATOM     88  O   UNL A   1      46.433  23.991  37.474  1.00  0.00    -0.744 OA
ENDBRANCH  82  85
ENDBRANCH  55  78
ENDBRANCH  29  30
ENDBRANCH  22  24
ENDBRANCH  21  22
ENDBRANCH  20  21
ENDBRANCH  19  20
ENDBRANCH   1  19
TORSDOF 20
ENDMDL
MODEL 2
REMARK VINA RESULT:     -10.2      2.148      3.500
REMARK SMILES CC(C)([NH2+]C[C@@H]1CCCO1)C(=O)OCCOCCOC(=O)c1ccc(-c2c3nc(c(-c4cccc(S(=O)(=O)[O-])c4F)c4ccc([nH]4)c(-c4cccc(S(=O)(=O)[O-])c4F)c4nc(c(-c5cccc(S(=O)(=O)[O-])c5F)c5ccc2[nH]5)C=C4)C=C3)cc1
REMARK SMILES IDX 16 1 15 2 14 3 13 4 11 5 12 6 2 7 1 8 3 9 4 10 5 13 6 14
REMARK SMILES IDX 7 15 10 16 8 17 9 18 17 19 18 20 19 21 20 22 21 23 22 24
REMARK SMILES IDX 23 25 84 26 24 27 83 28 25 29 26 30 27 31 77 32 28 33 82 34
REMARK SMILES IDX 76 35 78 36 29 37 81 38 75 39 74 40 30 42 62 43 42 44 61 45
REMARK SMILES IDX 43 46 46 47 60 48 79 49 44 50 45 51 59 53 80 54 47 55 31 56
REMARK SMILES IDX 32 57 40 58 33 59 35 60 41 61 34 62 36 63 37 64 38 65 39 66
REMARK SMILES IDX 63 67 64 68 72 69 65 70 67 71 73 72 66 73 68 74 69 75 70 76
REMARK SMILES IDX 71 77 48 78 49 79 57 80 50 81 52 82 58 83 51 84 53 85 54 86
REMARK SMILES IDX 55 87 56 88
REMARK H PARENT 4 11 4 12 78 41 46 52
REMARK Flexibility Score: inf
ROOT
ATOM      1  O   UNL A   1      32.117  30.100  25.982  1.00  0.00    -0.374 OA
ENDROOT
BRANCH   1   2
ATOM      2  C   UNL A   1      32.188  29.353  27.199  1.00  0.00     0.202 C 
BRANCH   2   3
ATOM      3  C   UNL A   1      31.714  27.899  27.113  1.00  0.00     0.261 C 
BRANCH   3   4
ATOM      4  O   UNL A   1      30.867  27.717  25.965  1.00  0.00    -0.459 OA
BRANCH   4   5
ATOM      5  C   UNL A   1      30.718  26.440  25.533  1.00  0.00     0.367 C 
ATOM      6  O   UNL A   1      30.387  25.509  26.266  1.00  0.00    -0.245 OA
BRANCH   5   7
ATOM      7  C   UNL A   1      31.025  26.241  24.030  1.00  0.00     0.188 C 
ATOM      8  C   UNL A   1      30.522  24.816  23.683  1.00  0.00     0.092 C 
ATOM      9  C   UNL A   1      32.549  26.238  23.871  1.00  0.00     0.092 C 
BRANCH   7  10
ATOM     10  N   UNL A   1      30.267  27.089  23.058  1.00  0.00    -0.330 N 
ATOM     11  H   UNL A   1      29.415  27.383  23.538  1.00  0.00     0.347 HD
ATOM     12  H   UNL A   1      30.189  26.474  22.249  1.00  0.00     0.347 HD
BRANCH  10  13
ATOM     13  C   UNL A   1      30.851  28.308  22.470  1.00  0.00     0.293 C 
BRANCH  13  14
ATOM     14  C   UNL A   1      29.964  29.553  22.523  1.00  0.00     0.173 C 
ATOM     15  C   UNL A   1      28.692  29.439  23.340  1.00  0.00     0.040 C 
ATOM     16  O   UNL A   1      29.477  29.890  21.208  1.00  0.00    -0.372 OA
ATOM     17  C   UNL A   1      27.952  30.670  22.854  1.00  0.00     0.031 C 
ATOM     18  C   UNL A   1      28.356  30.767  21.392  1.00  0.00     0.161 C 
ENDBRANCH  13  14
ENDBRANCH  10  13
ENDBRANCH   7  10
ENDBRANCH   5   7
ENDBRANCH   4   5
ENDBRANCH   3   4
ENDBRANCH   2   3
ENDBRANCH   1   2
BRANCH   1  19
ATOM     19  C   UNL A   1      31.164  31.165  25.947  1.00  0.00     0.202 C 
BRANCH  19  20
ATOM     20  C   UNL A   1      31.377  32.298  26.954  1.00  0.00     0.261 C 
BRANCH  20  21
ATOM     21  O   UNL A   1      32.660  32.924  26.787  1.00  0.00    -0.460 OA
BRANCH  21  22
ATOM     22  C   UNL A   1      33.194  33.417  27.925  1.00  0.00     0.338 C 
ATOM     23  O   UNL A   1      32.645  34.155  28.737  1.00  0.00    -0.246 OA
BRANCH  22  24
ATOM     24  C   UNL A   1      34.510  32.805  28.182  1.00  0.00     0.060 A 
ATOM     25  C   UNL A   1      34.514  31.477  28.627  1.00  0.00     0.016 A 
ATOM     26  C   UNL A   1      35.708  33.515  28.055  1.00  0.00     0.016 A 
ATOM     27  C   UNL A   1      35.705  30.882  29.028  1.00  0.00     0.010 A 
ATOM     28  C   UNL A   1      36.905  32.913  28.461  1.00  0.00     0.010 A 
ATOM     29  C   UNL A   1      36.899  31.613  28.997  1.00  0.00    -0.014 A 
BRANCH  29  30
ATOM     30  C   UNL A   1      38.088  31.055  29.685  1.00  0.00     0.031 A 
ATOM     31  C   UNL A   1      38.368  31.465  31.107  1.00  0.00     0.074 A 
ATOM     32  C   UNL A   1      38.869  30.145  29.077  1.00  0.00     0.049 A 
ATOM     33  N   UNL A   1      39.291  31.032  31.925  1.00  0.00    -0.248 NA
ATOM     34  C   UNL A   1      37.491  32.498  31.684  1.00  0.00     0.031 C 
ATOM     35  C   UNL A   1      38.702  29.671  27.704  1.00  0.00     0.029 A 
ATOM     36  N   UNL A   1      39.963  29.459  29.540  1.00  0.00    -0.354 N 
ATOM     37  C   UNL A   1      39.118  31.746  33.104  1.00  0.00     0.074 A 
ATOM     38  C   UNL A   1      38.017  32.660  32.889  1.00  0.00     0.031 C 
ATOM     39  C   UNL A   1      39.669  28.779  27.431  1.00  0.00     0.029 A 
ATOM     40  C   UNL A   1      40.526  28.625  28.604  1.00  0.00     0.049 A 
ATOM     41  H   UNL A   1      40.312  29.556  30.456  1.00  0.00     0.167 HD
ATOM     42  C   UNL A   1      39.797  31.636  34.272  1.00  0.00     0.034 A 
ATOM     43  C   UNL A   1      41.611  27.829  28.687  1.00  0.00     0.034 A 
ATOM     44  C   UNL A   1      40.876  30.712  34.493  1.00  0.00     0.049 A 
ATOM     45  C   UNL A   1      42.351  27.727  29.996  1.00  0.00     0.074 A 
ATOM     46  C   UNL A   1      41.597  30.494  35.654  1.00  0.00     0.029 A 
ATOM     47  N   UNL A   1      41.396  29.858  33.533  1.00  0.00    -0.354 N 
ATOM     48  N   UNL A   1      42.091  28.314  31.140  1.00  0.00    -0.248 NA
ATOM     49  C   UNL A   1      43.508  26.821  30.036  1.00  0.00     0.031 C 
ATOM     50  C   UNL A   1      42.570  29.523  35.389  1.00  0.00     0.029 A 
ATOM     51  C   UNL A   1      42.436  29.119  34.070  1.00  0.00     0.049 A 
ATOM     52  H   UNL A   1      41.074  29.789  32.606  1.00  0.00     0.167 HD
ATOM     53  C   UNL A   1      43.029  27.822  32.043  1.00  0.00     0.074 A 
ATOM     54  C   UNL A   1      43.847  26.871  31.316  1.00  0.00     0.031 C 
ATOM     55  C   UNL A   1      43.209  28.140  33.350  1.00  0.00     0.034 A 
BRANCH  42  56
ATOM     56  C   UNL A   1      39.366  32.519  35.413  1.00  0.00     0.023 A 
ATOM     57  C   UNL A   1      38.457  32.024  36.371  1.00  0.00     0.012 A 
ATOM     58  C   UNL A   1      39.899  33.813  35.570  1.00  0.00     0.148 A 
ATOM     59  C   UNL A   1      38.061  32.814  37.448  1.00  0.00     0.002 A 
ATOM     60  C   UNL A   1      39.531  34.579  36.670  1.00  0.00     0.091 A 
ATOM     61  F   UNL A   1      40.741  34.275  34.635  1.00  0.00    -0.205 F 
ATOM     62  C   UNL A   1      38.605  34.086  37.603  1.00  0.00     0.022 A 
BRANCH  60  63
ATOM     63  S   UNL A   1      40.234  36.199  36.997  1.00  0.00     0.127 S 
ATOM     64  O   UNL A   1      41.640  35.870  37.230  1.00  0.00    -0.237 OA
ATOM     65  O   UNL A   1      39.974  36.908  35.743  1.00  0.00    -0.237 OA
ATOM     66  O   UNL A   1      39.515  36.723  38.150  1.00  0.00    -0.744 OA
ENDBRANCH  60  63
ENDBRANCH  42  56
BRANCH  43  67
ATOM     67  C   UNL A   1      42.031  27.023  27.506  1.00  0.00     0.023 A 
ATOM     68  C   UNL A   1      42.704  27.647  26.439  1.00  0.00     0.012 A 
ATOM     69  C   UNL A   1      41.784  25.637  27.448  1.00  0.00     0.148 A 
ATOM     70  C   UNL A   1      43.096  26.911  25.319  1.00  0.00     0.002 A 
ATOM     71  C   UNL A   1      42.229  24.900  26.357  1.00  0.00     0.091 A 
ATOM     72  F   UNL A   1      41.125  25.066  28.465  1.00  0.00    -0.205 F 
ATOM     73  C   UNL A   1      42.870  25.538  25.283  1.00  0.00     0.022 A 
BRANCH  71  74
ATOM     74  S   UNL A   1      42.098  23.110  26.293  1.00  0.00     0.127 S 
ATOM     75  O   UNL A   1      42.866  22.712  27.470  1.00  0.00    -0.237 OA
ATOM     76  O   UNL A   1      40.654  22.907  26.400  1.00  0.00    -0.237 OA
ATOM     77  O   UNL A   1      42.661  22.723  25.006  1.00  0.00    -0.744 OA
ENDBRANCH  71  74
ENDBRANCH  43  67
BRANCH  55  78
ATOM     78  C   UNL A   1      44.314  27.433  34.093  1.00  0.00     0.023 A 
ATOM     79  C   UNL A   1      45.632  27.925  34.021  1.00  0.00     0.012 A 
ATOM     80  C   UNL A   1      44.038  26.318  34.910  1.00  0.00     0.148 A 
ATOM     81  C   UNL A   1      46.664  27.296  34.716  1.00  0.00     0.002 A 
ATOM     82  C   UNL A   1      45.062  25.727  35.639  1.00  0.00     0.091 A 
ATOM     83  F   UNL A   1      42.781  25.850  34.954  1.00  0.00    -0.205 F 
ATOM     84  C   UNL A   1      46.378  26.204  35.533  1.00  0.00     0.022 A 
BRANCH  82  85
ATOM     85  S   UNL A   1      44.763  24.377  36.787  1.00  0.00     0.127 S 
ATOM     86  O   UNL A   1      44.629  23.238  35.880  1.00  0.00    -0.237 OA
ATOM     87  O   UNL A   1      45.985  24.374  37.593  1.00  0.00    -0.237 OA
ATOM     88  O   UNL A   1      43.560  24.743  37.522  1.00  0.00    -0.744 OA
ENDBRANCH  82  85
ENDBRANCH  55  78
ENDBRANCH  29  30
ENDBRANCH  22  24
ENDBRANCH  21  22
ENDBRANCH  20  21
ENDBRANCH  19  20
ENDBRANCH   1  19
TORSDOF 20
ENDMDL
MODEL 3
REMARK VINA RESULT:      -9.9      1.527      2.114
REMARK SMILES CC(C)([NH2+]C[C@@H]1CCCO1)C(=O)OCCOCCOC(=O)c1ccc(-c2c3nc(c(-c4cccc(S(=O)(=O)[O-])c4F)c4ccc([nH]4)c(-c4cccc(S(=O)(=O)[O-])c4F)c4nc(c(-c5cccc(S(=O)(=O)[O-])c5F)c5ccc2[nH]5)C=C4)C=C3)cc1
REMARK SMILES IDX 16 1 15 2 14 3 13 4 11 5 12 6 2 7 1 8 3 9 4 10 5 13 6 14
REMARK SMILES IDX 7 15 10 16 8 17 9 18 17 19 18 20 19 21 20 22 21 23 22 24
REMARK SMILES IDX 23 25 84 26 24 27 83 28 25 29 26 30 27 31 77 32 28 33 82 34
REMARK SMILES IDX 76 35 78 36 29 37 81 38 75 39 74 40 30 42 62 43 42 44 61 45
REMARK SMILES IDX 43 46 46 47 60 48 79 49 44 50 45 51 59 53 80 54 47 55 31 56
REMARK SMILES IDX 32 57 40 58 33 59 35 60 41 61 34 62 36 63 37 64 38 65 39 66
REMARK SMILES IDX 63 67 64 68 72 69 65 70 67 71 73 72 66 73 68 74 69 75 70 76
REMARK SMILES IDX 71 77 48 78 49 79 57 80 50 81 52 82 58 83 51 84 53 85 54 86
REMARK SMILES IDX 55 87 56 88
REMARK H PARENT 4 11 4 12 78 41 46 52
REMARK Flexibility Score: inf
ROOT
ATOM      1  O   UNL A   1      32.556  30.206  26.009  1.00  0.00    -0.374 OA
ENDROOT
BRANCH   1   2
ATOM      2  C   UNL A   1      32.480  28.933  25.361  1.00  0.00     0.202 C 
BRANCH   2   3
ATOM      3  C   UNL A   1      31.847  28.936  23.967  1.00  0.00     0.261 C 
BRANCH   3   4
ATOM      4  O   UNL A   1      32.475  27.949  23.131  1.00  0.00    -0.459 OA
BRANCH   4   5
ATOM      5  C   UNL A   1      31.641  27.191  22.378  1.00  0.00     0.367 C 
ATOM      6  O   UNL A   1      30.526  27.563  22.015  1.00  0.00    -0.245 OA
BRANCH   5   7
ATOM      7  C   UNL A   1      32.202  25.793  22.026  1.00  0.00     0.188 C 
ATOM      8  C   UNL A   1      33.559  25.683  22.768  1.00  0.00     0.092 C 
ATOM      9  C   UNL A   1      32.503  25.786  20.523  1.00  0.00     0.092 C 
BRANCH   7  10
ATOM     10  N   UNL A   1      31.458  24.604  22.549  1.00  0.00    -0.330 N 
ATOM     11  H   UNL A   1      31.043  24.146  21.737  1.00  0.00     0.347 HD
ATOM     12  H   UNL A   1      30.844  25.023  23.247  1.00  0.00     0.347 HD
BRANCH  10  13
ATOM     13  C   UNL A   1      32.133  23.545  23.322  1.00  0.00     0.293 C 
BRANCH  13  14
ATOM     14  C   UNL A   1      31.454  23.159  24.637  1.00  0.00     0.173 C 
ATOM     15  C   UNL A   1      30.620  24.234  25.306  1.00  0.00     0.040 C 
ATOM     16  O   UNL A   1      32.437  22.838  25.644  1.00  0.00    -0.372 OA
ATOM     17  C   UNL A   1      30.449  23.621  26.682  1.00  0.00     0.031 C 
ATOM     18  C   UNL A   1      31.769  22.903  26.912  1.00  0.00     0.161 C 
ENDBRANCH  13  14
ENDBRANCH  10  13
ENDBRANCH   7  10
ENDBRANCH   5   7
ENDBRANCH   4   5
ENDBRANCH   3   4
ENDBRANCH   2   3
ENDBRANCH   1   2
BRANCH   1  19
ATOM     19  C   UNL A   1      31.337  30.950  26.086  1.00  0.00     0.202 C 
BRANCH  19  20
ATOM     20  C   UNL A   1      31.386  32.248  26.897  1.00  0.00     0.261 C 
BRANCH  20  21
ATOM     21  O   UNL A   1      32.650  32.917  26.753  1.00  0.00    -0.460 OA
BRANCH  21  22
ATOM     22  C   UNL A   1      33.173  33.377  27.910  1.00  0.00     0.338 C 
ATOM     23  O   UNL A   1      32.619  34.098  28.735  1.00  0.00    -0.246 OA
BRANCH  22  24
ATOM     24  C   UNL A   1      34.481  32.748  28.168  1.00  0.00     0.060 A 
ATOM     25  C   UNL A   1      34.467  31.446  28.680  1.00  0.00     0.016 A 
ATOM     26  C   UNL A   1      35.691  33.423  27.976  1.00  0.00     0.016 A 
ATOM     27  C   UNL A   1      35.654  30.844  29.083  1.00  0.00     0.010 A 
ATOM     28  C   UNL A   1      36.884  32.815  28.384  1.00  0.00     0.010 A 
ATOM     29  C   UNL A   1      36.863  31.545  28.987  1.00  0.00    -0.014 A 
BRANCH  29  30
ATOM     30  C   UNL A   1      38.056  30.995  29.674  1.00  0.00     0.031 A 
ATOM     31  C   UNL A   1      38.332  31.404  31.097  1.00  0.00     0.074 A 
ATOM     32  C   UNL A   1      38.845  30.093  29.065  1.00  0.00     0.049 A 
ATOM     33  N   UNL A   1      39.258  30.976  31.915  1.00  0.00    -0.248 NA
ATOM     34  C   UNL A   1      37.445  32.428  31.676  1.00  0.00     0.031 C 
ATOM     35  C   UNL A   1      38.682  29.620  27.691  1.00  0.00     0.029 A 
ATOM     36  N   UNL A   1      39.944  29.415  29.528  1.00  0.00    -0.354 N 
ATOM     37  C   UNL A   1      39.077  31.687  33.096  1.00  0.00     0.074 A 
ATOM     38  C   UNL A   1      37.970  32.592  32.881  1.00  0.00     0.031 C 
ATOM     39  C   UNL A   1      39.657  28.736  27.417  1.00  0.00     0.029 A 
ATOM     40  C   UNL A   1      40.514  28.587  28.590  1.00  0.00     0.049 A 
ATOM     41  H   UNL A   1      40.291  29.513  30.444  1.00  0.00     0.167 HD
ATOM     42  C   UNL A   1      39.756  31.580  34.264  1.00  0.00     0.034 A 
ATOM     43  C   UNL A   1      41.606  27.800  28.673  1.00  0.00     0.034 A 
ATOM     44  C   UNL A   1      40.843  30.664  34.484  1.00  0.00     0.049 A 
ATOM     45  C   UNL A   1      42.346  27.702  29.982  1.00  0.00     0.074 A 
ATOM     46  C   UNL A   1      41.565  30.449  35.645  1.00  0.00     0.029 A 
ATOM     47  N   UNL A   1      41.371  29.817  33.523  1.00  0.00    -0.354 N 
ATOM     48  N   UNL A   1      42.081  28.284  31.126  1.00  0.00    -0.248 NA
ATOM     49  C   UNL A   1      43.510  26.805  30.021  1.00  0.00     0.031 C 
ATOM     50  C   UNL A   1      42.545  29.487  35.378  1.00  0.00     0.029 A 
ATOM     51  C   UNL A   1      42.416  29.085  34.059  1.00  0.00     0.049 A 
ATOM     52  H   UNL A   1      41.050  29.747  32.595  1.00  0.00     0.167 HD
ATOM     53  C   UNL A   1      43.021  27.798  32.029  1.00  0.00     0.074 A 
ATOM     54  C   UNL A   1      43.847  26.855  31.301  1.00  0.00     0.031 C 
ATOM     55  C   UNL A   1      43.198  28.114  33.337  1.00  0.00     0.034 A 
BRANCH  42  56
ATOM     56  C   UNL A   1      39.318  32.457  35.407  1.00  0.00     0.023 A 
ATOM     57  C   UNL A   1      38.418  31.950  36.367  1.00  0.00     0.012 A 
ATOM     58  C   UNL A   1      39.833  33.758  35.562  1.00  0.00     0.148 A 
ATOM     59  C   UNL A   1      38.015  32.734  37.446  1.00  0.00     0.002 A 
ATOM     60  C   UNL A   1      39.459  34.519  36.663  1.00  0.00     0.091 A 
ATOM     61  F   UNL A   1      40.666  34.231  34.625  1.00  0.00    -0.205 F 
ATOM     62  C   UNL A   1      38.543  34.013  37.600  1.00  0.00     0.022 A 
BRANCH  60  63
ATOM     63  S   UNL A   1      40.141  36.148  36.988  1.00  0.00     0.127 S 
ATOM     64  O   UNL A   1      39.289  36.612  38.082  1.00  0.00    -0.237 OA
ATOM     65  O   UNL A   1      41.517  35.836  37.377  1.00  0.00    -0.237 OA
ATOM     66  O   UNL A   1      40.018  36.891  35.741  1.00  0.00    -0.744 OA
ENDBRANCH  60  63
ENDBRANCH  42  56
BRANCH  43  67
ATOM     67  C   UNL A   1      42.034  26.999  27.490  1.00  0.00     0.023 A 
ATOM     68  C   UNL A   1      42.719  27.628  26.434  1.00  0.00     0.012 A 
ATOM     69  C   UNL A   1      41.781  25.616  27.420  1.00  0.00     0.148 A 
ATOM     70  C   UNL A   1      43.119  26.898  25.313  1.00  0.00     0.002 A 
ATOM     71  C   UNL A   1      42.233  24.884  26.328  1.00  0.00     0.091 A 
ATOM     72  F   UNL A   1      41.110  25.041  28.428  1.00  0.00    -0.205 F 
ATOM     73  C   UNL A   1      42.887  25.526  25.265  1.00  0.00     0.022 A 
BRANCH  71  74
ATOM     74  S   UNL A   1      42.095  23.095  26.251  1.00  0.00     0.127 S 
ATOM     75  O   UNL A   1      42.700  22.804  24.954  1.00  0.00    -0.237 OA
ATOM     76  O   UNL A   1      42.888  22.680  27.409  1.00  0.00    -0.237 OA
ATOM     77  O   UNL A   1      40.672  22.806  26.368  1.00  0.00    -0.744 OA
ENDBRANCH  71  74
ENDBRANCH  43  67
BRANCH  55  78
ATOM     78  C   UNL A   1      44.308  27.415  34.079  1.00  0.00     0.023 A 
ATOM     79  C   UNL A   1      45.610  27.952  34.059  1.00  0.00     0.012 A 
ATOM     80  C   UNL A   1      44.050  26.260  34.846  1.00  0.00     0.148 A 
ATOM     81  C   UNL A   1      46.646  27.330  34.755  1.00  0.00     0.002 A 
ATOM     82  C   UNL A   1      45.076  25.674  35.577  1.00  0.00     0.091 A 
ATOM     83  F   UNL A   1      42.809  25.750  34.840  1.00  0.00    -0.205 F 
ATOM     84  C   UNL A   1      46.377  26.198  35.522  1.00  0.00     0.022 A 
BRANCH  82  85
ATOM     85  S   UNL A   1      44.796  24.271  36.664  1.00  0.00     0.127 S 
ATOM     86  O   UNL A   1      43.698  24.756  37.500  1.00  0.00    -0.237 OA
ATOM     87  O   UNL A   1      44.424  23.214  35.724  1.00  0.00    -0.237 OA
ATOM     88  O   UNL A   1      46.060  24.046  37.353  1.00  0.00    -0.744 OA
ENDBRANCH  82  85
ENDBRANCH  55  78
ENDBRANCH  29  30
ENDBRANCH  22  24
ENDBRANCH  21  22
ENDBRANCH  20  21
ENDBRANCH  19  20
ENDBRANCH   1  19
TORSDOF 20
ENDMDL
