MODEL 1
REMARK VINA RESULT:     -12.3      0.000      0.000
REMARK SMILES Cc1cnn(C2(C(=O)OCCOCCOC(=O)c3ccc(-c4c5nc(c(-c6cccc(S(=O)(=O)[O-])c6F)c6ccc([nH]6)c(-c6cccc(S(=O)(=O)[O-])c6F)c6nc(c(-c7cccc(S(=O)(=O)[O-])c7F)c7ccc4[nH]7)C=C6)C=C5)cc3)CCN(C(=O)c3cc4ccccc4[nH]3)CC2)c1
REMARK SMILES IDX 13 1 12 2 11 3 10 4 9 5 7 6 8 7 6 8 81 9 96 10 82 11 95 12
REMARK SMILES IDX 83 13 84 14 85 15 5 16 1 17 2 18 3 19 97 20 4 21 86 22 87 23
REMARK SMILES IDX 94 24 88 25 93 26 89 28 92 29 90 30 91 31 14 32 15 33 16 34
REMARK SMILES IDX 17 35 18 36 19 37 80 38 20 39 79 40 21 41 22 42 23 43 73 44
REMARK SMILES IDX 24 45 78 46 72 47 74 48 25 49 77 50 71 51 70 52 26 54 58 55
REMARK SMILES IDX 38 56 57 57 39 58 42 59 56 60 75 61 40 62 41 63 55 65 76 66
REMARK SMILES IDX 43 67 27 68 28 69 36 70 29 71 31 72 37 73 30 74 32 75 33 76
REMARK SMILES IDX 34 77 35 78 59 79 60 80 68 81 61 82 63 83 69 84 62 85 64 86
REMARK SMILES IDX 65 87 66 88 67 89 44 90 45 91 53 92 46 93 48 94 54 95 47 96
REMARK SMILES IDX 49 97 50 98 51 99 52 100
REMARK H PARENT 94 27 74 53 42 64
REMARK Flexibility Score: inf
ROOT
ATOM      1  C   UNL A   1      34.132  32.958  28.656  1.00  0.00     0.202 C 
ENDROOT
BRANCH   1   2
ATOM      2  O   UNL A   1      34.687  32.207  27.576  1.00  0.00    -0.374 OA
BRANCH   2   3
ATOM      3  C   UNL A   1      34.349  30.831  27.403  1.00  0.00     0.202 C 
BRANCH   3   4
ATOM      4  C   UNL A   1      32.973  30.462  26.852  1.00  0.00     0.261 C 
BRANCH   4   5
ATOM      5  O   UNL A   1      33.047  29.549  25.747  1.00  0.00    -0.461 OA
BRANCH   5   6
ATOM      6  C   UNL A   1      32.462  28.335  25.957  1.00  0.00     0.334 C 
ATOM      7  O   UNL A   1      32.216  27.889  27.078  1.00  0.00    -0.249 OA
BRANCH   6   8
ATOM      8  C   UNL A   1      32.281  27.514  24.661  1.00  0.00     0.163 C 
ATOM      9  C   UNL A   1      33.562  27.397  23.798  1.00  0.00     0.064 C 
ATOM     10  C   UNL A   1      31.925  26.149  25.276  1.00  0.00     0.064 C 
ATOM     11  C   UNL A   1      33.546  26.201  22.844  1.00  0.00     0.123 C 
ATOM     12  C   UNL A   1      31.968  24.979  24.330  1.00  0.00     0.123 C 
ATOM     13  N   UNL A   1      33.176  24.960  23.522  1.00  0.00    -0.337 N 
ATOM     14  C   UNL A   1      33.960  23.812  23.334  1.00  0.00     0.270 C 
ATOM     15  O   UNL A   1      35.094  23.867  22.871  1.00  0.00    -0.267 OA
BRANCH   8  16
ATOM     16  N   UNL A   1      31.178  28.097  23.867  1.00  0.00    -0.255 N 
ATOM     17  C   UNL A   1      27.750  28.812  22.801  1.00  0.00     0.048 C 
ATOM     18  C   UNL A   1      29.201  28.667  23.038  1.00  0.00    -0.013 A 
ATOM     19  C   UNL A   1      30.262  29.290  22.361  1.00  0.00     0.138 A 
ATOM     20  C   UNL A   1      29.830  27.868  23.969  1.00  0.00     0.113 A 
ATOM     21  N   UNL A   1      31.452  28.904  22.817  1.00  0.00    -0.180 NA
ENDBRANCH   8  16
BRANCH  14  22
ATOM     22  C   UNL A   1      33.402  22.557  23.796  1.00  0.00     0.105 A 
ATOM     23  C   UNL A   1      33.377  21.980  25.055  1.00  0.00     0.042 A 
ATOM     24  N   UNL A   1      32.758  21.676  22.956  1.00  0.00    -0.351 N 
ATOM     25  C   UNL A   1      33.036  20.615  24.895  1.00  0.00     0.000 A 
ATOM     26  C   UNL A   1      32.632  20.449  23.571  1.00  0.00     0.046 A 
ATOM     27  H   UNL A   1      32.435  21.890  22.051  1.00  0.00     0.167 HD
ATOM     28  C   UNL A   1      33.067  19.497  25.748  1.00  0.00     0.010 A 
ATOM     29  C   UNL A   1      32.210  19.216  23.065  1.00  0.00     0.026 A 
ATOM     30  C   UNL A   1      32.686  18.250  25.248  1.00  0.00     0.001 A 
ATOM     31  C   UNL A   1      32.252  18.117  23.929  1.00  0.00     0.002 A 
ENDBRANCH  14  22
ENDBRANCH   6   8
ENDBRANCH   5   6
ENDBRANCH   4   5
ENDBRANCH   3   4
ENDBRANCH   2   3
ENDBRANCH   1   2
BRANCH   1  32
ATOM     32  C   UNL A   1      34.954  33.143  29.923  1.00  0.00     0.261 C 
BRANCH  32  33
ATOM     33  O   UNL A   1      35.089  31.913  30.615  1.00  0.00    -0.460 OA
BRANCH  33  34
ATOM     34  C   UNL A   1      36.307  31.733  31.165  1.00  0.00     0.338 C 
ATOM     35  O   UNL A   1      36.629  31.928  32.331  1.00  0.00    -0.246 OA
BRANCH  34  36
ATOM     36  C   UNL A   1      37.248  31.352  30.110  1.00  0.00     0.060 A 
ATOM     37  C   UNL A   1      37.104  30.033  29.681  1.00  0.00     0.016 A 
ATOM     38  C   UNL A   1      38.449  32.065  29.988  1.00  0.00     0.016 A 
ATOM     39  C   UNL A   1      38.251  29.310  29.509  1.00  0.00     0.010 A 
ATOM     40  C   UNL A   1      39.598  31.339  29.829  1.00  0.00     0.010 A 
ATOM     41  C   UNL A   1      39.473  29.959  29.718  1.00  0.00    -0.014 A 
BRANCH  41  42
ATOM     42  C   UNL A   1      40.645  29.127  29.775  1.00  0.00     0.031 A 
ATOM     43  C   UNL A   1      41.019  28.808  31.165  1.00  0.00     0.074 A 
ATOM     44  C   UNL A   1      41.251  28.687  28.658  1.00  0.00     0.049 A 
ATOM     45  N   UNL A   1      42.048  29.230  31.818  1.00  0.00    -0.248 NA
ATOM     46  C   UNL A   1      40.003  28.139  31.992  1.00  0.00     0.031 C 
ATOM     47  C   UNL A   1      40.761  28.733  27.276  1.00  0.00     0.029 A 
ATOM     48  N   UNL A   1      42.383  27.951  28.558  1.00  0.00    -0.354 N 
ATOM     49  C   UNL A   1      41.914  28.679  33.087  1.00  0.00     0.074 A 
ATOM     50  C   UNL A   1      40.549  28.244  33.201  1.00  0.00     0.031 C 
ATOM     51  C   UNL A   1      41.439  27.817  26.546  1.00  0.00     0.029 A 
ATOM     52  C   UNL A   1      42.471  27.223  27.379  1.00  0.00     0.049 A 
ATOM     53  H   UNL A   1      43.079  27.934  29.254  1.00  0.00     0.167 HD
ATOM     54  C   UNL A   1      43.001  28.369  33.838  1.00  0.00     0.034 A 
ATOM     55  C   UNL A   1      43.242  26.122  27.191  1.00  0.00     0.034 A 
ATOM     56  C   UNL A   1      44.183  29.027  33.342  1.00  0.00     0.049 A 
ATOM     57  C   UNL A   1      44.279  26.123  28.256  1.00  0.00     0.074 A 
ATOM     58  C   UNL A   1      44.569  30.342  33.184  1.00  0.00     0.029 A 
ATOM     59  N   UNL A   1      45.018  28.281  32.543  1.00  0.00    -0.354 N 
ATOM     60  N   UNL A   1      45.216  27.026  28.347  1.00  0.00    -0.248 NA
ATOM     61  C   UNL A   1      43.990  25.398  29.484  1.00  0.00     0.031 C 
ATOM     62  C   UNL A   1      45.306  30.366  31.965  1.00  0.00     0.029 A 
ATOM     63  C   UNL A   1      45.379  29.060  31.474  1.00  0.00     0.049 A 
ATOM     64  H   UNL A   1      45.304  27.355  32.708  1.00  0.00     0.167 HD
ATOM     65  C   UNL A   1      45.306  27.298  29.706  1.00  0.00     0.074 A 
ATOM     66  C   UNL A   1      44.606  26.195  30.364  1.00  0.00     0.031 C 
ATOM     67  C   UNL A   1      45.668  28.536  30.157  1.00  0.00     0.034 A 
BRANCH  54  68
ATOM     68  C   UNL A   1      43.082  27.187  34.776  1.00  0.00     0.023 A 
ATOM     69  C   UNL A   1      42.075  26.207  34.650  1.00  0.00     0.012 A 
ATOM     70  C   UNL A   1      43.905  27.114  35.925  1.00  0.00     0.148 A 
ATOM     71  C   UNL A   1      41.857  25.248  35.644  1.00  0.00     0.002 A 
ATOM     72  C   UNL A   1      43.736  26.112  36.872  1.00  0.00     0.091 A 
ATOM     73  F   UNL A   1      44.778  28.087  36.200  1.00  0.00    -0.205 F 
ATOM     74  C   UNL A   1      42.691  25.196  36.754  1.00  0.00     0.022 A 
BRANCH  72  75
ATOM     75  S   UNL A   1      44.820  25.978  38.299  1.00  0.00     0.127 S 
ATOM     76  O   UNL A   1      44.553  24.613  38.743  1.00  0.00    -0.237 OA
ATOM     77  O   UNL A   1      46.137  26.188  37.695  1.00  0.00    -0.237 OA
ATOM     78  O   UNL A   1      44.408  27.040  39.208  1.00  0.00    -0.744 OA
ENDBRANCH  72  75
ENDBRANCH  54  68
BRANCH  55  79
ATOM     79  C   UNL A   1      42.910  24.899  26.419  1.00  0.00     0.023 A 
ATOM     80  C   UNL A   1      43.785  24.452  25.409  1.00  0.00     0.012 A 
ATOM     81  C   UNL A   1      41.888  24.022  26.847  1.00  0.00     0.148 A 
ATOM     82  C   UNL A   1      43.658  23.168  24.861  1.00  0.00     0.002 A 
ATOM     83  C   UNL A   1      41.755  22.755  26.290  1.00  0.00     0.091 A 
ATOM     84  F   UNL A   1      41.107  24.386  27.872  1.00  0.00    -0.205 F 
ATOM     85  C   UNL A   1      42.647  22.318  25.304  1.00  0.00     0.022 A 
BRANCH  83  86
ATOM     86  S   UNL A   1      40.480  21.609  26.833  1.00  0.00     0.127 S 
ATOM     87  O   UNL A   1      40.785  20.417  26.039  1.00  0.00    -0.237 OA
ATOM     88  O   UNL A   1      40.773  21.487  28.258  1.00  0.00    -0.237 OA
ATOM     89  O   UNL A   1      39.212  22.240  26.495  1.00  0.00    -0.744 OA
ENDBRANCH  83  86
ENDBRANCH  55  79
BRANCH  67  90
ATOM     90  C   UNL A   1      46.176  29.537  29.148  1.00  0.00     0.023 A 
ATOM     91  C   UNL A   1      47.510  29.532  28.686  1.00  0.00     0.012 A 
ATOM     92  C   UNL A   1      45.241  30.365  28.509  1.00  0.00     0.148 A 
ATOM     93  C   UNL A   1      47.903  30.349  27.621  1.00  0.00     0.002 A 
ATOM     94  C   UNL A   1      45.623  31.137  27.420  1.00  0.00     0.091 A 
ATOM     95  F   UNL A   1      43.976  30.354  28.958  1.00  0.00    -0.205 F 
ATOM     96  C   UNL A   1      46.955  31.140  26.977  1.00  0.00     0.022 A 
BRANCH  94  97
ATOM     97  S   UNL A   1      44.419  32.064  26.466  1.00  0.00     0.127 S 
ATOM     98  O   UNL A   1      45.225  32.552  25.350  1.00  0.00    -0.237 OA
ATOM     99  O   UNL A   1      43.439  31.036  26.111  1.00  0.00    -0.237 OA
ATOM    100  O   UNL A   1      43.902  33.090  27.364  1.00  0.00    -0.744 OA
ENDBRANCH  94  97
ENDBRANCH  67  90
ENDBRANCH  41  42
ENDBRANCH  34  36
ENDBRANCH  33  34
ENDBRANCH  32  33
ENDBRANCH   1  32
TORSDOF 19
ENDMDL
MODEL 2
REMARK VINA RESULT:     -12.2      2.507      9.192
REMARK SMILES Cc1cnn(C2(C(=O)OCCOCCOC(=O)c3ccc(-c4c5nc(c(-c6cccc(S(=O)(=O)[O-])c6F)c6ccc([nH]6)c(-c6cccc(S(=O)(=O)[O-])c6F)c6nc(c(-c7cccc(S(=O)(=O)[O-])c7F)c7ccc4[nH]7)C=C6)C=C5)cc3)CCN(C(=O)c3cc4ccccc4[nH]3)CC2)c1
REMARK SMILES IDX 13 1 12 2 11 3 10 4 9 5 7 6 8 7 6 8 81 9 96 10 82 11 95 12
REMARK SMILES IDX 83 13 84 14 85 15 5 16 1 17 2 18 3 19 97 20 4 21 86 22 87 23
REMARK SMILES IDX 94 24 88 25 93 26 89 28 92 29 90 30 91 31 14 32 15 33 16 34
REMARK SMILES IDX 17 35 18 36 19 37 80 38 20 39 79 40 21 41 22 42 23 43 73 44
REMARK SMILES IDX 24 45 78 46 72 47 74 48 25 49 77 50 71 51 70 52 26 54 58 55
REMARK SMILES IDX 38 56 57 57 39 58 42 59 56 60 75 61 40 62 41 63 55 65 76 66
REMARK SMILES IDX 43 67 27 68 28 69 36 70 29 71 31 72 37 73 30 74 32 75 33 76
REMARK SMILES IDX 34 77 35 78 59 79 60 80 68 81 61 82 63 83 69 84 62 85 64 86
REMARK SMILES IDX 65 87 66 88 67 89 44 90 45 91 53 92 46 93 48 94 54 95 47 96
REMARK SMILES IDX 49 97 50 98 51 99 52 100
REMARK H PARENT 94 27 74 53 42 64
REMARK Flexibility Score: inf
ROOT
ATOM      1  C   UNL A   1      40.195  19.960  26.041  1.00  0.00     0.202 C 
ENDROOT
BRANCH   1   2
ATOM      2  O   UNL A   1      39.213  19.203  25.335  1.00  0.00    -0.374 OA
BRANCH   2   3
ATOM      3  C   UNL A   1      37.964  19.795  24.976  1.00  0.00     0.202 C 
BRANCH   3   4
ATOM      4  C   UNL A   1      37.743  21.286  25.224  1.00  0.00     0.261 C 
BRANCH   4   5
ATOM      5  O   UNL A   1      36.395  21.587  25.611  1.00  0.00    -0.461 OA
BRANCH   5   6
ATOM      6  C   UNL A   1      35.576  21.988  24.596  1.00  0.00     0.334 C 
ATOM      7  O   UNL A   1      35.994  22.403  23.515  1.00  0.00    -0.249 OA
BRANCH   6   8
ATOM      8  C   UNL A   1      34.083  22.015  24.992  1.00  0.00     0.163 C 
ATOM      9  C   UNL A   1      33.818  22.494  26.441  1.00  0.00     0.064 C 
ATOM     10  C   UNL A   1      33.573  23.058  23.982  1.00  0.00     0.064 C 
ATOM     11  C   UNL A   1      32.397  23.019  26.658  1.00  0.00     0.123 C 
ATOM     12  C   UNL A   1      32.194  23.599  24.247  1.00  0.00     0.123 C 
ATOM     13  N   UNL A   1      32.004  23.986  25.635  1.00  0.00    -0.337 N 
ATOM     14  C   UNL A   1      31.429  25.205  26.024  1.00  0.00     0.270 C 
ATOM     15  O   UNL A   1      31.507  25.624  27.173  1.00  0.00    -0.267 OA
BRANCH   8  16
ATOM     16  N   UNL A   1      33.501  20.672  24.781  1.00  0.00    -0.255 N 
ATOM     17  C   UNL A   1      32.526  17.222  25.524  1.00  0.00     0.048 C 
ATOM     18  C   UNL A   1      32.822  18.572  24.999  1.00  0.00    -0.013 A 
ATOM     19  C   UNL A   1      32.471  19.119  23.754  1.00  0.00     0.138 A 
ATOM     20  C   UNL A   1      33.527  19.583  25.615  1.00  0.00     0.113 A 
ATOM     21  N   UNL A   1      32.930  20.359  23.596  1.00  0.00    -0.180 NA
ENDBRANCH   8  16
BRANCH  14  22
ATOM     22  C   UNL A   1      30.809  25.997  24.981  1.00  0.00     0.105 A 
ATOM     23  C   UNL A   1      31.344  26.927  24.105  1.00  0.00     0.042 A 
ATOM     24  N   UNL A   1      29.464  25.927  24.694  1.00  0.00    -0.351 N 
ATOM     25  C   UNL A   1      30.268  27.658  23.545  1.00  0.00     0.000 A 
ATOM     26  C   UNL A   1      29.095  27.001  23.913  1.00  0.00     0.046 A 
ATOM     27  H   UNL A   1      28.856  25.216  25.000  1.00  0.00     0.167 HD
ATOM     28  C   UNL A   1      30.184  28.839  22.786  1.00  0.00     0.010 A 
ATOM     29  C   UNL A   1      27.830  27.447  23.518  1.00  0.00     0.026 A 
ATOM     30  C   UNL A   1      28.926  29.321  22.416  1.00  0.00     0.001 A 
ATOM     31  C   UNL A   1      27.769  28.626  22.768  1.00  0.00     0.002 A 
ENDBRANCH  14  22
ENDBRANCH   6   8
ENDBRANCH   5   6
ENDBRANCH   4   5
ENDBRANCH   3   4
ENDBRANCH   2   3
ENDBRANCH   1   2
BRANCH   1  32
ATOM     32  C   UNL A   1      41.588  19.373  26.221  1.00  0.00     0.261 C 
BRANCH  32  33
ATOM     33  O   UNL A   1      42.565  20.400  26.235  1.00  0.00    -0.460 OA
BRANCH  33  34
ATOM     34  C   UNL A   1      43.452  20.318  25.223  1.00  0.00     0.338 C 
ATOM     35  O   UNL A   1      43.725  19.327  24.557  1.00  0.00    -0.246 OA
BRANCH  34  36
ATOM     36  C   UNL A   1      44.139  21.604  25.094  1.00  0.00     0.060 A 
ATOM     37  C   UNL A   1      45.238  21.739  25.942  1.00  0.00     0.016 A 
ATOM     38  C   UNL A   1      43.426  22.702  24.591  1.00  0.00     0.016 A 
ATOM     39  C   UNL A   1      45.368  22.931  26.599  1.00  0.00     0.010 A 
ATOM     40  C   UNL A   1      43.548  23.890  25.258  1.00  0.00     0.010 A 
ATOM     41  C   UNL A   1      44.432  23.934  26.331  1.00  0.00    -0.014 A 
BRANCH  41  42
ATOM     42  C   UNL A   1      44.438  25.076  27.206  1.00  0.00     0.031 A 
ATOM     43  C   UNL A   1      45.703  25.827  27.112  1.00  0.00     0.074 A 
ATOM     44  C   UNL A   1      43.369  25.392  27.958  1.00  0.00     0.049 A 
ATOM     45  N   UNL A   1      46.630  25.920  28.003  1.00  0.00    -0.248 NA
ATOM     46  C   UNL A   1      46.081  26.330  25.782  1.00  0.00     0.031 C 
ATOM     47  C   UNL A   1      42.005  24.858  27.876  1.00  0.00     0.029 A 
ATOM     48  N   UNL A   1      43.252  26.395  28.861  1.00  0.00    -0.354 N 
ATOM     49  C   UNL A   1      47.618  26.698  27.408  1.00  0.00     0.074 A 
ATOM     50  C   UNL A   1      47.340  26.701  25.998  1.00  0.00     0.031 C 
ATOM     51  C   UNL A   1      41.162  25.729  28.477  1.00  0.00     0.029 A 
ATOM     52  C   UNL A   1      41.941  26.801  29.075  1.00  0.00     0.049 A 
ATOM     53  H   UNL A   1      44.022  26.799  29.322  1.00  0.00     0.167 HD
ATOM     54  C   UNL A   1      48.419  27.504  28.149  1.00  0.00     0.034 A 
ATOM     55  C   UNL A   1      41.563  28.004  29.575  1.00  0.00     0.034 A 
ATOM     56  C   UNL A   1      48.376  27.145  29.544  1.00  0.00     0.049 A 
ATOM     57  C   UNL A   1      42.744  28.587  30.262  1.00  0.00     0.074 A 
ATOM     58  C   UNL A   1      48.709  26.018  30.267  1.00  0.00     0.029 A 
ATOM     59  N   UNL A   1      47.549  27.891  30.351  1.00  0.00    -0.354 N 
ATOM     60  N   UNL A   1      43.281  28.071  31.334  1.00  0.00    -0.248 NA
ATOM     61  C   UNL A   1      43.612  29.466  29.492  1.00  0.00     0.031 C 
ATOM     62  C   UNL A   1      47.713  25.924  31.282  1.00  0.00     0.029 A 
ATOM     63  C   UNL A   1      46.862  27.025  31.160  1.00  0.00     0.049 A 
ATOM     64  H   UNL A   1      47.467  28.871  30.347  1.00  0.00     0.167 HD
ATOM     65  C   UNL A   1      44.650  28.185  31.127  1.00  0.00     0.074 A 
ATOM     66  C   UNL A   1      44.793  29.142  30.030  1.00  0.00     0.031 C 
ATOM     67  C   UNL A   1      45.522  27.271  31.648  1.00  0.00     0.034 A 
BRANCH  54  68
ATOM     68  C   UNL A   1      48.940  28.846  27.689  1.00  0.00     0.023 A 
ATOM     69  C   UNL A   1      50.335  29.046  27.768  1.00  0.00     0.012 A 
ATOM     70  C   UNL A   1      48.143  29.989  27.446  1.00  0.00     0.148 A 
ATOM     71  C   UNL A   1      50.899  30.321  27.676  1.00  0.00     0.002 A 
ATOM     72  C   UNL A   1      48.714  31.244  27.276  1.00  0.00     0.091 A 
ATOM     73  F   UNL A   1      46.812  29.916  27.509  1.00  0.00    -0.205 F 
ATOM     74  C   UNL A   1      50.089  31.422  27.425  1.00  0.00     0.022 A 
BRANCH  72  75
ATOM     75  S   UNL A   1      47.711  32.688  26.904  1.00  0.00     0.127 S 
ATOM     76  O   UNL A   1      46.745  32.137  25.958  1.00  0.00    -0.237 OA
ATOM     77  O   UNL A   1      47.168  33.023  28.221  1.00  0.00    -0.237 OA
ATOM     78  O   UNL A   1      48.634  33.683  26.372  1.00  0.00    -0.744 OA
ENDBRANCH  72  75
ENDBRANCH  54  68
BRANCH  55  79
ATOM     79  C   UNL A   1      40.401  28.834  29.170  1.00  0.00     0.023 A 
ATOM     80  C   UNL A   1      40.069  28.950  27.806  1.00  0.00     0.012 A 
ATOM     81  C   UNL A   1      39.460  29.285  30.122  1.00  0.00     0.148 A 
ATOM     82  C   UNL A   1      38.833  29.479  27.407  1.00  0.00     0.002 A 
ATOM     83  C   UNL A   1      38.242  29.823  29.723  1.00  0.00     0.091 A 
ATOM     84  F   UNL A   1      39.711  29.094  31.424  1.00  0.00    -0.205 F 
ATOM     85  C   UNL A   1      37.918  29.910  28.365  1.00  0.00     0.022 A 
BRANCH  83  86
ATOM     86  S   UNL A   1      37.015  30.381  30.914  1.00  0.00     0.127 S 
ATOM     87  O   UNL A   1      37.754  31.405  31.654  1.00  0.00    -0.237 OA
ATOM     88  O   UNL A   1      35.962  30.894  30.043  1.00  0.00    -0.237 OA
ATOM     89  O   UNL A   1      36.672  29.207  31.706  1.00  0.00    -0.744 OA
ENDBRANCH  83  86
ENDBRANCH  55  79
BRANCH  67  90
ATOM     90  C   UNL A   1      44.985  26.261  32.633  1.00  0.00     0.023 A 
ATOM     91  C   UNL A   1      44.559  24.975  32.239  1.00  0.00     0.012 A 
ATOM     92  C   UNL A   1      45.101  26.547  34.002  1.00  0.00     0.148 A 
ATOM     93  C   UNL A   1      44.241  24.001  33.192  1.00  0.00     0.002 A 
ATOM     94  C   UNL A   1      44.833  25.563  34.945  1.00  0.00     0.091 A 
ATOM     95  F   UNL A   1      45.512  27.773  34.359  1.00  0.00    -0.205 F 
ATOM     96  C   UNL A   1      44.394  24.291  34.545  1.00  0.00     0.022 A 
BRANCH  94  97
ATOM     97  S   UNL A   1      45.148  25.833  36.690  1.00  0.00     0.127 S 
ATOM     98  O   UNL A   1      44.204  26.901  37.008  1.00  0.00    -0.237 OA
ATOM     99  O   UNL A   1      44.820  24.531  37.275  1.00  0.00    -0.237 OA
ATOM    100  O   UNL A   1      46.558  26.189  36.791  1.00  0.00    -0.744 OA
ENDBRANCH  94  97
ENDBRANCH  67  90
ENDBRANCH  41  42
ENDBRANCH  34  36
ENDBRANCH  33  34
ENDBRANCH  32  33
ENDBRANCH   1  32
TORSDOF 19
ENDMDL
MODEL 3
REMARK VINA RESULT:     -11.8      2.450      7.049
REMARK SMILES Cc1cnn(C2(C(=O)OCCOCCOC(=O)c3ccc(-c4c5nc(c(-c6cccc(S(=O)(=O)[O-])c6F)c6ccc([nH]6)c(-c6cccc(S(=O)(=O)[O-])c6F)c6nc(c(-c7cccc(S(=O)(=O)[O-])c7F)c7ccc4[nH]7)C=C6)C=C5)cc3)CCN(C(=O)c3cc4ccccc4[nH]3)CC2)c1
REMARK SMILES IDX 13 1 12 2 11 3 10 4 9 5 7 6 8 7 6 8 81 9 96 10 82 11 95 12
REMARK SMILES IDX 83 13 84 14 85 15 5 16 1 17 2 18 3 19 97 20 4 21 86 22 87 23
REMARK SMILES IDX 94 24 88 25 93 26 89 28 92 29 90 30 91 31 14 32 15 33 16 34
REMARK SMILES IDX 17 35 18 36 19 37 80 38 20 39 79 40 21 41 22 42 23 43 73 44
REMARK SMILES IDX 24 45 78 46 72 47 74 48 25 49 77 50 71 51 70 52 26 54 58 55
REMARK SMILES IDX 38 56 57 57 39 58 42 59 56 60 75 61 40 62 41 63 55 65 76 66
REMARK SMILES IDX 43 67 27 68 28 69 36 70 29 71 31 72 37 73 30 74 32 75 33 76
REMARK SMILES IDX 34 77 35 78 59 79 60 80 68 81 61 82 63 83 69 84 62 85 64 86
REMARK SMILES IDX 65 87 66 88 67 89 44 90 45 91 53 92 46 93 48 94 54 95 47 96
REMARK SMILES IDX 49 97 50 98 51 99 52 100
REMARK H PARENT 94 27 74 53 42 64
REMARK Flexibility Score: inf
ROOT
ATOM      1  C   UNL A   1      35.120  32.751  28.987  1.00  0.00     0.202 C 
ENDROOT
BRANCH   1   2
ATOM      2  O   UNL A   1      34.068  32.248  28.166  1.00  0.00    -0.374 OA
BRANCH   2   3
ATOM      3  C   UNL A   1      34.148  30.936  27.608  1.00  0.00     0.202 C 
BRANCH   3   4
ATOM      4  C   UNL A   1      32.860  30.195  27.252  1.00  0.00     0.261 C 
BRANCH   4   5
ATOM      5  O   UNL A   1      33.107  28.965  26.556  1.00  0.00    -0.461 OA
BRANCH   5   6
ATOM      6  C   UNL A   1      32.035  28.125  26.465  1.00  0.00     0.334 C 
ATOM      7  O   UNL A   1      31.296  27.869  27.415  1.00  0.00    -0.249 OA
BRANCH   6   8
ATOM      8  C   UNL A   1      31.934  27.412  25.098  1.00  0.00     0.163 C 
ATOM      9  C   UNL A   1      33.251  27.413  24.281  1.00  0.00     0.064 C 
ATOM     10  C   UNL A   1      31.605  25.988  25.581  1.00  0.00     0.064 C 
ATOM     11  C   UNL A   1      33.316  26.303  23.231  1.00  0.00     0.123 C 
ATOM     12  C   UNL A   1      31.728  24.906  24.543  1.00  0.00     0.123 C 
ATOM     13  N   UNL A   1      32.966  24.997  23.786  1.00  0.00    -0.337 N 
ATOM     14  C   UNL A   1      33.798  23.896  23.534  1.00  0.00     0.270 C 
ATOM     15  O   UNL A   1      34.946  24.029  23.125  1.00  0.00    -0.267 OA
BRANCH   8  16
ATOM     16  N   UNL A   1      30.842  28.024  24.312  1.00  0.00    -0.255 N 
ATOM     17  C   UNL A   1      28.914  30.621  22.596  1.00  0.00     0.048 C 
ATOM     18  C   UNL A   1      29.507  29.420  23.220  1.00  0.00    -0.013 A 
ATOM     19  C   UNL A   1      29.043  28.095  23.177  1.00  0.00     0.138 A 
ATOM     20  C   UNL A   1      30.641  29.344  24.001  1.00  0.00     0.113 A 
ATOM     21  N   UNL A   1      29.809  27.264  23.881  1.00  0.00    -0.180 NA
ENDBRANCH   8  16
BRANCH  14  22
ATOM     22  C   UNL A   1      33.270  22.588  23.865  1.00  0.00     0.105 A 
ATOM     23  C   UNL A   1      33.222  21.903  25.069  1.00  0.00     0.042 A 
ATOM     24  N   UNL A   1      32.687  21.763  22.930  1.00  0.00    -0.351 N 
ATOM     25  C   UNL A   1      32.936  20.547  24.780  1.00  0.00     0.000 A 
ATOM     26  C   UNL A   1      32.584  20.484  23.433  1.00  0.00     0.046 A 
ATOM     27  H   UNL A   1      32.388  22.044  22.035  1.00  0.00     0.167 HD
ATOM     28  C   UNL A   1      32.977  19.361  25.535  1.00  0.00     0.010 A 
ATOM     29  C   UNL A   1      32.224  19.286  22.807  1.00  0.00     0.026 A 
ATOM     30  C   UNL A   1      32.659  18.150  24.915  1.00  0.00     0.001 A 
ATOM     31  C   UNL A   1      32.276  18.118  23.575  1.00  0.00     0.002 A 
ENDBRANCH  14  22
ENDBRANCH   6   8
ENDBRANCH   5   6
ENDBRANCH   4   5
ENDBRANCH   3   4
ENDBRANCH   2   3
ENDBRANCH   1   2
BRANCH   1  32
ATOM     32  C   UNL A   1      35.540  31.955  30.215  1.00  0.00     0.261 C 
BRANCH  32  33
ATOM     33  O   UNL A   1      36.736  31.238  29.961  1.00  0.00    -0.460 OA
BRANCH  33  34
ATOM     34  C   UNL A   1      36.770  30.021  30.538  1.00  0.00     0.338 C 
ATOM     35  O   UNL A   1      36.229  29.681  31.583  1.00  0.00    -0.246 OA
BRANCH  34  36
ATOM     36  C   UNL A   1      37.661  29.156  29.761  1.00  0.00     0.060 A 
ATOM     37  C   UNL A   1      38.098  28.031  30.460  1.00  0.00     0.016 A 
ATOM     38  C   UNL A   1      38.374  29.712  28.689  1.00  0.00     0.016 A 
ATOM     39  C   UNL A   1      39.424  27.715  30.354  1.00  0.00     0.010 A 
ATOM     40  C   UNL A   1      39.704  29.404  28.592  1.00  0.00     0.010 A 
ATOM     41  C   UNL A   1      40.221  28.501  29.515  1.00  0.00    -0.014 A 
BRANCH  41  42
ATOM     42  C   UNL A   1      41.644  28.309  29.609  1.00  0.00     0.031 A 
ATOM     43  C   UNL A   1      42.105  27.220  28.729  1.00  0.00     0.074 A 
ATOM     44  C   UNL A   1      42.409  29.094  30.387  1.00  0.00     0.049 A 
ATOM     45  N   UNL A   1      42.554  26.063  29.080  1.00  0.00    -0.248 NA
ATOM     46  C   UNL A   1      41.805  27.350  27.295  1.00  0.00     0.031 C 
ATOM     47  C   UNL A   1      42.050  30.354  31.047  1.00  0.00     0.029 A 
ATOM     48  N   UNL A   1      43.741  28.998  30.616  1.00  0.00    -0.354 N 
ATOM     49  C   UNL A   1      42.806  25.402  27.883  1.00  0.00     0.074 A 
ATOM     50  C   UNL A   1      42.105  26.129  26.860  1.00  0.00     0.031 C 
ATOM     51  C   UNL A   1      43.185  31.028  31.343  1.00  0.00     0.029 A 
ATOM     52  C   UNL A   1      44.328  30.195  31.002  1.00  0.00     0.049 A 
ATOM     53  H   UNL A   1      44.245  28.158  30.517  1.00  0.00     0.167 HD
ATOM     54  C   UNL A   1      43.796  24.478  27.786  1.00  0.00     0.034 A 
ATOM     55  C   UNL A   1      45.647  30.495  30.894  1.00  0.00     0.034 A 
ATOM     56  C   UNL A   1      44.218  24.026  29.087  1.00  0.00     0.049 A 
ATOM     57  C   UNL A   1      46.380  29.211  30.745  1.00  0.00     0.074 A 
ATOM     58  C   UNL A   1      43.603  23.372  30.135  1.00  0.00     0.029 A 
ATOM     59  N   UNL A   1      45.353  24.604  29.605  1.00  0.00    -0.354 N 
ATOM     60  N   UNL A   1      46.443  28.307  31.684  1.00  0.00    -0.248 NA
ATOM     61  C   UNL A   1      46.640  28.730  29.397  1.00  0.00     0.031 C 
ATOM     62  C   UNL A   1      44.150  23.964  31.310  1.00  0.00     0.029 A 
ATOM     63  C   UNL A   1      45.107  24.904  30.919  1.00  0.00     0.049 A 
ATOM     64  H   UNL A   1      46.192  24.771  29.119  1.00  0.00     0.167 HD
ATOM     65  C   UNL A   1      46.295  27.098  31.013  1.00  0.00     0.074 A 
ATOM     66  C   UNL A   1      46.525  27.413  29.604  1.00  0.00     0.031 C 
ATOM     67  C   UNL A   1      45.703  26.025  31.615  1.00  0.00     0.034 A 
BRANCH  54  68
ATOM     68  C   UNL A   1      44.643  24.262  26.554  1.00  0.00     0.023 A 
ATOM     69  C   UNL A   1      44.724  22.941  26.063  1.00  0.00     0.012 A 
ATOM     70  C   UNL A   1      45.560  25.199  26.022  1.00  0.00     0.148 A 
ATOM     71  C   UNL A   1      45.704  22.560  25.143  1.00  0.00     0.002 A 
ATOM     72  C   UNL A   1      46.482  24.834  25.049  1.00  0.00     0.091 A 
ATOM     73  F   UNL A   1      45.656  26.426  26.539  1.00  0.00    -0.205 F 
ATOM     74  C   UNL A   1      46.582  23.507  24.631  1.00  0.00     0.022 A 
BRANCH  72  75
ATOM     75  S   UNL A   1      47.606  26.036  24.324  1.00  0.00     0.127 S 
ATOM     76  O   UNL A   1      46.697  27.134  24.010  1.00  0.00    -0.237 OA
ATOM     77  O   UNL A   1      48.527  26.289  25.433  1.00  0.00    -0.237 OA
ATOM     78  O   UNL A   1      48.219  25.365  23.185  1.00  0.00    -0.744 OA
ENDBRANCH  72  75
ENDBRANCH  54  68
BRANCH  55  79
ATOM     79  C   UNL A   1      46.257  31.795  30.522  1.00  0.00     0.023 A 
ATOM     80  C   UNL A   1      47.162  32.419  31.404  1.00  0.00     0.012 A 
ATOM     81  C   UNL A   1      46.169  32.291  29.201  1.00  0.00     0.148 A 
ATOM     82  C   UNL A   1      47.966  33.485  30.977  1.00  0.00     0.002 A 
ATOM     83  C   UNL A   1      46.958  33.358  28.786  1.00  0.00     0.091 A 
ATOM     84  F   UNL A   1      45.390  31.653  28.319  1.00  0.00    -0.205 F 
ATOM     85  C   UNL A   1      47.868  33.951  29.667  1.00  0.00     0.022 A 
BRANCH  83  86
ATOM     86  S   UNL A   1      46.886  33.992  27.104  1.00  0.00     0.127 S 
ATOM     87  O   UNL A   1      47.083  32.776  26.313  1.00  0.00    -0.237 OA
ATOM     88  O   UNL A   1      45.538  34.547  27.049  1.00  0.00    -0.237 OA
ATOM     89  O   UNL A   1      47.977  34.952  26.998  1.00  0.00    -0.744 OA
ENDBRANCH  83  86
ENDBRANCH  55  79
BRANCH  67  90
ATOM     90  C   UNL A   1      45.410  26.112  33.093  1.00  0.00     0.023 A 
ATOM     91  C   UNL A   1      46.400  25.884  34.073  1.00  0.00     0.012 A 
ATOM     92  C   UNL A   1      44.168  26.629  33.492  1.00  0.00     0.148 A 
ATOM     93  C   UNL A   1      46.148  26.151  35.423  1.00  0.00     0.002 A 
ATOM     94  C   UNL A   1      43.938  26.940  34.825  1.00  0.00     0.091 A 
ATOM     95  F   UNL A   1      43.241  26.845  32.546  1.00  0.00    -0.205 F 
ATOM     96  C   UNL A   1      44.921  26.695  35.797  1.00  0.00     0.022 A 
BRANCH  94  97
ATOM     97  S   UNL A   1      42.436  27.772  35.343  1.00  0.00     0.127 S 
ATOM     98  O   UNL A   1      41.415  26.770  35.048  1.00  0.00    -0.237 OA
ATOM     99  O   UNL A   1      42.676  28.000  36.769  1.00  0.00    -0.237 OA
ATOM    100  O   UNL A   1      42.363  28.995  34.552  1.00  0.00    -0.744 OA
ENDBRANCH  94  97
ENDBRANCH  67  90
ENDBRANCH  41  42
ENDBRANCH  34  36
ENDBRANCH  33  34
ENDBRANCH  32  33
ENDBRANCH   1  32
TORSDOF 19
ENDMDL
