MODEL 1
REMARK VINA RESULT:     -11.9      0.000      0.000
REMARK SMILES CC(C)[C@H](NC(=O)[C@H]1CC(=O)N(c2ccc(F)cc2)C1)C(=O)N1CCC[C@@H]1C(=O)OCCOCCOC(=O)c1ccc(-c2c3nc(c(-c4cccc(S(=O)(=O)[O-])c4F)c4ccc([nH]4)c(-c4cccc(S(=O)(=O)[O-])c4F)c4nc(c(-c5cccc(S(=O)(=O)[O-])c5F)c5ccc2[nH]5)C=C4)C=C3)cc1
REMARK SMILES IDX 32 1 31 2 30 3 28 4 29 5 27 6 23 7 24 8 25 9 26 10 21 11
REMARK SMILES IDX 22 12 4 13 2 14 1 15 3 16 5 17 6 18 7 20 8 21 9 22 20 23
REMARK SMILES IDX 10 24 12 25 11 26 13 27 14 28 19 29 15 30 18 31 16 32 17 33
REMARK SMILES IDX 33 34 34 35 35 36 36 37 37 38 38 39 39 40 40 41 101 42 41 43
REMARK SMILES IDX 100 44 42 45 43 46 44 47 94 48 45 49 99 50 93 51 95 52 46 53
REMARK SMILES IDX 98 54 92 55 91 56 47 58 79 59 59 60 78 61 60 62 63 63 77 64
REMARK SMILES IDX 96 65 61 66 62 67 76 69 97 70 64 71 48 72 49 73 57 74 50 75
REMARK SMILES IDX 52 76 58 77 51 78 53 79 54 80 55 81 56 82 80 83 81 84 89 85
REMARK SMILES IDX 82 86 84 87 90 88 83 89 85 90 86 91 87 92 88 93 65 94 66 95
REMARK SMILES IDX 74 96 67 97 69 98 75 99 68 100 70 101 71 102 72 103 73 104
REMARK H PARENT 5 19 95 57 63 68
REMARK Flexibility Score: inf
ROOT
ATOM      1  C   UNL A   1      36.421  23.399  24.489  1.00  0.00     0.202 C 
ENDROOT
BRANCH   1   2
ATOM      2  C   UNL A   1      35.090  23.924  23.938  1.00  0.00     0.261 C 
BRANCH   2   3
ATOM      3  O   UNL A   1      34.597  25.111  24.569  1.00  0.00    -0.462 OA
BRANCH   3   4
ATOM      4  C   UNL A   1      33.880  25.930  23.747  1.00  0.00     0.328 C 
ATOM      5  O   UNL A   1      33.285  25.549  22.744  1.00  0.00    -0.250 OA
BRANCH   4   6
ATOM      6  C   UNL A   1      33.914  27.397  24.202  1.00  0.00     0.195 C 
ATOM      7  N   UNL A   1      32.591  27.897  24.570  1.00  0.00    -0.327 N 
ATOM      8  C   UNL A   1      32.438  29.273  24.119  1.00  0.00     0.120 C 
ATOM      9  C   UNL A   1      33.282  29.355  22.869  1.00  0.00     0.024 C 
ATOM     10  C   UNL A   1      34.424  28.377  23.126  1.00  0.00     0.039 C 
BRANCH   7  11
ATOM     11  C   UNL A   1      31.799  27.182  25.457  1.00  0.00     0.246 C 
ATOM     12  O   UNL A   1      32.084  27.119  26.654  1.00  0.00    -0.272 OA
BRANCH  11  13
ATOM     13  C   UNL A   1      30.692  26.252  24.889  1.00  0.00     0.174 C 
BRANCH  13  14
ATOM     14  C   UNL A   1      29.593  27.062  24.151  1.00  0.00     0.015 C 
ATOM     15  C   UNL A   1      29.917  27.520  22.730  1.00  0.00     0.010 C 
ATOM     16  C   UNL A   1      28.229  26.364  24.180  1.00  0.00     0.010 C 
ENDBRANCH  13  14
BRANCH  13  17
ATOM     17  N   UNL A   1      30.240  25.381  25.969  1.00  0.00    -0.344 N 
ATOM     18  C   UNL A   1      30.486  24.109  26.344  1.00  0.00     0.226 C 
ATOM     19  H   UNL A   1      29.601  25.830  26.568  1.00  0.00     0.164 HD
ATOM     20  O   UNL A   1      29.880  23.745  27.356  1.00  0.00    -0.275 OA
BRANCH  18  21
ATOM     21  C   UNL A   1      31.451  23.217  25.596  1.00  0.00     0.107 C 
ATOM     22  C   UNL A   1      32.741  23.075  26.406  1.00  0.00     0.116 C 
ATOM     23  C   UNL A   1      30.942  21.789  25.445  1.00  0.00     0.139 C 
ATOM     24  C   UNL A   1      33.114  21.621  26.332  1.00  0.00     0.227 C 
ATOM     25  N   UNL A   1      32.048  20.945  25.758  1.00  0.00    -0.312 N 
ATOM     26  O   UNL A   1      34.195  21.224  26.741  1.00  0.00    -0.274 OA
BRANCH  25  27
ATOM     27  C   UNL A   1      32.249  19.735  25.060  1.00  0.00     0.044 A 
ATOM     28  C   UNL A   1      32.794  18.169  26.069  1.00  0.00     0.029 A 
ATOM     29  C   UNL A   1      32.106  19.784  23.117  1.00  0.00     0.029 A 
ATOM     30  C   UNL A   1      33.559  16.655  25.109  1.00  0.00     0.041 A 
ATOM     31  C   UNL A   1      32.967  18.327  22.147  1.00  0.00     0.041 A 
ATOM     32  C   UNL A   1      33.818  16.905  23.194  1.00  0.00     0.123 A 
ATOM     33  F   UNL A   1      34.583  16.002  22.549  1.00  0.00    -0.207 F 
ENDBRANCH  25  27
ENDBRANCH  18  21
ENDBRANCH  13  17
ENDBRANCH  11  13
ENDBRANCH   7  11
ENDBRANCH   4   6
ENDBRANCH   3   4
ENDBRANCH   2   3
ENDBRANCH   1   2
BRANCH   1  34
ATOM     34  O   UNL A   1      36.543  22.034  24.864  1.00  0.00    -0.374 OA
BRANCH  34  35
ATOM     35  C   UNL A   1      37.776  21.359  24.654  1.00  0.00     0.202 C 
BRANCH  35  36
ATOM     36  C   UNL A   1      38.823  21.289  25.776  1.00  0.00     0.261 C 
BRANCH  36  37
ATOM     37  O   UNL A   1      39.251  19.964  26.131  1.00  0.00    -0.460 OA
BRANCH  37  38
ATOM     38  C   UNL A   1      40.601  19.811  26.165  1.00  0.00     0.338 C 
ATOM     39  O   UNL A   1      41.235  18.810  25.871  1.00  0.00    -0.246 OA
BRANCH  38  40
ATOM     40  C   UNL A   1      41.271  21.083  26.483  1.00  0.00     0.060 A 
ATOM     41  C   UNL A   1      41.112  21.612  27.769  1.00  0.00     0.016 A 
ATOM     42  C   UNL A   1      41.890  21.828  25.479  1.00  0.00     0.016 A 
ATOM     43  C   UNL A   1      41.537  22.910  28.047  1.00  0.00     0.010 A 
ATOM     44  C   UNL A   1      42.312  23.131  25.761  1.00  0.00     0.010 A 
ATOM     45  C   UNL A   1      42.108  23.693  27.035  1.00  0.00    -0.014 A 
BRANCH  45  46
ATOM     46  C   UNL A   1      42.423  25.122  27.280  1.00  0.00     0.031 A 
ATOM     47  C   UNL A   1      43.748  25.696  26.858  1.00  0.00     0.074 A 
ATOM     48  C   UNL A   1      41.536  25.924  27.893  1.00  0.00     0.049 A 
ATOM     49  N   UNL A   1      44.221  26.902  27.054  1.00  0.00    -0.248 NA
ATOM     50  C   UNL A   1      44.653  24.805  26.119  1.00  0.00     0.031 C 
ATOM     51  C   UNL A   1      40.194  25.540  28.323  1.00  0.00     0.029 A 
ATOM     52  N   UNL A   1      41.656  27.236  28.279  1.00  0.00    -0.354 N 
ATOM     53  C   UNL A   1      45.488  26.910  26.489  1.00  0.00     0.074 A 
ATOM     54  C   UNL A   1      45.714  25.583  25.951  1.00  0.00     0.031 C 
ATOM     55  C   UNL A   1      39.617  26.591  28.928  1.00  0.00     0.029 A 
ATOM     56  C   UNL A   1      40.567  27.703  28.968  1.00  0.00     0.049 A 
ATOM     57  H   UNL A   1      42.447  27.787  28.080  1.00  0.00     0.167 HD
ATOM     58  C   UNL A   1      46.381  27.926  26.410  1.00  0.00     0.034 A 
ATOM     59  C   UNL A   1      40.365  28.883  29.583  1.00  0.00     0.034 A 
ATOM     60  C   UNL A   1      46.175  29.257  26.921  1.00  0.00     0.049 A 
ATOM     61  C   UNL A   1      41.406  29.959  29.566  1.00  0.00     0.074 A 
ATOM     62  C   UNL A   1      47.021  30.349  26.824  1.00  0.00     0.029 A 
ATOM     63  N   UNL A   1      45.072  29.677  27.639  1.00  0.00    -0.354 N 
ATOM     64  N   UNL A   1      42.563  29.978  28.962  1.00  0.00    -0.248 NA
ATOM     65  C   UNL A   1      41.085  31.196  30.298  1.00  0.00     0.031 C 
ATOM     66  C   UNL A   1      46.454  31.415  27.527  1.00  0.00     0.029 A 
ATOM     67  C   UNL A   1      45.228  31.003  28.013  1.00  0.00     0.049 A 
ATOM     68  H   UNL A   1      44.290  29.118  27.853  1.00  0.00     0.167 HD
ATOM     69  C   UNL A   1      43.086  31.245  29.194  1.00  0.00     0.074 A 
ATOM     70  C   UNL A   1      42.118  31.967  29.990  1.00  0.00     0.031 C 
ATOM     71  C   UNL A   1      44.266  31.755  28.774  1.00  0.00     0.034 A 
BRANCH  58  72
ATOM     72  C   UNL A   1      47.692  27.655  25.725  1.00  0.00     0.023 A 
ATOM     73  C   UNL A   1      48.752  27.074  26.448  1.00  0.00     0.012 A 
ATOM     74  C   UNL A   1      47.822  27.863  24.340  1.00  0.00     0.148 A 
ATOM     75  C   UNL A   1      49.933  26.719  25.799  1.00  0.00     0.002 A 
ATOM     76  C   UNL A   1      48.981  27.458  23.692  1.00  0.00     0.091 A 
ATOM     77  F   UNL A   1      46.804  28.435  23.682  1.00  0.00    -0.205 F 
ATOM     78  C   UNL A   1      50.041  26.896  24.422  1.00  0.00     0.022 A 
BRANCH  76  79
ATOM     79  S   UNL A   1      49.173  27.549  21.910  1.00  0.00     0.127 S 
ATOM     80  O   UNL A   1      49.824  28.848  21.751  1.00  0.00    -0.237 OA
ATOM     81  O   UNL A   1      50.031  26.397  21.637  1.00  0.00    -0.237 OA
ATOM     82  O   UNL A   1      47.830  27.458  21.353  1.00  0.00    -0.744 OA
ENDBRANCH  76  79
ENDBRANCH  58  72
BRANCH  59  83
ATOM     83  C   UNL A   1      39.047  29.167  30.189  1.00  0.00     0.023 A 
ATOM     84  C   UNL A   1      38.829  28.691  31.493  1.00  0.00     0.012 A 
ATOM     85  C   UNL A   1      38.054  29.912  29.520  1.00  0.00     0.148 A 
ATOM     86  C   UNL A   1      37.631  28.945  32.128  1.00  0.00     0.002 A 
ATOM     87  C   UNL A   1      36.875  30.271  30.186  1.00  0.00     0.091 A 
ATOM     88  F   UNL A   1      38.285  30.290  28.255  1.00  0.00    -0.205 F 
ATOM     89  C   UNL A   1      36.691  29.768  31.506  1.00  0.00     0.022 A 
BRANCH  87  90
ATOM     90  S   UNL A   1      35.994  31.907  29.305  1.00  0.00     0.127 S 
ATOM     91  O   UNL A   1      36.483  33.643  29.478  1.00  0.00    -0.237 OA
ATOM     92  O   UNL A   1      36.881  33.305  28.543  1.00  0.00    -0.237 OA
ATOM     93  O   UNL A   1      34.740  31.279  28.831  1.00  0.00    -0.744 OA
ENDBRANCH  87  90
ENDBRANCH  59  83
BRANCH  71  94
ATOM     94  C   UNL A   1      44.577  33.190  29.108  1.00  0.00     0.023 A 
ATOM     95  C   UNL A   1      45.189  33.522  30.333  1.00  0.00     0.012 A 
ATOM     96  C   UNL A   1      44.307  34.208  28.173  1.00  0.00     0.148 A 
ATOM     97  C   UNL A   1      45.498  34.849  30.634  1.00  0.00     0.002 A 
ATOM     98  C   UNL A   1      44.672  35.519  28.454  1.00  0.00     0.091 A 
ATOM     99  F   UNL A   1      43.698  33.877  27.026  1.00  0.00    -0.205 F 
ATOM    100  C   UNL A   1      45.253  35.844  29.691  1.00  0.00     0.022 A 
BRANCH  98 101
ATOM    101  S   UNL A   1      44.487  36.850  27.263  1.00  0.00     0.127 S 
ATOM    102  O   UNL A   1      45.602  36.592  26.353  1.00  0.00    -0.237 OA
ATOM    103  O   UNL A   1      43.164  36.577  26.704  1.00  0.00    -0.237 OA
ATOM    104  O   UNL A   1      44.583  38.090  28.024  1.00  0.00    -0.744 OA
ENDBRANCH  98 101
ENDBRANCH  71  94
ENDBRANCH  45  46
ENDBRANCH  38  40
ENDBRANCH  37  38
ENDBRANCH  36  37
ENDBRANCH  35  36
ENDBRANCH  34  35
ENDBRANCH   1  34
TORSDOF 23
ENDMDL
MODEL 2
REMARK VINA RESULT:     -10.3      5.192     10.801
REMARK SMILES CC(C)[C@H](NC(=O)[C@H]1CC(=O)N(c2ccc(F)cc2)C1)C(=O)N1CCC[C@@H]1C(=O)OCCOCCOC(=O)c1ccc(-c2c3nc(c(-c4cccc(S(=O)(=O)[O-])c4F)c4ccc([nH]4)c(-c4cccc(S(=O)(=O)[O-])c4F)c4nc(c(-c5cccc(S(=O)(=O)[O-])c5F)c5ccc2[nH]5)C=C4)C=C3)cc1
REMARK SMILES IDX 32 1 31 2 30 3 28 4 29 5 27 6 23 7 24 8 25 9 26 10 21 11
REMARK SMILES IDX 22 12 4 13 2 14 1 15 3 16 5 17 6 18 7 20 8 21 9 22 20 23
REMARK SMILES IDX 10 24 12 25 11 26 13 27 14 28 19 29 15 30 18 31 16 32 17 33
REMARK SMILES IDX 33 34 34 35 35 36 36 37 37 38 38 39 39 40 40 41 101 42 41 43
REMARK SMILES IDX 100 44 42 45 43 46 44 47 94 48 45 49 99 50 93 51 95 52 46 53
REMARK SMILES IDX 98 54 92 55 91 56 47 58 79 59 59 60 78 61 60 62 63 63 77 64
REMARK SMILES IDX 96 65 61 66 62 67 76 69 97 70 64 71 48 72 49 73 57 74 50 75
REMARK SMILES IDX 52 76 58 77 51 78 53 79 54 80 55 81 56 82 80 83 81 84 89 85
REMARK SMILES IDX 82 86 84 87 90 88 83 89 85 90 86 91 87 92 88 93 65 94 66 95
REMARK SMILES IDX 74 96 67 97 69 98 75 99 68 100 70 101 71 102 72 103 73 104
REMARK H PARENT 5 19 95 57 63 68
REMARK Flexibility Score: inf
ROOT
ATOM      1  C   UNL A   1      36.173  32.740  33.751  1.00  0.00     0.202 C 
ENDROOT
BRANCH   1   2
ATOM      2  C   UNL A   1      36.905  31.464  33.318  1.00  0.00     0.261 C 
BRANCH   2   3
ATOM      3  O   UNL A   1      36.442  30.883  32.094  1.00  0.00    -0.462 OA
BRANCH   3   4
ATOM      4  C   UNL A   1      36.894  29.616  31.867  1.00  0.00     0.328 C 
ATOM      5  O   UNL A   1      37.009  28.758  32.736  1.00  0.00    -0.250 OA
BRANCH   4   6
ATOM      6  C   UNL A   1      37.267  29.381  30.395  1.00  0.00     0.195 C 
ATOM      7  N   UNL A   1      38.378  30.226  29.960  1.00  0.00    -0.327 N 
ATOM      8  C   UNL A   1      38.146  30.689  28.599  1.00  0.00     0.120 C 
ATOM      9  C   UNL A   1      36.643  30.790  28.487  1.00  0.00     0.024 C 
ATOM     10  C   UNL A   1      36.126  29.684  29.402  1.00  0.00     0.039 C 
BRANCH   7  11
ATOM     11  C   UNL A   1      39.547  30.275  30.705  1.00  0.00     0.246 C 
ATOM     12  O   UNL A   1      39.851  31.285  31.344  1.00  0.00    -0.272 OA
BRANCH  11  13
ATOM     13  C   UNL A   1      40.596  29.143  30.528  1.00  0.00     0.174 C 
BRANCH  13  14
ATOM     14  C   UNL A   1      41.221  28.731  31.887  1.00  0.00     0.015 C 
ATOM     15  C   UNL A   1      40.261  28.196  32.948  1.00  0.00     0.010 C 
ATOM     16  C   UNL A   1      42.408  27.776  31.722  1.00  0.00     0.010 C 
ENDBRANCH  13  14
BRANCH  13  17
ATOM     17  N   UNL A   1      41.528  29.555  29.484  1.00  0.00    -0.344 N 
ATOM     18  C   UNL A   1      41.817  29.137  28.235  1.00  0.00     0.226 C 
ATOM     19  H   UNL A   1      42.081  30.322  29.757  1.00  0.00     0.164 HD
ATOM     20  O   UNL A   1      42.702  29.783  27.668  1.00  0.00    -0.275 OA
BRANCH  18  21
ATOM     21  C   UNL A   1      41.089  27.985  27.578  1.00  0.00     0.107 C 
ATOM     22  C   UNL A   1      41.589  27.823  26.142  1.00  0.00     0.116 C 
ATOM     23  C   UNL A   1      41.389  26.644  28.235  1.00  0.00     0.139 C 
ATOM     24  C   UNL A   1      41.764  26.345  25.932  1.00  0.00     0.227 C 
ATOM     25  N   UNL A   1      41.621  25.728  27.166  1.00  0.00    -0.312 N 
ATOM     26  O   UNL A   1      41.991  25.886  24.823  1.00  0.00    -0.274 OA
BRANCH  25  27
ATOM     27  C   UNL A   1      41.190  24.388  27.261  1.00  0.00     0.044 A 
ATOM     28  C   UNL A   1      42.477  23.043  27.813  1.00  0.00     0.029 A 
ATOM     29  C   UNL A   1      39.373  23.986  26.683  1.00  0.00     0.029 A 
ATOM     30  C   UNL A   1      42.075  21.167  27.470  1.00  0.00     0.041 A 
ATOM     31  C   UNL A   1      38.998  22.125  26.233  1.00  0.00     0.041 A 
ATOM     32  C   UNL A   1      40.434  20.814  26.481  1.00  0.00     0.123 A 
ATOM     33  F   UNL A   1      40.261  19.570  25.993  1.00  0.00    -0.207 F 
ENDBRANCH  25  27
ENDBRANCH  18  21
ENDBRANCH  13  17
ENDBRANCH  11  13
ENDBRANCH   7  11
ENDBRANCH   4   6
ENDBRANCH   3   4
ENDBRANCH   2   3
ENDBRANCH   1   2
BRANCH   1  34
ATOM     34  O   UNL A   1      36.435  33.310  35.025  1.00  0.00    -0.374 OA
BRANCH  34  35
ATOM     35  C   UNL A   1      37.565  32.873  35.768  1.00  0.00     0.202 C 
BRANCH  35  36
ATOM     36  C   UNL A   1      38.235  33.809  36.784  1.00  0.00     0.261 C 
BRANCH  36  37
ATOM     37  O   UNL A   1      39.587  33.467  37.132  1.00  0.00    -0.460 OA
BRANCH  37  38
ATOM     38  C   UNL A   1      40.527  34.135  36.413  1.00  0.00     0.338 C 
ATOM     39  O   UNL A   1      40.730  35.339  36.407  1.00  0.00    -0.246 OA
BRANCH  38  40
ATOM     40  C   UNL A   1      41.416  33.200  35.703  1.00  0.00     0.060 A 
ATOM     41  C   UNL A   1      42.772  33.531  35.590  1.00  0.00     0.016 A 
ATOM     42  C   UNL A   1      40.889  32.112  35.007  1.00  0.00     0.016 A 
ATOM     43  C   UNL A   1      43.601  32.797  34.744  1.00  0.00     0.010 A 
ATOM     44  C   UNL A   1      41.724  31.380  34.157  1.00  0.00     0.010 A 
ATOM     45  C   UNL A   1      43.075  31.737  33.992  1.00  0.00    -0.014 A 
BRANCH  45  46
ATOM     46  C   UNL A   1      43.912  31.049  32.979  1.00  0.00     0.031 A 
ATOM     47  C   UNL A   1      44.643  29.781  33.324  1.00  0.00     0.074 A 
ATOM     48  C   UNL A   1      44.041  31.553  31.740  1.00  0.00     0.049 A 
ATOM     49  N   UNL A   1      45.474  29.084  32.589  1.00  0.00    -0.248 NA
ATOM     50  C   UNL A   1      44.408  29.222  34.664  1.00  0.00     0.031 C 
ATOM     51  C   UNL A   1      43.367  32.744  31.229  1.00  0.00     0.029 A 
ATOM     52  N   UNL A   1      44.814  31.122  30.691  1.00  0.00    -0.354 N 
ATOM     53  C   UNL A   1      45.883  28.021  33.381  1.00  0.00     0.074 A 
ATOM     54  C   UNL A   1      45.217  28.171  34.659  1.00  0.00     0.031 C 
ATOM     55  C   UNL A   1      43.767  32.958  29.966  1.00  0.00     0.029 A 
ATOM     56  C   UNL A   1      44.760  31.948  29.598  1.00  0.00     0.049 A 
ATOM     57  H   UNL A   1      45.356  30.301  30.721  1.00  0.00     0.167 HD
ATOM     58  C   UNL A   1      46.724  27.004  33.075  1.00  0.00     0.034 A 
ATOM     59  C   UNL A   1      45.447  31.911  28.441  1.00  0.00     0.034 A 
ATOM     60  C   UNL A   1      47.385  26.823  31.808  1.00  0.00     0.049 A 
ATOM     61  C   UNL A   1      46.446  30.831  28.163  1.00  0.00     0.074 A 
ATOM     62  C   UNL A   1      48.210  25.780  31.417  1.00  0.00     0.029 A 
ATOM     63  N   UNL A   1      47.326  27.699  30.742  1.00  0.00    -0.354 N 
ATOM     64  N   UNL A   1      46.761  29.792  28.889  1.00  0.00    -0.248 NA
ATOM     65  C   UNL A   1      47.158  30.909  26.877  1.00  0.00     0.031 C 
ATOM     66  C   UNL A   1      48.690  26.051  30.133  1.00  0.00     0.029 A 
ATOM     67  C   UNL A   1      48.119  27.234  29.704  1.00  0.00     0.049 A 
ATOM     68  H   UNL A   1      46.798  28.530  30.721  1.00  0.00     0.167 HD
ATOM     69  C   UNL A   1      47.668  29.065  28.127  1.00  0.00     0.074 A 
ATOM     70  C   UNL A   1      47.848  29.778  26.881  1.00  0.00     0.031 C 
ATOM     71  C   UNL A   1      48.288  27.904  28.443  1.00  0.00     0.034 A 
BRANCH  58  72
ATOM     72  C   UNL A   1      46.987  25.970  34.135  1.00  0.00     0.023 A 
ATOM     73  C   UNL A   1      47.971  26.205  35.113  1.00  0.00     0.012 A 
ATOM     74  C   UNL A   1      46.170  24.828  34.225  1.00  0.00     0.148 A 
ATOM     75  C   UNL A   1      48.150  25.304  36.162  1.00  0.00     0.002 A 
ATOM     76  C   UNL A   1      46.318  23.964  35.302  1.00  0.00     0.091 A 
ATOM     77  F   UNL A   1      45.255  24.620  33.268  1.00  0.00    -0.205 F 
ATOM     78  C   UNL A   1      47.314  24.195  36.264  1.00  0.00     0.022 A 
BRANCH  76  79
ATOM     79  S   UNL A   1      45.224  22.568  35.576  1.00  0.00     0.127 S 
ATOM     80  O   UNL A   1      45.585  21.690  34.463  1.00  0.00    -0.237 OA
ATOM     81  O   UNL A   1      45.656  22.096  36.891  1.00  0.00    -0.237 OA
ATOM     82  O   UNL A   1      43.869  23.100  35.531  1.00  0.00    -0.744 OA
ENDBRANCH  76  79
ENDBRANCH  58  72
BRANCH  59  83
ATOM     83  C   UNL A   1      45.129  32.887  27.378  1.00  0.00     0.023 A 
ATOM     84  C   UNL A   1      44.281  32.451  26.346  1.00  0.00     0.012 A 
ATOM     85  C   UNL A   1      45.613  34.211  27.400  1.00  0.00     0.148 A 
ATOM     86  C   UNL A   1      43.921  33.320  25.338  1.00  0.00     0.002 A 
ATOM     87  C   UNL A   1      45.174  35.137  26.446  1.00  0.00     0.091 A 
ATOM     88  F   UNL A   1      46.469  34.561  28.372  1.00  0.00    -0.205 F 
ATOM     89  C   UNL A   1      44.316  34.656  25.415  1.00  0.00     0.022 A 
BRANCH  87  90
ATOM     90  S   UNL A   1      45.409  37.066  27.119  1.00  0.00     0.127 S 
ATOM     91  O   UNL A   1      44.124  38.165  27.771  1.00  0.00    -0.237 OA
ATOM     92  O   UNL A   1      44.643  37.765  28.618  1.00  0.00    -0.237 OA
ATOM     93  O   UNL A   1      46.768  37.338  26.600  1.00  0.00    -0.744 OA
ENDBRANCH  87  90
ENDBRANCH  59  83
BRANCH  71  94
ATOM     94  C   UNL A   1      49.187  27.278  27.409  1.00  0.00     0.023 A 
ATOM     95  C   UNL A   1      48.651  26.451  26.402  1.00  0.00     0.012 A 
ATOM     96  C   UNL A   1      50.567  27.560  27.408  1.00  0.00     0.148 A 
ATOM     97  C   UNL A   1      49.480  25.889  25.431  1.00  0.00     0.002 A 
ATOM     98  C   UNL A   1      51.377  27.046  26.403  1.00  0.00     0.091 A 
ATOM     99  F   UNL A   1      51.063  28.325  28.390  1.00  0.00    -0.205 F 
ATOM    100  C   UNL A   1      50.838  26.197  25.423  1.00  0.00     0.022 A 
BRANCH  98 101
ATOM    101  S   UNL A   1      53.116  27.467  26.253  1.00  0.00     0.127 S 
ATOM    102  O   UNL A   1      53.587  26.456  25.308  1.00  0.00    -0.237 OA
ATOM    103  O   UNL A   1      53.055  28.826  25.715  1.00  0.00    -0.237 OA
ATOM    104  O   UNL A   1      53.674  27.368  27.595  1.00  0.00    -0.744 OA
ENDBRANCH  98 101
ENDBRANCH  71  94
ENDBRANCH  45  46
ENDBRANCH  38  40
ENDBRANCH  37  38
ENDBRANCH  36  37
ENDBRANCH  35  36
ENDBRANCH  34  35
ENDBRANCH   1  34
TORSDOF 23
ENDMDL
MODEL 3
REMARK VINA RESULT:      -9.6      6.999     14.634
REMARK SMILES CC(C)[C@H](NC(=O)[C@H]1CC(=O)N(c2ccc(F)cc2)C1)C(=O)N1CCC[C@@H]1C(=O)OCCOCCOC(=O)c1ccc(-c2c3nc(c(-c4cccc(S(=O)(=O)[O-])c4F)c4ccc([nH]4)c(-c4cccc(S(=O)(=O)[O-])c4F)c4nc(c(-c5cccc(S(=O)(=O)[O-])c5F)c5ccc2[nH]5)C=C4)C=C3)cc1
REMARK SMILES IDX 32 1 31 2 30 3 28 4 29 5 27 6 23 7 24 8 25 9 26 10 21 11
REMARK SMILES IDX 22 12 4 13 2 14 1 15 3 16 5 17 6 18 7 20 8 21 9 22 20 23
REMARK SMILES IDX 10 24 12 25 11 26 13 27 14 28 19 29 15 30 18 31 16 32 17 33
REMARK SMILES IDX 33 34 34 35 35 36 36 37 37 38 38 39 39 40 40 41 101 42 41 43
REMARK SMILES IDX 100 44 42 45 43 46 44 47 94 48 45 49 99 50 93 51 95 52 46 53
REMARK SMILES IDX 98 54 92 55 91 56 47 58 79 59 59 60 78 61 60 62 63 63 77 64
REMARK SMILES IDX 96 65 61 66 62 67 76 69 97 70 64 71 48 72 49 73 57 74 50 75
REMARK SMILES IDX 52 76 58 77 51 78 53 79 54 80 55 81 56 82 80 83 81 84 89 85
REMARK SMILES IDX 82 86 84 87 90 88 83 89 85 90 86 91 87 92 88 93 65 94 66 95
REMARK SMILES IDX 74 96 67 97 69 98 75 99 68 100 70 101 71 102 72 103 73 104
REMARK H PARENT 5 19 95 57 63 68
REMARK Flexibility Score: inf
ROOT
ATOM      1  C   UNL A   1      49.189  37.358  31.019  1.00  0.00     0.202 C 
ENDROOT
BRANCH   1   2
ATOM      2  C   UNL A   1      48.031  38.317  30.715  1.00  0.00     0.261 C 
BRANCH   2   3
ATOM      3  O   UNL A   1      47.224  37.956  29.588  1.00  0.00    -0.462 OA
BRANCH   3   4
ATOM      4  C   UNL A   1      46.394  38.947  29.150  1.00  0.00     0.328 C 
ATOM      5  O   UNL A   1      45.518  39.465  29.835  1.00  0.00    -0.250 OA
BRANCH   4   6
ATOM      6  C   UNL A   1      46.663  39.335  27.688  1.00  0.00     0.195 C 
ATOM      7  N   UNL A   1      46.028  38.419  26.742  1.00  0.00    -0.327 N 
ATOM      8  C   UNL A   1      46.910  38.188  25.607  1.00  0.00     0.120 C 
ATOM      9  C   UNL A   1      48.302  38.306  26.182  1.00  0.00     0.024 C 
ATOM     10  C   UNL A   1      48.157  39.332  27.302  1.00  0.00     0.039 C 
BRANCH   7  11
ATOM     11  C   UNL A   1      44.683  38.108  26.873  1.00  0.00     0.246 C 
ATOM     12  O   UNL A   1      43.823  38.992  26.862  1.00  0.00    -0.272 OA
BRANCH  11  13
ATOM     13  C   UNL A   1      44.284  36.664  27.284  1.00  0.00     0.174 C 
BRANCH  13  14
ATOM     14  C   UNL A   1      43.005  36.195  26.541  1.00  0.00     0.015 C 
ATOM     15  C   UNL A   1      43.120  34.909  25.725  1.00  0.00     0.010 C 
ATOM     16  C   UNL A   1      41.782  36.125  27.462  1.00  0.00     0.010 C 
ENDBRANCH  13  14
BRANCH  13  17
ATOM     17  N   UNL A   1      44.244  36.608  28.742  1.00  0.00    -0.344 N 
ATOM     18  C   UNL A   1      44.475  35.661  29.673  1.00  0.00     0.226 C 
ATOM     19  H   UNL A   1      43.985  37.469  29.142  1.00  0.00     0.164 HD
ATOM     20  O   UNL A   1      44.328  36.039  30.838  1.00  0.00    -0.275 OA
BRANCH  18  21
ATOM     21  C   UNL A   1      44.908  34.258  29.310  1.00  0.00     0.107 C 
ATOM     22  C   UNL A   1      45.501  33.575  30.544  1.00  0.00     0.116 C 
ATOM     23  C   UNL A   1      43.742  33.363  28.910  1.00  0.00     0.139 C 
ATOM     24  C   UNL A   1      44.941  32.180  30.551  1.00  0.00     0.227 C 
ATOM     25  N   UNL A   1      43.950  32.123  29.582  1.00  0.00    -0.312 N 
ATOM     26  O   UNL A   1      45.364  31.333  31.323  1.00  0.00    -0.274 OA
BRANCH  25  27
ATOM     27  C   UNL A   1      43.617  30.903  28.957  1.00  0.00     0.044 A 
ATOM     28  C   UNL A   1      44.931  30.076  27.791  1.00  0.00     0.029 A 
ATOM     29  C   UNL A   1      41.805  30.232  29.205  1.00  0.00     0.029 A 
ATOM     30  C   UNL A   1      44.341  28.700  26.543  1.00  0.00     0.041 A 
ATOM     31  C   UNL A   1      41.172  28.936  27.891  1.00  0.00     0.041 A 
ATOM     32  C   UNL A   1      42.424  28.356  26.499  1.00  0.00     0.123 A 
ATOM     33  F   UNL A   1      41.951  27.620  25.473  1.00  0.00    -0.207 F 
ENDBRANCH  25  27
ENDBRANCH  18  21
ENDBRANCH  13  17
ENDBRANCH  11  13
ENDBRANCH   7  11
ENDBRANCH   4   6
ENDBRANCH   3   4
ENDBRANCH   2   3
ENDBRANCH   1   2
BRANCH   1  34
ATOM     34  O   UNL A   1      50.153  37.703  32.003  1.00  0.00    -0.374 OA
BRANCH  34  35
ATOM     35  C   UNL A   1      50.416  36.802  33.071  1.00  0.00     0.202 C 
BRANCH  35  36
ATOM     36  C   UNL A   1      49.997  35.329  32.963  1.00  0.00     0.261 C 
BRANCH  36  37
ATOM     37  O   UNL A   1      50.781  34.535  32.057  1.00  0.00    -0.460 OA
BRANCH  37  38
ATOM     38  C   UNL A   1      51.077  33.294  32.526  1.00  0.00     0.338 C 
ATOM     39  O   UNL A   1      51.632  33.019  33.577  1.00  0.00    -0.246 OA
BRANCH  38  40
ATOM     40  C   UNL A   1      50.512  32.249  31.655  1.00  0.00     0.060 A 
ATOM     41  C   UNL A   1      49.346  32.543  30.938  1.00  0.00     0.016 A 
ATOM     42  C   UNL A   1      51.018  30.950  31.687  1.00  0.00     0.016 A 
ATOM     43  C   UNL A   1      48.655  31.526  30.282  1.00  0.00     0.010 A 
ATOM     44  C   UNL A   1      50.321  29.932  31.029  1.00  0.00     0.010 A 
ATOM     45  C   UNL A   1      49.118  30.205  30.353  1.00  0.00    -0.014 A 
BRANCH  45  46
ATOM     46  C   UNL A   1      48.311  29.097  29.787  1.00  0.00     0.031 A 
ATOM     47  C   UNL A   1      47.488  28.214  30.684  1.00  0.00     0.074 A 
ATOM     48  C   UNL A   1      48.310  28.855  28.464  1.00  0.00     0.049 A 
ATOM     49  N   UNL A   1      46.779  27.157  30.373  1.00  0.00    -0.248 NA
ATOM     50  C   UNL A   1      47.454  28.565  32.111  1.00  0.00     0.031 C 
ATOM     51  C   UNL A   1      49.013  29.641  27.454  1.00  0.00     0.029 A 
ATOM     52  N   UNL A   1      47.703  27.850  27.754  1.00  0.00    -0.354 N 
ATOM     53  C   UNL A   1      46.235  26.699  31.565  1.00  0.00     0.074 A 
ATOM     54  C   UNL A   1      46.706  27.588  32.608  1.00  0.00     0.031 C 
ATOM     55  C   UNL A   1      48.809  29.079  26.251  1.00  0.00     0.029 A 
ATOM     56  C   UNL A   1      48.002  27.869  26.417  1.00  0.00     0.049 A 
ATOM     57  H   UNL A   1      47.111  27.179  28.165  1.00  0.00     0.167 HD
ATOM     58  C   UNL A   1      45.410  25.646  31.776  1.00  0.00     0.034 A 
ATOM     59  C   UNL A   1      47.683  27.002  25.438  1.00  0.00     0.034 A 
ATOM     60  C   UNL A   1      44.914  24.758  30.756  1.00  0.00     0.049 A 
ATOM     61  C   UNL A   1      46.850  25.789  25.714  1.00  0.00     0.074 A 
ATOM     62  C   UNL A   1      44.029  23.702  30.900  1.00  0.00     0.029 A 
ATOM     63  N   UNL A   1      45.267  24.796  29.421  1.00  0.00    -0.354 N 
ATOM     64  N   UNL A   1      46.280  25.415  26.827  1.00  0.00    -0.248 NA
ATOM     65  C   UNL A   1      46.590  24.896  24.572  1.00  0.00     0.031 C 
ATOM     66  C   UNL A   1      43.886  23.070  29.662  1.00  0.00     0.029 A 
ATOM     67  C   UNL A   1      44.639  23.768  28.736  1.00  0.00     0.049 A 
ATOM     68  H   UNL A   1      45.875  25.457  29.015  1.00  0.00     0.167 HD
ATOM     69  C   UNL A   1      45.552  24.275  26.511  1.00  0.00     0.074 A 
ATOM     70  C   UNL A   1      45.747  24.021  25.100  1.00  0.00     0.031 C 
ATOM     71  C   UNL A   1      44.787  23.514  27.328  1.00  0.00     0.034 A 
BRANCH  58  72
ATOM     72  C   UNL A   1      44.962  25.380  33.187  1.00  0.00     0.023 A 
ATOM     73  C   UNL A   1      45.754  24.582  34.034  1.00  0.00     0.012 A 
ATOM     74  C   UNL A   1      43.821  26.026  33.699  1.00  0.00     0.148 A 
ATOM     75  C   UNL A   1      45.404  24.417  35.374  1.00  0.00     0.002 A 
ATOM     76  C   UNL A   1      43.510  25.900  35.046  1.00  0.00     0.091 A 
ATOM     77  F   UNL A   1      43.076  26.764  32.864  1.00  0.00    -0.205 F 
ATOM     78  C   UNL A   1      44.294  25.088  35.882  1.00  0.00     0.022 A 
BRANCH  76  79
ATOM     79  S   UNL A   1      42.164  26.805  35.814  1.00  0.00     0.127 S 
ATOM     80  O   UNL A   1      42.286  26.383  37.209  1.00  0.00    -0.237 OA
ATOM     81  O   UNL A   1      42.547  28.193  35.560  1.00  0.00    -0.237 OA
ATOM     82  O   UNL A   1      40.948  26.371  35.140  1.00  0.00    -0.744 OA
ENDBRANCH  76  79
ENDBRANCH  58  72
BRANCH  59  83
ATOM     83  C   UNL A   1      48.066  27.310  24.044  1.00  0.00     0.023 A 
ATOM     84  C   UNL A   1      47.118  27.988  23.259  1.00  0.00     0.012 A 
ATOM     85  C   UNL A   1      49.332  26.980  23.518  1.00  0.00     0.148 A 
ATOM     86  C   UNL A   1      47.421  28.332  21.958  1.00  0.00     0.002 A 
ATOM     87  C   UNL A   1      49.697  27.413  22.238  1.00  0.00     0.091 A 
ATOM     88  F   UNL A   1      50.177  26.278  24.286  1.00  0.00    -0.205 F 
ATOM     89  C   UNL A   1      48.708  28.097  21.473  1.00  0.00     0.022 A 
BRANCH  87  90
ATOM     90  S   UNL A   1      51.742  27.467  22.026  1.00  0.00     0.127 S 
ATOM     91  O   UNL A   1      52.898  26.081  22.190  1.00  0.00    -0.237 OA
ATOM     92  O   UNL A   1      52.747  26.230  21.141  1.00  0.00    -0.237 OA
ATOM     93  O   UNL A   1      51.949  28.932  22.056  1.00  0.00    -0.744 OA
ENDBRANCH  87  90
ENDBRANCH  59  83
BRANCH  71  94
ATOM     94  C   UNL A   1      44.042  22.354  26.723  1.00  0.00     0.023 A 
ATOM     95  C   UNL A   1      42.633  22.353  26.682  1.00  0.00     0.012 A 
ATOM     96  C   UNL A   1      44.750  21.284  26.142  1.00  0.00     0.148 A 
ATOM     97  C   UNL A   1      41.943  21.289  26.101  1.00  0.00     0.002 A 
ATOM     98  C   UNL A   1      44.057  20.258  25.512  1.00  0.00     0.091 A 
ATOM     99  F   UNL A   1      46.088  21.289  26.216  1.00  0.00    -0.205 F 
ATOM    100  C   UNL A   1      42.653  20.250  25.504  1.00  0.00     0.022 A 
BRANCH  98 101
ATOM    101  S   UNL A   1      44.887  18.931  24.631  1.00  0.00     0.127 S 
ATOM    102  O   UNL A   1      43.761  18.243  23.999  1.00  0.00    -0.237 OA
ATOM    103  O   UNL A   1      45.748  19.669  23.708  1.00  0.00    -0.237 OA
ATOM    104  O   UNL A   1      45.597  18.157  25.640  1.00  0.00    -0.744 OA
ENDBRANCH  98 101
ENDBRANCH  71  94
ENDBRANCH  45  46
ENDBRANCH  38  40
ENDBRANCH  37  38
ENDBRANCH  36  37
ENDBRANCH  35  36
ENDBRANCH  34  35
ENDBRANCH   1  34
TORSDOF 23
ENDMDL
