MODEL 1
REMARK VINA RESULT:     -11.4      0.000      0.000
REMARK SMILES Cc1nc(SCc2cccc(Cl)c2)[nH]c(=O)c1CC(=O)OCCOCCOC(=O)c1ccc(-c2c3nc(c(-c4cccc(S(=O)(=O)[O-])c4F)c4ccc([nH]4)c(-c4cccc(S(=O)(=O)[O-])c4F)c4nc(c(-c5cccc(S(=O)(=O)[O-])c5F)c5ccc2[nH]5)C=C4)C=C3)cc1
REMARK SMILES IDX 23 1 22 2 21 3 19 4 20 5 18 6 17 7 1 8 2 9 3 10 4 11 15 12
REMARK SMILES IDX 14 13 16 14 5 16 6 17 7 18 8 19 13 20 9 21 11 22 10 23 12 24
REMARK SMILES IDX 24 25 25 26 26 27 27 28 28 29 29 30 30 31 31 32 92 33 32 34
REMARK SMILES IDX 91 35 33 36 34 37 35 38 85 39 36 40 90 41 84 42 86 43 37 44
REMARK SMILES IDX 89 45 83 46 82 47 38 49 70 50 50 51 69 52 51 53 54 54 68 55
REMARK SMILES IDX 87 56 52 57 53 58 67 60 88 61 55 62 39 63 40 64 48 65 41 66
REMARK SMILES IDX 43 67 49 68 42 69 44 70 45 71 46 72 47 73 71 74 72 75 80 76
REMARK SMILES IDX 73 77 75 78 81 79 74 80 76 81 77 82 78 83 79 84 56 85 57 86
REMARK SMILES IDX 65 87 58 88 60 89 66 90 59 91 61 92 62 93 63 94 64 95
REMARK H PARENT 14 15 86 48 54 59
REMARK Flexibility Score: inf
ROOT
ATOM      1  C   UNL A   1      33.320  30.065  26.376  1.00  0.00     0.202 C 
ENDROOT
BRANCH   1   2
ATOM      2  C   UNL A   1      33.174  28.873  25.420  1.00  0.00     0.261 C 
BRANCH   2   3
ATOM      3  O   UNL A   1      32.880  29.244  24.056  1.00  0.00    -0.463 OA
BRANCH   3   4
ATOM      4  C   UNL A   1      31.633  28.919  23.625  1.00  0.00     0.310 C 
ATOM      5  O   UNL A   1      30.612  29.534  23.924  1.00  0.00    -0.252 OA
BRANCH   4   6
ATOM      6  C   UNL A   1      31.558  27.703  22.714  1.00  0.00     0.166 C 
BRANCH   6   7
ATOM      7  C   UNL A   1      32.001  26.362  23.221  1.00  0.00     0.050 A 
ATOM      8  C   UNL A   1      30.043  26.019  24.744  1.00  0.00     0.067 C 
ATOM      9  C   UNL A   1      31.311  25.569  24.064  1.00  0.00     0.050 A 
ATOM     10  N   UNL A   1      31.725  24.317  24.447  1.00  0.00    -0.229 NA
ATOM     11  C   UNL A   1      32.912  23.952  24.112  1.00  0.00     0.168 A 
ATOM     12  C   UNL A   1      33.251  25.786  22.663  1.00  0.00     0.255 A 
ATOM     13  N   UNL A   1      33.699  24.650  23.261  1.00  0.00    -0.301 N 
ATOM     14  O   UNL A   1      33.835  26.288  21.708  1.00  0.00    -0.269 OA
ATOM     15  H   UNL A   1      34.611  24.331  23.074  1.00  0.00     0.172 HD
BRANCH  11  16
ATOM     16  S   UNL A   1      33.669  22.513  24.714  1.00  0.00    -0.083 SA
BRANCH  16  17
ATOM     17  C   UNL A   1      32.265  21.362  24.792  1.00  0.00     0.113 C 
BRANCH  17  18
ATOM     18  C   UNL A   1      32.513  19.959  24.279  1.00  0.00    -0.036 A 
ATOM     19  C   UNL A   1      32.326  19.663  22.920  1.00  0.00     0.005 A 
ATOM     20  C   UNL A   1      32.812  18.889  25.137  1.00  0.00     0.025 A 
ATOM     21  C   UNL A   1      32.422  18.346  22.450  1.00  0.00     0.002 A 
ATOM     22  C   UNL A   1      32.910  17.579  24.670  1.00  0.00     0.041 A 
ATOM     23  C   UNL A   1      32.706  17.300  23.328  1.00  0.00     0.020 A 
ATOM     24  Cl  UNL A   1      33.274  16.319  25.784  1.00  0.00    -0.084 Cl
ENDBRANCH  17  18
ENDBRANCH  16  17
ENDBRANCH  11  16
ENDBRANCH   6   7
ENDBRANCH   4   6
ENDBRANCH   3   4
ENDBRANCH   2   3
ENDBRANCH   1   2
BRANCH   1  25
ATOM     25  O   UNL A   1      32.169  30.482  27.107  1.00  0.00    -0.374 OA
BRANCH  25  26
ATOM     26  C   UNL A   1      31.498  31.652  26.644  1.00  0.00     0.202 C 
BRANCH  26  27
ATOM     27  C   UNL A   1      32.248  32.988  26.749  1.00  0.00     0.261 C 
BRANCH  27  28
ATOM     28  O   UNL A   1      32.658  33.303  28.093  1.00  0.00    -0.460 OA
BRANCH  28  29
ATOM     29  C   UNL A   1      33.787  34.051  28.176  1.00  0.00     0.338 C 
ATOM     30  O   UNL A   1      33.864  35.274  28.132  1.00  0.00    -0.246 OA
BRANCH  29  31
ATOM     31  C   UNL A   1      34.949  33.210  28.511  1.00  0.00     0.060 A 
ATOM     32  C   UNL A   1      34.701  32.014  29.199  1.00  0.00     0.016 A 
ATOM     33  C   UNL A   1      36.259  33.612  28.240  1.00  0.00     0.016 A 
ATOM     34  C   UNL A   1      35.761  31.241  29.664  1.00  0.00     0.010 A 
ATOM     35  C   UNL A   1      37.324  32.837  28.716  1.00  0.00     0.010 A 
ATOM     36  C   UNL A   1      37.080  31.668  29.461  1.00  0.00    -0.014 A 
BRANCH  36  37
ATOM     37  C   UNL A   1      38.194  30.947  30.123  1.00  0.00     0.031 A 
ATOM     38  C   UNL A   1      38.556  31.293  31.541  1.00  0.00     0.074 A 
ATOM     39  C   UNL A   1      38.872  29.991  29.465  1.00  0.00     0.049 A 
ATOM     40  N   UNL A   1      39.501  30.797  32.297  1.00  0.00    -0.248 NA
ATOM     41  C   UNL A   1      37.749  32.336  32.194  1.00  0.00     0.031 C 
ATOM     42  C   UNL A   1      38.615  29.570  28.089  1.00  0.00     0.029 A 
ATOM     43  N   UNL A   1      39.936  29.218  29.861  1.00  0.00    -0.354 N 
ATOM     44  C   UNL A   1      39.423  31.486  33.502  1.00  0.00     0.074 A 
ATOM     45  C   UNL A   1      38.341  32.438  33.376  1.00  0.00     0.031 C 
ATOM     46  C   UNL A   1      39.518  28.637  27.743  1.00  0.00     0.029 A 
ATOM     47  C   UNL A   1      40.429  28.412  28.863  1.00  0.00     0.049 A 
ATOM     48  H   UNL A   1      40.309  29.239  30.772  1.00  0.00     0.167 HD
ATOM     49  C   UNL A   1      40.178  31.331  34.616  1.00  0.00     0.034 A 
ATOM     50  C   UNL A   1      41.507  27.603  28.848  1.00  0.00     0.034 A 
ATOM     51  C   UNL A   1      41.237  30.367  34.747  1.00  0.00     0.049 A 
ATOM     52  C   UNL A   1      42.340  27.461  30.095  1.00  0.00     0.074 A 
ATOM     53  C   UNL A   1      42.015  30.091  35.857  1.00  0.00     0.029 A 
ATOM     54  N   UNL A   1      41.680  29.536  33.730  1.00  0.00    -0.354 N 
ATOM     55  N   UNL A   1      42.170  28.019  31.269  1.00  0.00    -0.248 NA
ATOM     56  C   UNL A   1      43.496  26.555  30.025  1.00  0.00     0.031 C 
ATOM     57  C   UNL A   1      42.949  29.111  35.503  1.00  0.00     0.029 A 
ATOM     58  C   UNL A   1      42.735  28.760  34.180  1.00  0.00     0.049 A 
ATOM     59  H   UNL A   1      41.300  29.501  32.823  1.00  0.00     0.167 HD
ATOM     60  C   UNL A   1      43.177  27.513  32.084  1.00  0.00     0.074 A 
ATOM     61  C   UNL A   1      43.940  26.585  31.276  1.00  0.00     0.031 C 
ATOM     62  C   UNL A   1      43.455  27.803  33.379  1.00  0.00     0.034 A 
BRANCH  49  63
ATOM     63  C   UNL A   1      39.870  32.210  35.800  1.00  0.00     0.023 A 
ATOM     64  C   UNL A   1      40.572  33.419  35.973  1.00  0.00     0.012 A 
ATOM     65  C   UNL A   1      38.842  31.871  36.701  1.00  0.00     0.148 A 
ATOM     66  C   UNL A   1      40.273  34.266  37.041  1.00  0.00     0.002 A 
ATOM     67  C   UNL A   1      38.524  32.738  37.740  1.00  0.00     0.091 A 
ATOM     68  F   UNL A   1      38.202  30.704  36.533  1.00  0.00    -0.205 F 
ATOM     69  C   UNL A   1      39.245  33.930  37.917  1.00  0.00     0.022 A 
BRANCH  67  70
ATOM     70  S   UNL A   1      37.168  32.429  38.877  1.00  0.00     0.127 S 
ATOM     71  O   UNL A   1      37.528  33.285  40.006  1.00  0.00    -0.237 OA
ATOM     72  O   UNL A   1      36.010  32.889  38.109  1.00  0.00    -0.237 OA
ATOM     73  O   UNL A   1      37.187  30.998  39.146  1.00  0.00    -0.744 OA
ENDBRANCH  67  70
ENDBRANCH  49  63
BRANCH  50  74
ATOM     74  C   UNL A   1      41.848  26.847  27.609  1.00  0.00     0.023 A 
ATOM     75  C   UNL A   1      42.389  27.528  26.503  1.00  0.00     0.012 A 
ATOM     76  C   UNL A   1      41.658  25.452  27.533  1.00  0.00     0.148 A 
ATOM     77  C   UNL A   1      42.714  26.838  25.333  1.00  0.00     0.002 A 
ATOM     78  C   UNL A   1      42.034  24.764  26.386  1.00  0.00     0.091 A 
ATOM     79  F   UNL A   1      41.120  24.826  28.589  1.00  0.00    -0.205 F 
ATOM     80  C   UNL A   1      42.547  25.456  25.279  1.00  0.00     0.022 A 
BRANCH  78  81
ATOM     81  S   UNL A   1      41.971  22.972  26.276  1.00  0.00     0.127 S 
ATOM     82  O   UNL A   1      42.562  22.731  24.962  1.00  0.00    -0.237 OA
ATOM     83  O   UNL A   1      42.805  22.570  27.410  1.00  0.00    -0.237 OA
ATOM     84  O   UNL A   1      40.565  22.620  26.411  1.00  0.00    -0.744 OA
ENDBRANCH  78  81
ENDBRANCH  50  74
BRANCH  62  85
ATOM     85  C   UNL A   1      44.622  27.098  34.022  1.00  0.00     0.023 A 
ATOM     86  C   UNL A   1      45.882  27.727  34.058  1.00  0.00     0.012 A 
ATOM     87  C   UNL A   1      44.449  25.857  34.665  1.00  0.00     0.148 A 
ATOM     88  C   UNL A   1      46.959  27.120  34.703  1.00  0.00     0.002 A 
ATOM     89  C   UNL A   1      45.515  25.279  35.346  1.00  0.00     0.091 A 
ATOM     90  F   UNL A   1      43.246  25.267  34.604  1.00  0.00    -0.205 F 
ATOM     91  C   UNL A   1      46.773  25.904  35.357  1.00  0.00     0.022 A 
BRANCH  89  92
ATOM     92  S   UNL A   1      45.345  23.763  36.295  1.00  0.00     0.127 S 
ATOM     93  O   UNL A   1      46.675  23.173  36.155  1.00  0.00    -0.237 OA
ATOM     94  O   UNL A   1      45.040  24.268  37.634  1.00  0.00    -0.237 OA
ATOM     95  O   UNL A   1      44.261  23.017  35.670  1.00  0.00    -0.744 OA
ENDBRANCH  89  92
ENDBRANCH  62  85
ENDBRANCH  36  37
ENDBRANCH  29  31
ENDBRANCH  28  29
ENDBRANCH  27  28
ENDBRANCH  26  27
ENDBRANCH  25  26
ENDBRANCH   1  25
TORSDOF 21
ENDMDL
MODEL 2
REMARK VINA RESULT:     -10.9      1.472      7.592
REMARK SMILES Cc1nc(SCc2cccc(Cl)c2)[nH]c(=O)c1CC(=O)OCCOCCOC(=O)c1ccc(-c2c3nc(c(-c4cccc(S(=O)(=O)[O-])c4F)c4ccc([nH]4)c(-c4cccc(S(=O)(=O)[O-])c4F)c4nc(c(-c5cccc(S(=O)(=O)[O-])c5F)c5ccc2[nH]5)C=C4)C=C3)cc1
REMARK SMILES IDX 23 1 22 2 21 3 19 4 20 5 18 6 17 7 1 8 2 9 3 10 4 11 15 12
REMARK SMILES IDX 14 13 16 14 5 16 6 17 7 18 8 19 13 20 9 21 11 22 10 23 12 24
REMARK SMILES IDX 24 25 25 26 26 27 27 28 28 29 29 30 30 31 31 32 92 33 32 34
REMARK SMILES IDX 91 35 33 36 34 37 35 38 85 39 36 40 90 41 84 42 86 43 37 44
REMARK SMILES IDX 89 45 83 46 82 47 38 49 70 50 50 51 69 52 51 53 54 54 68 55
REMARK SMILES IDX 87 56 52 57 53 58 67 60 88 61 55 62 39 63 40 64 48 65 41 66
REMARK SMILES IDX 43 67 49 68 42 69 44 70 45 71 46 72 47 73 71 74 72 75 80 76
REMARK SMILES IDX 73 77 75 78 81 79 74 80 76 81 77 82 78 83 79 84 56 85 57 86
REMARK SMILES IDX 65 87 58 88 60 89 66 90 59 91 61 92 62 93 63 94 64 95
REMARK H PARENT 14 15 86 48 54 59
REMARK Flexibility Score: inf
ROOT
ATOM      1  C   UNL A   1      32.330  29.551  25.286  1.00  0.00     0.202 C 
ENDROOT
BRANCH   1   2
ATOM      2  C   UNL A   1      32.962  28.177  25.556  1.00  0.00     0.261 C 
BRANCH   2   3
ATOM      3  O   UNL A   1      33.693  27.635  24.435  1.00  0.00    -0.463 OA
BRANCH   3   4
ATOM      4  C   UNL A   1      33.247  28.026  23.212  1.00  0.00     0.310 C 
ATOM      5  O   UNL A   1      33.772  28.900  22.527  1.00  0.00    -0.252 OA
BRANCH   4   6
ATOM      6  C   UNL A   1      32.011  27.295  22.710  1.00  0.00     0.166 C 
BRANCH   6   7
ATOM      7  C   UNL A   1      31.947  25.797  22.783  1.00  0.00     0.050 A 
ATOM      8  C   UNL A   1      30.328  25.717  24.691  1.00  0.00     0.067 C 
ATOM      9  C   UNL A   1      31.155  25.080  23.603  1.00  0.00     0.050 A 
ATOM     10  N   UNL A   1      31.081  23.709  23.587  1.00  0.00    -0.229 NA
ATOM     11  C   UNL A   1      31.931  23.072  22.863  1.00  0.00     0.168 A 
ATOM     12  C   UNL A   1      32.729  25.019  21.788  1.00  0.00     0.255 A 
ATOM     13  N   UNL A   1      32.770  23.674  21.988  1.00  0.00    -0.301 N 
ATOM     14  O   UNL A   1      33.286  25.548  20.832  1.00  0.00    -0.269 OA
ATOM     15  H   UNL A   1      33.421  23.130  21.489  1.00  0.00     0.172 HD
BRANCH  11  16
ATOM     16  S   UNL A   1      32.126  21.350  22.916  1.00  0.00    -0.083 SA
BRANCH  16  17
ATOM     17  C   UNL A   1      32.769  21.103  24.598  1.00  0.00     0.113 C 
BRANCH  17  18
ATOM     18  C   UNL A   1      34.268  21.223  24.771  1.00  0.00    -0.036 A 
ATOM     19  C   UNL A   1      35.075  20.075  24.731  1.00  0.00     0.005 A 
ATOM     20  C   UNL A   1      34.892  22.438  25.095  1.00  0.00     0.025 A 
ATOM     21  C   UNL A   1      36.445  20.147  25.019  1.00  0.00     0.002 A 
ATOM     22  C   UNL A   1      36.255  22.511  25.379  1.00  0.00     0.041 A 
ATOM     23  C   UNL A   1      37.035  21.366  25.353  1.00  0.00     0.020 A 
ATOM     24  Cl  UNL A   1      36.946  24.037  25.774  1.00  0.00    -0.084 Cl
ENDBRANCH  17  18
ENDBRANCH  16  17
ENDBRANCH  11  16
ENDBRANCH   6   7
ENDBRANCH   4   6
ENDBRANCH   3   4
ENDBRANCH   2   3
ENDBRANCH   1   2
BRANCH   1  25
ATOM     25  O   UNL A   1      31.689  30.216  26.372  1.00  0.00    -0.374 OA
BRANCH  25  26
ATOM     26  C   UNL A   1      30.966  31.407  26.064  1.00  0.00     0.202 C 
BRANCH  26  27
ATOM     27  C   UNL A   1      31.462  32.719  26.689  1.00  0.00     0.261 C 
BRANCH  27  28
ATOM     28  O   UNL A   1      32.896  32.854  26.659  1.00  0.00    -0.460 OA
BRANCH  28  29
ATOM     29  C   UNL A   1      33.422  33.501  27.729  1.00  0.00     0.338 C 
ATOM     30  O   UNL A   1      32.901  34.409  28.369  1.00  0.00    -0.246 OA
BRANCH  29  31
ATOM     31  C   UNL A   1      34.670  32.856  28.171  1.00  0.00     0.060 A 
ATOM     32  C   UNL A   1      34.572  31.563  28.704  1.00  0.00     0.016 A 
ATOM     33  C   UNL A   1      35.897  33.522  28.148  1.00  0.00     0.016 A 
ATOM     34  C   UNL A   1      35.690  30.950  29.263  1.00  0.00     0.010 A 
ATOM     35  C   UNL A   1      37.019  32.906  28.719  1.00  0.00     0.010 A 
ATOM     36  C   UNL A   1      36.912  31.634  29.310  1.00  0.00    -0.014 A 
BRANCH  36  37
ATOM     37  C   UNL A   1      38.044  31.058  30.077  1.00  0.00     0.031 A 
ATOM     38  C   UNL A   1      38.934  30.038  29.423  1.00  0.00     0.074 A 
ATOM     39  C   UNL A   1      38.275  31.447  31.343  1.00  0.00     0.049 A 
ATOM     40  N   UNL A   1      39.964  29.401  29.917  1.00  0.00    -0.248 NA
ATOM     41  C   UNL A   1      38.623  29.686  28.028  1.00  0.00     0.031 C 
ATOM     42  C   UNL A   1      37.481  32.425  32.084  1.00  0.00     0.029 A 
ATOM     43  N   UNL A   1      39.234  31.042  32.239  1.00  0.00    -0.354 N 
ATOM     44  C   UNL A   1      40.406  28.553  28.909  1.00  0.00     0.074 A 
ATOM     45  C   UNL A   1      39.529  28.752  27.775  1.00  0.00     0.031 C 
ATOM     46  C   UNL A   1      37.964  32.522  33.333  1.00  0.00     0.029 A 
ATOM     47  C   UNL A   1      39.086  31.599  33.488  1.00  0.00     0.049 A 
ATOM     48  H   UNL A   1      39.957  30.415  32.010  1.00  0.00     0.167 HD
ATOM     49  C   UNL A   1      41.453  27.694  28.922  1.00  0.00     0.034 A 
ATOM     50  C   UNL A   1      39.763  31.369  34.630  1.00  0.00     0.034 A 
ATOM     51  C   UNL A   1      42.337  27.516  30.043  1.00  0.00     0.049 A 
ATOM     52  C   UNL A   1      40.914  30.397  34.624  1.00  0.00     0.074 A 
ATOM     53  C   UNL A   1      43.463  26.718  30.130  1.00  0.00     0.029 A 
ATOM     54  N   UNL A   1      42.183  28.129  31.276  1.00  0.00    -0.354 N 
ATOM     55  N   UNL A   1      41.402  29.704  33.623  1.00  0.00    -0.248 NA
ATOM     56  C   UNL A   1      41.625  30.196  35.895  1.00  0.00     0.031 C 
ATOM     57  C   UNL A   1      43.976  26.827  31.427  1.00  0.00     0.029 A 
ATOM     58  C   UNL A   1      43.183  27.712  32.139  1.00  0.00     0.049 A 
ATOM     59  H   UNL A   1      41.470  28.768  31.505  1.00  0.00     0.167 HD
ATOM     60  C   UNL A   1      42.493  29.008  34.136  1.00  0.00     0.074 A 
ATOM     61  C   UNL A   1      42.607  29.381  35.530  1.00  0.00     0.031 C 
ATOM     62  C   UNL A   1      43.315  28.129  33.512  1.00  0.00     0.034 A 
BRANCH  49  63
ATOM     63  C   UNL A   1      41.721  26.894  27.675  1.00  0.00     0.023 A 
ATOM     64  C   UNL A   1      42.269  27.529  26.543  1.00  0.00     0.012 A 
ATOM     65  C   UNL A   1      41.493  25.505  27.647  1.00  0.00     0.148 A 
ATOM     66  C   UNL A   1      42.562  26.798  25.391  1.00  0.00     0.002 A 
ATOM     67  C   UNL A   1      41.824  24.776  26.510  1.00  0.00     0.091 A 
ATOM     68  F   UNL A   1      40.950  24.923  28.726  1.00  0.00    -0.205 F 
ATOM     69  C   UNL A   1      42.349  25.422  25.379  1.00  0.00     0.022 A 
BRANCH  67  70
ATOM     70  S   UNL A   1      41.654  22.990  26.423  1.00  0.00     0.127 S 
ATOM     71  O   UNL A   1      40.201  22.832  26.401  1.00  0.00    -0.237 OA
ATOM     72  O   UNL A   1      42.320  22.679  25.157  1.00  0.00    -0.237 OA
ATOM     73  O   UNL A   1      42.323  22.465  27.605  1.00  0.00    -0.744 OA
ENDBRANCH  67  70
ENDBRANCH  49  63
BRANCH  50  74
ATOM     74  C   UNL A   1      39.380  32.093  35.876  1.00  0.00     0.023 A 
ATOM     75  C   UNL A   1      39.858  33.398  36.099  1.00  0.00     0.012 A 
ATOM     76  C   UNL A   1      38.526  31.501  36.828  1.00  0.00     0.148 A 
ATOM     77  C   UNL A   1      39.512  34.092  37.260  1.00  0.00     0.002 A 
ATOM     78  C   UNL A   1      38.143  32.218  37.955  1.00  0.00     0.091 A 
ATOM     79  F   UNL A   1      38.102  30.249  36.608  1.00  0.00    -0.205 F 
ATOM     80  C   UNL A   1      38.647  33.508  38.181  1.00  0.00     0.022 A 
BRANCH  78  81
ATOM     81  S   UNL A   1      36.936  31.591  39.129  1.00  0.00     0.127 S 
ATOM     82  O   UNL A   1      37.677  31.662  40.386  1.00  0.00    -0.237 OA
ATOM     83  O   UNL A   1      35.852  32.566  38.997  1.00  0.00    -0.237 OA
ATOM     84  O   UNL A   1      36.599  30.252  38.668  1.00  0.00    -0.744 OA
ENDBRANCH  78  81
ENDBRANCH  50  74
BRANCH  62  85
ATOM     85  C   UNL A   1      44.429  27.515  34.320  1.00  0.00     0.023 A 
ATOM     86  C   UNL A   1      45.605  28.253  34.558  1.00  0.00     0.012 A 
ATOM     87  C   UNL A   1      44.276  26.246  34.913  1.00  0.00     0.148 A 
ATOM     88  C   UNL A   1      46.623  27.727  35.354  1.00  0.00     0.002 A 
ATOM     89  C   UNL A   1      45.274  25.748  35.743  1.00  0.00     0.091 A 
ATOM     90  F   UNL A   1      43.156  25.553  34.659  1.00  0.00    -0.205 F 
ATOM     91  C   UNL A   1      46.452  26.483  35.956  1.00  0.00     0.022 A 
BRANCH  89  92
ATOM     92  S   UNL A   1      45.102  24.199  36.635  1.00  0.00     0.127 S 
ATOM     93  O   UNL A   1      44.502  24.643  37.892  1.00  0.00    -0.237 OA
ATOM     94  O   UNL A   1      44.202  23.439  35.766  1.00  0.00    -0.237 OA
ATOM     95  O   UNL A   1      46.444  23.646  36.744  1.00  0.00    -0.744 OA
ENDBRANCH  89  92
ENDBRANCH  62  85
ENDBRANCH  36  37
ENDBRANCH  29  31
ENDBRANCH  28  29
ENDBRANCH  27  28
ENDBRANCH  26  27
ENDBRANCH  25  26
ENDBRANCH   1  25
TORSDOF 21
ENDMDL
MODEL 3
REMARK VINA RESULT:     -10.7      1.713      2.178
REMARK SMILES Cc1nc(SCc2cccc(Cl)c2)[nH]c(=O)c1CC(=O)OCCOCCOC(=O)c1ccc(-c2c3nc(c(-c4cccc(S(=O)(=O)[O-])c4F)c4ccc([nH]4)c(-c4cccc(S(=O)(=O)[O-])c4F)c4nc(c(-c5cccc(S(=O)(=O)[O-])c5F)c5ccc2[nH]5)C=C4)C=C3)cc1
REMARK SMILES IDX 23 1 22 2 21 3 19 4 20 5 18 6 17 7 1 8 2 9 3 10 4 11 15 12
REMARK SMILES IDX 14 13 16 14 5 16 6 17 7 18 8 19 13 20 9 21 11 22 10 23 12 24
REMARK SMILES IDX 24 25 25 26 26 27 27 28 28 29 29 30 30 31 31 32 92 33 32 34
REMARK SMILES IDX 91 35 33 36 34 37 35 38 85 39 36 40 90 41 84 42 86 43 37 44
REMARK SMILES IDX 89 45 83 46 82 47 38 49 70 50 50 51 69 52 51 53 54 54 68 55
REMARK SMILES IDX 87 56 52 57 53 58 67 60 88 61 55 62 39 63 40 64 48 65 41 66
REMARK SMILES IDX 43 67 49 68 42 69 44 70 45 71 46 72 47 73 71 74 72 75 80 76
REMARK SMILES IDX 73 77 75 78 81 79 74 80 76 81 77 82 78 83 79 84 56 85 57 86
REMARK SMILES IDX 65 87 58 88 60 89 66 90 59 91 61 92 62 93 63 94 64 95
REMARK H PARENT 14 15 86 48 54 59
REMARK Flexibility Score: inf
ROOT
ATOM      1  C   UNL A   1      32.886  30.249  26.836  1.00  0.00     0.202 C 
ENDROOT
BRANCH   1   2
ATOM      2  C   UNL A   1      33.163  28.866  26.231  1.00  0.00     0.261 C 
BRANCH   2   3
ATOM      3  O   UNL A   1      32.021  28.268  25.581  1.00  0.00    -0.463 OA
BRANCH   3   4
ATOM      4  C   UNL A   1      31.262  27.464  26.371  1.00  0.00     0.310 C 
ATOM      5  O   UNL A   1      31.267  27.492  27.600  1.00  0.00    -0.252 OA
BRANCH   4   6
ATOM      6  C   UNL A   1      30.366  26.485  25.629  1.00  0.00     0.166 C 
BRANCH   6   7
ATOM      7  C   UNL A   1      30.949  25.228  25.053  1.00  0.00     0.050 A 
ATOM      8  C   UNL A   1      31.310  26.160  22.756  1.00  0.00     0.067 C 
ATOM      9  C   UNL A   1      31.440  25.085  23.805  1.00  0.00     0.050 A 
ATOM     10  N   UNL A   1      32.027  23.933  23.343  1.00  0.00    -0.229 NA
ATOM     11  C   UNL A   1      31.959  22.887  24.087  1.00  0.00     0.168 A 
ATOM     12  C   UNL A   1      31.122  24.063  25.957  1.00  0.00     0.255 A 
ATOM     13  N   UNL A   1      31.503  22.901  25.362  1.00  0.00    -0.301 N 
ATOM     14  O   UNL A   1      30.955  24.144  27.170  1.00  0.00    -0.269 OA
ATOM     15  H   UNL A   1      31.446  22.057  25.865  1.00  0.00     0.172 HD
BRANCH  11  16
ATOM     16  S   UNL A   1      32.436  21.307  23.554  1.00  0.00    -0.083 SA
BRANCH  16  17
ATOM     17  C   UNL A   1      33.403  20.716  24.974  1.00  0.00     0.113 C 
BRANCH  17  18
ATOM     18  C   UNL A   1      34.871  21.089  24.994  1.00  0.00    -0.036 A 
ATOM     19  C   UNL A   1      35.258  22.430  24.842  1.00  0.00     0.005 A 
ATOM     20  C   UNL A   1      35.890  20.126  25.040  1.00  0.00     0.025 A 
ATOM     21  C   UNL A   1      36.610  22.781  24.726  1.00  0.00     0.002 A 
ATOM     22  C   UNL A   1      37.235  20.474  24.928  1.00  0.00     0.041 A 
ATOM     23  C   UNL A   1      37.601  21.800  24.761  1.00  0.00     0.020 A 
ATOM     24  Cl  UNL A   1      38.427  19.234  24.988  1.00  0.00    -0.084 Cl
ENDBRANCH  17  18
ENDBRANCH  16  17
ENDBRANCH  11  16
ENDBRANCH   6   7
ENDBRANCH   4   6
ENDBRANCH   3   4
ENDBRANCH   2   3
ENDBRANCH   1   2
BRANCH   1  25
ATOM     25  O   UNL A   1      31.634  30.868  26.546  1.00  0.00    -0.374 OA
BRANCH  25  26
ATOM     26  C   UNL A   1      31.526  32.264  26.815  1.00  0.00     0.202 C 
BRANCH  26  27
ATOM     27  C   UNL A   1      32.787  32.992  27.303  1.00  0.00     0.261 C 
BRANCH  27  28
ATOM     28  O   UNL A   1      32.547  34.370  27.648  1.00  0.00    -0.460 OA
BRANCH  28  29
ATOM     29  C   UNL A   1      33.162  34.779  28.786  1.00  0.00     0.338 C 
ATOM     30  O   UNL A   1      32.762  35.630  29.573  1.00  0.00    -0.246 OA
BRANCH  29  31
ATOM     31  C   UNL A   1      34.333  33.935  29.082  1.00  0.00     0.060 A 
ATOM     32  C   UNL A   1      34.108  32.756  29.807  1.00  0.00     0.016 A 
ATOM     33  C   UNL A   1      35.630  34.320  28.740  1.00  0.00     0.016 A 
ATOM     34  C   UNL A   1      35.183  31.983  30.237  1.00  0.00     0.010 A 
ATOM     35  C   UNL A   1      36.711  33.545  29.181  1.00  0.00     0.010 A 
ATOM     36  C   UNL A   1      36.494  32.394  29.961  1.00  0.00    -0.014 A 
BRANCH  36  37
ATOM     37  C   UNL A   1      37.632  31.677  30.585  1.00  0.00     0.031 A 
ATOM     38  C   UNL A   1      38.001  31.978  32.011  1.00  0.00     0.074 A 
ATOM     39  C   UNL A   1      38.327  30.763  29.884  1.00  0.00     0.049 A 
ATOM     40  N   UNL A   1      38.967  31.479  32.739  1.00  0.00    -0.248 NA
ATOM     41  C   UNL A   1      37.175  32.975  32.712  1.00  0.00     0.031 C 
ATOM     42  C   UNL A   1      38.065  30.388  28.496  1.00  0.00     0.029 A 
ATOM     43  N   UNL A   1      39.414  30.003  30.240  1.00  0.00    -0.354 N 
ATOM     44  C   UNL A   1      38.885  32.119  33.969  1.00  0.00     0.074 A 
ATOM     45  C   UNL A   1      37.779  33.048  33.890  1.00  0.00     0.031 C 
ATOM     46  C   UNL A   1      38.987  29.492  28.106  1.00  0.00     0.029 A 
ATOM     47  C   UNL A   1      39.915  29.248  29.207  1.00  0.00     0.049 A 
ATOM     48  H   UNL A   1      39.796  30.000  31.147  1.00  0.00     0.167 HD
ATOM     49  C   UNL A   1      39.655  31.942  35.069  1.00  0.00     0.034 A 
ATOM     50  C   UNL A   1      41.013  28.468  29.150  1.00  0.00     0.034 A 
ATOM     51  C   UNL A   1      40.740  31.000  35.153  1.00  0.00     0.049 A 
ATOM     52  C   UNL A   1      41.863  28.300  30.383  1.00  0.00     0.074 A 
ATOM     53  C   UNL A   1      41.536  30.702  36.244  1.00  0.00     0.029 A 
ATOM     54  N   UNL A   1      41.191  30.219  34.101  1.00  0.00    -0.354 N 
ATOM     55  N   UNL A   1      41.692  28.809  31.579  1.00  0.00    -0.248 NA
ATOM     56  C   UNL A   1      43.041  27.426  30.267  1.00  0.00     0.031 C 
ATOM     57  C   UNL A   1      42.490  29.760  35.843  1.00  0.00     0.029 A 
ATOM     58  C   UNL A   1      42.270  29.453  34.510  1.00  0.00     0.049 A 
ATOM     59  H   UNL A   1      40.803  30.209  33.197  1.00  0.00     0.167 HD
ATOM     60  C   UNL A   1      42.720  28.298  32.364  1.00  0.00     0.074 A 
ATOM     61  C   UNL A   1      43.497  27.420  31.513  1.00  0.00     0.031 C 
ATOM     62  C   UNL A   1      43.005  28.545  33.666  1.00  0.00     0.034 A 
BRANCH  49  63
ATOM     63  C   UNL A   1      39.339  32.767  36.289  1.00  0.00     0.023 A 
ATOM     64  C   UNL A   1      39.849  34.075  36.398  1.00  0.00     0.012 A 
ATOM     65  C   UNL A   1      38.483  32.272  37.292  1.00  0.00     0.148 A 
ATOM     66  C   UNL A   1      39.535  34.870  37.500  1.00  0.00     0.002 A 
ATOM     67  C   UNL A   1      38.142  33.083  38.367  1.00  0.00     0.091 A 
ATOM     68  F   UNL A   1      38.026  31.015  37.181  1.00  0.00    -0.205 F 
ATOM     69  C   UNL A   1      38.675  34.378  38.478  1.00  0.00     0.022 A 
BRANCH  67  70
ATOM     70  S   UNL A   1      36.985  32.566  39.641  1.00  0.00     0.127 S 
ATOM     71  O   UNL A   1      37.140  33.631  40.631  1.00  0.00    -0.237 OA
ATOM     72  O   UNL A   1      35.710  32.582  38.923  1.00  0.00    -0.237 OA
ATOM     73  O   UNL A   1      37.423  31.246  40.070  1.00  0.00    -0.744 OA
ENDBRANCH  67  70
ENDBRANCH  49  63
BRANCH  50  74
ATOM     74  C   UNL A   1      41.359  27.767  27.881  1.00  0.00     0.023 A 
ATOM     75  C   UNL A   1      41.807  28.512  26.774  1.00  0.00     0.012 A 
ATOM     76  C   UNL A   1      41.266  26.365  27.775  1.00  0.00     0.148 A 
ATOM     77  C   UNL A   1      42.135  27.875  25.575  1.00  0.00     0.002 A 
ATOM     78  C   UNL A   1      41.646  25.733  26.598  1.00  0.00     0.091 A 
ATOM     79  F   UNL A   1      40.815  25.677  28.833  1.00  0.00    -0.205 F 
ATOM     80  C   UNL A   1      42.065  26.487  25.491  1.00  0.00     0.022 A 
BRANCH  78  81
ATOM     81  S   UNL A   1      41.706  23.944  26.442  1.00  0.00     0.127 S 
ATOM     82  O   UNL A   1      40.288  23.593  26.477  1.00  0.00    -0.237 OA
ATOM     83  O   UNL A   1      42.351  23.776  25.139  1.00  0.00    -0.237 OA
ATOM     84  O   UNL A   1      42.500  23.478  27.570  1.00  0.00    -0.744 OA
ENDBRANCH  78  81
ENDBRANCH  50  74
BRANCH  62  85
ATOM     85  C   UNL A   1      44.196  27.847  34.270  1.00  0.00     0.023 A 
ATOM     86  C   UNL A   1      45.469  28.444  34.190  1.00  0.00     0.012 A 
ATOM     87  C   UNL A   1      44.039  26.647  34.992  1.00  0.00     0.148 A 
ATOM     88  C   UNL A   1      46.573  27.845  34.796  1.00  0.00     0.002 A 
ATOM     89  C   UNL A   1      45.134  26.080  35.633  1.00  0.00     0.091 A 
ATOM     90  F   UNL A   1      42.821  26.086  35.042  1.00  0.00    -0.205 F 
ATOM     91  C   UNL A   1      46.403  26.671  35.527  1.00  0.00     0.022 A 
BRANCH  89  92
ATOM     92  S   UNL A   1      44.993  24.622  36.674  1.00  0.00     0.127 S 
ATOM     93  O   UNL A   1      44.307  25.159  37.847  1.00  0.00    -0.237 OA
ATOM     94  O   UNL A   1      44.180  23.729  35.848  1.00  0.00    -0.237 OA
ATOM     95  O   UNL A   1      46.354  24.159  36.904  1.00  0.00    -0.744 OA
ENDBRANCH  89  92
ENDBRANCH  62  85
ENDBRANCH  36  37
ENDBRANCH  29  31
ENDBRANCH  28  29
ENDBRANCH  27  28
ENDBRANCH  26  27
ENDBRANCH  25  26
ENDBRANCH   1  25
TORSDOF 21
ENDMDL
