MODEL 1
REMARK VINA RESULT:     -11.6      0.000      0.000
REMARK SMILES O=C(/C=C/c1cc(C(=O)Nc2ccc(F)cc2Cl)cs1)OCCOCCOC(=O)c1ccc(-c2c3nc(c(-c4cccc(S(=O)(=O)[O-])c4F)c4ccc([nH]4)c(-c4cccc(S(=O)(=O)[O-])c4F)c4nc(c(-c5cccc(S(=O)(=O)[O-])c5F)c5ccc2[nH]5)C=C4)C=C3)cc1
REMARK SMILES IDX 24 1 23 2 22 3 21 4 2 5 1 6 3 7 4 8 5 9 6 10 20 11 7 12
REMARK SMILES IDX 19 13 8 14 9 15 10 16 11 18 12 19 17 20 13 21 16 22 18 23
REMARK SMILES IDX 14 24 15 25 25 26 26 27 27 28 28 29 29 30 30 31 31 32 92 33
REMARK SMILES IDX 32 34 91 35 33 36 34 37 35 38 85 39 36 40 90 41 84 42 86 43
REMARK SMILES IDX 37 44 89 45 83 46 82 47 38 49 70 50 50 51 69 52 51 53 54 54
REMARK SMILES IDX 68 55 87 56 52 57 53 58 67 60 88 61 55 62 39 63 40 64 48 65
REMARK SMILES IDX 41 66 43 67 49 68 42 69 44 70 45 71 46 72 47 73 71 74 72 75
REMARK SMILES IDX 80 76 73 77 75 78 81 79 74 80 76 81 77 82 78 83 79 84 56 85
REMARK SMILES IDX 57 86 65 87 58 88 60 89 66 90 59 91 61 92 62 93 63 94 64 95
REMARK H PARENT 10 17 86 48 54 59
REMARK Flexibility Score: inf
ROOT
ATOM      1  O   UNL A   1      32.549  28.649  25.730  1.00  0.00    -0.374 OA
ENDROOT
BRANCH   1   2
ATOM      2  C   UNL A   1      32.553  29.142  24.391  1.00  0.00     0.202 C 
BRANCH   2   3
ATOM      3  C   UNL A   1      31.910  28.258  23.324  1.00  0.00     0.261 C 
BRANCH   3   4
ATOM      4  O   UNL A   1      32.821  27.732  22.346  1.00  0.00    -0.460 OA
BRANCH   4   5
ATOM      5  C   UNL A   1      32.933  26.465  21.908  1.00  0.00     0.330 C 
ATOM      6  O   UNL A   1      33.422  26.241  20.801  1.00  0.00    -0.247 OA
BRANCH   5   7
ATOM      7  C   UNL A   1      32.389  25.311  22.644  1.00  0.00     0.095 C 
ATOM      8  C   UNL A   1      32.902  24.087  22.821  1.00  0.00     0.026 C 
BRANCH   8   9
ATOM      9  C   UNL A   1      32.235  23.076  23.558  1.00  0.00     0.028 A 
ATOM     10  C   UNL A   1      32.331  21.703  23.468  1.00  0.00     0.033 A 
ATOM     11  S   UNL A   1      31.174  23.482  24.852  1.00  0.00    -0.144 S 
ATOM     12  C   UNL A   1      32.205  21.142  24.782  1.00  0.00     0.051 A 
ATOM     13  C   UNL A   1      31.337  21.916  25.529  1.00  0.00     0.079 A 
BRANCH  12  14
ATOM     14  C   UNL A   1      32.840  19.921  25.270  1.00  0.00     0.256 C 
ATOM     15  O   UNL A   1      32.226  18.860  25.359  1.00  0.00    -0.269 OA
ATOM     16  N   UNL A   1      34.190  19.961  25.588  1.00  0.00    -0.321 N 
ATOM     17  H   UNL A   1      34.617  19.080  25.699  1.00  0.00     0.170 HD
BRANCH  16  18
ATOM     18  C   UNL A   1      35.049  21.071  25.776  1.00  0.00     0.060 A 
ATOM     19  C   UNL A   1      34.591  22.291  26.299  1.00  0.00     0.031 A 
ATOM     20  C   UNL A   1      36.392  20.968  25.371  1.00  0.00     0.067 A 
ATOM     21  C   UNL A   1      35.430  23.410  26.317  1.00  0.00     0.041 A 
ATOM     22  C   UNL A   1      37.219  22.092  25.363  1.00  0.00     0.062 A 
ATOM     23  Cl  UNL A   1      37.023  19.484  24.750  1.00  0.00    -0.082 Cl
ATOM     24  C   UNL A   1      36.725  23.305  25.824  1.00  0.00     0.124 A 
ATOM     25  F   UNL A   1      37.508  24.390  25.788  1.00  0.00    -0.207 F 
ENDBRANCH  16  18
ENDBRANCH  12  14
ENDBRANCH   8   9
ENDBRANCH   5   7
ENDBRANCH   4   5
ENDBRANCH   3   4
ENDBRANCH   2   3
ENDBRANCH   1   2
BRANCH   1  26
ATOM     26  C   UNL A   1      31.991  29.542  26.702  1.00  0.00     0.202 C 
BRANCH  26  27
ATOM     27  C   UNL A   1      32.494  30.983  26.582  1.00  0.00     0.261 C 
BRANCH  27  28
ATOM     28  O   UNL A   1      32.873  31.494  27.866  1.00  0.00    -0.460 OA
BRANCH  28  29
ATOM     29  C   UNL A   1      33.807  32.476  27.827  1.00  0.00     0.338 C 
ATOM     30  O   UNL A   1      33.613  33.673  27.695  1.00  0.00    -0.246 OA
BRANCH  29  31
ATOM     31  C   UNL A   1      35.115  31.900  28.202  1.00  0.00     0.060 A 
ATOM     32  C   UNL A   1      35.172  30.518  28.430  1.00  0.00     0.016 A 
ATOM     33  C   UNL A   1      36.272  32.680  28.284  1.00  0.00     0.016 A 
ATOM     34  C   UNL A   1      36.374  29.919  28.789  1.00  0.00     0.010 A 
ATOM     35  C   UNL A   1      37.475  32.082  28.658  1.00  0.00     0.010 A 
ATOM     36  C   UNL A   1      37.518  30.708  28.954  1.00  0.00    -0.014 A 
BRANCH  36  37
ATOM     37  C   UNL A   1      38.693  30.136  29.646  1.00  0.00     0.031 A 
ATOM     38  C   UNL A   1      39.017  30.642  31.024  1.00  0.00     0.074 A 
ATOM     39  C   UNL A   1      39.435  29.172  29.074  1.00  0.00     0.049 A 
ATOM     40  N   UNL A   1      39.994  30.307  31.822  1.00  0.00    -0.248 NA
ATOM     41  C   UNL A   1      38.115  31.670  31.576  1.00  0.00     0.031 C 
ATOM     42  C   UNL A   1      39.209  28.605  27.745  1.00  0.00     0.029 A 
ATOM     43  N   UNL A   1      40.547  28.516  29.537  1.00  0.00    -0.354 N 
ATOM     44  C   UNL A   1      39.838  31.092  32.958  1.00  0.00     0.074 A 
ATOM     45  C   UNL A   1      38.690  31.942  32.737  1.00  0.00     0.031 C 
ATOM     46  C   UNL A   1      40.175  27.705  27.487  1.00  0.00     0.029 A 
ATOM     47  C   UNL A   1      41.095  27.651  28.622  1.00  0.00     0.049 A 
ATOM     48  H   UNL A   1      40.917  28.653  30.440  1.00  0.00     0.167 HD
ATOM     49  C   UNL A   1      40.571  31.090  34.096  1.00  0.00     0.034 A 
ATOM     50  C   UNL A   1      42.224  26.918  28.689  1.00  0.00     0.034 A 
ATOM     51  C   UNL A   1      41.708  30.238  34.311  1.00  0.00     0.049 A 
ATOM     52  C   UNL A   1      43.043  26.960  29.955  1.00  0.00     0.074 A 
ATOM     53  C   UNL A   1      42.511  30.141  35.432  1.00  0.00     0.029 A 
ATOM     54  N   UNL A   1      42.210  29.343  33.378  1.00  0.00    -0.354 N 
ATOM     55  N   UNL A   1      42.826  27.630  31.061  1.00  0.00    -0.248 NA
ATOM     56  C   UNL A   1      44.244  26.113  29.995  1.00  0.00     0.031 C 
ATOM     57  C   UNL A   1      43.516  29.205  35.167  1.00  0.00     0.029 A 
ATOM     58  C   UNL A   1      43.315  28.691  33.895  1.00  0.00     0.049 A 
ATOM     59  H   UNL A   1      41.836  29.195  32.480  1.00  0.00     0.167 HD
ATOM     60  C   UNL A   1      43.837  27.256  31.940  1.00  0.00     0.074 A 
ATOM     61  C   UNL A   1      44.652  26.281  31.246  1.00  0.00     0.031 C 
ATOM     62  C   UNL A   1      44.080  27.686  33.204  1.00  0.00     0.034 A 
BRANCH  49  63
ATOM     63  C   UNL A   1      40.146  32.020  35.200  1.00  0.00     0.023 A 
ATOM     64  C   UNL A   1      40.697  33.317  35.271  1.00  0.00     0.012 A 
ATOM     65  C   UNL A   1      39.172  31.632  36.140  1.00  0.00     0.148 A 
ATOM     66  C   UNL A   1      40.312  34.199  36.279  1.00  0.00     0.002 A 
ATOM     67  C   UNL A   1      38.757  32.534  37.113  1.00  0.00     0.091 A 
ATOM     68  F   UNL A   1      38.677  30.387  36.071  1.00  0.00    -0.205 F 
ATOM     69  C   UNL A   1      39.334  33.812  37.192  1.00  0.00     0.022 A 
BRANCH  67  70
ATOM     70  S   UNL A   1      37.450  32.162  38.288  1.00  0.00     0.127 S 
ATOM     71  O   UNL A   1      38.025  32.661  39.536  1.00  0.00    -0.237 OA
ATOM     72  O   UNL A   1      36.337  32.955  37.767  1.00  0.00    -0.237 OA
ATOM     73  O   UNL A   1      37.252  30.720  38.227  1.00  0.00    -0.744 OA
ENDBRANCH  67  70
ENDBRANCH  49  63
BRANCH  50  74
ATOM     74  C   UNL A   1      42.641  26.070  27.538  1.00  0.00     0.023 A 
ATOM     75  C   UNL A   1      43.484  26.601  26.542  1.00  0.00     0.012 A 
ATOM     76  C   UNL A   1      42.196  24.739  27.419  1.00  0.00     0.148 A 
ATOM     77  C   UNL A   1      43.841  25.839  25.430  1.00  0.00     0.002 A 
ATOM     78  C   UNL A   1      42.605  23.964  26.339  1.00  0.00     0.091 A 
ATOM     79  F   UNL A   1      41.381  24.254  28.366  1.00  0.00    -0.205 F 
ATOM     80  C   UNL A   1      43.410  24.519  25.332  1.00  0.00     0.022 A 
BRANCH  78  81
ATOM     81  S   UNL A   1      42.204  22.219  26.202  1.00  0.00     0.127 S 
ATOM     82  O   UNL A   1      42.891  21.851  24.967  1.00  0.00    -0.237 OA
ATOM     83  O   UNL A   1      42.797  21.679  27.425  1.00  0.00    -0.237 OA
ATOM     84  O   UNL A   1      40.749  22.154  26.162  1.00  0.00    -0.744 OA
ENDBRANCH  78  81
ENDBRANCH  50  74
BRANCH  62  85
ATOM     85  C   UNL A   1      45.243  27.069  33.937  1.00  0.00     0.023 A 
ATOM     86  C   UNL A   1      46.538  27.601  33.786  1.00  0.00     0.012 A 
ATOM     87  C   UNL A   1      45.036  25.994  34.826  1.00  0.00     0.148 A 
ATOM     88  C   UNL A   1      47.617  27.044  34.472  1.00  0.00     0.002 A 
ATOM     89  C   UNL A   1      46.107  25.481  35.548  1.00  0.00     0.091 A 
ATOM     90  F   UNL A   1      43.799  25.492  34.946  1.00  0.00    -0.205 F 
ATOM     91  C   UNL A   1      47.400  25.994  35.361  1.00  0.00     0.022 A 
BRANCH  89  92
ATOM     92  S   UNL A   1      45.904  24.197  36.787  1.00  0.00     0.127 S 
ATOM     93  O   UNL A   1      46.012  22.984  35.978  1.00  0.00    -0.237 OA
ATOM     94  O   UNL A   1      47.041  24.441  37.676  1.00  0.00    -0.237 OA
ATOM     95  O   UNL A   1      44.601  24.427  37.396  1.00  0.00    -0.744 OA
ENDBRANCH  89  92
ENDBRANCH  62  85
ENDBRANCH  36  37
ENDBRANCH  29  31
ENDBRANCH  28  29
ENDBRANCH  27  28
ENDBRANCH  26  27
ENDBRANCH   1  26
TORSDOF 20
ENDMDL
MODEL 2
REMARK VINA RESULT:     -11.5      1.842      2.564
REMARK SMILES O=C(/C=C/c1cc(C(=O)Nc2ccc(F)cc2Cl)cs1)OCCOCCOC(=O)c1ccc(-c2c3nc(c(-c4cccc(S(=O)(=O)[O-])c4F)c4ccc([nH]4)c(-c4cccc(S(=O)(=O)[O-])c4F)c4nc(c(-c5cccc(S(=O)(=O)[O-])c5F)c5ccc2[nH]5)C=C4)C=C3)cc1
REMARK SMILES IDX 24 1 23 2 22 3 21 4 2 5 1 6 3 7 4 8 5 9 6 10 20 11 7 12
REMARK SMILES IDX 19 13 8 14 9 15 10 16 11 18 12 19 17 20 13 21 16 22 18 23
REMARK SMILES IDX 14 24 15 25 25 26 26 27 27 28 28 29 29 30 30 31 31 32 92 33
REMARK SMILES IDX 32 34 91 35 33 36 34 37 35 38 85 39 36 40 90 41 84 42 86 43
REMARK SMILES IDX 37 44 89 45 83 46 82 47 38 49 70 50 50 51 69 52 51 53 54 54
REMARK SMILES IDX 68 55 87 56 52 57 53 58 67 60 88 61 55 62 39 63 40 64 48 65
REMARK SMILES IDX 41 66 43 67 49 68 42 69 44 70 45 71 46 72 47 73 71 74 72 75
REMARK SMILES IDX 80 76 73 77 75 78 81 79 74 80 76 81 77 82 78 83 79 84 56 85
REMARK SMILES IDX 57 86 65 87 58 88 60 89 66 90 59 91 61 92 62 93 63 94 64 95
REMARK H PARENT 10 17 86 48 54 59
REMARK Flexibility Score: inf
ROOT
ATOM      1  O   UNL A   1      31.296  29.769  24.557  1.00  0.00    -0.374 OA
ENDROOT
BRANCH   1   2
ATOM      2  C   UNL A   1      31.257  28.390  24.189  1.00  0.00     0.202 C 
BRANCH   2   3
ATOM      3  C   UNL A   1      32.474  27.834  23.452  1.00  0.00     0.261 C 
BRANCH   3   4
ATOM      4  O   UNL A   1      33.631  27.618  24.275  1.00  0.00    -0.460 OA
BRANCH   4   5
ATOM      5  C   UNL A   1      33.731  26.883  25.398  1.00  0.00     0.330 C 
ATOM      6  O   UNL A   1      33.661  27.432  26.497  1.00  0.00    -0.247 OA
BRANCH   5   7
ATOM      7  C   UNL A   1      34.037  25.443  25.388  1.00  0.00     0.095 C 
ATOM      8  C   UNL A   1      35.144  24.798  25.779  1.00  0.00     0.026 C 
BRANCH   8   9
ATOM      9  C   UNL A   1      35.282  23.390  25.691  1.00  0.00     0.028 A 
ATOM     10  C   UNL A   1      34.605  22.390  26.356  1.00  0.00     0.033 A 
ATOM     11  S   UNL A   1      36.366  22.679  24.558  1.00  0.00    -0.144 S 
ATOM     12  C   UNL A   1      34.429  21.278  25.468  1.00  0.00     0.051 A 
ATOM     13  C   UNL A   1      35.518  21.191  24.622  1.00  0.00     0.079 A 
BRANCH  12  14
ATOM     14  C   UNL A   1      33.311  20.338  25.463  1.00  0.00     0.256 C 
ATOM     15  O   UNL A   1      33.486  19.122  25.407  1.00  0.00    -0.269 OA
ATOM     16  N   UNL A   1      32.024  20.842  25.580  1.00  0.00    -0.321 N 
ATOM     17  H   UNL A   1      31.333  20.172  25.790  1.00  0.00     0.170 HD
BRANCH  16  18
ATOM     18  C   UNL A   1      31.551  22.169  25.444  1.00  0.00     0.060 A 
ATOM     19  C   UNL A   1      31.110  22.923  26.544  1.00  0.00     0.031 A 
ATOM     20  C   UNL A   1      31.462  22.732  24.158  1.00  0.00     0.067 A 
ATOM     21  C   UNL A   1      30.499  24.166  26.348  1.00  0.00     0.041 A 
ATOM     22  C   UNL A   1      30.827  23.959  23.962  1.00  0.00     0.062 A 
ATOM     23  Cl  UNL A   1      32.018  21.867  22.768  1.00  0.00    -0.082 Cl
ATOM     24  C   UNL A   1      30.340  24.657  25.058  1.00  0.00     0.124 A 
ATOM     25  F   UNL A   1      29.704  25.819  24.868  1.00  0.00    -0.207 F 
ENDBRANCH  16  18
ENDBRANCH  12  14
ENDBRANCH   8   9
ENDBRANCH   5   7
ENDBRANCH   4   5
ENDBRANCH   3   4
ENDBRANCH   2   3
ENDBRANCH   1   2
BRANCH   1  26
ATOM     26  C   UNL A   1      31.503  30.017  25.952  1.00  0.00     0.202 C 
BRANCH  26  27
ATOM     27  C   UNL A   1      32.756  30.843  26.257  1.00  0.00     0.261 C 
BRANCH  27  28
ATOM     28  O   UNL A   1      32.600  31.564  27.484  1.00  0.00    -0.460 OA
BRANCH  28  29
ATOM     29  C   UNL A   1      33.488  32.574  27.661  1.00  0.00     0.338 C 
ATOM     30  O   UNL A   1      33.251  33.770  27.669  1.00  0.00    -0.246 OA
BRANCH  29  31
ATOM     31  C   UNL A   1      34.783  31.997  28.077  1.00  0.00     0.060 A 
ATOM     32  C   UNL A   1      34.816  30.628  28.374  1.00  0.00     0.016 A 
ATOM     33  C   UNL A   1      35.951  32.762  28.131  1.00  0.00     0.016 A 
ATOM     34  C   UNL A   1      36.005  30.029  28.774  1.00  0.00     0.010 A 
ATOM     35  C   UNL A   1      37.142  32.166  28.546  1.00  0.00     0.010 A 
ATOM     36  C   UNL A   1      37.160  30.808  28.911  1.00  0.00    -0.014 A 
BRANCH  36  37
ATOM     37  C   UNL A   1      38.320  30.253  29.641  1.00  0.00     0.031 A 
ATOM     38  C   UNL A   1      38.548  30.710  31.055  1.00  0.00     0.074 A 
ATOM     39  C   UNL A   1      39.131  29.346  29.071  1.00  0.00     0.049 A 
ATOM     40  N   UNL A   1      39.495  30.380  31.891  1.00  0.00    -0.248 NA
ATOM     41  C   UNL A   1      37.576  31.676  31.600  1.00  0.00     0.031 C 
ATOM     42  C   UNL A   1      39.001  28.830  27.710  1.00  0.00     0.029 A 
ATOM     43  N   UNL A   1      40.243  28.715  29.567  1.00  0.00    -0.354 N 
ATOM     44  C   UNL A   1      39.245  31.107  33.049  1.00  0.00     0.074 A 
ATOM     45  C   UNL A   1      38.076  31.920  32.800  1.00  0.00     0.031 C 
ATOM     46  C   UNL A   1      40.016  27.981  27.467  1.00  0.00     0.029 A 
ATOM     47  C   UNL A   1      40.875  27.913  28.648  1.00  0.00     0.049 A 
ATOM     48  H   UNL A   1      40.559  28.826  30.493  1.00  0.00     0.167 HD
ATOM     49  C   UNL A   1      39.916  31.084  34.224  1.00  0.00     0.034 A 
ATOM     50  C   UNL A   1      42.029  27.224  28.747  1.00  0.00     0.034 A 
ATOM     51  C   UNL A   1      41.074  30.270  34.465  1.00  0.00     0.049 A 
ATOM     52  C   UNL A   1      42.778  27.243  30.056  1.00  0.00     0.074 A 
ATOM     53  C   UNL A   1      41.820  30.155  35.624  1.00  0.00     0.029 A 
ATOM     54  N   UNL A   1      41.663  29.438  33.525  1.00  0.00    -0.354 N 
ATOM     55  N   UNL A   1      42.473  27.854  31.175  1.00  0.00    -0.248 NA
ATOM     56  C   UNL A   1      44.009  26.443  30.127  1.00  0.00     0.031 C 
ATOM     57  C   UNL A   1      42.877  29.273  35.375  1.00  0.00     0.029 A 
ATOM     58  C   UNL A   1      42.766  28.808  34.074  1.00  0.00     0.049 A 
ATOM     59  H   UNL A   1      41.344  29.314  32.602  1.00  0.00     0.167 HD
ATOM     60  C   UNL A   1      43.451  27.482  32.093  1.00  0.00     0.074 A 
ATOM     61  C   UNL A   1      44.343  26.572  31.404  1.00  0.00     0.031 C 
ATOM     62  C   UNL A   1      43.608  27.865  33.385  1.00  0.00     0.034 A 
BRANCH  49  63
ATOM     63  C   UNL A   1      39.393  31.947  35.342  1.00  0.00     0.023 A 
ATOM     64  C   UNL A   1      38.455  31.416  36.251  1.00  0.00     0.012 A 
ATOM     65  C   UNL A   1      39.859  33.263  35.519  1.00  0.00     0.148 A 
ATOM     66  C   UNL A   1      37.963  32.192  37.300  1.00  0.00     0.002 A 
ATOM     67  C   UNL A   1      39.401  34.015  36.595  1.00  0.00     0.091 A 
ATOM     68  F   UNL A   1      40.732  33.758  34.630  1.00  0.00    -0.205 F 
ATOM     69  C   UNL A   1      38.445  33.486  37.478  1.00  0.00     0.022 A 
BRANCH  67  70
ATOM     70  S   UNL A   1      40.014  35.664  36.958  1.00  0.00     0.127 S 
ATOM     71  O   UNL A   1      41.450  35.422  37.090  1.00  0.00    -0.237 OA
ATOM     72  O   UNL A   1      39.626  36.404  35.758  1.00  0.00    -0.237 OA
ATOM     73  O   UNL A   1      39.339  36.085  38.178  1.00  0.00    -0.744 OA
ENDBRANCH  67  70
ENDBRANCH  49  63
BRANCH  50  74
ATOM     74  C   UNL A   1      42.543  26.445  27.585  1.00  0.00     0.023 A 
ATOM     75  C   UNL A   1      43.379  27.066  26.637  1.00  0.00     0.012 A 
ATOM     76  C   UNL A   1      42.196  25.091  27.410  1.00  0.00     0.148 A 
ATOM     77  C   UNL A   1      43.825  26.367  25.515  1.00  0.00     0.002 A 
ATOM     78  C   UNL A   1      42.694  24.383  26.322  1.00  0.00     0.091 A 
ATOM     79  F   UNL A   1      41.387  24.521  28.313  1.00  0.00    -0.205 F 
ATOM     80  C   UNL A   1      43.491  25.024  25.362  1.00  0.00     0.022 A 
BRANCH  78  81
ATOM     81  S   UNL A   1      42.421  22.619  26.118  1.00  0.00     0.127 S 
ATOM     82  O   UNL A   1      43.119  22.352  24.864  1.00  0.00    -0.237 OA
ATOM     83  O   UNL A   1      43.066  22.076  27.313  1.00  0.00    -0.237 OA
ATOM     84  O   UNL A   1      40.974  22.448  26.087  1.00  0.00    -0.744 OA
ENDBRANCH  78  81
ENDBRANCH  50  74
BRANCH  62  85
ATOM     85  C   UNL A   1      44.755  27.263  34.154  1.00  0.00     0.023 A 
ATOM     86  C   UNL A   1      46.037  27.842  34.082  1.00  0.00     0.012 A 
ATOM     87  C   UNL A   1      44.543  26.155  35.000  1.00  0.00     0.148 A 
ATOM     88  C   UNL A   1      47.101  27.299  34.802  1.00  0.00     0.002 A 
ATOM     89  C   UNL A   1      45.595  25.655  35.757  1.00  0.00     0.091 A 
ATOM     90  F   UNL A   1      43.319  25.610  35.046  1.00  0.00    -0.205 F 
ATOM     91  C   UNL A   1      46.878  26.215  35.647  1.00  0.00     0.022 A 
BRANCH  89  92
ATOM     92  S   UNL A   1      45.378  24.327  36.946  1.00  0.00     0.127 S 
ATOM     93  O   UNL A   1      45.142  23.180  36.070  1.00  0.00    -0.237 OA
ATOM     94  O   UNL A   1      46.668  24.313  37.636  1.00  0.00    -0.237 OA
ATOM     95  O   UNL A   1      44.250  24.715  37.782  1.00  0.00    -0.744 OA
ENDBRANCH  89  92
ENDBRANCH  62  85
ENDBRANCH  36  37
ENDBRANCH  29  31
ENDBRANCH  28  29
ENDBRANCH  27  28
ENDBRANCH  26  27
ENDBRANCH   1  26
TORSDOF 20
ENDMDL
MODEL 3
REMARK VINA RESULT:     -11.5      2.109      2.881
REMARK SMILES O=C(/C=C/c1cc(C(=O)Nc2ccc(F)cc2Cl)cs1)OCCOCCOC(=O)c1ccc(-c2c3nc(c(-c4cccc(S(=O)(=O)[O-])c4F)c4ccc([nH]4)c(-c4cccc(S(=O)(=O)[O-])c4F)c4nc(c(-c5cccc(S(=O)(=O)[O-])c5F)c5ccc2[nH]5)C=C4)C=C3)cc1
REMARK SMILES IDX 24 1 23 2 22 3 21 4 2 5 1 6 3 7 4 8 5 9 6 10 20 11 7 12
REMARK SMILES IDX 19 13 8 14 9 15 10 16 11 18 12 19 17 20 13 21 16 22 18 23
REMARK SMILES IDX 14 24 15 25 25 26 26 27 27 28 28 29 29 30 30 31 31 32 92 33
REMARK SMILES IDX 32 34 91 35 33 36 34 37 35 38 85 39 36 40 90 41 84 42 86 43
REMARK SMILES IDX 37 44 89 45 83 46 82 47 38 49 70 50 50 51 69 52 51 53 54 54
REMARK SMILES IDX 68 55 87 56 52 57 53 58 67 60 88 61 55 62 39 63 40 64 48 65
REMARK SMILES IDX 41 66 43 67 49 68 42 69 44 70 45 71 46 72 47 73 71 74 72 75
REMARK SMILES IDX 80 76 73 77 75 78 81 79 74 80 76 81 77 82 78 83 79 84 56 85
REMARK SMILES IDX 57 86 65 87 58 88 60 89 66 90 59 91 61 92 62 93 63 94 64 95
REMARK H PARENT 10 17 86 48 54 59
REMARK Flexibility Score: inf
ROOT
ATOM      1  O   UNL A   1      31.070  29.205  24.495  1.00  0.00    -0.374 OA
ENDROOT
BRANCH   1   2
ATOM      2  C   UNL A   1      30.998  29.101  23.073  1.00  0.00     0.202 C 
BRANCH   2   3
ATOM      3  C   UNL A   1      30.528  27.765  22.499  1.00  0.00     0.261 C 
BRANCH   3   4
ATOM      4  O   UNL A   1      31.566  26.959  21.920  1.00  0.00    -0.460 OA
BRANCH   4   5
ATOM      5  C   UNL A   1      32.837  26.812  22.336  1.00  0.00     0.330 C 
ATOM      6  O   UNL A   1      33.761  27.256  21.654  1.00  0.00    -0.247 OA
BRANCH   5   7
ATOM      7  C   UNL A   1      33.204  26.032  23.530  1.00  0.00     0.095 C 
ATOM      8  C   UNL A   1      34.380  25.491  23.874  1.00  0.00     0.026 C 
BRANCH   8   9
ATOM      9  C   UNL A   1      34.562  24.752  25.070  1.00  0.00     0.028 A 
ATOM     10  C   UNL A   1      33.695  24.540  26.122  1.00  0.00     0.033 A 
ATOM     11  S   UNL A   1      36.010  23.863  25.346  1.00  0.00    -0.144 S 
ATOM     12  C   UNL A   1      33.893  23.212  26.626  1.00  0.00     0.051 A 
ATOM     13  C   UNL A   1      35.226  22.869  26.501  1.00  0.00     0.079 A 
BRANCH  12  14
ATOM     14  C   UNL A   1      32.878  22.351  27.227  1.00  0.00     0.256 C 
ATOM     15  O   UNL A   1      32.722  22.283  28.444  1.00  0.00    -0.269 OA
ATOM     16  N   UNL A   1      32.037  21.635  26.387  1.00  0.00    -0.321 N 
ATOM     17  H   UNL A   1      31.244  21.249  26.823  1.00  0.00     0.170 HD
BRANCH  16  18
ATOM     18  C   UNL A   1      32.144  21.375  24.999  1.00  0.00     0.060 A 
ATOM     19  C   UNL A   1      31.925  22.370  24.032  1.00  0.00     0.031 A 
ATOM     20  C   UNL A   1      32.420  20.064  24.571  1.00  0.00     0.067 A 
ATOM     21  C   UNL A   1      31.878  22.036  22.674  1.00  0.00     0.041 A 
ATOM     22  C   UNL A   1      32.345  19.727  23.220  1.00  0.00     0.062 A 
ATOM     23  Cl  UNL A   1      32.730  18.803  25.713  1.00  0.00    -0.082 Cl
ATOM     24  C   UNL A   1      32.062  20.714  22.286  1.00  0.00     0.124 A 
ATOM     25  F   UNL A   1      31.961  20.386  20.993  1.00  0.00    -0.207 F 
ENDBRANCH  16  18
ENDBRANCH  12  14
ENDBRANCH   8   9
ENDBRANCH   5   7
ENDBRANCH   4   5
ENDBRANCH   3   4
ENDBRANCH   2   3
ENDBRANCH   1   2
BRANCH   1  26
ATOM     26  C   UNL A   1      32.391  29.363  25.024  1.00  0.00     0.202 C 
BRANCH  26  27
ATOM     27  C   UNL A   1      32.505  29.041  26.516  1.00  0.00     0.261 C 
BRANCH  27  28
ATOM     28  O   UNL A   1      33.878  29.016  26.924  1.00  0.00    -0.460 OA
BRANCH  28  29
ATOM     29  C   UNL A   1      34.318  30.167  27.492  1.00  0.00     0.338 C 
ATOM     30  O   UNL A   1      33.683  31.194  27.660  1.00  0.00    -0.246 OA
BRANCH  29  31
ATOM     31  C   UNL A   1      35.642  29.919  28.097  1.00  0.00     0.060 A 
ATOM     32  C   UNL A   1      36.765  30.031  27.266  1.00  0.00     0.016 A 
ATOM     33  C   UNL A   1      35.793  29.632  29.457  1.00  0.00     0.016 A 
ATOM     34  C   UNL A   1      38.038  29.806  27.779  1.00  0.00     0.010 A 
ATOM     35  C   UNL A   1      37.068  29.392  29.969  1.00  0.00     0.010 A 
ATOM     36  C   UNL A   1      38.188  29.435  29.120  1.00  0.00    -0.014 A 
BRANCH  36  37
ATOM     37  C   UNL A   1      39.483  28.882  29.573  1.00  0.00     0.031 A 
ATOM     38  C   UNL A   1      40.182  29.567  30.715  1.00  0.00     0.074 A 
ATOM     39  C   UNL A   1      40.007  27.785  29.002  1.00  0.00     0.049 A 
ATOM     40  N   UNL A   1      41.324  29.280  31.279  1.00  0.00    -0.248 NA
ATOM     41  C   UNL A   1      39.500  30.738  31.297  1.00  0.00     0.031 C 
ATOM     42  C   UNL A   1      39.413  27.040  27.893  1.00  0.00     0.029 A 
ATOM     43  N   UNL A   1      41.177  27.120  29.268  1.00  0.00    -0.354 N 
ATOM     44  C   UNL A   1      41.506  30.241  32.267  1.00  0.00     0.074 A 
ATOM     45  C   UNL A   1      40.375  31.137  32.207  1.00  0.00     0.031 C 
ATOM     46  C   UNL A   1      40.240  26.035  27.551  1.00  0.00     0.029 A 
ATOM     47  C   UNL A   1      41.427  26.082  28.404  1.00  0.00     0.049 A 
ATOM     48  H   UNL A   1      41.780  27.363  30.008  1.00  0.00     0.167 HD
ATOM     49  C   UNL A   1      42.517  30.354  33.160  1.00  0.00     0.034 A 
ATOM     50  C   UNL A   1      42.504  25.279  28.302  1.00  0.00     0.034 A 
ATOM     51  C   UNL A   1      43.636  29.456  33.217  1.00  0.00     0.049 A 
ATOM     52  C   UNL A   1      43.633  25.448  29.287  1.00  0.00     0.074 A 
ATOM     53  C   UNL A   1      44.705  29.467  34.093  1.00  0.00     0.029 A 
ATOM     54  N   UNL A   1      43.836  28.390  32.353  1.00  0.00    -0.354 N 
ATOM     55  N   UNL A   1      43.745  26.296  30.282  1.00  0.00    -0.248 NA
ATOM     56  C   UNL A   1      44.768  24.522  29.161  1.00  0.00     0.031 C 
ATOM     57  C   UNL A   1      45.567  28.423  33.742  1.00  0.00     0.029 A 
ATOM     58  C   UNL A   1      45.014  27.737  32.671  1.00  0.00     0.049 A 
ATOM     59  H   UNL A   1      43.230  28.136  31.620  1.00  0.00     0.167 HD
ATOM     60  C   UNL A   1      44.940  25.980  30.922  1.00  0.00     0.074 A 
ATOM     61  C   UNL A   1      45.502  24.847  30.217  1.00  0.00     0.031 C 
ATOM     62  C   UNL A   1      45.528  26.579  31.988  1.00  0.00     0.034 A 
BRANCH  49  63
ATOM     63  C   UNL A   1      42.437  31.475  34.163  1.00  0.00     0.023 A 
ATOM     64  C   UNL A   1      43.274  32.601  34.016  1.00  0.00     0.012 A 
ATOM     65  C   UNL A   1      41.509  31.437  35.221  1.00  0.00     0.148 A 
ATOM     66  C   UNL A   1      43.212  33.656  34.926  1.00  0.00     0.002 A 
ATOM     67  C   UNL A   1      41.419  32.513  36.095  1.00  0.00     0.091 A 
ATOM     68  F   UNL A   1      40.740  30.347  35.357  1.00  0.00    -0.205 F 
ATOM     69  C   UNL A   1      42.278  33.617  35.957  1.00  0.00     0.022 A 
BRANCH  67  70
ATOM     70  S   UNL A   1      40.199  32.596  37.410  1.00  0.00     0.127 S 
ATOM     71  O   UNL A   1      41.024  32.357  38.593  1.00  0.00    -0.237 OA
ATOM     72  O   UNL A   1      39.702  33.966  37.278  1.00  0.00    -0.237 OA
ATOM     73  O   UNL A   1      39.218  31.561  37.116  1.00  0.00    -0.744 OA
ENDBRANCH  67  70
ENDBRANCH  49  63
BRANCH  50  74
ATOM     74  C   UNL A   1      42.566  24.232  27.243  1.00  0.00     0.023 A 
ATOM     75  C   UNL A   1      43.207  24.507  26.020  1.00  0.00     0.012 A 
ATOM     76  C   UNL A   1      41.981  22.966  27.440  1.00  0.00     0.148 A 
ATOM     77  C   UNL A   1      43.228  23.558  24.997  1.00  0.00     0.002 A 
ATOM     78  C   UNL A   1      42.058  22.003  26.441  1.00  0.00     0.091 A 
ATOM     79  F   UNL A   1      41.361  22.727  28.604  1.00  0.00    -0.205 F 
ATOM     80  C   UNL A   1      42.662  22.304  25.210  1.00  0.00     0.022 A 
BRANCH  78  81
ATOM     81  S   UNL A   1      41.472  20.322  26.679  1.00  0.00     0.127 S 
ATOM     82  O   UNL A   1      41.873  19.686  25.428  1.00  0.00    -0.237 OA
ATOM     83  O   UNL A   1      42.232  19.904  27.857  1.00  0.00    -0.237 OA
ATOM     84  O   UNL A   1      40.036  20.436  26.901  1.00  0.00    -0.744 OA
ENDBRANCH  78  81
ENDBRANCH  50  74
BRANCH  62  85
ATOM     85  C   UNL A   1      46.820  25.989  32.491  1.00  0.00     0.023 A 
ATOM     86  C   UNL A   1      48.053  26.469  32.008  1.00  0.00     0.012 A 
ATOM     87  C   UNL A   1      46.809  24.996  33.492  1.00  0.00     0.148 A 
ATOM     88  C   UNL A   1      49.253  25.938  32.479  1.00  0.00     0.002 A 
ATOM     89  C   UNL A   1      48.009  24.512  33.996  1.00  0.00     0.091 A 
ATOM     90  F   UNL A   1      45.626  24.542  33.930  1.00  0.00    -0.205 F 
ATOM     91  C   UNL A   1      49.232  24.970  33.480  1.00  0.00     0.022 A 
BRANCH  89  92
ATOM     92  S   UNL A   1      48.079  23.340  35.354  1.00  0.00     0.127 S 
ATOM     93  O   UNL A   1      47.891  24.213  36.511  1.00  0.00    -0.237 OA
ATOM     94  O   UNL A   1      46.947  22.459  35.063  1.00  0.00    -0.237 OA
ATOM     95  O   UNL A   1      49.383  22.697  35.264  1.00  0.00    -0.744 OA
ENDBRANCH  89  92
ENDBRANCH  62  85
ENDBRANCH  36  37
ENDBRANCH  29  31
ENDBRANCH  28  29
ENDBRANCH  27  28
ENDBRANCH  26  27
ENDBRANCH   1  26
TORSDOF 20
ENDMDL
