MODEL 1
REMARK VINA RESULT:     -11.0      0.000      0.000
REMARK SMILES C[C@@H](Sc1nc2ccccc2c(=O)n1N)C(=O)OCCOCCOC(=O)c1ccc(-c2c3nc(c(-c4cccc(S(=O)(=O)[O-])c4F)c4ccc([nH]4)c(-c4cccc(S(=O)(=O)[O-])c4F)c4nc(c(-c5cccc(S(=O)(=O)[O-])c5F)c5ccc2[nH]5)C=C4)C=C3)cc1
REMARK SMILES IDX 21 1 20 2 19 3 18 4 16 5 17 6 2 7 1 8 3 9 4 10 5 11 14 12
REMARK SMILES IDX 6 13 12 14 7 15 11 16 13 17 8 18 10 19 9 20 15 21 22 24
REMARK SMILES IDX 23 25 24 26 25 27 26 28 27 29 28 30 89 31 29 32 88 33 30 34
REMARK SMILES IDX 31 35 32 36 82 37 33 38 87 39 81 40 83 41 34 42 86 43 80 44
REMARK SMILES IDX 79 45 35 47 67 48 47 49 66 50 48 51 51 52 65 53 84 54 49 55
REMARK SMILES IDX 50 56 64 58 85 59 52 60 36 61 37 62 45 63 38 64 40 65 46 66
REMARK SMILES IDX 39 67 41 68 42 69 43 70 44 71 68 72 69 73 77 74 70 75 72 76
REMARK SMILES IDX 78 77 71 78 73 79 74 80 75 81 76 82 53 83 54 84 62 85 55 86
REMARK SMILES IDX 57 87 63 88 56 89 58 90 59 91 60 92 61 93
REMARK H PARENT 15 22 15 23 83 46 51 57
REMARK Flexibility Score: inf
ROOT
ATOM      1  O   UNL A   1      37.649  22.197  24.270  1.00  0.00    -0.374 OA
ENDROOT
BRANCH   1   2
ATOM      2  C   UNL A   1      36.573  23.107  24.039  1.00  0.00     0.202 C 
BRANCH   2   3
ATOM      3  C   UNL A   1      35.747  23.520  25.258  1.00  0.00     0.261 C 
BRANCH   3   4
ATOM      4  O   UNL A   1      34.356  23.668  24.936  1.00  0.00    -0.462 OA
BRANCH   4   5
ATOM      5  C   UNL A   1      33.478  23.173  25.850  1.00  0.00     0.319 C 
ATOM      6  O   UNL A   1      33.663  23.166  27.065  1.00  0.00    -0.251 OA
BRANCH   5   7
ATOM      7  C   UNL A   1      32.210  22.622  25.209  1.00  0.00     0.161 C 
ATOM      8  C   UNL A   1      32.173  21.108  25.026  1.00  0.00     0.032 C 
BRANCH   7   9
ATOM      9  S   UNL A   1      30.819  23.231  26.214  1.00  0.00    -0.071 SA
BRANCH   9  10
ATOM     10  C   UNL A   1      30.822  24.925  25.799  1.00  0.00     0.191 A 
ATOM     11  N   UNL A   1      31.164  25.752  26.730  1.00  0.00    -0.222 NA
ATOM     12  N   UNL A   1      30.544  25.304  24.488  1.00  0.00    -0.202 N 
ATOM     13  C   UNL A   1      31.308  27.104  26.399  1.00  0.00     0.079 A 
ATOM     14  C   UNL A   1      30.665  26.631  24.074  1.00  0.00     0.280 A 
ATOM     15  C   UNL A   1      31.736  27.990  27.389  1.00  0.00     0.029 A 
ATOM     16  C   UNL A   1      31.095  27.589  25.108  1.00  0.00     0.068 A 
ATOM     17  O   UNL A   1      30.459  27.003  22.918  1.00  0.00    -0.267 OA
ATOM     18  C   UNL A   1      31.963  29.335  27.088  1.00  0.00     0.002 A 
ATOM     19  C   UNL A   1      31.317  28.935  24.797  1.00  0.00     0.016 A 
ATOM     20  C   UNL A   1      31.758  29.807  25.792  1.00  0.00     0.001 A 
BRANCH  12  21
ATOM     21  N   UNL A   1      30.135  24.357  23.491  1.00  0.00    -0.334 N 
ATOM     22  H   UNL A   1      29.243  24.429  23.080  1.00  0.00     0.178 HD
ATOM     23  H   UNL A   1      30.747  23.635  23.218  1.00  0.00     0.178 HD
ENDBRANCH  12  21
ENDBRANCH   9  10
ENDBRANCH   7   9
ENDBRANCH   5   7
ENDBRANCH   4   5
ENDBRANCH   3   4
ENDBRANCH   2   3
ENDBRANCH   1   2
BRANCH   1  24
ATOM     24  C   UNL A   1      37.331  20.926  24.839  1.00  0.00     0.202 C 
BRANCH  24  25
ATOM     25  C   UNL A   1      38.508  20.039  25.262  1.00  0.00     0.261 C 
BRANCH  25  26
ATOM     26  O   UNL A   1      39.070  20.436  26.525  1.00  0.00    -0.460 OA
BRANCH  26  27
ATOM     27  C   UNL A   1      40.383  20.764  26.483  1.00  0.00     0.338 C 
ATOM     28  O   UNL A   1      41.276  20.145  25.915  1.00  0.00    -0.246 OA
BRANCH  27  29
ATOM     29  C   UNL A   1      40.604  22.097  27.068  1.00  0.00     0.060 A 
ATOM     30  C   UNL A   1      39.937  23.179  26.478  1.00  0.00     0.016 A 
ATOM     31  C   UNL A   1      41.513  22.306  28.107  1.00  0.00     0.016 A 
ATOM     32  C   UNL A   1      40.219  24.481  26.886  1.00  0.00     0.010 A 
ATOM     33  C   UNL A   1      41.799  23.615  28.511  1.00  0.00     0.010 A 
ATOM     34  C   UNL A   1      41.184  24.709  27.874  1.00  0.00    -0.014 A 
BRANCH  34  35
ATOM     35  C   UNL A   1      41.647  26.095  28.135  1.00  0.00     0.031 A 
ATOM     36  C   UNL A   1      43.049  26.483  27.750  1.00  0.00     0.074 A 
ATOM     37  C   UNL A   1      40.825  27.001  28.693  1.00  0.00     0.049 A 
ATOM     38  N   UNL A   1      43.659  27.630  27.891  1.00  0.00    -0.248 NA
ATOM     39  C   UNL A   1      43.876  25.436  27.124  1.00  0.00     0.031 C 
ATOM     40  C   UNL A   1      39.446  26.748  29.105  1.00  0.00     0.029 A 
ATOM     41  N   UNL A   1      41.042  28.313  29.030  1.00  0.00    -0.354 N 
ATOM     42  C   UNL A   1      44.944  27.441  27.399  1.00  0.00     0.074 A 
ATOM     43  C   UNL A   1      45.033  26.064  26.965  1.00  0.00     0.031 C 
ATOM     44  C   UNL A   1      38.947  27.863  29.666  1.00  0.00     0.029 A 
ATOM     45  C   UNL A   1      39.978  28.901  29.670  1.00  0.00     0.049 A 
ATOM     46  H   UNL A   1      41.881  28.789  28.831  1.00  0.00     0.167 HD
ATOM     47  C   UNL A   1      45.956  28.336  27.299  1.00  0.00     0.034 A 
ATOM     48  C   UNL A   1      39.855  30.128  30.213  1.00  0.00     0.034 A 
ATOM     49  C   UNL A   1      45.859  29.712  27.707  1.00  0.00     0.049 A 
ATOM     50  C   UNL A   1      41.002  31.100  30.107  1.00  0.00     0.074 A 
ATOM     51  C   UNL A   1      46.813  30.709  27.599  1.00  0.00     0.029 A 
ATOM     52  N   UNL A   1      44.752  30.282  28.312  1.00  0.00    -0.354 N 
ATOM     53  N   UNL A   1      42.166  30.943  29.524  1.00  0.00    -0.248 NA
ATOM     54  C   UNL A   1      40.806  32.430  30.703  1.00  0.00     0.031 C 
ATOM     55  C   UNL A   1      46.287  31.878  28.160  1.00  0.00     0.029 A 
ATOM     56  C   UNL A   1      44.999  31.613  28.596  1.00  0.00     0.049 A 
ATOM     57  H   UNL A   1      43.911  29.810  28.512  1.00  0.00     0.167 HD
ATOM     58  C   UNL A   1      42.826  32.162  29.652  1.00  0.00     0.074 A 
ATOM     59  C   UNL A   1      41.923  33.052  30.351  1.00  0.00     0.031 C 
ATOM     60  C   UNL A   1      44.072  32.507  29.242  1.00  0.00     0.034 A 
BRANCH  47  61
ATOM     61  C   UNL A   1      47.251  27.863  26.695  1.00  0.00     0.023 A 
ATOM     62  C   UNL A   1      48.280  27.395  27.536  1.00  0.00     0.012 A 
ATOM     63  C   UNL A   1      47.428  27.825  25.298  1.00  0.00     0.148 A 
ATOM     64  C   UNL A   1      49.478  26.924  26.999  1.00  0.00     0.002 A 
ATOM     65  C   UNL A   1      48.608  27.316  24.768  1.00  0.00     0.091 A 
ATOM     66  F   UNL A   1      46.447  28.297  24.516  1.00  0.00    -0.205 F 
ATOM     67  C   UNL A   1      49.637  26.874  25.616  1.00  0.00     0.022 A 
BRANCH  65  68
ATOM     68  S   UNL A   1      48.878  27.145  23.000  1.00  0.00     0.127 S 
ATOM     69  O   UNL A   1      50.338  27.156  22.922  1.00  0.00    -0.237 OA
ATOM     70  O   UNL A   1      48.262  25.848  22.718  1.00  0.00    -0.237 OA
ATOM     71  O   UNL A   1      48.209  28.280  22.381  1.00  0.00    -0.744 OA
ENDBRANCH  65  68
ENDBRANCH  47  61
BRANCH  48  72
ATOM     72  C   UNL A   1      38.581  30.522  30.877  1.00  0.00     0.023 A 
ATOM     73  C   UNL A   1      38.376  30.206  32.233  1.00  0.00     0.012 A 
ATOM     74  C   UNL A   1      37.580  31.225  30.177  1.00  0.00     0.148 A 
ATOM     75  C   UNL A   1      37.187  30.557  32.874  1.00  0.00     0.002 A 
ATOM     76  C   UNL A   1      36.422  31.619  30.835  1.00  0.00     0.091 A 
ATOM     77  F   UNL A   1      37.785  31.499  28.881  1.00  0.00    -0.205 F 
ATOM     78  C   UNL A   1      36.216  31.272  32.179  1.00  0.00     0.022 A 
BRANCH  76  79
ATOM     79  S   UNL A   1      35.176  32.650  30.054  1.00  0.00     0.127 S 
ATOM     80  O   UNL A   1      35.966  33.798  29.617  1.00  0.00    -0.237 OA
ATOM     81  O   UNL A   1      34.698  31.783  28.976  1.00  0.00    -0.237 OA
ATOM     82  O   UNL A   1      34.186  32.920  31.089  1.00  0.00    -0.744 OA
ENDBRANCH  76  79
ENDBRANCH  48  72
BRANCH  60  83
ATOM     83  C   UNL A   1      44.531  33.917  29.504  1.00  0.00     0.023 A 
ATOM     84  C   UNL A   1      45.158  34.234  30.727  1.00  0.00     0.012 A 
ATOM     85  C   UNL A   1      44.418  34.909  28.509  1.00  0.00     0.148 A 
ATOM     86  C   UNL A   1      45.637  35.521  30.965  1.00  0.00     0.002 A 
ATOM     87  C   UNL A   1      44.940  36.177  28.736  1.00  0.00     0.091 A 
ATOM     88  F   UNL A   1      43.802  34.595  27.360  1.00  0.00    -0.205 F 
ATOM     89  C   UNL A   1      45.539  36.488  29.967  1.00  0.00     0.022 A 
BRANCH  87  90
ATOM     90  S   UNL A   1      44.944  37.456  27.473  1.00  0.00     0.127 S 
ATOM     91  O   UNL A   1      45.426  38.615  28.224  1.00  0.00    -0.237 OA
ATOM     92  O   UNL A   1      45.894  36.925  26.495  1.00  0.00    -0.237 OA
ATOM     93  O   UNL A   1      43.572  37.547  26.992  1.00  0.00    -0.744 OA
ENDBRANCH  87  90
ENDBRANCH  60  83
ENDBRANCH  34  35
ENDBRANCH  27  29
ENDBRANCH  26  27
ENDBRANCH  25  26
ENDBRANCH  24  25
ENDBRANCH   1  24
TORSDOF 20
ENDMDL
MODEL 2
REMARK VINA RESULT:     -11.0      0.895      7.548
REMARK SMILES C[C@@H](Sc1nc2ccccc2c(=O)n1N)C(=O)OCCOCCOC(=O)c1ccc(-c2c3nc(c(-c4cccc(S(=O)(=O)[O-])c4F)c4ccc([nH]4)c(-c4cccc(S(=O)(=O)[O-])c4F)c4nc(c(-c5cccc(S(=O)(=O)[O-])c5F)c5ccc2[nH]5)C=C4)C=C3)cc1
REMARK SMILES IDX 21 1 20 2 19 3 18 4 16 5 17 6 2 7 1 8 3 9 4 10 5 11 14 12
REMARK SMILES IDX 6 13 12 14 7 15 11 16 13 17 8 18 10 19 9 20 15 21 22 24
REMARK SMILES IDX 23 25 24 26 25 27 26 28 27 29 28 30 89 31 29 32 88 33 30 34
REMARK SMILES IDX 31 35 32 36 82 37 33 38 87 39 81 40 83 41 34 42 86 43 80 44
REMARK SMILES IDX 79 45 35 47 67 48 47 49 66 50 48 51 51 52 65 53 84 54 49 55
REMARK SMILES IDX 50 56 64 58 85 59 52 60 36 61 37 62 45 63 38 64 40 65 46 66
REMARK SMILES IDX 39 67 41 68 42 69 43 70 44 71 68 72 69 73 77 74 70 75 72 76
REMARK SMILES IDX 78 77 71 78 73 79 74 80 75 81 76 82 53 83 54 84 62 85 55 86
REMARK SMILES IDX 57 87 63 88 56 89 58 90 59 91 60 92 61 93
REMARK H PARENT 15 22 15 23 83 46 51 57
REMARK Flexibility Score: inf
ROOT
ATOM      1  O   UNL A   1      35.507  21.555  24.924  1.00  0.00    -0.374 OA
ENDROOT
BRANCH   1   2
ATOM      2  C   UNL A   1      35.791  22.511  23.902  1.00  0.00     0.202 C 
BRANCH   2   3
ATOM      3  C   UNL A   1      34.592  23.080  23.140  1.00  0.00     0.261 C 
BRANCH   3   4
ATOM      4  O   UNL A   1      33.656  23.723  24.019  1.00  0.00    -0.462 OA
BRANCH   4   5
ATOM      5  C   UNL A   1      32.586  22.974  24.398  1.00  0.00     0.319 C 
ATOM      6  O   UNL A   1      31.855  22.357  23.626  1.00  0.00    -0.251 OA
BRANCH   5   7
ATOM      7  C   UNL A   1      32.380  22.965  25.908  1.00  0.00     0.161 C 
ATOM      8  C   UNL A   1      33.369  23.806  26.709  1.00  0.00     0.032 C 
BRANCH   7   9
ATOM      9  S   UNL A   1      30.653  23.469  26.195  1.00  0.00    -0.071 SA
BRANCH   9  10
ATOM     10  C   UNL A   1      30.728  25.163  25.786  1.00  0.00     0.191 A 
ATOM     11  N   UNL A   1      31.153  25.965  26.704  1.00  0.00    -0.222 NA
ATOM     12  N   UNL A   1      30.412  25.564  24.490  1.00  0.00    -0.202 N 
ATOM     13  C   UNL A   1      31.353  27.310  26.372  1.00  0.00     0.079 A 
ATOM     14  C   UNL A   1      30.585  26.885  24.076  1.00  0.00     0.280 A 
ATOM     15  C   UNL A   1      31.870  28.167  27.345  1.00  0.00     0.029 A 
ATOM     16  C   UNL A   1      31.110  27.814  25.093  1.00  0.00     0.068 A 
ATOM     17  O   UNL A   1      30.349  27.275  22.932  1.00  0.00    -0.267 OA
ATOM     18  C   UNL A   1      32.155  29.500  27.039  1.00  0.00     0.002 A 
ATOM     19  C   UNL A   1      31.388  29.147  24.777  1.00  0.00     0.016 A 
ATOM     20  C   UNL A   1      31.918  29.989  25.755  1.00  0.00     0.001 A 
BRANCH  12  21
ATOM     21  N   UNL A   1      29.911  24.646  23.509  1.00  0.00    -0.334 N 
ATOM     22  H   UNL A   1      29.182  24.025  23.742  1.00  0.00     0.178 HD
ATOM     23  H   UNL A   1      30.295  24.636  22.602  1.00  0.00     0.178 HD
ENDBRANCH  12  21
ENDBRANCH   9  10
ENDBRANCH   7   9
ENDBRANCH   5   7
ENDBRANCH   4   5
ENDBRANCH   3   4
ENDBRANCH   2   3
ENDBRANCH   1   2
BRANCH   1  24
ATOM     24  C   UNL A   1      36.113  20.267  24.814  1.00  0.00     0.202 C 
BRANCH  24  25
ATOM     25  C   UNL A   1      37.632  20.193  25.002  1.00  0.00     0.261 C 
BRANCH  25  26
ATOM     26  O   UNL A   1      38.094  21.021  26.085  1.00  0.00    -0.460 OA
BRANCH  26  27
ATOM     27  C   UNL A   1      39.429  20.970  26.308  1.00  0.00     0.338 C 
ATOM     28  O   UNL A   1      40.195  20.074  25.973  1.00  0.00    -0.246 OA
BRANCH  27  29
ATOM     29  C   UNL A   1      39.911  22.246  26.863  1.00  0.00     0.060 A 
ATOM     30  C   UNL A   1      39.336  23.424  26.365  1.00  0.00     0.016 A 
ATOM     31  C   UNL A   1      40.964  22.302  27.777  1.00  0.00     0.016 A 
ATOM     32  C   UNL A   1      39.851  24.664  26.737  1.00  0.00     0.010 A 
ATOM     33  C   UNL A   1      41.484  23.549  28.144  1.00  0.00     0.010 A 
ATOM     34  C   UNL A   1      40.956  24.732  27.594  1.00  0.00    -0.014 A 
BRANCH  34  35
ATOM     35  C   UNL A   1      41.642  26.032  27.797  1.00  0.00     0.031 A 
ATOM     36  C   UNL A   1      40.914  27.140  28.510  1.00  0.00     0.074 A 
ATOM     37  C   UNL A   1      42.901  26.221  27.364  1.00  0.00     0.049 A 
ATOM     38  N   UNL A   1      41.319  28.351  28.789  1.00  0.00    -0.248 NA
ATOM     39  C   UNL A   1      39.547  26.843  28.971  1.00  0.00     0.031 C 
ATOM     40  C   UNL A   1      43.710  25.225  26.664  1.00  0.00     0.029 A 
ATOM     41  N   UNL A   1      43.710  27.327  27.431  1.00  0.00    -0.354 N 
ATOM     42  C   UNL A   1      40.254  28.970  29.431  1.00  0.00     0.074 A 
ATOM     43  C   UNL A   1      39.178  28.004  29.492  1.00  0.00     0.031 C 
ATOM     44  C   UNL A   1      44.893  25.775  26.341  1.00  0.00     0.029 A 
ATOM     45  C   UNL A   1      44.917  27.166  26.794  1.00  0.00     0.049 A 
ATOM     46  H   UNL A   1      43.451  28.157  27.893  1.00  0.00     0.167 HD
ATOM     47  C   UNL A   1      40.181  30.223  29.941  1.00  0.00     0.034 A 
ATOM     48  C   UNL A   1      45.917  28.044  26.583  1.00  0.00     0.034 A 
ATOM     49  C   UNL A   1      41.259  31.173  29.903  1.00  0.00     0.049 A 
ATOM     50  C   UNL A   1      45.804  29.439  27.143  1.00  0.00     0.074 A 
ATOM     51  C   UNL A   1      41.299  32.449  30.438  1.00  0.00     0.029 A 
ATOM     52  N   UNL A   1      42.481  30.960  29.285  1.00  0.00    -0.354 N 
ATOM     53  N   UNL A   1      44.840  29.966  27.858  1.00  0.00    -0.248 NA
ATOM     54  C   UNL A   1      46.932  30.349  26.897  1.00  0.00     0.031 C 
ATOM     55  C   UNL A   1      42.540  33.015  30.124  1.00  0.00     0.029 A 
ATOM     56  C   UNL A   1      43.279  32.083  29.414  1.00  0.00     0.049 A 
ATOM     57  H   UNL A   1      42.743  30.131  28.823  1.00  0.00     0.167 HD
ATOM     58  C   UNL A   1      45.260  31.254  28.176  1.00  0.00     0.074 A 
ATOM     59  C   UNL A   1      46.573  31.420  27.592  1.00  0.00     0.031 C 
ATOM     60  C   UNL A   1      44.609  32.217  28.876  1.00  0.00     0.034 A 
BRANCH  47  61
ATOM     61  C   UNL A   1      38.898  30.629  30.615  1.00  0.00     0.023 A 
ATOM     62  C   UNL A   1      38.775  30.497  32.013  1.00  0.00     0.012 A 
ATOM     63  C   UNL A   1      37.840  31.194  29.877  1.00  0.00     0.148 A 
ATOM     64  C   UNL A   1      37.607  30.895  32.663  1.00  0.00     0.002 A 
ATOM     65  C   UNL A   1      36.694  31.624  30.537  1.00  0.00     0.091 A 
ATOM     66  F   UNL A   1      37.966  31.288  28.546  1.00  0.00    -0.205 F 
ATOM     67  C   UNL A   1      36.572  31.467  31.928  1.00  0.00     0.022 A 
BRANCH  65  68
ATOM     68  S   UNL A   1      35.338  32.440  29.686  1.00  0.00     0.127 S 
ATOM     69  O   UNL A   1      34.903  31.398  28.758  1.00  0.00    -0.237 OA
ATOM     70  O   UNL A   1      34.405  32.710  30.780  1.00  0.00    -0.237 OA
ATOM     71  O   UNL A   1      35.910  33.629  29.070  1.00  0.00    -0.744 OA
ENDBRANCH  65  68
ENDBRANCH  47  61
BRANCH  48  72
ATOM     72  C   UNL A   1      47.133  27.619  25.835  1.00  0.00     0.023 A 
ATOM     73  C   UNL A   1      48.150  26.911  26.503  1.00  0.00     0.012 A 
ATOM     74  C   UNL A   1      47.279  27.897  24.462  1.00  0.00     0.148 A 
ATOM     75  C   UNL A   1      49.302  26.512  25.825  1.00  0.00     0.002 A 
ATOM     76  C   UNL A   1      48.403  27.448  23.780  1.00  0.00     0.091 A 
ATOM     77  F   UNL A   1      46.309  28.590  23.847  1.00  0.00    -0.205 F 
ATOM     78  C   UNL A   1      49.424  26.769  24.463  1.00  0.00     0.022 A 
BRANCH  76  79
ATOM     79  S   UNL A   1      48.585  27.626  22.002  1.00  0.00     0.127 S 
ATOM     80  O   UNL A   1      47.296  28.201  21.625  1.00  0.00    -0.237 OA
ATOM     81  O   UNL A   1      49.722  28.543  21.904  1.00  0.00    -0.237 OA
ATOM     82  O   UNL A   1      48.852  26.285  21.499  1.00  0.00    -0.744 OA
ENDBRANCH  76  79
ENDBRANCH  48  72
BRANCH  60  83
ATOM     83  C   UNL A   1      45.314  33.532  29.083  1.00  0.00     0.023 A 
ATOM     84  C   UNL A   1      46.204  33.686  30.165  1.00  0.00     0.012 A 
ATOM     85  C   UNL A   1      45.160  34.586  28.160  1.00  0.00     0.148 A 
ATOM     86  C   UNL A   1      46.905  34.878  30.342  1.00  0.00     0.002 A 
ATOM     87  C   UNL A   1      45.898  35.754  28.317  1.00  0.00     0.091 A 
ATOM     88  F   UNL A   1      44.294  34.428  27.147  1.00  0.00    -0.205 F 
ATOM     89  C   UNL A   1      46.762  35.906  29.412  1.00  0.00     0.022 A 
BRANCH  87  90
ATOM     90  S   UNL A   1      45.848  37.091  27.117  1.00  0.00     0.127 S 
ATOM     91  O   UNL A   1      46.601  38.138  27.806  1.00  0.00    -0.237 OA
ATOM     92  O   UNL A   1      46.534  36.503  25.966  1.00  0.00    -0.237 OA
ATOM     93  O   UNL A   1      44.437  37.377  26.895  1.00  0.00    -0.744 OA
ENDBRANCH  87  90
ENDBRANCH  60  83
ENDBRANCH  34  35
ENDBRANCH  27  29
ENDBRANCH  26  27
ENDBRANCH  25  26
ENDBRANCH  24  25
ENDBRANCH   1  24
TORSDOF 20
ENDMDL
MODEL 3
REMARK VINA RESULT:     -10.8      5.152     10.596
REMARK SMILES C[C@@H](Sc1nc2ccccc2c(=O)n1N)C(=O)OCCOCCOC(=O)c1ccc(-c2c3nc(c(-c4cccc(S(=O)(=O)[O-])c4F)c4ccc([nH]4)c(-c4cccc(S(=O)(=O)[O-])c4F)c4nc(c(-c5cccc(S(=O)(=O)[O-])c5F)c5ccc2[nH]5)C=C4)C=C3)cc1
REMARK SMILES IDX 21 1 20 2 19 3 18 4 16 5 17 6 2 7 1 8 3 9 4 10 5 11 14 12
REMARK SMILES IDX 6 13 12 14 7 15 11 16 13 17 8 18 10 19 9 20 15 21 22 24
REMARK SMILES IDX 23 25 24 26 25 27 26 28 27 29 28 30 89 31 29 32 88 33 30 34
REMARK SMILES IDX 31 35 32 36 82 37 33 38 87 39 81 40 83 41 34 42 86 43 80 44
REMARK SMILES IDX 79 45 35 47 67 48 47 49 66 50 48 51 51 52 65 53 84 54 49 55
REMARK SMILES IDX 50 56 64 58 85 59 52 60 36 61 37 62 45 63 38 64 40 65 46 66
REMARK SMILES IDX 39 67 41 68 42 69 43 70 44 71 68 72 69 73 77 74 70 75 72 76
REMARK SMILES IDX 78 77 71 78 73 79 74 80 75 81 76 82 53 83 54 84 62 85 55 86
REMARK SMILES IDX 57 87 63 88 56 89 58 90 59 91 60 92 61 93
REMARK H PARENT 15 22 15 23 83 46 51 57
REMARK Flexibility Score: inf
ROOT
ATOM      1  O   UNL A   1      32.836  29.485  25.285  1.00  0.00    -0.374 OA
ENDROOT
BRANCH   1   2
ATOM      2  C   UNL A   1      32.981  28.946  23.971  1.00  0.00     0.202 C 
BRANCH   2   3
ATOM      3  C   UNL A   1      33.505  27.512  23.870  1.00  0.00     0.261 C 
BRANCH   3   4
ATOM      4  O   UNL A   1      33.340  26.975  22.548  1.00  0.00    -0.462 OA
BRANCH   4   5
ATOM      5  C   UNL A   1      32.268  26.158  22.368  1.00  0.00     0.319 C 
ATOM      6  O   UNL A   1      31.397  26.324  21.517  1.00  0.00    -0.251 OA
BRANCH   5   7
ATOM      7  C   UNL A   1      32.255  24.984  23.339  1.00  0.00     0.161 C 
ATOM      8  C   UNL A   1      30.944  24.207  23.410  1.00  0.00     0.032 C 
BRANCH   7   9
ATOM      9  S   UNL A   1      33.662  23.921  22.881  1.00  0.00    -0.071 SA
BRANCH   9  10
ATOM     10  C   UNL A   1      33.314  22.487  23.810  1.00  0.00     0.191 A 
ATOM     11  N   UNL A   1      32.905  21.453  23.154  1.00  0.00    -0.222 NA
ATOM     12  N   UNL A   1      33.565  22.487  25.180  1.00  0.00    -0.202 N 
ATOM     13  C   UNL A   1      32.744  20.247  23.844  1.00  0.00     0.079 A 
ATOM     14  C   UNL A   1      33.431  21.326  25.944  1.00  0.00     0.280 A 
ATOM     15  C   UNL A   1      32.361  19.114  23.126  1.00  0.00     0.029 A 
ATOM     16  C   UNL A   1      33.006  20.121  25.209  1.00  0.00     0.068 A 
ATOM     17  O   UNL A   1      33.673  21.275  27.150  1.00  0.00    -0.267 OA
ATOM     18  C   UNL A   1      32.258  17.873  23.758  1.00  0.00     0.002 A 
ATOM     19  C   UNL A   1      32.903  18.883  25.854  1.00  0.00     0.016 A 
ATOM     20  C   UNL A   1      32.533  17.756  25.120  1.00  0.00     0.001 A 
BRANCH  12  21
ATOM     21  N   UNL A   1      33.987  23.667  25.878  1.00  0.00    -0.334 N 
ATOM     22  H   UNL A   1      34.326  23.599  26.800  1.00  0.00     0.178 HD
ATOM     23  H   UNL A   1      33.937  24.545  25.435  1.00  0.00     0.178 HD
ENDBRANCH  12  21
ENDBRANCH   9  10
ENDBRANCH   7   9
ENDBRANCH   5   7
ENDBRANCH   4   5
ENDBRANCH   3   4
ENDBRANCH   2   3
ENDBRANCH   1   2
BRANCH   1  24
ATOM     24  C   UNL A   1      31.639  30.206  25.578  1.00  0.00     0.202 C 
BRANCH  24  25
ATOM     25  C   UNL A   1      31.769  31.429  26.494  1.00  0.00     0.261 C 
BRANCH  25  26
ATOM     26  O   UNL A   1      32.744  31.236  27.534  1.00  0.00    -0.460 OA
BRANCH  26  27
ATOM     27  C   UNL A   1      33.655  32.231  27.649  1.00  0.00     0.338 C 
ATOM     28  O   UNL A   1      33.432  33.436  27.628  1.00  0.00    -0.246 OA
BRANCH  27  29
ATOM     29  C   UNL A   1      34.979  31.686  27.994  1.00  0.00     0.060 A 
ATOM     30  C   UNL A   1      35.081  30.298  28.159  1.00  0.00     0.016 A 
ATOM     31  C   UNL A   1      36.075  32.513  28.246  1.00  0.00     0.016 A 
ATOM     32  C   UNL A   1      36.266  29.736  28.631  1.00  0.00     0.010 A 
ATOM     33  C   UNL A   1      37.261  31.947  28.727  1.00  0.00     0.010 A 
ATOM     34  C   UNL A   1      37.348  30.562  28.960  1.00  0.00    -0.014 A 
BRANCH  34  35
ATOM     35  C   UNL A   1      38.511  29.986  29.680  1.00  0.00     0.031 A 
ATOM     36  C   UNL A   1      38.817  30.461  31.074  1.00  0.00     0.074 A 
ATOM     37  C   UNL A   1      39.277  29.042  29.105  1.00  0.00     0.049 A 
ATOM     38  N   UNL A   1      39.781  30.100  31.879  1.00  0.00    -0.248 NA
ATOM     39  C   UNL A   1      37.915  31.481  31.638  1.00  0.00     0.031 C 
ATOM     40  C   UNL A   1      39.080  28.498  27.763  1.00  0.00     0.029 A 
ATOM     41  N   UNL A   1      40.389  28.390  29.573  1.00  0.00    -0.354 N 
ATOM     42  C   UNL A   1      39.623  30.862  33.030  1.00  0.00     0.074 A 
ATOM     43  C   UNL A   1      38.475  31.716  32.816  1.00  0.00     0.031 C 
ATOM     44  C   UNL A   1      40.058  27.613  27.504  1.00  0.00     0.029 A 
ATOM     45  C   UNL A   1      40.959  27.543  28.653  1.00  0.00     0.049 A 
ATOM     46  H   UNL A   1      40.746  28.517  30.483  1.00  0.00     0.167 HD
ATOM     47  C   UNL A   1      40.354  30.842  34.169  1.00  0.00     0.034 A 
ATOM     48  C   UNL A   1      42.088  26.810  28.723  1.00  0.00     0.034 A 
ATOM     49  C   UNL A   1      41.480  29.975  34.391  1.00  0.00     0.049 A 
ATOM     50  C   UNL A   1      42.896  26.820  29.995  1.00  0.00     0.074 A 
ATOM     51  C   UNL A   1      42.253  29.845  35.531  1.00  0.00     0.029 A 
ATOM     52  N   UNL A   1      42.002  29.101  33.452  1.00  0.00    -0.354 N 
ATOM     53  N   UNL A   1      42.659  27.452  31.119  1.00  0.00    -0.248 NA
ATOM     54  C   UNL A   1      44.110  25.990  30.020  1.00  0.00     0.031 C 
ATOM     55  C   UNL A   1      43.258  28.906  35.272  1.00  0.00     0.029 A 
ATOM     56  C   UNL A   1      43.095  28.436  33.979  1.00  0.00     0.049 A 
ATOM     57  H   UNL A   1      41.648  28.971  32.542  1.00  0.00     0.167 HD
ATOM     58  C   UNL A   1      43.671  27.068  31.995  1.00  0.00     0.074 A 
ATOM     59  C   UNL A   1      44.512  26.135  31.276  1.00  0.00     0.031 C 
ATOM     60  C   UNL A   1      43.892  27.466  33.273  1.00  0.00     0.034 A 
BRANCH  47  61
ATOM     61  C   UNL A   1      39.940  31.768  35.282  1.00  0.00     0.023 A 
ATOM     62  C   UNL A   1      40.429  33.089  35.305  1.00  0.00     0.012 A 
ATOM     63  C   UNL A   1      39.025  31.351  36.268  1.00  0.00     0.148 A 
ATOM     64  C   UNL A   1      40.036  33.974  36.309  1.00  0.00     0.002 A 
ATOM     65  C   UNL A   1      38.607  32.250  37.242  1.00  0.00     0.091 A 
ATOM     66  F   UNL A   1      38.590  30.083  36.243  1.00  0.00    -0.205 F 
ATOM     67  C   UNL A   1      39.118  33.559  37.270  1.00  0.00     0.022 A 
BRANCH  65  68
ATOM     68  S   UNL A   1      37.372  31.830  38.479  1.00  0.00     0.127 S 
ATOM     69  O   UNL A   1      38.097  32.098  39.720  1.00  0.00    -0.237 OA
ATOM     70  O   UNL A   1      36.301  32.781  38.181  1.00  0.00    -0.237 OA
ATOM     71  O   UNL A   1      37.028  30.436  38.243  1.00  0.00    -0.744 OA
ENDBRANCH  65  68
ENDBRANCH  47  61
BRANCH  48  72
ATOM     72  C   UNL A   1      42.504  25.974  27.562  1.00  0.00     0.023 A 
ATOM     73  C   UNL A   1      43.352  26.520  26.580  1.00  0.00     0.012 A 
ATOM     74  C   UNL A   1      42.080  24.637  27.437  1.00  0.00     0.148 A 
ATOM     75  C   UNL A   1      43.747  25.759  25.479  1.00  0.00     0.002 A 
ATOM     76  C   UNL A   1      42.521  23.868  26.367  1.00  0.00     0.091 A 
ATOM     77  F   UNL A   1      41.256  24.142  28.372  1.00  0.00    -0.205 F 
ATOM     78  C   UNL A   1      43.342  24.432  25.379  1.00  0.00     0.022 A 
BRANCH  76  79
ATOM     79  S   UNL A   1      42.150  22.116  26.225  1.00  0.00     0.127 S 
ATOM     80  O   UNL A   1      42.650  21.599  27.496  1.00  0.00    -0.237 OA
ATOM     81  O   UNL A   1      40.693  22.125  26.092  1.00  0.00    -0.237 OA
ATOM     82  O   UNL A   1      42.857  21.662  25.034  1.00  0.00    -0.744 OA
ENDBRANCH  76  79
ENDBRANCH  48  72
BRANCH  60  83
ATOM     83  C   UNL A   1      45.071  26.872  33.999  1.00  0.00     0.023 A 
ATOM     84  C   UNL A   1      46.323  27.516  33.944  1.00  0.00     0.012 A 
ATOM     85  C   UNL A   1      44.919  25.723  34.801  1.00  0.00     0.148 A 
ATOM     86  C   UNL A   1      47.412  27.010  34.653  1.00  0.00     0.002 A 
ATOM     87  C   UNL A   1      45.997  25.251  35.541  1.00  0.00     0.091 A 
ATOM     88  F   UNL A   1      43.725  25.112  34.825  1.00  0.00    -0.205 F 
ATOM     89  C   UNL A   1      47.246  25.886  35.460  1.00  0.00     0.022 A 
BRANCH  87  90
ATOM     90  S   UNL A   1      45.850  23.868  36.679  1.00  0.00     0.127 S 
ATOM     91  O   UNL A   1      45.199  22.862  35.841  1.00  0.00    -0.237 OA
ATOM     92  O   UNL A   1      47.248  23.580  37.002  1.00  0.00    -0.237 OA
ATOM     93  O   UNL A   1      45.061  24.355  37.802  1.00  0.00    -0.744 OA
ENDBRANCH  87  90
ENDBRANCH  60  83
ENDBRANCH  34  35
ENDBRANCH  27  29
ENDBRANCH  26  27
ENDBRANCH  25  26
ENDBRANCH  24  25
ENDBRANCH   1  24
TORSDOF 20
ENDMDL
