MODEL 1
REMARK VINA RESULT:     -11.0      0.000      0.000
REMARK SMILES Cc1ccccc1OCC(=O)N1C[C@@H](O)C[C@H]1C(=O)OCCOCCOC(=O)c1ccc(-c2c3nc(c(-c4cccc(S(=O)(=O)[O-])c4F)c4ccc([nH]4)c(-c4cccc(S(=O)(=O)[O-])c4F)c4nc(c(-c5cccc(S(=O)(=O)[O-])c5F)c5ccc2[nH]5)C=C4)C=C3)cc1
REMARK SMILES IDX 22 1 21 2 20 3 18 4 19 5 17 6 12 7 13 8 14 9 16 10 10 11
REMARK SMILES IDX 11 12 9 13 8 14 7 15 1 16 2 17 3 18 4 19 6 20 5 21 15 22
REMARK SMILES IDX 23 24 24 25 25 26 26 27 27 28 28 29 29 30 30 31 91 32 31 33
REMARK SMILES IDX 90 34 32 35 33 36 34 37 84 38 35 39 89 40 83 41 85 42 36 43
REMARK SMILES IDX 88 44 82 45 81 46 37 48 69 49 49 50 68 51 50 52 53 53 67 54
REMARK SMILES IDX 86 55 51 56 52 57 66 59 87 60 54 61 38 62 39 63 47 64 40 65
REMARK SMILES IDX 42 66 48 67 41 68 43 69 44 70 45 71 46 72 70 73 71 74 79 75
REMARK SMILES IDX 72 76 74 77 80 78 73 79 75 80 76 81 77 82 78 83 55 84 56 85
REMARK SMILES IDX 64 86 57 87 59 88 65 89 58 90 60 91 61 92 62 93 63 94
REMARK H PARENT 15 23 85 47 53 58
REMARK Flexibility Score: inf
ROOT
ATOM      1  C   UNL A   1      34.447  28.526  26.438  1.00  0.00     0.202 C 
ENDROOT
BRANCH   1   2
ATOM      2  C   UNL A   1      33.085  28.759  25.844  1.00  0.00     0.261 C 
BRANCH   2   3
ATOM      3  O   UNL A   1      32.677  27.602  25.075  1.00  0.00    -0.462 OA
BRANCH   3   4
ATOM      4  C   UNL A   1      33.053  27.456  23.764  1.00  0.00     0.329 C 
ATOM      5  O   UNL A   1      34.120  27.800  23.283  1.00  0.00    -0.250 OA
BRANCH   4   6
ATOM      6  C   UNL A   1      31.878  26.979  22.910  1.00  0.00     0.198 C 
ATOM      7  N   UNL A   1      31.982  25.540  22.648  1.00  0.00    -0.323 N 
ATOM      8  C   UNL A   1      31.196  24.796  23.605  1.00  0.00     0.152 C 
ATOM      9  C   UNL A   1      30.050  25.747  23.955  1.00  0.00     0.136 C 
ATOM     10  C   UNL A   1      30.581  27.163  23.704  1.00  0.00     0.070 C 
BRANCH   7  11
ATOM     11  C   UNL A   1      32.811  25.076  21.657  1.00  0.00     0.261 C 
ATOM     12  O   UNL A   1      33.022  25.753  20.645  1.00  0.00    -0.271 OA
BRANCH  11  13
ATOM     13  C   UNL A   1      33.390  23.650  21.721  1.00  0.00     0.329 C 
BRANCH  13  14
ATOM     14  O   UNL A   1      34.518  23.313  22.484  1.00  0.00    -0.484 OA
BRANCH  14  15
ATOM     15  C   UNL A   1      34.509  23.007  23.809  1.00  0.00     0.122 A 
ATOM     16  C   UNL A   1      32.859  21.026  23.980  1.00  0.00     0.048 C 
ATOM     17  C   UNL A   1      33.877  21.983  24.524  1.00  0.00    -0.009 A 
ATOM     18  C   UNL A   1      34.115  21.886  25.919  1.00  0.00     0.007 A 
ATOM     19  C   UNL A   1      34.887  22.823  26.602  1.00  0.00     0.001 A 
ATOM     20  C   UNL A   1      35.254  23.963  24.525  1.00  0.00     0.047 A 
ATOM     21  C   UNL A   1      35.433  23.887  25.905  1.00  0.00     0.004 A 
ENDBRANCH  14  15
ENDBRANCH  13  14
ENDBRANCH  11  13
ENDBRANCH   7  11
BRANCH   9  22
ATOM     22  O   UNL A   1      29.601  25.581  25.292  1.00  0.00    -0.391 OA
ATOM     23  H   UNL A   1      30.136  24.902  25.731  1.00  0.00     0.211 HD
ENDBRANCH   9  22
ENDBRANCH   4   6
ENDBRANCH   3   4
ENDBRANCH   2   3
ENDBRANCH   1   2
BRANCH   1  24
ATOM     24  O   UNL A   1      34.515  29.337  27.596  1.00  0.00    -0.374 OA
BRANCH  24  25
ATOM     25  C   UNL A   1      34.838  30.699  27.425  1.00  0.00     0.202 C 
BRANCH  25  26
ATOM     26  C   UNL A   1      33.847  31.637  28.109  1.00  0.00     0.261 C 
BRANCH  26  27
ATOM     27  O   UNL A   1      34.301  33.002  28.059  1.00  0.00    -0.460 OA
BRANCH  27  28
ATOM     28  C   UNL A   1      34.287  33.640  29.266  1.00  0.00     0.338 C 
ATOM     29  O   UNL A   1      33.364  34.352  29.642  1.00  0.00    -0.246 OA
BRANCH  28  30
ATOM     30  C   UNL A   1      35.629  33.546  29.912  1.00  0.00     0.060 A 
ATOM     31  C   UNL A   1      36.786  33.821  29.167  1.00  0.00     0.016 A 
ATOM     32  C   UNL A   1      35.729  32.840  31.108  1.00  0.00     0.016 A 
ATOM     33  C   UNL A   1      38.003  33.214  29.510  1.00  0.00     0.010 A 
ATOM     34  C   UNL A   1      36.883  32.123  31.344  1.00  0.00     0.010 A 
ATOM     35  C   UNL A   1      38.025  32.280  30.535  1.00  0.00    -0.014 A 
BRANCH  35  36
ATOM     36  C   UNL A   1      39.178  31.491  30.977  1.00  0.00     0.031 A 
ATOM     37  C   UNL A   1      39.323  30.165  30.324  1.00  0.00     0.074 A 
ATOM     38  C   UNL A   1      40.233  32.017  31.654  1.00  0.00     0.049 A 
ATOM     39  N   UNL A   1      40.310  29.371  30.528  1.00  0.00    -0.248 NA
ATOM     40  C   UNL A   1      38.348  29.613  29.377  1.00  0.00     0.031 C 
ATOM     41  C   UNL A   1      41.643  31.625  31.520  1.00  0.00     0.029 A 
ATOM     42  N   UNL A   1      40.313  33.070  32.580  1.00  0.00    -0.354 N 
ATOM     43  C   UNL A   1      40.306  28.450  29.511  1.00  0.00     0.074 A 
ATOM     44  C   UNL A   1      39.007  28.551  28.908  1.00  0.00     0.031 C 
ATOM     45  C   UNL A   1      42.368  32.194  32.497  1.00  0.00     0.029 A 
ATOM     46  C   UNL A   1      41.430  32.828  33.399  1.00  0.00     0.049 A 
ATOM     47  H   UNL A   1      39.700  33.837  32.643  1.00  0.00     0.167 HD
ATOM     48  C   UNL A   1      41.478  27.826  29.226  1.00  0.00     0.034 A 
ATOM     49  C   UNL A   1      41.303  32.610  34.738  1.00  0.00     0.034 A 
ATOM     50  C   UNL A   1      42.452  28.041  30.316  1.00  0.00     0.049 A 
ATOM     51  C   UNL A   1      41.787  31.229  35.100  1.00  0.00     0.074 A 
ATOM     52  C   UNL A   1      43.613  28.781  30.442  1.00  0.00     0.029 A 
ATOM     53  N   UNL A   1      42.086  27.672  31.615  1.00  0.00    -0.354 N 
ATOM     54  N   UNL A   1      42.123  30.350  34.195  1.00  0.00    -0.248 NA
ATOM     55  C   UNL A   1      41.981  30.714  36.449  1.00  0.00     0.031 C 
ATOM     56  C   UNL A   1      43.871  28.950  31.839  1.00  0.00     0.029 A 
ATOM     57  C   UNL A   1      42.902  28.270  32.563  1.00  0.00     0.049 A 
ATOM     58  H   UNL A   1      41.343  27.063  31.829  1.00  0.00     0.167 HD
ATOM     59  C   UNL A   1      42.452  29.165  34.765  1.00  0.00     0.074 A 
ATOM     60  C   UNL A   1      42.408  29.462  36.190  1.00  0.00     0.031 C 
ATOM     61  C   UNL A   1      42.669  28.052  33.999  1.00  0.00     0.034 A 
BRANCH  48  62
ATOM     62  C   UNL A   1      41.806  27.136  27.913  1.00  0.00     0.023 A 
ATOM     63  C   UNL A   1      41.846  27.951  26.761  1.00  0.00     0.012 A 
ATOM     64  C   UNL A   1      41.987  25.743  27.693  1.00  0.00     0.148 A 
ATOM     65  C   UNL A   1      42.065  27.431  25.480  1.00  0.00     0.002 A 
ATOM     66  C   UNL A   1      42.279  25.232  26.424  1.00  0.00     0.091 A 
ATOM     67  F   UNL A   1      41.786  24.873  28.686  1.00  0.00    -0.205 F 
ATOM     68  C   UNL A   1      42.304  26.074  25.311  1.00  0.00     0.022 A 
BRANCH  66  69
ATOM     69  S   UNL A   1      42.659  23.490  26.132  1.00  0.00     0.127 S 
ATOM     70  O   UNL A   1      41.353  22.855  26.315  1.00  0.00    -0.237 OA
ATOM     71  O   UNL A   1      43.136  23.503  24.748  1.00  0.00    -0.237 OA
ATOM     72  O   UNL A   1      43.670  23.119  27.114  1.00  0.00    -0.744 OA
ENDBRANCH  66  69
ENDBRANCH  48  62
BRANCH  49  73
ATOM     73  C   UNL A   1      40.190  33.413  35.334  1.00  0.00     0.023 A 
ATOM     74  C   UNL A   1      38.905  32.807  35.303  1.00  0.00     0.012 A 
ATOM     75  C   UNL A   1      40.440  34.409  36.297  1.00  0.00     0.148 A 
ATOM     76  C   UNL A   1      37.958  33.066  36.297  1.00  0.00     0.002 A 
ATOM     77  C   UNL A   1      39.493  34.651  37.295  1.00  0.00     0.091 A 
ATOM     78  F   UNL A   1      41.620  35.041  36.268  1.00  0.00    -0.205 F 
ATOM     79  C   UNL A   1      38.273  33.952  37.319  1.00  0.00     0.022 A 
BRANCH  77  80
ATOM     80  S   UNL A   1      39.816  35.738  38.692  1.00  0.00     0.127 S 
ATOM     81  O   UNL A   1      39.637  37.056  38.087  1.00  0.00    -0.237 OA
ATOM     82  O   UNL A   1      38.763  35.354  39.634  1.00  0.00    -0.237 OA
ATOM     83  O   UNL A   1      41.166  35.422  39.134  1.00  0.00    -0.744 OA
ENDBRANCH  77  80
ENDBRANCH  49  73
BRANCH  61  84
ATOM     84  C   UNL A   1      42.663  26.645  34.554  1.00  0.00     0.023 A 
ATOM     85  C   UNL A   1      41.559  26.124  35.258  1.00  0.00     0.012 A 
ATOM     86  C   UNL A   1      43.707  25.738  34.250  1.00  0.00     0.148 A 
ATOM     87  C   UNL A   1      41.526  24.804  35.716  1.00  0.00     0.002 A 
ATOM     88  C   UNL A   1      43.606  24.393  34.586  1.00  0.00     0.091 A 
ATOM     89  F   UNL A   1      44.820  26.173  33.642  1.00  0.00    -0.205 F 
ATOM     90  C   UNL A   1      42.539  23.931  35.359  1.00  0.00     0.022 A 
BRANCH  88  91
ATOM     91  S   UNL A   1      44.738  23.177  33.902  1.00  0.00     0.127 S 
ATOM     92  O   UNL A   1      46.026  23.651  34.402  1.00  0.00    -0.237 OA
ATOM     93  O   UNL A   1      44.264  21.935  34.514  1.00  0.00    -0.237 OA
ATOM     94  O   UNL A   1      44.544  23.242  32.460  1.00  0.00    -0.744 OA
ENDBRANCH  88  91
ENDBRANCH  61  84
ENDBRANCH  35  36
ENDBRANCH  28  30
ENDBRANCH  27  28
ENDBRANCH  26  27
ENDBRANCH  25  26
ENDBRANCH  24  25
ENDBRANCH   1  24
TORSDOF 22
ENDMDL
MODEL 2
REMARK VINA RESULT:     -10.5      1.707      3.562
REMARK SMILES Cc1ccccc1OCC(=O)N1C[C@@H](O)C[C@H]1C(=O)OCCOCCOC(=O)c1ccc(-c2c3nc(c(-c4cccc(S(=O)(=O)[O-])c4F)c4ccc([nH]4)c(-c4cccc(S(=O)(=O)[O-])c4F)c4nc(c(-c5cccc(S(=O)(=O)[O-])c5F)c5ccc2[nH]5)C=C4)C=C3)cc1
REMARK SMILES IDX 22 1 21 2 20 3 18 4 19 5 17 6 12 7 13 8 14 9 16 10 10 11
REMARK SMILES IDX 11 12 9 13 8 14 7 15 1 16 2 17 3 18 4 19 6 20 5 21 15 22
REMARK SMILES IDX 23 24 24 25 25 26 26 27 27 28 28 29 29 30 30 31 91 32 31 33
REMARK SMILES IDX 90 34 32 35 33 36 34 37 84 38 35 39 89 40 83 41 85 42 36 43
REMARK SMILES IDX 88 44 82 45 81 46 37 48 69 49 49 50 68 51 50 52 53 53 67 54
REMARK SMILES IDX 86 55 51 56 52 57 66 59 87 60 54 61 38 62 39 63 47 64 40 65
REMARK SMILES IDX 42 66 48 67 41 68 43 69 44 70 45 71 46 72 70 73 71 74 79 75
REMARK SMILES IDX 72 76 74 77 80 78 73 79 75 80 76 81 77 82 78 83 55 84 56 85
REMARK SMILES IDX 64 86 57 87 59 88 65 89 58 90 60 91 61 92 62 93 63 94
REMARK H PARENT 15 23 85 47 53 58
REMARK Flexibility Score: inf
ROOT
ATOM      1  C   UNL A   1      32.382  30.324  26.591  1.00  0.00     0.202 C 
ENDROOT
BRANCH   1   2
ATOM      2  C   UNL A   1      32.525  29.327  25.475  1.00  0.00     0.261 C 
BRANCH   2   3
ATOM      3  O   UNL A   1      32.615  27.987  26.018  1.00  0.00    -0.462 OA
BRANCH   3   4
ATOM      4  C   UNL A   1      31.501  27.340  26.489  1.00  0.00     0.329 C 
ATOM      5  O   UNL A   1      30.916  27.589  27.530  1.00  0.00    -0.250 OA
BRANCH   4   6
ATOM      6  C   UNL A   1      31.183  26.112  25.637  1.00  0.00     0.198 C 
ATOM      7  N   UNL A   1      31.119  26.472  24.217  1.00  0.00    -0.323 N 
ATOM      8  C   UNL A   1      32.387  26.214  23.575  1.00  0.00     0.152 C 
ATOM      9  C   UNL A   1      32.962  25.035  24.362  1.00  0.00     0.136 C 
ATOM     10  C   UNL A   1      32.336  25.111  25.760  1.00  0.00     0.070 C 
BRANCH   7  11
ATOM     11  C   UNL A   1      29.986  27.049  23.700  1.00  0.00     0.261 C 
ATOM     12  O   UNL A   1      28.866  26.649  24.038  1.00  0.00    -0.271 OA
BRANCH  11  13
ATOM     13  C   UNL A   1      30.082  28.114  22.590  1.00  0.00     0.329 C 
BRANCH  13  14
ATOM     14  O   UNL A   1      28.990  28.890  22.175  1.00  0.00    -0.484 OA
BRANCH  14  15
ATOM     15  C   UNL A   1      28.864  30.232  22.359  1.00  0.00     0.122 A 
ATOM     16  C   UNL A   1      27.905  31.081  20.114  1.00  0.00     0.048 C 
ATOM     17  C   UNL A   1      28.331  31.238  21.543  1.00  0.00    -0.009 A 
ATOM     18  C   UNL A   1      28.282  32.562  22.048  1.00  0.00     0.007 A 
ATOM     19  C   UNL A   1      28.819  32.899  23.288  1.00  0.00     0.001 A 
ATOM     20  C   UNL A   1      29.434  30.602  23.592  1.00  0.00     0.047 A 
ATOM     21  C   UNL A   1      29.428  31.918  24.051  1.00  0.00     0.004 A 
ENDBRANCH  14  15
ENDBRANCH  13  14
ENDBRANCH  11  13
ENDBRANCH   7  11
BRANCH   9  22
ATOM     22  O   UNL A   1      34.381  25.064  24.418  1.00  0.00    -0.391 OA
ATOM     23  H   UNL A   1      34.732  24.202  24.148  1.00  0.00     0.211 HD
ENDBRANCH   9  22
ENDBRANCH   4   6
ENDBRANCH   3   4
ENDBRANCH   2   3
ENDBRANCH   1   2
BRANCH   1  24
ATOM     24  O   UNL A   1      33.282  29.913  27.604  1.00  0.00    -0.374 OA
BRANCH  24  25
ATOM     25  C   UNL A   1      34.595  30.424  27.559  1.00  0.00     0.202 C 
BRANCH  25  26
ATOM     26  C   UNL A   1      34.648  31.946  27.665  1.00  0.00     0.261 C 
BRANCH  26  27
ATOM     27  O   UNL A   1      33.949  32.411  28.835  1.00  0.00    -0.460 OA
BRANCH  27  28
ATOM     28  C   UNL A   1      34.349  33.641  29.272  1.00  0.00     0.338 C 
ATOM     29  O   UNL A   1      33.791  34.685  28.954  1.00  0.00    -0.246 OA
BRANCH  28  30
ATOM     30  C   UNL A   1      35.671  33.538  29.956  1.00  0.00     0.060 A 
ATOM     31  C   UNL A   1      36.846  33.875  29.266  1.00  0.00     0.016 A 
ATOM     32  C   UNL A   1      35.747  32.770  31.115  1.00  0.00     0.016 A 
ATOM     33  C   UNL A   1      38.063  33.274  29.616  1.00  0.00     0.010 A 
ATOM     34  C   UNL A   1      36.908  32.064  31.350  1.00  0.00     0.010 A 
ATOM     35  C   UNL A   1      38.072  32.286  30.589  1.00  0.00    -0.014 A 
BRANCH  35  36
ATOM     36  C   UNL A   1      39.226  31.496  31.027  1.00  0.00     0.031 A 
ATOM     37  C   UNL A   1      39.380  30.180  30.358  1.00  0.00     0.074 A 
ATOM     38  C   UNL A   1      40.275  32.018  31.715  1.00  0.00     0.049 A 
ATOM     39  N   UNL A   1      40.370  29.387  30.556  1.00  0.00    -0.248 NA
ATOM     40  C   UNL A   1      38.412  29.635  29.399  1.00  0.00     0.031 C 
ATOM     41  C   UNL A   1      41.688  31.634  31.583  1.00  0.00     0.029 A 
ATOM     42  N   UNL A   1      40.348  33.060  32.654  1.00  0.00    -0.354 N 
ATOM     43  C   UNL A   1      40.375  28.479  29.527  1.00  0.00     0.074 A 
ATOM     44  C   UNL A   1      39.078  28.582  28.919  1.00  0.00     0.031 C 
ATOM     45  C   UNL A   1      42.407  32.194  32.570  1.00  0.00     0.029 A 
ATOM     46  C   UNL A   1      41.461  32.812  33.476  1.00  0.00     0.049 A 
ATOM     47  H   UNL A   1      39.731  33.824  32.724  1.00  0.00     0.167 HD
ATOM     48  C   UNL A   1      41.550  27.864  29.240  1.00  0.00     0.034 A 
ATOM     49  C   UNL A   1      41.329  32.577  34.811  1.00  0.00     0.034 A 
ATOM     50  C   UNL A   1      42.518  28.069  30.336  1.00  0.00     0.049 A 
ATOM     51  C   UNL A   1      41.818  31.193  35.157  1.00  0.00     0.074 A 
ATOM     52  C   UNL A   1      43.676  28.813  30.477  1.00  0.00     0.029 A 
ATOM     53  N   UNL A   1      42.148  27.682  31.629  1.00  0.00    -0.354 N 
ATOM     54  N   UNL A   1      42.162  30.327  34.244  1.00  0.00    -0.248 NA
ATOM     55  C   UNL A   1      42.008  30.662  36.501  1.00  0.00     0.031 C 
ATOM     56  C   UNL A   1      43.926  28.965  31.877  1.00  0.00     0.029 A 
ATOM     57  C   UNL A   1      42.957  28.271  32.589  1.00  0.00     0.049 A 
ATOM     58  H   UNL A   1      41.407  27.068  31.832  1.00  0.00     0.167 HD
ATOM     59  C   UNL A   1      42.493  29.136  34.800  1.00  0.00     0.074 A 
ATOM     60  C   UNL A   1      42.442  29.415  36.228  1.00  0.00     0.031 C 
ATOM     61  C   UNL A   1      42.718  28.035  34.020  1.00  0.00     0.034 A 
BRANCH  48  62
ATOM     62  C   UNL A   1      41.887  27.192  27.919  1.00  0.00     0.023 A 
ATOM     63  C   UNL A   1      41.820  27.999  26.763  1.00  0.00     0.012 A 
ATOM     64  C   UNL A   1      42.173  25.817  27.701  1.00  0.00     0.148 A 
ATOM     65  C   UNL A   1      42.035  27.487  25.477  1.00  0.00     0.002 A 
ATOM     66  C   UNL A   1      42.462  25.321  26.424  1.00  0.00     0.091 A 
ATOM     67  F   UNL A   1      42.080  24.942  28.705  1.00  0.00    -0.205 F 
ATOM     68  C   UNL A   1      42.379  26.153  25.307  1.00  0.00     0.022 A 
BRANCH  66  69
ATOM     69  S   UNL A   1      42.972  23.614  26.129  1.00  0.00     0.127 S 
ATOM     70  O   UNL A   1      43.437  23.666  24.742  1.00  0.00    -0.237 OA
ATOM     71  O   UNL A   1      44.036  23.430  27.117  1.00  0.00    -0.237 OA
ATOM     72  O   UNL A   1      41.793  22.787  26.354  1.00  0.00    -0.744 OA
ENDBRANCH  66  69
ENDBRANCH  48  62
BRANCH  49  73
ATOM     73  C   UNL A   1      40.210  33.368  35.412  1.00  0.00     0.023 A 
ATOM     74  C   UNL A   1      38.941  32.728  35.430  1.00  0.00     0.012 A 
ATOM     75  C   UNL A   1      40.457  34.396  36.341  1.00  0.00     0.148 A 
ATOM     76  C   UNL A   1      38.011  32.990  36.440  1.00  0.00     0.002 A 
ATOM     77  C   UNL A   1      39.528  34.642  37.355  1.00  0.00     0.091 A 
ATOM     78  F   UNL A   1      41.618  35.057  36.266  1.00  0.00    -0.205 F 
ATOM     79  C   UNL A   1      38.328  33.913  37.429  1.00  0.00     0.022 A 
BRANCH  77  80
ATOM     80  S   UNL A   1      39.856  35.776  38.713  1.00  0.00     0.127 S 
ATOM     81  O   UNL A   1      41.241  35.447  39.043  1.00  0.00    -0.237 OA
ATOM     82  O   UNL A   1      39.677  37.082  38.077  1.00  0.00    -0.237 OA
ATOM     83  O   UNL A   1      38.870  35.462  39.736  1.00  0.00    -0.744 OA
ENDBRANCH  77  80
ENDBRANCH  49  73
BRANCH  61  84
ATOM     84  C   UNL A   1      42.717  26.620  34.558  1.00  0.00     0.023 A 
ATOM     85  C   UNL A   1      41.610  26.084  35.246  1.00  0.00     0.012 A 
ATOM     86  C   UNL A   1      43.768  25.723  34.250  1.00  0.00     0.148 A 
ATOM     87  C   UNL A   1      41.580  24.759  35.687  1.00  0.00     0.002 A 
ATOM     88  C   UNL A   1      43.672  24.374  34.569  1.00  0.00     0.091 A 
ATOM     89  F   UNL A   1      44.883  26.172  33.657  1.00  0.00    -0.205 F 
ATOM     90  C   UNL A   1      42.602  23.896  35.327  1.00  0.00     0.022 A 
BRANCH  88  91
ATOM     91  S   UNL A   1      44.817  23.173  33.878  1.00  0.00     0.127 S 
ATOM     92  O   UNL A   1      44.570  23.312  32.446  1.00  0.00    -0.237 OA
ATOM     93  O   UNL A   1      46.112  23.688  34.328  1.00  0.00    -0.237 OA
ATOM     94  O   UNL A   1      44.444  21.899  34.476  1.00  0.00    -0.744 OA
ENDBRANCH  88  91
ENDBRANCH  61  84
ENDBRANCH  35  36
ENDBRANCH  28  30
ENDBRANCH  27  28
ENDBRANCH  26  27
ENDBRANCH  25  26
ENDBRANCH  24  25
ENDBRANCH   1  24
TORSDOF 22
ENDMDL
MODEL 3
REMARK VINA RESULT:     -10.5      4.669     10.452
REMARK SMILES Cc1ccccc1OCC(=O)N1C[C@@H](O)C[C@H]1C(=O)OCCOCCOC(=O)c1ccc(-c2c3nc(c(-c4cccc(S(=O)(=O)[O-])c4F)c4ccc([nH]4)c(-c4cccc(S(=O)(=O)[O-])c4F)c4nc(c(-c5cccc(S(=O)(=O)[O-])c5F)c5ccc2[nH]5)C=C4)C=C3)cc1
REMARK SMILES IDX 22 1 21 2 20 3 18 4 19 5 17 6 12 7 13 8 14 9 16 10 10 11
REMARK SMILES IDX 11 12 9 13 8 14 7 15 1 16 2 17 3 18 4 19 6 20 5 21 15 22
REMARK SMILES IDX 23 24 24 25 25 26 26 27 27 28 28 29 29 30 30 31 91 32 31 33
REMARK SMILES IDX 90 34 32 35 33 36 34 37 84 38 35 39 89 40 83 41 85 42 36 43
REMARK SMILES IDX 88 44 82 45 81 46 37 48 69 49 49 50 68 51 50 52 53 53 67 54
REMARK SMILES IDX 86 55 51 56 52 57 66 59 87 60 54 61 38 62 39 63 47 64 40 65
REMARK SMILES IDX 42 66 48 67 41 68 43 69 44 70 45 71 46 72 70 73 71 74 79 75
REMARK SMILES IDX 72 76 74 77 80 78 73 79 75 80 76 81 77 82 78 83 55 84 56 85
REMARK SMILES IDX 64 86 57 87 59 88 65 89 58 90 60 91 61 92 62 93 63 94
REMARK H PARENT 15 23 85 47 53 58
REMARK Flexibility Score: inf
ROOT
ATOM      1  C   UNL A   1      36.530  20.874  24.678  1.00  0.00     0.202 C 
ENDROOT
BRANCH   1   2
ATOM      2  C   UNL A   1      35.297  21.722  24.827  1.00  0.00     0.261 C 
BRANCH   2   3
ATOM      3  O   UNL A   1      34.258  20.970  25.499  1.00  0.00    -0.462 OA
BRANCH   3   4
ATOM      4  C   UNL A   1      32.944  21.355  25.420  1.00  0.00     0.329 C 
ATOM      5  O   UNL A   1      31.995  20.620  25.205  1.00  0.00    -0.250 OA
BRANCH   4   6
ATOM      6  C   UNL A   1      32.822  22.879  25.440  1.00  0.00     0.198 C 
ATOM      7  N   UNL A   1      31.873  23.333  24.418  1.00  0.00    -0.323 N 
ATOM      8  C   UNL A   1      30.563  23.523  24.997  1.00  0.00     0.152 C 
ATOM      9  C   UNL A   1      30.857  23.918  26.445  1.00  0.00     0.136 C 
ATOM     10  C   UNL A   1      32.224  23.311  26.782  1.00  0.00     0.070 C 
BRANCH   7  11
ATOM     11  C   UNL A   1      32.268  23.442  23.107  1.00  0.00     0.261 C 
ATOM     12  O   UNL A   1      32.810  22.492  22.532  1.00  0.00    -0.271 OA
BRANCH  11  13
ATOM     13  C   UNL A   1      32.165  24.789  22.366  1.00  0.00     0.329 C 
BRANCH  13  14
ATOM     14  O   UNL A   1      32.756  25.971  22.836  1.00  0.00    -0.484 OA
BRANCH  14  15
ATOM     15  C   UNL A   1      32.539  26.527  24.059  1.00  0.00     0.122 A 
ATOM     16  C   UNL A   1      30.116  27.415  23.918  1.00  0.00     0.048 C 
ATOM     17  C   UNL A   1      31.398  27.104  24.630  1.00  0.00    -0.009 A 
ATOM     18  C   UNL A   1      31.468  27.548  25.975  1.00  0.00     0.007 A 
ATOM     19  C   UNL A   1      32.652  27.502  26.707  1.00  0.00     0.001 A 
ATOM     20  C   UNL A   1      33.733  26.524  24.804  1.00  0.00     0.047 A 
ATOM     21  C   UNL A   1      33.800  27.016  26.106  1.00  0.00     0.004 A 
ENDBRANCH  14  15
ENDBRANCH  13  14
ENDBRANCH  11  13
ENDBRANCH   7  11
BRANCH   9  22
ATOM     22  O   UNL A   1      29.848  23.475  27.341  1.00  0.00    -0.391 OA
ATOM     23  H   UNL A   1      30.110  23.683  28.250  1.00  0.00     0.211 HD
ENDBRANCH   9  22
ENDBRANCH   4   6
ENDBRANCH   3   4
ENDBRANCH   2   3
ENDBRANCH   1   2
BRANCH   1  24
ATOM     24  O   UNL A   1      37.426  21.301  25.687  1.00  0.00    -0.374 OA
BRANCH  24  25
ATOM     25  C   UNL A   1      38.774  20.904  25.577  1.00  0.00     0.202 C 
BRANCH  25  26
ATOM     26  C   UNL A   1      39.725  21.796  26.370  1.00  0.00     0.261 C 
BRANCH  26  27
ATOM     27  O   UNL A   1      40.767  21.023  26.995  1.00  0.00    -0.460 OA
BRANCH  27  28
ATOM     28  C   UNL A   1      41.978  21.112  26.373  1.00  0.00     0.338 C 
ATOM     29  O   UNL A   1      42.385  20.285  25.566  1.00  0.00    -0.246 OA
BRANCH  28  30
ATOM     30  C   UNL A   1      42.800  22.188  27.000  1.00  0.00     0.060 A 
ATOM     31  C   UNL A   1      42.704  22.428  28.380  1.00  0.00     0.016 A 
ATOM     32  C   UNL A   1      43.350  23.158  26.167  1.00  0.00     0.016 A 
ATOM     33  C   UNL A   1      42.965  23.708  28.889  1.00  0.00     0.010 A 
ATOM     34  C   UNL A   1      43.447  24.446  26.647  1.00  0.00     0.010 A 
ATOM     35  C   UNL A   1      43.231  24.744  28.006  1.00  0.00    -0.014 A 
BRANCH  35  36
ATOM     36  C   UNL A   1      43.446  26.153  28.347  1.00  0.00     0.031 A 
ATOM     37  C   UNL A   1      42.217  26.984  28.404  1.00  0.00     0.074 A 
ATOM     38  C   UNL A   1      44.592  26.624  28.906  1.00  0.00     0.049 A 
ATOM     39  N   UNL A   1      42.201  28.217  28.758  1.00  0.00    -0.248 NA
ATOM     40  C   UNL A   1      40.881  26.486  28.053  1.00  0.00     0.031 C 
ATOM     41  C   UNL A   1      44.703  27.697  29.903  1.00  0.00     0.029 A 
ATOM     42  N   UNL A   1      45.930  26.219  28.768  1.00  0.00    -0.354 N 
ATOM     43  C   UNL A   1      40.900  28.539  29.050  1.00  0.00     0.074 A 
ATOM     44  C   UNL A   1      40.107  27.491  28.470  1.00  0.00     0.031 C 
ATOM     45  C   UNL A   1      45.992  28.044  30.057  1.00  0.00     0.029 A 
ATOM     46  C   UNL A   1      46.740  27.337  29.039  1.00  0.00     0.049 A 
ATOM     47  H   UNL A   1      46.243  25.318  28.526  1.00  0.00     0.167 HD
ATOM     48  C   UNL A   1      40.685  29.589  29.883  1.00  0.00     0.034 A 
ATOM     49  C   UNL A   1      47.554  27.879  28.091  1.00  0.00     0.034 A 
ATOM     50  C   UNL A   1      41.923  30.380  30.039  1.00  0.00     0.049 A 
ATOM     51  C   UNL A   1      47.143  29.298  27.789  1.00  0.00     0.074 A 
ATOM     52  C   UNL A   1      42.826  30.569  31.070  1.00  0.00     0.029 A 
ATOM     53  N   UNL A   1      42.541  30.879  28.888  1.00  0.00    -0.354 N 
ATOM     54  N   UNL A   1      46.057  29.829  28.280  1.00  0.00    -0.248 NA
ATOM     55  C   UNL A   1      47.888  30.252  26.976  1.00  0.00     0.031 C 
ATOM     56  C   UNL A   1      44.035  31.077  30.500  1.00  0.00     0.029 A 
ATOM     57  C   UNL A   1      43.855  31.249  29.135  1.00  0.00     0.049 A 
ATOM     58  H   UNL A   1      42.100  30.959  28.012  1.00  0.00     0.167 HD
ATOM     59  C   UNL A   1      45.869  31.084  27.805  1.00  0.00     0.074 A 
ATOM     60  C   UNL A   1      47.081  31.330  27.036  1.00  0.00     0.031 C 
ATOM     61  C   UNL A   1      44.707  31.762  28.051  1.00  0.00     0.034 A 
BRANCH  48  62
ATOM     62  C   UNL A   1      39.409  29.836  30.669  1.00  0.00     0.023 A 
ATOM     63  C   UNL A   1      38.988  28.804  31.535  1.00  0.00     0.012 A 
ATOM     64  C   UNL A   1      38.537  30.953  30.565  1.00  0.00     0.148 A 
ATOM     65  C   UNL A   1      37.793  28.875  32.262  1.00  0.00     0.002 A 
ATOM     66  C   UNL A   1      37.380  31.057  31.347  1.00  0.00     0.091 A 
ATOM     67  F   UNL A   1      38.753  31.894  29.641  1.00  0.00    -0.205 F 
ATOM     68  C   UNL A   1      36.998  30.010  32.186  1.00  0.00     0.022 A 
BRANCH  66  69
ATOM     69  S   UNL A   1      36.326  32.524  31.348  1.00  0.00     0.127 S 
ATOM     70  O   UNL A   1      34.985  31.941  31.395  1.00  0.00    -0.237 OA
ATOM     71  O   UNL A   1      36.735  33.201  32.580  1.00  0.00    -0.237 OA
ATOM     72  O   UNL A   1      36.639  33.257  30.128  1.00  0.00    -0.744 OA
ENDBRANCH  66  69
ENDBRANCH  48  62
BRANCH  49  73
ATOM     73  C   UNL A   1      48.123  26.840  27.178  1.00  0.00     0.023 A 
ATOM     74  C   UNL A   1      47.343  26.531  26.031  1.00  0.00     0.012 A 
ATOM     75  C   UNL A   1      49.504  26.574  27.142  1.00  0.00     0.148 A 
ATOM     76  C   UNL A   1      47.942  26.124  24.836  1.00  0.00     0.002 A 
ATOM     77  C   UNL A   1      50.097  26.181  25.939  1.00  0.00     0.091 A 
ATOM     78  F   UNL A   1      50.222  26.782  28.253  1.00  0.00    -0.205 F 
ATOM     79  C   UNL A   1      49.324  25.998  24.779  1.00  0.00     0.022 A 
BRANCH  77  80
ATOM     80  S   UNL A   1      51.879  26.038  25.740  1.00  0.00     0.127 S 
ATOM     81  O   UNL A   1      52.358  27.143  26.568  1.00  0.00    -0.237 OA
ATOM     82  O   UNL A   1      52.146  24.707  26.291  1.00  0.00    -0.237 OA
ATOM     83  O   UNL A   1      52.128  26.161  24.313  1.00  0.00    -0.744 OA
ENDBRANCH  77  80
ENDBRANCH  49  73
BRANCH  61  84
ATOM     84  C   UNL A   1      44.269  32.978  27.263  1.00  0.00     0.023 A 
ATOM     85  C   UNL A   1      44.094  32.938  25.866  1.00  0.00     0.012 A 
ATOM     86  C   UNL A   1      43.862  34.164  27.921  1.00  0.00     0.148 A 
ATOM     87  C   UNL A   1      43.628  34.041  25.144  1.00  0.00     0.002 A 
ATOM     88  C   UNL A   1      43.271  35.205  27.215  1.00  0.00     0.091 A 
ATOM     89  F   UNL A   1      44.059  34.303  29.240  1.00  0.00    -0.205 F 
ATOM     90  C   UNL A   1      43.193  35.167  25.822  1.00  0.00     0.022 A 
BRANCH  88  91
ATOM     91  S   UNL A   1      42.434  36.547  28.069  1.00  0.00     0.127 S 
ATOM     92  O   UNL A   1      41.826  37.276  26.959  1.00  0.00    -0.237 OA
ATOM     93  O   UNL A   1      41.484  35.827  28.920  1.00  0.00    -0.237 OA
ATOM     94  O   UNL A   1      43.479  37.246  28.802  1.00  0.00    -0.744 OA
ENDBRANCH  88  91
ENDBRANCH  61  84
ENDBRANCH  35  36
ENDBRANCH  28  30
ENDBRANCH  27  28
ENDBRANCH  26  27
ENDBRANCH  25  26
ENDBRANCH  24  25
ENDBRANCH   1  24
TORSDOF 22
ENDMDL
