MODEL 1
REMARK VINA RESULT:     -10.7      0.000      0.000
REMARK SMILES C[C@@](O)(CNC(=O)CC1([NH3+])CCC1)C(=O)OCCOCCOC(=O)c1ccc(-c2c3nc(c(-c4cccc(S(=O)(=O)[O-])c4F)c4ccc([nH]4)c(-c4cccc(S(=O)(=O)[O-])c4F)c4nc(c(-c5cccc(S(=O)(=O)[O-])c5F)c5ccc2[nH]5)C=C4)C=C3)cc1
REMARK SMILES IDX 18 1 17 2 16 3 14 4 15 5 2 6 1 7 3 8 4 10 5 11 6 12 7 14
REMARK SMILES IDX 8 15 9 16 11 17 13 18 12 19 10 20 19 24 20 25 21 26 22 27
REMARK SMILES IDX 23 28 24 29 25 30 26 31 87 32 27 33 86 34 28 35 29 36 30 37
REMARK SMILES IDX 80 38 31 39 85 40 79 41 81 42 32 43 84 44 78 45 77 46 33 48
REMARK SMILES IDX 65 49 45 50 64 51 46 52 49 53 63 54 82 55 47 56 48 57 62 59
REMARK SMILES IDX 83 60 50 61 34 62 35 63 43 64 36 65 38 66 44 67 37 68 39 69
REMARK SMILES IDX 40 70 41 71 42 72 66 73 67 74 75 75 68 76 70 77 76 78 69 79
REMARK SMILES IDX 71 80 72 81 73 82 74 83 51 84 52 85 60 86 53 87 55 88 61 89
REMARK SMILES IDX 54 90 56 91 57 92 58 93 59 94
REMARK H PARENT 3 9 5 13 10 21 10 22 10 23 81 47 49 58
REMARK Flexibility Score: inf
ROOT
ATOM      1  C   UNL A   1      34.116  27.439  25.653  1.00  0.00     0.202 C 
ENDROOT
BRANCH   1   2
ATOM      2  C   UNL A   1      33.321  26.475  24.750  1.00  0.00     0.261 C 
BRANCH   2   3
ATOM      3  O   UNL A   1      32.995  25.205  25.366  1.00  0.00    -0.461 OA
BRANCH   3   4
ATOM      4  C   UNL A   1      31.773  25.102  25.947  1.00  0.00     0.339 C 
ATOM      5  O   UNL A   1      31.418  25.802  26.892  1.00  0.00    -0.249 OA
BRANCH   4   6
ATOM      6  C   UNL A   1      30.907  23.927  25.416  1.00  0.00     0.176 C 
ATOM      7  C   UNL A   1      30.498  24.258  23.975  1.00  0.00     0.057 C 
BRANCH   6   8
ATOM      8  O   UNL A   1      29.689  23.882  26.193  1.00  0.00    -0.377 OA
ATOM      9  H   UNL A   1      29.511  24.760  26.567  1.00  0.00     0.212 HD
ENDBRANCH   6   8
BRANCH   6  10
ATOM     10  C   UNL A   1      31.504  22.497  25.473  1.00  0.00     0.162 C 
BRANCH  10  11
ATOM     11  N   UNL A   1      32.400  22.151  26.563  1.00  0.00    -0.352 N 
ATOM     12  C   UNL A   1      33.519  21.369  26.553  1.00  0.00     0.226 C 
ATOM     13  H   UNL A   1      32.166  22.538  27.438  1.00  0.00     0.163 HD
ATOM     14  O   UNL A   1      34.188  21.372  27.595  1.00  0.00    -0.275 OA
BRANCH  12  15
ATOM     15  C   UNL A   1      34.010  20.578  25.336  1.00  0.00     0.168 C 
BRANCH  15  16
ATOM     16  C   UNL A   1      33.452  19.187  25.060  1.00  0.00     0.103 C 
ATOM     17  C   UNL A   1      32.482  19.007  23.848  1.00  0.00     0.069 C 
ATOM     18  C   UNL A   1      34.306  18.061  24.389  1.00  0.00     0.069 C 
ATOM     19  C   UNL A   1      33.053  17.601  23.625  1.00  0.00     0.013 C 
BRANCH  16  20
ATOM     20  N   UNL A   1      32.910  18.572  26.264  1.00  0.00    -0.352 N 
ATOM     21  H   UNL A   1      32.730  19.293  26.962  1.00  0.00     0.344 HD
ATOM     22  H   UNL A   1      33.583  17.901  26.635  1.00  0.00     0.344 HD
ATOM     23  H   UNL A   1      32.040  18.091  26.038  1.00  0.00     0.344 HD
ENDBRANCH  16  20
ENDBRANCH  15  16
ENDBRANCH  12  15
ENDBRANCH  10  11
ENDBRANCH   6  10
ENDBRANCH   4   6
ENDBRANCH   3   4
ENDBRANCH   2   3
ENDBRANCH   1   2
BRANCH   1  24
ATOM     24  O   UNL A   1      33.763  28.816  25.519  1.00  0.00    -0.374 OA
BRANCH  24  25
ATOM     25  C   UNL A   1      32.371  29.113  25.639  1.00  0.00     0.202 C 
BRANCH  25  26
ATOM     26  C   UNL A   1      32.071  30.503  26.196  1.00  0.00     0.261 C 
BRANCH  26  27
ATOM     27  O   UNL A   1      32.692  30.679  27.483  1.00  0.00    -0.460 OA
BRANCH  27  28
ATOM     28  C   UNL A   1      33.445  31.794  27.614  1.00  0.00     0.338 C 
ATOM     29  O   UNL A   1      33.059  32.952  27.607  1.00  0.00    -0.246 OA
BRANCH  28  30
ATOM     30  C   UNL A   1      34.840  31.412  27.908  1.00  0.00     0.060 A 
ATOM     31  C   UNL A   1      35.089  30.079  28.247  1.00  0.00     0.016 A 
ATOM     32  C   UNL A   1      35.886  32.341  27.895  1.00  0.00     0.016 A 
ATOM     33  C   UNL A   1      36.371  29.680  28.624  1.00  0.00     0.010 A 
ATOM     34  C   UNL A   1      37.179  31.928  28.249  1.00  0.00     0.010 A 
ATOM     35  C   UNL A   1      37.424  30.605  28.661  1.00  0.00    -0.014 A 
BRANCH  35  36
ATOM     36  C   UNL A   1      38.713  30.214  29.300  1.00  0.00     0.031 A 
ATOM     37  C   UNL A   1      39.027  30.739  30.681  1.00  0.00     0.074 A 
ATOM     38  C   UNL A   1      39.568  29.354  28.710  1.00  0.00     0.049 A 
ATOM     39  N   UNL A   1      40.001  30.408  31.488  1.00  0.00    -0.248 NA
ATOM     40  C   UNL A   1      38.137  31.783  31.218  1.00  0.00     0.031 C 
ATOM     41  C   UNL A   1      39.438  28.812  27.357  1.00  0.00     0.029 A 
ATOM     42  N   UNL A   1      40.723  28.779  29.186  1.00  0.00    -0.354 N 
ATOM     43  C   UNL A   1      39.849  31.213  32.612  1.00  0.00     0.074 A 
ATOM     44  C   UNL A   1      38.731  32.089  32.359  1.00  0.00     0.031 C 
ATOM     45  C   UNL A   1      40.462  27.971  27.120  1.00  0.00     0.029 A 
ATOM     46  C   UNL A   1      41.318  27.907  28.303  1.00  0.00     0.049 A 
ATOM     47  H   UNL A   1      41.092  28.975  30.078  1.00  0.00     0.167 HD
ATOM     48  C   UNL A   1      40.536  31.195  33.778  1.00  0.00     0.034 A 
ATOM     49  C   UNL A   1      42.409  27.124  28.445  1.00  0.00     0.034 A 
ATOM     50  C   UNL A   1      41.611  30.294  34.069  1.00  0.00     0.049 A 
ATOM     51  C   UNL A   1      43.126  27.083  29.774  1.00  0.00     0.074 A 
ATOM     52  C   UNL A   1      42.329  30.160  35.245  1.00  0.00     0.029 A 
ATOM     53  N   UNL A   1      42.123  29.366  33.177  1.00  0.00    -0.354 N 
ATOM     54  N   UNL A   1      42.850  27.719  30.886  1.00  0.00    -0.248 NA
ATOM     55  C   UNL A   1      44.275  26.168  29.883  1.00  0.00     0.031 C 
ATOM     56  C   UNL A   1      43.280  29.151  35.060  1.00  0.00     0.029 A 
ATOM     57  C   UNL A   1      43.142  28.650  33.775  1.00  0.00     0.049 A 
ATOM     58  H   UNL A   1      41.807  29.237  32.254  1.00  0.00     0.167 HD
ATOM     59  C   UNL A   1      43.750  27.242  31.835  1.00  0.00     0.074 A 
ATOM     60  C   UNL A   1      44.572  26.252  31.173  1.00  0.00     0.031 C 
ATOM     61  C   UNL A   1      43.893  27.603  33.135  1.00  0.00     0.034 A 
BRANCH  48  62
ATOM     62  C   UNL A   1      40.083  32.147  34.851  1.00  0.00     0.023 A 
ATOM     63  C   UNL A   1      40.583  33.466  34.860  1.00  0.00     0.012 A 
ATOM     64  C   UNL A   1      39.163  31.747  35.839  1.00  0.00     0.148 A 
ATOM     65  C   UNL A   1      40.208  34.361  35.859  1.00  0.00     0.002 A 
ATOM     66  C   UNL A   1      38.760  32.659  36.806  1.00  0.00     0.091 A 
ATOM     67  F   UNL A   1      38.721  30.481  35.828  1.00  0.00    -0.205 F 
ATOM     68  C   UNL A   1      39.291  33.960  36.826  1.00  0.00     0.022 A 
BRANCH  66  69
ATOM     69  S   UNL A   1      37.529  32.263  38.051  1.00  0.00     0.127 S 
ATOM     70  O   UNL A   1      37.384  30.818  37.874  1.00  0.00    -0.237 OA
ATOM     71  O   UNL A   1      38.203  32.661  39.288  1.00  0.00    -0.237 OA
ATOM     72  O   UNL A   1      36.354  33.056  37.719  1.00  0.00    -0.744 OA
ENDBRANCH  66  69
ENDBRANCH  48  62
BRANCH  49  73
ATOM     73  C   UNL A   1      42.846  26.224  27.337  1.00  0.00     0.023 A 
ATOM     74  C   UNL A   1      43.691  26.730  26.328  1.00  0.00     0.012 A 
ATOM     75  C   UNL A   1      42.408  24.889  27.258  1.00  0.00     0.148 A 
ATOM     76  C   UNL A   1      44.052  25.939  25.236  1.00  0.00     0.002 A 
ATOM     77  C   UNL A   1      42.812  24.090  26.192  1.00  0.00     0.091 A 
ATOM     78  F   UNL A   1      41.594  24.429  28.217  1.00  0.00    -0.205 F 
ATOM     79  C   UNL A   1      43.617  24.618  25.171  1.00  0.00     0.022 A 
BRANCH  77  80
ATOM     80  S   UNL A   1      42.390  22.347  26.081  1.00  0.00     0.127 S 
ATOM     81  O   UNL A   1      40.932  22.395  26.010  1.00  0.00    -0.237 OA
ATOM     82  O   UNL A   1      43.056  21.954  24.838  1.00  0.00    -0.237 OA
ATOM     83  O   UNL A   1      42.949  21.735  27.279  1.00  0.00    -0.744 OA
ENDBRANCH  77  80
ENDBRANCH  49  73
BRANCH  61  84
ATOM     84  C   UNL A   1      44.930  26.888  33.964  1.00  0.00     0.023 A 
ATOM     85  C   UNL A   1      46.257  27.357  33.987  1.00  0.00     0.012 A 
ATOM     86  C   UNL A   1      44.564  25.810  34.794  1.00  0.00     0.148 A 
ATOM     87  C   UNL A   1      47.211  26.745  34.799  1.00  0.00     0.002 A 
ATOM     88  C   UNL A   1      45.508  25.236  35.637  1.00  0.00     0.091 A 
ATOM     89  F   UNL A   1      43.301  25.361  34.745  1.00  0.00    -0.205 F 
ATOM     90  C   UNL A   1      46.835  25.694  35.634  1.00  0.00     0.022 A 
BRANCH  88  91
ATOM     91  S   UNL A   1      45.073  23.949  36.813  1.00  0.00     0.127 S 
ATOM     92  O   UNL A   1      44.040  24.607  37.610  1.00  0.00    -0.237 OA
ATOM     93  O   UNL A   1      44.580  22.878  35.944  1.00  0.00    -0.237 OA
ATOM     94  O   UNL A   1      46.306  23.627  37.517  1.00  0.00    -0.744 OA
ENDBRANCH  88  91
ENDBRANCH  61  84
ENDBRANCH  35  36
ENDBRANCH  28  30
ENDBRANCH  27  28
ENDBRANCH  26  27
ENDBRANCH  25  26
ENDBRANCH  24  25
ENDBRANCH   1  24
TORSDOF 23
ENDMDL
MODEL 2
REMARK VINA RESULT:     -10.5      2.805      4.424
REMARK SMILES C[C@@](O)(CNC(=O)CC1([NH3+])CCC1)C(=O)OCCOCCOC(=O)c1ccc(-c2c3nc(c(-c4cccc(S(=O)(=O)[O-])c4F)c4ccc([nH]4)c(-c4cccc(S(=O)(=O)[O-])c4F)c4nc(c(-c5cccc(S(=O)(=O)[O-])c5F)c5ccc2[nH]5)C=C4)C=C3)cc1
REMARK SMILES IDX 18 1 17 2 16 3 14 4 15 5 2 6 1 7 3 8 4 10 5 11 6 12 7 14
REMARK SMILES IDX 8 15 9 16 11 17 13 18 12 19 10 20 19 24 20 25 21 26 22 27
REMARK SMILES IDX 23 28 24 29 25 30 26 31 87 32 27 33 86 34 28 35 29 36 30 37
REMARK SMILES IDX 80 38 31 39 85 40 79 41 81 42 32 43 84 44 78 45 77 46 33 48
REMARK SMILES IDX 65 49 45 50 64 51 46 52 49 53 63 54 82 55 47 56 48 57 62 59
REMARK SMILES IDX 83 60 50 61 34 62 35 63 43 64 36 65 38 66 44 67 37 68 39 69
REMARK SMILES IDX 40 70 41 71 42 72 66 73 67 74 75 75 68 76 70 77 76 78 69 79
REMARK SMILES IDX 71 80 72 81 73 82 74 83 51 84 52 85 60 86 53 87 55 88 61 89
REMARK SMILES IDX 54 90 56 91 57 92 58 93 59 94
REMARK H PARENT 3 9 5 13 10 21 10 22 10 23 81 47 49 58
REMARK Flexibility Score: inf
ROOT
ATOM      1  C   UNL A   1      32.114  26.147  26.362  1.00  0.00     0.202 C 
ENDROOT
BRANCH   1   2
ATOM      2  C   UNL A   1      33.590  26.525  26.124  1.00  0.00     0.261 C 
BRANCH   2   3
ATOM      3  O   UNL A   1      34.108  26.140  24.828  1.00  0.00    -0.461 OA
BRANCH   3   4
ATOM      4  C   UNL A   1      33.421  26.572  23.741  1.00  0.00     0.339 C 
ATOM      5  O   UNL A   1      32.869  25.812  22.949  1.00  0.00    -0.249 OA
BRANCH   4   6
ATOM      6  C   UNL A   1      33.507  28.103  23.493  1.00  0.00     0.176 C 
ATOM      7  C   UNL A   1      34.146  28.321  22.115  1.00  0.00     0.057 C 
BRANCH   6   8
ATOM      8  O   UNL A   1      34.416  28.664  24.465  1.00  0.00    -0.377 OA
ATOM      9  H   UNL A   1      34.852  29.445  24.089  1.00  0.00     0.212 HD
ENDBRANCH   6   8
BRANCH   6  10
ATOM     10  C   UNL A   1      32.202  28.933  23.598  1.00  0.00     0.162 C 
BRANCH  10  11
ATOM     11  N   UNL A   1      30.938  28.238  23.773  1.00  0.00    -0.352 N 
ATOM     12  C   UNL A   1      29.765  28.383  23.089  1.00  0.00     0.226 C 
ATOM     13  H   UNL A   1      30.926  27.564  24.490  1.00  0.00     0.163 HD
ATOM     14  O   UNL A   1      28.888  27.546  23.341  1.00  0.00    -0.275 OA
BRANCH  12  15
ATOM     15  C   UNL A   1      29.518  29.443  22.011  1.00  0.00     0.168 C 
BRANCH  15  16
ATOM     16  C   UNL A   1      28.571  30.605  22.292  1.00  0.00     0.103 C 
ATOM     17  C   UNL A   1      28.926  31.578  23.463  1.00  0.00     0.069 C 
ATOM     18  C   UNL A   1      28.533  31.888  21.398  1.00  0.00     0.069 C 
ATOM     19  C   UNL A   1      28.308  32.733  22.664  1.00  0.00     0.013 C 
BRANCH  16  20
ATOM     20  N   UNL A   1      27.185  30.167  22.372  1.00  0.00    -0.352 N 
ATOM     21  H   UNL A   1      26.647  30.606  21.625  1.00  0.00     0.344 HD
ATOM     22  H   UNL A   1      26.795  30.437  23.275  1.00  0.00     0.344 HD
ATOM     23  H   UNL A   1      27.142  29.153  22.272  1.00  0.00     0.344 HD
ENDBRANCH  16  20
ENDBRANCH  15  16
ENDBRANCH  12  15
ENDBRANCH  10  11
ENDBRANCH   6  10
ENDBRANCH   4   6
ENDBRANCH   3   4
ENDBRANCH   2   3
ENDBRANCH   1   2
BRANCH   1  24
ATOM     24  O   UNL A   1      31.257  27.244  26.681  1.00  0.00    -0.374 OA
BRANCH  24  25
ATOM     25  C   UNL A   1      31.802  28.216  27.575  1.00  0.00     0.202 C 
BRANCH  25  26
ATOM     26  C   UNL A   1      31.742  29.651  27.055  1.00  0.00     0.261 C 
BRANCH  26  27
ATOM     27  O   UNL A   1      33.052  30.104  26.665  1.00  0.00    -0.460 OA
BRANCH  27  28
ATOM     28  C   UNL A   1      33.510  31.189  27.329  1.00  0.00     0.338 C 
ATOM     29  O   UNL A   1      32.868  32.168  27.675  1.00  0.00    -0.246 OA
BRANCH  28  30
ATOM     30  C   UNL A   1      34.919  30.973  27.712  1.00  0.00     0.060 A 
ATOM     31  C   UNL A   1      35.357  29.652  27.847  1.00  0.00     0.016 A 
ATOM     32  C   UNL A   1      35.791  32.033  27.976  1.00  0.00     0.016 A 
ATOM     33  C   UNL A   1      36.651  29.386  28.295  1.00  0.00     0.010 A 
ATOM     34  C   UNL A   1      37.100  31.760  28.400  1.00  0.00     0.010 A 
ATOM     35  C   UNL A   1      37.527  30.435  28.607  1.00  0.00    -0.014 A 
BRANCH  35  36
ATOM     36  C   UNL A   1      38.803  30.129  29.315  1.00  0.00     0.031 A 
ATOM     37  C   UNL A   1      38.972  30.593  30.743  1.00  0.00     0.074 A 
ATOM     38  C   UNL A   1      39.777  29.396  28.740  1.00  0.00     0.049 A 
ATOM     39  N   UNL A   1      39.919  30.306  31.597  1.00  0.00    -0.248 NA
ATOM     40  C   UNL A   1      37.948  31.510  31.273  1.00  0.00     0.031 C 
ATOM     41  C   UNL A   1      39.792  28.931  27.352  1.00  0.00     0.029 A 
ATOM     42  N   UNL A   1      40.951  28.905  29.264  1.00  0.00    -0.354 N 
ATOM     43  C   UNL A   1      39.613  31.019  32.752  1.00  0.00     0.074 A 
ATOM     44  C   UNL A   1      38.431  31.798  32.469  1.00  0.00     0.031 C 
ATOM     45  C   UNL A   1      40.909  28.209  27.142  1.00  0.00     0.029 A 
ATOM     46  C   UNL A   1      41.687  28.152  28.378  1.00  0.00     0.049 A 
ATOM     47  H   UNL A   1      41.238  29.077  30.190  1.00  0.00     0.167 HD
ATOM     48  C   UNL A   1      40.219  30.993  33.961  1.00  0.00     0.034 A 
ATOM     49  C   UNL A   1      42.839  27.470  28.553  1.00  0.00     0.034 A 
ATOM     50  C   UNL A   1      41.357  30.182  34.277  1.00  0.00     0.049 A 
ATOM     51  C   UNL A   1      43.467  27.413  29.926  1.00  0.00     0.074 A 
ATOM     52  C   UNL A   1      42.006  30.042  35.492  1.00  0.00     0.029 A 
ATOM     53  N   UNL A   1      42.018  29.367  33.372  1.00  0.00    -0.354 N 
ATOM     54  N   UNL A   1      43.056  27.947  31.049  1.00  0.00    -0.248 NA
ATOM     55  C   UNL A   1      44.692  26.607  30.065  1.00  0.00     0.031 C 
ATOM     56  C   UNL A   1      43.064  29.143  35.318  1.00  0.00     0.029 A 
ATOM     57  C   UNL A   1      43.062  28.715  34.001  1.00  0.00     0.049 A 
ATOM     58  H   UNL A   1      41.778  29.268  32.423  1.00  0.00     0.167 HD
ATOM     59  C   UNL A   1      43.934  27.499  32.032  1.00  0.00     0.074 A 
ATOM     60  C   UNL A   1      44.893  26.637  31.375  1.00  0.00     0.031 C 
ATOM     61  C   UNL A   1      43.955  27.788  33.357  1.00  0.00     0.034 A 
BRANCH  48  62
ATOM     62  C   UNL A   1      39.603  31.825  35.052  1.00  0.00     0.023 A 
ATOM     63  C   UNL A   1      38.579  31.270  35.849  1.00  0.00     0.012 A 
ATOM     64  C   UNL A   1      40.036  33.141  35.297  1.00  0.00     0.148 A 
ATOM     65  C   UNL A   1      37.966  32.027  36.845  1.00  0.00     0.002 A 
ATOM     66  C   UNL A   1      39.450  33.874  36.322  1.00  0.00     0.091 A 
ATOM     67  F   UNL A   1      40.991  33.659  34.510  1.00  0.00    -0.205 F 
ATOM     68  C   UNL A   1      38.408  33.324  37.087  1.00  0.00     0.022 A 
BRANCH  66  69
ATOM     69  S   UNL A   1      39.997  35.528  36.759  1.00  0.00     0.127 S 
ATOM     70  O   UNL A   1      41.439  35.334  36.904  1.00  0.00    -0.237 OA
ATOM     71  O   UNL A   1      39.601  36.304  35.583  1.00  0.00    -0.237 OA
ATOM     72  O   UNL A   1      39.285  35.874  37.980  1.00  0.00    -0.744 OA
ENDBRANCH  66  69
ENDBRANCH  48  62
BRANCH  49  73
ATOM     73  C   UNL A   1      43.436  26.689  27.430  1.00  0.00     0.023 A 
ATOM     74  C   UNL A   1      44.289  27.337  26.513  1.00  0.00     0.012 A 
ATOM     75  C   UNL A   1      43.142  25.325  27.244  1.00  0.00     0.148 A 
ATOM     76  C   UNL A   1      44.799  26.656  25.407  1.00  0.00     0.002 A 
ATOM     77  C   UNL A   1      43.693  24.638  26.166  1.00  0.00     0.091 A 
ATOM     78  F   UNL A   1      42.318  24.729  28.115  1.00  0.00    -0.205 F 
ATOM     79  C   UNL A   1      44.506  25.306  25.236  1.00  0.00     0.022 A 
BRANCH  77  80
ATOM     80  S   UNL A   1      43.459  22.874  25.926  1.00  0.00     0.127 S 
ATOM     81  O   UNL A   1      43.145  22.803  24.502  1.00  0.00    -0.237 OA
ATOM     82  O   UNL A   1      44.771  22.341  26.296  1.00  0.00    -0.237 OA
ATOM     83  O   UNL A   1      42.383  22.497  26.834  1.00  0.00    -0.744 OA
ENDBRANCH  77  80
ENDBRANCH  49  73
BRANCH  61  84
ATOM     84  C   UNL A   1      45.001  27.124  34.216  1.00  0.00     0.023 A 
ATOM     85  C   UNL A   1      46.251  27.743  34.405  1.00  0.00     0.012 A 
ATOM     86  C   UNL A   1      44.706  25.936  34.913  1.00  0.00     0.148 A 
ATOM     87  C   UNL A   1      47.204  27.172  35.249  1.00  0.00     0.002 A 
ATOM     88  C   UNL A   1      45.642  25.399  35.789  1.00  0.00     0.091 A 
ATOM     89  F   UNL A   1      43.518  25.347  34.707  1.00  0.00    -0.205 F 
ATOM     90  C   UNL A   1      46.895  26.009  35.951  1.00  0.00     0.022 A 
BRANCH  88  91
ATOM     91  S   UNL A   1      45.276  23.962  36.805  1.00  0.00     0.127 S 
ATOM     92  O   UNL A   1      44.382  24.527  37.814  1.00  0.00    -0.237 OA
ATOM     93  O   UNL A   1      44.626  23.058  35.854  1.00  0.00    -0.237 OA
ATOM     94  O   UNL A   1      46.564  23.488  37.293  1.00  0.00    -0.744 OA
ENDBRANCH  88  91
ENDBRANCH  61  84
ENDBRANCH  35  36
ENDBRANCH  28  30
ENDBRANCH  27  28
ENDBRANCH  26  27
ENDBRANCH  25  26
ENDBRANCH  24  25
ENDBRANCH   1  24
TORSDOF 23
ENDMDL
MODEL 3
REMARK VINA RESULT:      -9.8      2.638      4.360
REMARK SMILES C[C@@](O)(CNC(=O)CC1([NH3+])CCC1)C(=O)OCCOCCOC(=O)c1ccc(-c2c3nc(c(-c4cccc(S(=O)(=O)[O-])c4F)c4ccc([nH]4)c(-c4cccc(S(=O)(=O)[O-])c4F)c4nc(c(-c5cccc(S(=O)(=O)[O-])c5F)c5ccc2[nH]5)C=C4)C=C3)cc1
REMARK SMILES IDX 18 1 17 2 16 3 14 4 15 5 2 6 1 7 3 8 4 10 5 11 6 12 7 14
REMARK SMILES IDX 8 15 9 16 11 17 13 18 12 19 10 20 19 24 20 25 21 26 22 27
REMARK SMILES IDX 23 28 24 29 25 30 26 31 87 32 27 33 86 34 28 35 29 36 30 37
REMARK SMILES IDX 80 38 31 39 85 40 79 41 81 42 32 43 84 44 78 45 77 46 33 48
REMARK SMILES IDX 65 49 45 50 64 51 46 52 49 53 63 54 82 55 47 56 48 57 62 59
REMARK SMILES IDX 83 60 50 61 34 62 35 63 43 64 36 65 38 66 44 67 37 68 39 69
REMARK SMILES IDX 40 70 41 71 42 72 66 73 67 74 75 75 68 76 70 77 76 78 69 79
REMARK SMILES IDX 71 80 72 81 73 82 74 83 51 84 52 85 60 86 53 87 55 88 61 89
REMARK SMILES IDX 54 90 56 91 57 92 58 93 59 94
REMARK H PARENT 3 9 5 13 10 21 10 22 10 23 81 47 49 58
REMARK Flexibility Score: inf
ROOT
ATOM      1  C   UNL A   1      31.510  26.044  26.083  1.00  0.00     0.202 C 
ENDROOT
BRANCH   1   2
ATOM      2  C   UNL A   1      32.988  25.673  25.844  1.00  0.00     0.261 C 
BRANCH   2   3
ATOM      3  O   UNL A   1      33.272  25.159  24.520  1.00  0.00    -0.461 OA
BRANCH   3   4
ATOM      4  C   UNL A   1      32.272  25.234  23.606  1.00  0.00     0.339 C 
ATOM      5  O   UNL A   1      31.367  24.408  23.532  1.00  0.00    -0.249 OA
BRANCH   4   6
ATOM      6  C   UNL A   1      32.441  26.372  22.562  1.00  0.00     0.176 C 
ATOM      7  C   UNL A   1      32.694  25.723  21.195  1.00  0.00     0.057 C 
BRANCH   6   8
ATOM      8  O   UNL A   1      33.634  27.114  22.897  1.00  0.00    -0.377 OA
ATOM      9  H   UNL A   1      33.811  27.772  22.206  1.00  0.00     0.212 HD
ENDBRANCH   6   8
BRANCH   6  10
ATOM     10  C   UNL A   1      31.305  27.421  22.438  1.00  0.00     0.162 C 
BRANCH  10  11
ATOM     11  N   UNL A   1      30.076  27.219  23.186  1.00  0.00    -0.352 N 
ATOM     12  C   UNL A   1      28.902  27.915  23.132  1.00  0.00     0.226 C 
ATOM     13  H   UNL A   1      30.091  26.470  23.824  1.00  0.00     0.163 HD
ATOM     14  O   UNL A   1      27.957  27.427  23.766  1.00  0.00    -0.275 OA
BRANCH  12  15
ATOM     15  C   UNL A   1      28.685  29.181  22.297  1.00  0.00     0.168 C 
BRANCH  15  16
ATOM     16  C   UNL A   1      28.885  30.553  22.933  1.00  0.00     0.103 C 
ATOM     17  C   UNL A   1      29.002  31.794  21.989  1.00  0.00     0.069 C 
ATOM     18  C   UNL A   1      27.718  31.335  23.619  1.00  0.00     0.069 C 
ATOM     19  C   UNL A   1      28.295  32.644  23.053  1.00  0.00     0.013 C 
BRANCH  16  20
ATOM     20  N   UNL A   1      29.955  30.541  23.922  1.00  0.00    -0.352 N 
ATOM     21  H   UNL A   1      30.828  30.267  23.473  1.00  0.00     0.344 HD
ATOM     22  H   UNL A   1      29.728  29.875  24.660  1.00  0.00     0.344 HD
ATOM     23  H   UNL A   1      30.056  31.473  24.323  1.00  0.00     0.344 HD
ENDBRANCH  16  20
ENDBRANCH  15  16
ENDBRANCH  12  15
ENDBRANCH  10  11
ENDBRANCH   6  10
ENDBRANCH   4   6
ENDBRANCH   3   4
ENDBRANCH   2   3
ENDBRANCH   1   2
BRANCH   1  24
ATOM     24  O   UNL A   1      31.256  27.443  26.216  1.00  0.00    -0.374 OA
BRANCH  24  25
ATOM     25  C   UNL A   1      32.128  28.150  27.101  1.00  0.00     0.202 C 
BRANCH  25  26
ATOM     26  C   UNL A   1      32.011  29.671  27.014  1.00  0.00     0.261 C 
BRANCH  26  27
ATOM     27  O   UNL A   1      33.262  30.252  26.602  1.00  0.00    -0.460 OA
BRANCH  27  28
ATOM     28  C   UNL A   1      33.733  31.235  27.403  1.00  0.00     0.338 C 
ATOM     29  O   UNL A   1      33.108  32.177  27.863  1.00  0.00    -0.246 OA
BRANCH  28  30
ATOM     30  C   UNL A   1      35.132  30.940  27.770  1.00  0.00     0.060 A 
ATOM     31  C   UNL A   1      35.486  29.599  27.949  1.00  0.00     0.016 A 
ATOM     32  C   UNL A   1      36.078  31.949  27.976  1.00  0.00     0.016 A 
ATOM     33  C   UNL A   1      36.767  29.265  28.386  1.00  0.00     0.010 A 
ATOM     34  C   UNL A   1      37.374  31.606  28.388  1.00  0.00     0.010 A 
ATOM     35  C   UNL A   1      37.717  30.265  28.641  1.00  0.00    -0.014 A 
BRANCH  35  36
ATOM     36  C   UNL A   1      38.984  29.902  29.338  1.00  0.00     0.031 A 
ATOM     37  C   UNL A   1      39.232  30.448  30.725  1.00  0.00     0.074 A 
ATOM     38  C   UNL A   1      39.876  29.051  28.794  1.00  0.00     0.049 A 
ATOM     39  N   UNL A   1      40.177  30.142  31.575  1.00  0.00    -0.248 NA
ATOM     40  C   UNL A   1      38.304  31.483  31.212  1.00  0.00     0.031 C 
ATOM     41  C   UNL A   1      39.811  28.492  27.443  1.00  0.00     0.029 A 
ATOM     42  N   UNL A   1      41.021  28.501  29.324  1.00  0.00    -0.354 N 
ATOM     43  C   UNL A   1      39.965  30.956  32.682  1.00  0.00     0.074 A 
ATOM     44  C   UNL A   1      38.844  31.811  32.373  1.00  0.00     0.031 C 
ATOM     45  C   UNL A   1      40.859  27.666  27.259  1.00  0.00     0.029 A 
ATOM     46  C   UNL A   1      41.665  27.629  28.477  1.00  0.00     0.049 A 
ATOM     47  H   UNL A   1      41.348  28.712  30.228  1.00  0.00     0.167 HD
ATOM     48  C   UNL A   1      40.603  30.963  33.876  1.00  0.00     0.034 A 
ATOM     49  C   UNL A   1      42.762  26.866  28.673  1.00  0.00     0.034 A 
ATOM     50  C   UNL A   1      41.679  30.083  34.221  1.00  0.00     0.049 A 
ATOM     51  C   UNL A   1      43.424  26.851  30.031  1.00  0.00     0.074 A 
ATOM     52  C   UNL A   1      42.350  29.974  35.427  1.00  0.00     0.029 A 
ATOM     53  N   UNL A   1      42.243  29.155  33.362  1.00  0.00    -0.354 N 
ATOM     54  N   UNL A   1      43.092  27.495  31.122  1.00  0.00    -0.248 NA
ATOM     55  C   UNL A   1      44.582  25.956  30.198  1.00  0.00     0.031 C 
ATOM     56  C   UNL A   1      43.324  28.979  35.294  1.00  0.00     0.029 A 
ATOM     57  C   UNL A   1      43.248  28.462  34.011  1.00  0.00     0.049 A 
ATOM     58  H   UNL A   1      41.968  29.010  32.428  1.00  0.00     0.167 HD
ATOM     59  C   UNL A   1      43.959  27.043  32.114  1.00  0.00     0.074 A 
ATOM     60  C   UNL A   1      44.823  26.060  31.498  1.00  0.00     0.031 C 
ATOM     61  C   UNL A   1      44.042  27.420  33.414  1.00  0.00     0.034 A 
BRANCH  48  62
ATOM     62  C   UNL A   1      40.090  31.918  34.918  1.00  0.00     0.023 A 
ATOM     63  C   UNL A   1      40.481  33.274  34.864  1.00  0.00     0.012 A 
ATOM     64  C   UNL A   1      39.222  31.487  35.938  1.00  0.00     0.148 A 
ATOM     65  C   UNL A   1      40.050  34.176  35.834  1.00  0.00     0.002 A 
ATOM     66  C   UNL A   1      38.760  32.403  36.875  1.00  0.00     0.091 A 
ATOM     67  F   UNL A   1      38.885  30.190  35.987  1.00  0.00    -0.205 F 
ATOM     68  C   UNL A   1      39.183  33.743  36.833  1.00  0.00     0.022 A 
BRANCH  66  69
ATOM     69  S   UNL A   1      37.585  31.960  38.159  1.00  0.00     0.127 S 
ATOM     70  O   UNL A   1      38.396  32.111  39.366  1.00  0.00    -0.237 OA
ATOM     71  O   UNL A   1      36.547  32.977  37.990  1.00  0.00    -0.237 OA
ATOM     72  O   UNL A   1      37.157  30.602  37.857  1.00  0.00    -0.744 OA
ENDBRANCH  66  69
ENDBRANCH  48  62
BRANCH  49  73
ATOM     73  C   UNL A   1      43.260  25.961  27.594  1.00  0.00     0.023 A 
ATOM     74  C   UNL A   1      44.140  26.469  26.617  1.00  0.00     0.012 A 
ATOM     75  C   UNL A   1      42.845  24.619  27.511  1.00  0.00     0.148 A 
ATOM     76  C   UNL A   1      44.559  25.672  25.550  1.00  0.00     0.002 A 
ATOM     77  C   UNL A   1      43.306  23.815  26.472  1.00  0.00     0.091 A 
ATOM     78  F   UNL A   1      41.997  24.157  28.439  1.00  0.00    -0.205 F 
ATOM     79  C   UNL A   1      44.146  24.344  25.481  1.00  0.00     0.022 A 
BRANCH  77  80
ATOM     80  S   UNL A   1      42.915  22.065  26.362  1.00  0.00     0.127 S 
ATOM     81  O   UNL A   1      42.681  21.722  27.762  1.00  0.00    -0.237 OA
ATOM     82  O   UNL A   1      41.717  22.075  25.520  1.00  0.00    -0.237 OA
ATOM     83  O   UNL A   1      44.077  21.445  25.741  1.00  0.00    -0.744 OA
ENDBRANCH  77  80
ENDBRANCH  49  73
BRANCH  61  84
ATOM     84  C   UNL A   1      45.055  26.732  34.293  1.00  0.00     0.023 A 
ATOM     85  C   UNL A   1      44.721  25.526  34.939  1.00  0.00     0.012 A 
ATOM     86  C   UNL A   1      46.368  27.231  34.400  1.00  0.00     0.148 A 
ATOM     87  C   UNL A   1      45.668  24.845  35.702  1.00  0.00     0.002 A 
ATOM     88  C   UNL A   1      47.320  26.523  35.123  1.00  0.00     0.091 A 
ATOM     89  F   UNL A   1      46.665  28.392  33.796  1.00  0.00    -0.205 F 
ATOM     90  C   UNL A   1      46.970  25.335  35.784  1.00  0.00     0.022 A 
BRANCH  88  91
ATOM     91  S   UNL A   1      49.041  27.038  35.186  1.00  0.00     0.127 S 
ATOM     92  O   UNL A   1      49.640  25.983  36.000  1.00  0.00    -0.237 OA
ATOM     93  O   UNL A   1      49.431  27.015  33.774  1.00  0.00    -0.237 OA
ATOM     94  O   UNL A   1      49.031  28.368  35.780  1.00  0.00    -0.744 OA
ENDBRANCH  88  91
ENDBRANCH  61  84
ENDBRANCH  35  36
ENDBRANCH  28  30
ENDBRANCH  27  28
ENDBRANCH  26  27
ENDBRANCH  25  26
ENDBRANCH  24  25
ENDBRANCH   1  24
TORSDOF 23
ENDMDL
