MODEL 1
REMARK VINA RESULT:     -11.6      0.000      0.000
REMARK SMILES O=C(CC1CCN(C(=O)c2ccc3[nH]ccc3c2)CC1)OCCOCCOC(=O)c1ccc(-c2c3nc(c(-c4cccc(S(=O)(=O)[O-])c4F)c4ccc([nH]4)c(-c4cccc(S(=O)(=O)[O-])c4F)c4nc(c(-c5cccc(S(=O)(=O)[O-])c5F)c5ccc2[nH]5)C=C4)C=C3)cc1
REMARK SMILES IDX 25 1 24 2 23 3 22 4 21 5 2 6 1 7 3 8 4 9 5 10 20 11 6 12
REMARK SMILES IDX 19 13 7 14 8 15 9 16 10 17 11 18 18 19 12 20 17 21 13 22
REMARK SMILES IDX 16 23 14 24 15 25 26 27 27 28 28 29 29 30 30 31 31 32 92 33
REMARK SMILES IDX 32 34 91 35 33 36 34 37 35 38 85 39 36 40 90 41 84 42 86 43
REMARK SMILES IDX 37 44 89 45 83 46 82 47 38 49 70 50 50 51 69 52 51 53 54 54
REMARK SMILES IDX 68 55 87 56 52 57 53 58 67 60 88 61 55 62 39 63 40 64 48 65
REMARK SMILES IDX 41 66 43 67 49 68 42 69 44 70 45 71 46 72 47 73 71 74 72 75
REMARK SMILES IDX 80 76 73 77 75 78 81 79 74 80 76 81 77 82 78 83 79 84 56 85
REMARK SMILES IDX 57 86 65 87 58 88 60 89 66 90 59 91 61 92 62 93 63 94 64 95
REMARK H PARENT 14 26 86 48 54 59
REMARK Flexibility Score: inf
ROOT
ATOM      1  C   UNL A   1      34.082  30.579  27.342  1.00  0.00     0.202 C 
ENDROOT
BRANCH   1   2
ATOM      2  O   UNL A   1      32.766  30.346  26.868  1.00  0.00    -0.374 OA
BRANCH   2   3
ATOM      3  C   UNL A   1      32.535  29.464  25.779  1.00  0.00     0.202 C 
BRANCH   3   4
ATOM      4  C   UNL A   1      33.650  28.568  25.223  1.00  0.00     0.261 C 
BRANCH   4   5
ATOM      5  O   UNL A   1      33.993  28.603  23.819  1.00  0.00    -0.463 OA
BRANCH   5   6
ATOM      6  C   UNL A   1      33.350  28.185  22.717  1.00  0.00     0.306 C 
ATOM      7  O   UNL A   1      33.984  27.996  21.680  1.00  0.00    -0.252 OA
BRANCH   6   8
ATOM      8  C   UNL A   1      31.858  28.022  22.726  1.00  0.00     0.126 C 
BRANCH   8   9
ATOM      9  C   UNL A   1      31.237  26.622  22.783  1.00  0.00     0.003 C 
ATOM     10  C   UNL A   1      30.247  26.342  23.916  1.00  0.00     0.026 C 
ATOM     11  C   UNL A   1      32.284  25.501  22.751  1.00  0.00     0.026 C 
ATOM     12  C   UNL A   1      30.925  26.148  25.266  1.00  0.00     0.120 C 
ATOM     13  C   UNL A   1      32.914  25.216  24.111  1.00  0.00     0.120 C 
ATOM     14  N   UNL A   1      31.913  25.092  25.177  1.00  0.00    -0.339 N 
ATOM     15  C   UNL A   1      31.853  24.108  26.154  1.00  0.00     0.253 C 
ATOM     16  O   UNL A   1      31.065  24.127  27.096  1.00  0.00    -0.269 OA
BRANCH  15  17
ATOM     17  C   UNL A   1      32.664  22.898  25.993  1.00  0.00     0.040 A 
ATOM     18  C   UNL A   1      33.910  22.749  26.603  1.00  0.00     0.016 A 
ATOM     19  C   UNL A   1      32.097  21.891  25.203  1.00  0.00     0.024 A 
ATOM     20  C   UNL A   1      34.659  21.591  26.383  1.00  0.00     0.027 A 
ATOM     21  C   UNL A   1      32.827  20.715  24.996  1.00  0.00     0.000 A 
ATOM     22  C   UNL A   1      34.089  20.594  25.578  1.00  0.00     0.045 A 
ATOM     23  C   UNL A   1      32.564  19.516  24.286  1.00  0.00     0.028 A 
ATOM     24  N   UNL A   1      34.573  19.357  25.215  1.00  0.00    -0.361 N 
ATOM     25  C   UNL A   1      33.656  18.696  24.441  1.00  0.00     0.083 A 
ATOM     26  H   UNL A   1      35.452  19.000  25.474  1.00  0.00     0.166 HD
ENDBRANCH  15  17
ENDBRANCH   8   9
ENDBRANCH   6   8
ENDBRANCH   5   6
ENDBRANCH   4   5
ENDBRANCH   3   4
ENDBRANCH   2   3
ENDBRANCH   1   2
BRANCH   1  27
ATOM     27  C   UNL A   1      34.418  32.014  27.728  1.00  0.00     0.261 C 
BRANCH  27  28
ATOM     28  O   UNL A   1      33.257  32.851  27.794  1.00  0.00    -0.460 OA
BRANCH  28  29
ATOM     29  C   UNL A   1      33.447  34.031  28.426  1.00  0.00     0.338 C 
ATOM     30  O   UNL A   1      32.800  35.060  28.277  1.00  0.00    -0.246 OA
BRANCH  29  31
ATOM     31  C   UNL A   1      34.473  33.878  29.469  1.00  0.00     0.060 A 
ATOM     32  C   UNL A   1      35.782  34.272  29.162  1.00  0.00     0.016 A 
ATOM     33  C   UNL A   1      34.173  33.282  30.696  1.00  0.00     0.016 A 
ATOM     34  C   UNL A   1      36.815  33.990  30.047  1.00  0.00     0.010 A 
ATOM     35  C   UNL A   1      35.211  32.990  31.580  1.00  0.00     0.010 A 
ATOM     36  C   UNL A   1      36.539  33.286  31.226  1.00  0.00    -0.014 A 
BRANCH  36  37
ATOM     37  C   UNL A   1      37.659  32.650  31.953  1.00  0.00     0.031 A 
ATOM     38  C   UNL A   1      38.375  31.506  31.288  1.00  0.00     0.074 A 
ATOM     39  C   UNL A   1      38.046  33.103  33.157  1.00  0.00     0.049 A 
ATOM     40  N   UNL A   1      39.383  30.795  31.719  1.00  0.00    -0.248 NA
ATOM     41  C   UNL A   1      37.885  31.105  29.958  1.00  0.00     0.031 C 
ATOM     42  C   UNL A   1      37.434  34.218  33.877  1.00  0.00     0.029 A 
ATOM     43  N   UNL A   1      39.042  32.665  33.988  1.00  0.00    -0.354 N 
ATOM     44  C   UNL A   1      39.621  29.842  30.735  1.00  0.00     0.074 A 
ATOM     45  C   UNL A   1      38.648  30.057  29.690  1.00  0.00     0.031 C 
ATOM     46  C   UNL A   1      38.059  34.367  35.057  1.00  0.00     0.029 A 
ATOM     47  C   UNL A   1      39.095  33.343  35.182  1.00  0.00     0.049 A 
ATOM     48  H   UNL A   1      39.660  31.936  33.754  1.00  0.00     0.167 HD
ATOM     49  C   UNL A   1      40.573  28.882  30.703  1.00  0.00     0.034 A 
ATOM     50  C   UNL A   1      39.882  33.142  36.255  1.00  0.00     0.034 A 
ATOM     51  C   UNL A   1      41.547  28.691  31.741  1.00  0.00     0.049 A 
ATOM     52  C   UNL A   1      40.920  32.050  36.203  1.00  0.00     0.074 A 
ATOM     53  C   UNL A   1      42.589  27.784  31.789  1.00  0.00     0.029 A 
ATOM     54  N   UNL A   1      41.587  29.411  32.926  1.00  0.00    -0.354 N 
ATOM     55  N   UNL A   1      41.207  31.228  35.221  1.00  0.00    -0.248 NA
ATOM     56  C   UNL A   1      41.766  31.884  37.392  1.00  0.00     0.031 C 
ATOM     57  C   UNL A   1      43.233  27.926  33.023  1.00  0.00     0.029 A 
ATOM     58  C   UNL A   1      42.622  28.957  33.722  1.00  0.00     0.049 A 
ATOM     59  H   UNL A   1      40.968  30.139  33.165  1.00  0.00     0.167 HD
ATOM     60  C   UNL A   1      42.294  30.479  35.657  1.00  0.00     0.074 A 
ATOM     61  C   UNL A   1      42.622  30.957  36.984  1.00  0.00     0.031 C 
ATOM     62  C   UNL A   1      42.960  29.481  35.022  1.00  0.00     0.034 A 
BRANCH  49  63
ATOM     63  C   UNL A   1      40.598  27.962  29.508  1.00  0.00     0.023 A 
ATOM     64  C   UNL A   1      39.733  26.849  29.452  1.00  0.00     0.012 A 
ATOM     65  C   UNL A   1      41.463  28.219  28.427  1.00  0.00     0.148 A 
ATOM     66  C   UNL A   1      39.758  25.986  28.356  1.00  0.00     0.002 A 
ATOM     67  C   UNL A   1      41.445  27.383  27.317  1.00  0.00     0.091 A 
ATOM     68  F   UNL A   1      42.297  29.264  28.509  1.00  0.00    -0.205 F 
ATOM     69  C   UNL A   1      40.604  26.258  27.285  1.00  0.00     0.022 A 
BRANCH  67  70
ATOM     70  S   UNL A   1      42.440  27.696  25.855  1.00  0.00     0.127 S 
ATOM     71  O   UNL A   1      41.974  26.647  24.951  1.00  0.00    -0.237 OA
ATOM     72  O   UNL A   1      42.023  29.050  25.486  1.00  0.00    -0.237 OA
ATOM     73  O   UNL A   1      43.828  27.583  26.281  1.00  0.00    -0.744 OA
ENDBRANCH  67  70
ENDBRANCH  49  63
BRANCH  50  74
ATOM     74  C   UNL A   1      39.753  34.019  37.453  1.00  0.00     0.023 A 
ATOM     75  C   UNL A   1      40.342  35.298  37.444  1.00  0.00     0.012 A 
ATOM     76  C   UNL A   1      39.044  33.596  38.594  1.00  0.00     0.148 A 
ATOM     77  C   UNL A   1      40.254  36.129  38.562  1.00  0.00     0.002 A 
ATOM     78  C   UNL A   1      38.915  34.449  39.684  1.00  0.00     0.091 A 
ATOM     79  F   UNL A   1      38.502  32.370  38.586  1.00  0.00    -0.205 F 
ATOM     80  C   UNL A   1      39.534  35.709  39.677  1.00  0.00     0.022 A 
BRANCH  78  81
ATOM     81  S   UNL A   1      37.918  34.037  41.120  1.00  0.00     0.127 S 
ATOM     82  O   UNL A   1      37.710  35.351  41.724  1.00  0.00    -0.237 OA
ATOM     83  O   UNL A   1      36.731  33.448  40.502  1.00  0.00    -0.237 OA
ATOM     84  O   UNL A   1      38.718  33.105  41.902  1.00  0.00    -0.744 OA
ENDBRANCH  78  81
ENDBRANCH  50  74
BRANCH  62  85
ATOM     85  C   UNL A   1      44.147  28.877  35.727  1.00  0.00     0.023 A 
ATOM     86  C   UNL A   1      45.435  29.416  35.539  1.00  0.00     0.012 A 
ATOM     87  C   UNL A   1      43.971  27.807  36.627  1.00  0.00     0.148 A 
ATOM     88  C   UNL A   1      46.534  28.872  36.201  1.00  0.00     0.002 A 
ATOM     89  C   UNL A   1      45.062  27.307  37.327  1.00  0.00     0.091 A 
ATOM     90  F   UNL A   1      42.740  27.295  36.780  1.00  0.00    -0.205 F 
ATOM     91  C   UNL A   1      46.346  27.826  37.102  1.00  0.00     0.022 A 
BRANCH  89  92
ATOM     92  S   UNL A   1      44.895  26.035  38.583  1.00  0.00     0.127 S 
ATOM     93  O   UNL A   1      46.286  25.822  38.978  1.00  0.00    -0.237 OA
ATOM     94  O   UNL A   1      44.070  26.702  39.592  1.00  0.00    -0.237 OA
ATOM     95  O   UNL A   1      44.250  24.905  37.928  1.00  0.00    -0.744 OA
ENDBRANCH  89  92
ENDBRANCH  62  85
ENDBRANCH  36  37
ENDBRANCH  29  31
ENDBRANCH  28  29
ENDBRANCH  27  28
ENDBRANCH   1  27
TORSDOF 19
ENDMDL
MODEL 2
REMARK VINA RESULT:     -11.3      1.777      7.609
REMARK SMILES O=C(CC1CCN(C(=O)c2ccc3[nH]ccc3c2)CC1)OCCOCCOC(=O)c1ccc(-c2c3nc(c(-c4cccc(S(=O)(=O)[O-])c4F)c4ccc([nH]4)c(-c4cccc(S(=O)(=O)[O-])c4F)c4nc(c(-c5cccc(S(=O)(=O)[O-])c5F)c5ccc2[nH]5)C=C4)C=C3)cc1
REMARK SMILES IDX 25 1 24 2 23 3 22 4 21 5 2 6 1 7 3 8 4 9 5 10 20 11 6 12
REMARK SMILES IDX 19 13 7 14 8 15 9 16 10 17 11 18 18 19 12 20 17 21 13 22
REMARK SMILES IDX 16 23 14 24 15 25 26 27 27 28 28 29 29 30 30 31 31 32 92 33
REMARK SMILES IDX 32 34 91 35 33 36 34 37 35 38 85 39 36 40 90 41 84 42 86 43
REMARK SMILES IDX 37 44 89 45 83 46 82 47 38 49 70 50 50 51 69 52 51 53 54 54
REMARK SMILES IDX 68 55 87 56 52 57 53 58 67 60 88 61 55 62 39 63 40 64 48 65
REMARK SMILES IDX 41 66 43 67 49 68 42 69 44 70 45 71 46 72 47 73 71 74 72 75
REMARK SMILES IDX 80 76 73 77 75 78 81 79 74 80 76 81 77 82 78 83 79 84 56 85
REMARK SMILES IDX 57 86 65 87 58 88 60 89 66 90 59 91 61 92 62 93 63 94 64 95
REMARK H PARENT 14 26 86 48 54 59
REMARK Flexibility Score: inf
ROOT
ATOM      1  C   UNL A   1      34.397  31.506  27.640  1.00  0.00     0.202 C 
ENDROOT
BRANCH   1   2
ATOM      2  O   UNL A   1      33.098  30.943  27.726  1.00  0.00    -0.374 OA
BRANCH   2   3
ATOM      3  C   UNL A   1      32.454  30.432  26.568  1.00  0.00     0.202 C 
BRANCH   3   4
ATOM      4  C   UNL A   1      32.946  29.155  25.876  1.00  0.00     0.261 C 
BRANCH   4   5
ATOM      5  O   UNL A   1      33.142  29.121  24.444  1.00  0.00    -0.463 OA
BRANCH   5   6
ATOM      6  C   UNL A   1      32.355  28.732  23.428  1.00  0.00     0.306 C 
ATOM      7  O   UNL A   1      32.774  28.804  22.274  1.00  0.00    -0.252 OA
BRANCH   6   8
ATOM      8  C   UNL A   1      30.946  28.285  23.690  1.00  0.00     0.126 C 
BRANCH   8   9
ATOM      9  C   UNL A   1      30.543  26.828  23.444  1.00  0.00     0.003 C 
ATOM     10  C   UNL A   1      29.449  26.244  24.341  1.00  0.00     0.026 C 
ATOM     11  C   UNL A   1      31.740  25.868  23.437  1.00  0.00     0.026 C 
ATOM     12  C   UNL A   1      29.938  25.922  25.747  1.00  0.00     0.120 C 
ATOM     13  C   UNL A   1      32.195  25.449  24.831  1.00  0.00     0.120 C 
ATOM     14  N   UNL A   1      31.076  25.028  25.681  1.00  0.00    -0.339 N 
ATOM     15  C   UNL A   1      31.020  23.899  26.488  1.00  0.00     0.253 C 
ATOM     16  O   UNL A   1      30.106  23.665  27.274  1.00  0.00    -0.269 OA
BRANCH  15  17
ATOM     17  C   UNL A   1      32.020  22.844  26.301  1.00  0.00     0.040 A 
ATOM     18  C   UNL A   1      33.223  22.824  27.007  1.00  0.00     0.016 A 
ATOM     19  C   UNL A   1      31.680  21.844  25.383  1.00  0.00     0.024 A 
ATOM     20  C   UNL A   1      34.159  21.817  26.760  1.00  0.00     0.027 A 
ATOM     21  C   UNL A   1      32.598  20.815  25.146  1.00  0.00     0.000 A 
ATOM     22  C   UNL A   1      33.815  20.827  25.828  1.00  0.00     0.045 A 
ATOM     23  C   UNL A   1      32.580  19.663  24.318  1.00  0.00     0.028 A 
ATOM     24  N   UNL A   1      34.512  19.717  25.409  1.00  0.00    -0.361 N 
ATOM     25  C   UNL A   1      33.772  19.003  24.503  1.00  0.00     0.083 A 
ATOM     26  H   UNL A   1      35.414  19.471  25.716  1.00  0.00     0.166 HD
ENDBRANCH  15  17
ENDBRANCH   8   9
ENDBRANCH   6   8
ENDBRANCH   5   6
ENDBRANCH   4   5
ENDBRANCH   3   4
ENDBRANCH   2   3
ENDBRANCH   1   2
BRANCH   1  27
ATOM     27  C   UNL A   1      34.516  32.986  27.980  1.00  0.00     0.261 C 
BRANCH  27  28
ATOM     28  O   UNL A   1      33.376  33.481  28.692  1.00  0.00    -0.460 OA
BRANCH  28  29
ATOM     29  C   UNL A   1      33.655  34.415  29.627  1.00  0.00     0.338 C 
ATOM     30  O   UNL A   1      33.050  35.461  29.830  1.00  0.00    -0.246 OA
BRANCH  29  31
ATOM     31  C   UNL A   1      34.729  33.931  30.510  1.00  0.00     0.060 A 
ATOM     32  C   UNL A   1      36.000  34.502  30.368  1.00  0.00     0.016 A 
ATOM     33  C   UNL A   1      34.511  32.878  31.402  1.00  0.00     0.016 A 
ATOM     34  C   UNL A   1      37.081  33.963  31.054  1.00  0.00     0.010 A 
ATOM     35  C   UNL A   1      35.598  32.331  32.082  1.00  0.00     0.010 A 
ATOM     36  C   UNL A   1      36.892  32.833  31.859  1.00  0.00    -0.014 A 
BRANCH  36  37
ATOM     37  C   UNL A   1      38.074  32.038  32.257  1.00  0.00     0.031 A 
ATOM     38  C   UNL A   1      38.721  32.346  33.580  1.00  0.00     0.074 A 
ATOM     39  C   UNL A   1      38.535  31.048  31.475  1.00  0.00     0.049 A 
ATOM     40  N   UNL A   1      39.757  31.788  34.147  1.00  0.00    -0.248 NA
ATOM     41  C   UNL A   1      38.120  33.436  34.370  1.00  0.00     0.031 C 
ATOM     42  C   UNL A   1      37.968  30.655  30.187  1.00  0.00     0.029 A 
ATOM     43  N   UNL A   1      39.598  30.203  31.652  1.00  0.00    -0.354 N 
ATOM     44  C   UNL A   1      39.956  32.482  35.336  1.00  0.00     0.074 A 
ATOM     45  C   UNL A   1      38.942  33.508  35.406  1.00  0.00     0.031 C 
ATOM     46  C   UNL A   1      38.703  29.651  29.678  1.00  0.00     0.029 A 
ATOM     47  C   UNL A   1      39.803  29.354  30.593  1.00  0.00     0.049 A 
ATOM     48  H   UNL A   1      40.161  30.204  32.460  1.00  0.00     0.167 HD
ATOM     49  C   UNL A   1      40.894  32.274  36.288  1.00  0.00     0.034 A 
ATOM     50  C   UNL A   1      40.781  28.451  30.385  1.00  0.00     0.034 A 
ATOM     51  C   UNL A   1      41.887  31.238  36.214  1.00  0.00     0.049 A 
ATOM     52  C   UNL A   1      41.828  28.255  31.452  1.00  0.00     0.074 A 
ATOM     53  C   UNL A   1      42.853  30.903  37.145  1.00  0.00     0.029 A 
ATOM     54  N   UNL A   1      42.051  30.379  35.138  1.00  0.00    -0.354 N 
ATOM     55  N   UNL A   1      41.939  28.842  32.620  1.00  0.00    -0.248 NA
ATOM     56  C   UNL A   1      42.862  27.246  31.185  1.00  0.00     0.031 C 
ATOM     57  C   UNL A   1      43.630  29.869  36.611  1.00  0.00     0.029 A 
ATOM     58  C   UNL A   1      43.115  29.526  35.369  1.00  0.00     0.049 A 
ATOM     59  H   UNL A   1      41.491  30.377  34.327  1.00  0.00     0.167 HD
ATOM     60  C   UNL A   1      43.026  28.242  33.246  1.00  0.00     0.074 A 
ATOM     61  C   UNL A   1      43.528  27.236  32.332  1.00  0.00     0.031 C 
ATOM     62  C   UNL A   1      43.567  28.500  34.464  1.00  0.00     0.034 A 
BRANCH  49  63
ATOM     63  C   UNL A   1      40.893  33.192  37.484  1.00  0.00     0.023 A 
ATOM     64  C   UNL A   1      40.031  32.938  38.571  1.00  0.00     0.012 A 
ATOM     65  C   UNL A   1      41.770  34.292  37.540  1.00  0.00     0.148 A 
ATOM     66  C   UNL A   1      40.014  33.790  39.677  1.00  0.00     0.002 A 
ATOM     67  C   UNL A   1      41.783  35.105  38.667  1.00  0.00     0.091 A 
ATOM     68  F   UNL A   1      42.563  34.533  36.487  1.00  0.00    -0.205 F 
ATOM     69  C   UNL A   1      40.897  34.865  39.730  1.00  0.00     0.022 A 
BRANCH  67  70
ATOM     70  S   UNL A   1      42.938  36.466  38.863  1.00  0.00     0.127 S 
ATOM     71  O   UNL A   1      42.523  37.023  40.149  1.00  0.00    -0.237 OA
ATOM     72  O   UNL A   1      44.227  35.772  38.888  1.00  0.00    -0.237 OA
ATOM     73  O   UNL A   1      42.738  37.334  37.712  1.00  0.00    -0.744 OA
ENDBRANCH  67  70
ENDBRANCH  49  63
BRANCH  50  74
ATOM     74  C   UNL A   1      40.793  27.634  29.140  1.00  0.00     0.023 A 
ATOM     75  C   UNL A   1      39.883  26.569  28.999  1.00  0.00     0.012 A 
ATOM     76  C   UNL A   1      41.694  27.912  28.094  1.00  0.00     0.148 A 
ATOM     77  C   UNL A   1      39.891  25.775  27.852  1.00  0.00     0.002 A 
ATOM     78  C   UNL A   1      41.661  27.151  26.931  1.00  0.00     0.091 A 
ATOM     79  F   UNL A   1      42.561  28.922  28.253  1.00  0.00    -0.205 F 
ATOM     80  C   UNL A   1      40.771  26.071  26.815  1.00  0.00     0.022 A 
BRANCH  78  81
ATOM     81  S   UNL A   1      42.683  27.524  25.502  1.00  0.00     0.127 S 
ATOM     82  O   UNL A   1      42.067  28.753  25.008  1.00  0.00    -0.237 OA
ATOM     83  O   UNL A   1      44.000  27.696  26.112  1.00  0.00    -0.237 OA
ATOM     84  O   UNL A   1      42.570  26.367  24.624  1.00  0.00    -0.744 OA
ENDBRANCH  78  81
ENDBRANCH  50  74
BRANCH  62  85
ATOM     85  C   UNL A   1      44.727  27.646  34.907  1.00  0.00     0.023 A 
ATOM     86  C   UNL A   1      46.050  28.080  34.695  1.00  0.00     0.012 A 
ATOM     87  C   UNL A   1      44.498  26.435  35.591  1.00  0.00     0.148 A 
ATOM     88  C   UNL A   1      47.127  27.301  35.117  1.00  0.00     0.002 A 
ATOM     89  C   UNL A   1      45.575  25.693  36.060  1.00  0.00     0.091 A 
ATOM     90  F   UNL A   1      43.232  26.030  35.769  1.00  0.00    -0.205 F 
ATOM     91  C   UNL A   1      46.889  26.115  35.808  1.00  0.00     0.022 A 
BRANCH  89  92
ATOM     92  S   UNL A   1      45.360  24.211  37.051  1.00  0.00     0.127 S 
ATOM     93  O   UNL A   1      44.666  23.326  36.117  1.00  0.00    -0.237 OA
ATOM     94  O   UNL A   1      46.743  23.829  37.340  1.00  0.00    -0.237 OA
ATOM     95  O   UNL A   1      44.590  24.617  38.219  1.00  0.00    -0.744 OA
ENDBRANCH  89  92
ENDBRANCH  62  85
ENDBRANCH  36  37
ENDBRANCH  29  31
ENDBRANCH  28  29
ENDBRANCH  27  28
ENDBRANCH   1  27
TORSDOF 19
ENDMDL
MODEL 3
REMARK VINA RESULT:     -11.0      3.606      8.732
REMARK SMILES O=C(CC1CCN(C(=O)c2ccc3[nH]ccc3c2)CC1)OCCOCCOC(=O)c1ccc(-c2c3nc(c(-c4cccc(S(=O)(=O)[O-])c4F)c4ccc([nH]4)c(-c4cccc(S(=O)(=O)[O-])c4F)c4nc(c(-c5cccc(S(=O)(=O)[O-])c5F)c5ccc2[nH]5)C=C4)C=C3)cc1
REMARK SMILES IDX 25 1 24 2 23 3 22 4 21 5 2 6 1 7 3 8 4 9 5 10 20 11 6 12
REMARK SMILES IDX 19 13 7 14 8 15 9 16 10 17 11 18 18 19 12 20 17 21 13 22
REMARK SMILES IDX 16 23 14 24 15 25 26 27 27 28 28 29 29 30 30 31 31 32 92 33
REMARK SMILES IDX 32 34 91 35 33 36 34 37 35 38 85 39 36 40 90 41 84 42 86 43
REMARK SMILES IDX 37 44 89 45 83 46 82 47 38 49 70 50 50 51 69 52 51 53 54 54
REMARK SMILES IDX 68 55 87 56 52 57 53 58 67 60 88 61 55 62 39 63 40 64 48 65
REMARK SMILES IDX 41 66 43 67 49 68 42 69 44 70 45 71 46 72 47 73 71 74 72 75
REMARK SMILES IDX 80 76 73 77 75 78 81 79 74 80 76 81 77 82 78 83 79 84 56 85
REMARK SMILES IDX 57 86 65 87 58 88 60 89 66 90 59 91 61 92 62 93 63 94 64 95
REMARK H PARENT 14 26 86 48 54 59
REMARK Flexibility Score: inf
ROOT
ATOM      1  C   UNL A   1      41.900  20.596  26.818  1.00  0.00     0.202 C 
ENDROOT
BRANCH   1   2
ATOM      2  O   UNL A   1      40.642  20.179  26.315  1.00  0.00    -0.374 OA
BRANCH   2   3
ATOM      3  C   UNL A   1      39.550  21.086  26.257  1.00  0.00     0.202 C 
BRANCH   3   4
ATOM      4  C   UNL A   1      38.468  20.969  25.176  1.00  0.00     0.261 C 
BRANCH   4   5
ATOM      5  O   UNL A   1      37.106  21.366  25.450  1.00  0.00    -0.463 OA
BRANCH   5   6
ATOM      6  C   UNL A   1      35.921  20.787  25.194  1.00  0.00     0.306 C 
ATOM      7  O   UNL A   1      35.876  19.585  24.935  1.00  0.00    -0.252 OA
BRANCH   6   8
ATOM      8  C   UNL A   1      34.670  21.614  25.146  1.00  0.00     0.126 C 
BRANCH   8   9
ATOM      9  C   UNL A   1      34.430  22.708  26.191  1.00  0.00     0.003 C 
ATOM     10  C   UNL A   1      33.193  22.567  27.082  1.00  0.00     0.026 C 
ATOM     11  C   UNL A   1      34.448  24.121  25.592  1.00  0.00     0.026 C 
ATOM     12  C   UNL A   1      31.896  22.903  26.360  1.00  0.00     0.120 C 
ATOM     13  C   UNL A   1      33.128  24.527  24.945  1.00  0.00     0.120 C 
ATOM     14  N   UNL A   1      31.972  24.238  25.802  1.00  0.00    -0.339 N 
ATOM     15  C   UNL A   1      30.907  25.084  26.077  1.00  0.00     0.253 C 
ATOM     16  O   UNL A   1      29.906  24.741  26.701  1.00  0.00    -0.269 OA
BRANCH  15  17
ATOM     17  C   UNL A   1      31.025  26.506  25.744  1.00  0.00     0.040 A 
ATOM     18  C   UNL A   1      30.615  27.020  24.513  1.00  0.00     0.016 A 
ATOM     19  C   UNL A   1      31.558  27.321  26.750  1.00  0.00     0.024 A 
ATOM     20  C   UNL A   1      30.788  28.377  24.233  1.00  0.00     0.027 A 
ATOM     21  C   UNL A   1      31.712  28.687  26.490  1.00  0.00     0.000 A 
ATOM     22  C   UNL A   1      31.336  29.183  25.241  1.00  0.00     0.045 A 
ATOM     23  C   UNL A   1      32.190  29.779  27.260  1.00  0.00     0.028 A 
ATOM     24  N   UNL A   1      31.594  30.535  25.261  1.00  0.00    -0.361 N 
ATOM     25  C   UNL A   1      32.102  30.905  26.478  1.00  0.00     0.083 A 
ATOM     26  H   UNL A   1      31.436  31.147  24.507  1.00  0.00     0.166 HD
ENDBRANCH  15  17
ENDBRANCH   8   9
ENDBRANCH   6   8
ENDBRANCH   5   6
ENDBRANCH   4   5
ENDBRANCH   3   4
ENDBRANCH   2   3
ENDBRANCH   1   2
BRANCH   1  27
ATOM     27  C   UNL A   1      42.891  21.139  25.795  1.00  0.00     0.261 C 
BRANCH  27  28
ATOM     28  O   UNL A   1      42.384  22.279  25.090  1.00  0.00    -0.460 OA
BRANCH  28  29
ATOM     29  C   UNL A   1      43.254  23.307  24.982  1.00  0.00     0.338 C 
ATOM     30  O   UNL A   1      44.167  23.420  24.173  1.00  0.00    -0.246 OA
BRANCH  29  31
ATOM     31  C   UNL A   1      42.859  24.392  25.895  1.00  0.00     0.060 A 
ATOM     32  C   UNL A   1      43.631  25.561  25.894  1.00  0.00     0.016 A 
ATOM     33  C   UNL A   1      41.802  24.230  26.794  1.00  0.00     0.016 A 
ATOM     34  C   UNL A   1      43.404  26.539  26.855  1.00  0.00     0.010 A 
ATOM     35  C   UNL A   1      41.581  25.208  27.764  1.00  0.00     0.010 A 
ATOM     36  C   UNL A   1      42.424  26.331  27.833  1.00  0.00    -0.014 A 
BRANCH  36  37
ATOM     37  C   UNL A   1      42.454  27.160  29.057  1.00  0.00     0.031 A 
ATOM     38  C   UNL A   1      43.369  26.739  30.175  1.00  0.00     0.074 A 
ATOM     39  C   UNL A   1      41.711  28.275  29.154  1.00  0.00     0.049 A 
ATOM     40  N   UNL A   1      43.574  27.300  31.336  1.00  0.00    -0.248 NA
ATOM     41  C   UNL A   1      44.158  25.513  29.955  1.00  0.00     0.031 C 
ATOM     42  C   UNL A   1      40.810  28.782  28.121  1.00  0.00     0.029 A 
ATOM     43  N   UNL A   1      41.592  29.172  30.181  1.00  0.00    -0.354 N 
ATOM     44  C   UNL A   1      44.480  26.480  31.998  1.00  0.00     0.074 A 
ATOM     45  C   UNL A   1      44.779  25.376  31.116  1.00  0.00     0.031 C 
ATOM     46  C   UNL A   1      40.213  29.897  28.576  1.00  0.00     0.029 A 
ATOM     47  C   UNL A   1      40.672  30.163  29.938  1.00  0.00     0.049 A 
ATOM     48  H   UNL A   1      42.114  29.113  31.014  1.00  0.00     0.167 HD
ATOM     49  C   UNL A   1      45.021  26.639  33.228  1.00  0.00     0.034 A 
ATOM     50  C   UNL A   1      40.243  31.159  30.736  1.00  0.00     0.034 A 
ATOM     51  C   UNL A   1      44.729  27.752  34.089  1.00  0.00     0.049 A 
ATOM     52  C   UNL A   1      40.846  31.301  32.110  1.00  0.00     0.074 A 
ATOM     53  C   UNL A   1      45.258  28.041  35.332  1.00  0.00     0.029 A 
ATOM     54  N   UNL A   1      43.810  28.750  33.800  1.00  0.00    -0.354 N 
ATOM     55  N   UNL A   1      41.783  30.581  32.681  1.00  0.00    -0.248 NA
ATOM     56  C   UNL A   1      40.358  32.414  32.935  1.00  0.00     0.031 C 
ATOM     57  C   UNL A   1      44.628  29.193  35.815  1.00  0.00     0.029 A 
ATOM     58  C   UNL A   1      43.742  29.649  34.850  1.00  0.00     0.049 A 
ATOM     59  H   UNL A   1      43.285  28.811  32.970  1.00  0.00     0.167 HD
ATOM     60  C   UNL A   1      42.028  31.181  33.912  1.00  0.00     0.074 A 
ATOM     61  C   UNL A   1      41.151  32.331  33.993  1.00  0.00     0.031 C 
ATOM     62  C   UNL A   1      42.895  30.814  34.889  1.00  0.00     0.034 A 
BRANCH  49  63
ATOM     63  C   UNL A   1      45.977  25.580  33.714  1.00  0.00     0.023 A 
ATOM     64  C   UNL A   1      47.366  25.737  33.524  1.00  0.00     0.012 A 
ATOM     65  C   UNL A   1      45.498  24.439  34.386  1.00  0.00     0.148 A 
ATOM     66  C   UNL A   1      48.257  24.756  33.960  1.00  0.00     0.002 A 
ATOM     67  C   UNL A   1      46.395  23.491  34.862  1.00  0.00     0.091 A 
ATOM     68  F   UNL A   1      44.174  24.293  34.533  1.00  0.00    -0.205 F 
ATOM     69  C   UNL A   1      47.774  23.640  34.637  1.00  0.00     0.022 A 
BRANCH  67  70
ATOM     70  S   UNL A   1      45.876  22.061  35.815  1.00  0.00     0.127 S 
ATOM     71  O   UNL A   1      47.126  21.311  35.928  1.00  0.00    -0.237 OA
ATOM     72  O   UNL A   1      45.420  22.675  37.064  1.00  0.00    -0.237 OA
ATOM     73  O   UNL A   1      44.828  21.416  35.037  1.00  0.00    -0.744 OA
ENDBRANCH  67  70
ENDBRANCH  49  63
BRANCH  50  74
ATOM     74  C   UNL A   1      39.223  32.126  30.243  1.00  0.00     0.023 A 
ATOM     75  C   UNL A   1      39.623  33.417  29.847  1.00  0.00     0.012 A 
ATOM     76  C   UNL A   1      37.863  31.771  30.157  1.00  0.00     0.148 A 
ATOM     77  C   UNL A   1      38.684  34.348  29.404  1.00  0.00     0.002 A 
ATOM     78  C   UNL A   1      36.939  32.686  29.665  1.00  0.00     0.091 A 
ATOM     79  F   UNL A   1      37.501  30.542  30.551  1.00  0.00    -0.205 F 
ATOM     80  C   UNL A   1      37.345  33.980  29.303  1.00  0.00     0.022 A 
BRANCH  78  81
ATOM     81  S   UNL A   1      35.212  32.268  29.399  1.00  0.00     0.127 S 
ATOM     82  O   UNL A   1      34.690  32.279  30.763  1.00  0.00    -0.237 OA
ATOM     83  O   UNL A   1      34.762  33.375  28.558  1.00  0.00    -0.237 OA
ATOM     84  O   UNL A   1      35.219  30.970  28.739  1.00  0.00    -0.744 OA
ENDBRANCH  78  81
ENDBRANCH  50  74
BRANCH  62  85
ATOM     85  C   UNL A   1      42.983  31.694  36.109  1.00  0.00     0.023 A 
ATOM     86  C   UNL A   1      42.188  31.423  37.240  1.00  0.00     0.012 A 
ATOM     87  C   UNL A   1      43.904  32.760  36.152  1.00  0.00     0.148 A 
ATOM     88  C   UNL A   1      42.277  32.224  38.377  1.00  0.00     0.002 A 
ATOM     89  C   UNL A   1      44.029  33.519  37.309  1.00  0.00     0.091 A 
ATOM     90  F   UNL A   1      44.640  33.014  35.060  1.00  0.00    -0.205 F 
ATOM     91  C   UNL A   1      43.204  33.264  38.416  1.00  0.00     0.022 A 
BRANCH  89  92
ATOM     92  S   UNL A   1      45.269  34.806  37.485  1.00  0.00     0.127 S 
ATOM     93  O   UNL A   1      45.007  35.289  38.839  1.00  0.00    -0.237 OA
ATOM     94  O   UNL A   1      46.517  34.056  37.335  1.00  0.00    -0.237 OA
ATOM     95  O   UNL A   1      45.008  35.762  36.417  1.00  0.00    -0.744 OA
ENDBRANCH  89  92
ENDBRANCH  62  85
ENDBRANCH  36  37
ENDBRANCH  29  31
ENDBRANCH  28  29
ENDBRANCH  27  28
ENDBRANCH   1  27
TORSDOF 19
ENDMDL
