MODEL 1
REMARK VINA RESULT:     -12.1      0.000      0.000
REMARK SMILES O=C(N[C@@H](Cc1c[nH]c2ccccc12)C(=O)N[C@@H](CO)C(=O)OCCOCCOC(=O)c1ccc(-c2c3nc(c(-c4cccc(S(=O)(=O)[O-])c4F)c4ccc([nH]4)c(-c4cccc(S(=O)(=O)[O-])c4F)c4nc(c(-c5cccc(S(=O)(=O)[O-])c5F)c5ccc2[nH]5)C=C4)C=C3)cc1)c1ccc(F)cc1
REMARK SMILES IDX 25 1 24 2 23 3 21 4 22 5 18 6 17 7 15 8 16 9 4 11 3 12 1 13
REMARK SMILES IDX 2 14 95 16 96 17 101 18 97 19 100 20 98 21 99 22 5 23 6 24
REMARK SMILES IDX 7 25 14 26 8 27 9 28 13 29 10 31 12 32 11 33 19 34 20 35
REMARK SMILES IDX 26 37 27 38 28 39 29 40 30 41 31 42 32 43 33 44 94 45 34 46
REMARK SMILES IDX 93 47 35 48 36 49 37 50 87 51 38 52 92 53 86 54 88 55 39 56
REMARK SMILES IDX 91 57 85 58 84 59 40 61 72 62 52 63 71 64 53 65 56 66 70 67
REMARK SMILES IDX 89 68 54 69 55 70 69 72 90 73 57 74 41 75 42 76 50 77 43 78
REMARK SMILES IDX 45 79 51 80 44 81 46 82 47 83 48 84 49 85 73 86 74 87 82 88
REMARK SMILES IDX 75 89 77 90 83 91 76 92 78 93 79 94 80 95 81 96 58 97 59 98
REMARK SMILES IDX 67 99 60 100 62 101 68 102 61 103 63 104 64 105 65 106
REMARK SMILES IDX 66 107
REMARK H PARENT 17 10 3 15 8 30 20 36 88 60 56 71
REMARK Flexibility Score: inf
ROOT
ATOM      1  C   UNL A   1      32.972  27.860  26.180  1.00  0.00     0.202 C 
ENDROOT
BRANCH   1   2
ATOM      2  C   UNL A   1      31.837  27.321  27.066  1.00  0.00     0.261 C 
BRANCH   2   3
ATOM      3  O   UNL A   1      31.303  26.037  26.653  1.00  0.00    -0.462 OA
BRANCH   3   4
ATOM      4  C   UNL A   1      30.796  25.864  25.267  1.00  0.00     0.331 C 
ATOM      5  O   UNL A   1      29.554  25.681  25.428  1.00  0.00    -0.250 OA
BRANCH   4   6
ATOM      6  C   UNL A   1      32.053  25.907  23.451  1.00  0.00     0.218 C 
BRANCH   6   7
ATOM      7  N   UNL A   1      33.343  24.854  22.941  1.00  0.00    -0.339 N 
ATOM      8  C   UNL A   1      34.049  23.821  23.496  1.00  0.00     0.243 C 
ATOM      9  O   UNL A   1      34.660  23.096  22.697  1.00  0.00    -0.273 OA
ATOM     10  H   UNL A   1      33.638  25.051  22.022  1.00  0.00     0.164 HD
BRANCH   8  11
ATOM     11  C   UNL A   1      34.144  23.492  25.011  1.00  0.00     0.176 C 
BRANCH  11  12
ATOM     12  N   UNL A   1      32.771  23.367  25.508  1.00  0.00    -0.340 N 
ATOM     13  O   UNL A   1      30.869  22.330  26.119  1.00  0.00    -0.269 OA
ATOM     14  C   UNL A   1      31.937  22.278  25.514  1.00  0.00     0.251 C 
ATOM     15  H   UNL A   1      32.390  24.187  25.898  1.00  0.00     0.164 HD
BRANCH  14  16
ATOM     16  C   UNL A   1      32.237  21.086  24.683  1.00  0.00     0.040 A 
ATOM     17  C   UNL A   1      32.053  21.046  23.296  1.00  0.00     0.017 A 
ATOM     18  C   UNL A   1      32.713  19.953  25.356  1.00  0.00     0.017 A 
ATOM     19  C   UNL A   1      32.231  19.843  22.606  1.00  0.00     0.040 A 
ATOM     20  C   UNL A   1      32.917  18.762  24.662  1.00  0.00     0.040 A 
ATOM     21  C   UNL A   1      32.650  18.711  23.298  1.00  0.00     0.123 A 
ATOM     22  F   UNL A   1      32.800  17.553  22.642  1.00  0.00    -0.207 F 
ENDBRANCH  14  16
ENDBRANCH  11  12
BRANCH  11  23
ATOM     23  C   UNL A   1      35.128  22.392  25.485  1.00  0.00     0.072 C 
BRANCH  23  24
ATOM     24  C   UNL A   1      36.538  22.826  25.366  1.00  0.00    -0.020 A 
ATOM     25  C   UNL A   1      37.091  24.066  25.665  1.00  0.00     0.087 A 
ATOM     26  C   UNL A   1      37.583  21.900  25.196  1.00  0.00     0.003 A 
ATOM     27  N   UNL A   1      38.436  24.000  26.015  1.00  0.00    -0.361 N 
ATOM     28  C   UNL A   1      38.834  22.693  26.111  1.00  0.00     0.046 A 
ATOM     29  C   UNL A   1      37.675  20.123  24.855  1.00  0.00     0.010 A 
ATOM     30  H   UNL A   1      39.017  24.779  26.171  1.00  0.00     0.166 HD
ATOM     31  C   UNL A   1      40.190  21.743  26.799  1.00  0.00     0.026 A 
ATOM     32  C   UNL A   1      39.086  19.173  25.456  1.00  0.00     0.001 A 
ATOM     33  C   UNL A   1      40.347  19.991  26.386  1.00  0.00     0.002 A 
ENDBRANCH  23  24
ENDBRANCH  11  23
ENDBRANCH   8  11
ENDBRANCH   6   7
BRANCH   6  34
ATOM     34  C   UNL A   1      31.660  26.271  21.775  1.00  0.00     0.193 C 
BRANCH  34  35
ATOM     35  O   UNL A   1      31.021  27.521  21.525  1.00  0.00    -0.394 OA
ATOM     36  H   UNL A   1      30.669  27.528  20.620  1.00  0.00     0.210 HD
ENDBRANCH  34  35
ENDBRANCH   6  34
ENDBRANCH   4   6
ENDBRANCH   3   4
ENDBRANCH   2   3
ENDBRANCH   1   2
BRANCH   1  37
ATOM     37  O   UNL A   1      33.334  29.236  26.248  1.00  0.00    -0.374 OA
BRANCH  37  38
ATOM     38  C   UNL A   1      32.332  30.181  25.897  1.00  0.00     0.202 C 
BRANCH  38  39
ATOM     39  C   UNL A   1      32.198  31.473  26.720  1.00  0.00     0.261 C 
BRANCH  39  40
ATOM     40  O   UNL A   1      33.197  31.602  27.746  1.00  0.00    -0.460 OA
BRANCH  40  41
ATOM     41  C   UNL A   1      33.628  32.868  27.966  1.00  0.00     0.338 C 
ATOM     42  O   UNL A   1      33.108  33.903  27.585  1.00  0.00    -0.246 OA
BRANCH  41  43
ATOM     43  C   UNL A   1      34.732  32.848  28.940  1.00  0.00     0.060 A 
ATOM     44  C   UNL A   1      36.003  33.248  28.497  1.00  0.00     0.016 A 
ATOM     45  C   UNL A   1      34.549  32.347  30.227  1.00  0.00     0.016 A 
ATOM     46  C   UNL A   1      37.106  33.125  29.333  1.00  0.00     0.010 A 
ATOM     47  C   UNL A   1      35.663  32.189  31.054  1.00  0.00     0.010 A 
ATOM     48  C   UNL A   1      36.945  32.542  30.593  1.00  0.00    -0.014 A 
BRANCH  48  49
ATOM     49  C   UNL A   1      38.142  32.085  31.330  1.00  0.00     0.031 A 
ATOM     50  C   UNL A   1      38.956  30.974  30.727  1.00  0.00     0.074 A 
ATOM     51  C   UNL A   1      38.483  32.639  32.504  1.00  0.00     0.049 A 
ATOM     52  N   UNL A   1      39.968  30.324  31.230  1.00  0.00    -0.248 NA
ATOM     53  C   UNL A   1      38.569  30.538  29.373  1.00  0.00     0.031 C 
ATOM     54  C   UNL A   1      37.789  33.751  33.148  1.00  0.00     0.029 A 
ATOM     55  N   UNL A   1      39.486  32.310  33.380  1.00  0.00    -0.354 N 
ATOM     56  C   UNL A   1      40.314  29.374  30.275  1.00  0.00     0.074 A 
ATOM     57  C   UNL A   1      39.410  29.536  29.161  1.00  0.00     0.031 C 
ATOM     58  C   UNL A   1      38.356  33.983  34.344  1.00  0.00     0.029 A 
ATOM     59  C   UNL A   1      39.427  33.012  34.560  1.00  0.00     0.049 A 
ATOM     60  H   UNL A   1      40.180  31.639  33.183  1.00  0.00     0.167 HD
ATOM     61  C   UNL A   1      41.301  28.451  30.328  1.00  0.00     0.034 A 
ATOM     62  C   UNL A   1      40.131  32.851  35.698  1.00  0.00     0.034 A 
ATOM     63  C   UNL A   1      42.198  28.310  31.439  1.00  0.00     0.049 A 
ATOM     64  C   UNL A   1      41.197  31.786  35.749  1.00  0.00     0.074 A 
ATOM     65  C   UNL A   1      43.250  27.426  31.590  1.00  0.00     0.029 A 
ATOM     66  N   UNL A   1      42.139  29.069  32.599  1.00  0.00    -0.354 N 
ATOM     67  N   UNL A   1      41.567  30.945  34.814  1.00  0.00    -0.248 NA
ATOM     68  C   UNL A   1      41.960  31.665  36.999  1.00  0.00     0.031 C 
ATOM     69  C   UNL A   1      43.808  27.630  32.855  1.00  0.00     0.029 A 
ATOM     70  C   UNL A   1      43.130  28.668  33.475  1.00  0.00     0.049 A 
ATOM     71  H   UNL A   1      41.486  29.785  32.772  1.00  0.00     0.167 HD
ATOM     72  C   UNL A   1      42.637  30.231  35.342  1.00  0.00     0.074 A 
ATOM     73  C   UNL A   1      42.855  30.739  36.680  1.00  0.00     0.031 C 
ATOM     74  C   UNL A   1      43.369  29.240  34.775  1.00  0.00     0.034 A 
BRANCH  61  75
ATOM     75  C   UNL A   1      41.457  27.524  29.152  1.00  0.00     0.023 A 
ATOM     76  C   UNL A   1      40.741  26.310  29.113  1.00  0.00     0.012 A 
ATOM     77  C   UNL A   1      42.280  27.876  28.065  1.00  0.00     0.148 A 
ATOM     78  C   UNL A   1      40.865  25.448  28.025  1.00  0.00     0.002 A 
ATOM     79  C   UNL A   1      42.363  27.034  26.963  1.00  0.00     0.091 A 
ATOM     80  F   UNL A   1      42.973  29.022  28.134  1.00  0.00    -0.205 F 
ATOM     81  C   UNL A   1      41.667  25.815  26.946  1.00  0.00     0.022 A 
BRANCH  79  82
ATOM     82  S   UNL A   1      43.306  27.454  25.494  1.00  0.00     0.127 S 
ATOM     83  O   UNL A   1      43.659  26.131  24.982  1.00  0.00    -0.237 OA
ATOM     84  O   UNL A   1      42.318  28.174  24.690  1.00  0.00    -0.237 OA
ATOM     85  O   UNL A   1      44.425  28.266  25.951  1.00  0.00    -0.744 OA
ENDBRANCH  79  82
ENDBRANCH  61  75
BRANCH  62  86
ATOM     86  C   UNL A   1      39.858  33.726  36.873  1.00  0.00     0.023 A 
ATOM     87  C   UNL A   1      40.279  35.069  36.854  1.00  0.00     0.012 A 
ATOM     88  C   UNL A   1      39.163  33.240  37.997  1.00  0.00     0.148 A 
ATOM     89  C   UNL A   1      40.039  35.905  37.946  1.00  0.00     0.002 A 
ATOM     90  C   UNL A   1      38.878  34.093  39.057  1.00  0.00     0.091 A 
ATOM     91  F   UNL A   1      38.784  31.954  38.003  1.00  0.00    -0.205 F 
ATOM     92  C   UNL A   1      39.331  35.421  39.042  1.00  0.00     0.022 A 
BRANCH  90  93
ATOM     93  S   UNL A   1      37.859  33.590  40.449  1.00  0.00     0.127 S 
ATOM     94  O   UNL A   1      36.609  33.226  39.787  1.00  0.00    -0.237 OA
ATOM     95  O   UNL A   1      38.623  32.463  40.988  1.00  0.00    -0.237 OA
ATOM     96  O   UNL A   1      37.797  34.747  41.330  1.00  0.00    -0.744 OA
ENDBRANCH  90  93
ENDBRANCH  62  86
BRANCH  74  97
ATOM     97  C   UNL A   1      44.529  28.683  35.556  1.00  0.00     0.023 A 
ATOM     98  C   UNL A   1      45.804  29.267  35.445  1.00  0.00     0.012 A 
ATOM     99  C   UNL A   1      44.314  27.651  36.492  1.00  0.00     0.148 A 
ATOM    100  C   UNL A   1      46.856  28.819  36.243  1.00  0.00     0.002 A 
ATOM    101  C   UNL A   1      45.352  27.246  37.320  1.00  0.00     0.091 A 
ATOM    102  F   UNL A   1      43.093  27.101  36.567  1.00  0.00    -0.205 F 
ATOM    103  C   UNL A   1      46.626  27.821  37.189  1.00  0.00     0.022 A 
BRANCH 101 104
ATOM    104  S   UNL A   1      45.123  26.047  38.637  1.00  0.00     0.127 S 
ATOM    105  O   UNL A   1      44.112  26.706  39.465  1.00  0.00    -0.237 OA
ATOM    106  O   UNL A   1      44.643  24.874  37.906  1.00  0.00    -0.237 OA
ATOM    107  O   UNL A   1      46.427  25.880  39.265  1.00  0.00    -0.744 OA
ENDBRANCH 101 104
ENDBRANCH  74  97
ENDBRANCH  48  49
ENDBRANCH  41  43
ENDBRANCH  40  41
ENDBRANCH  39  40
ENDBRANCH  38  39
ENDBRANCH  37  38
ENDBRANCH   1  37
TORSDOF 25
ENDMDL
MODEL 2
REMARK VINA RESULT:     -11.6      4.878      7.952
REMARK SMILES O=C(N[C@@H](Cc1c[nH]c2ccccc12)C(=O)N[C@@H](CO)C(=O)OCCOCCOC(=O)c1ccc(-c2c3nc(c(-c4cccc(S(=O)(=O)[O-])c4F)c4ccc([nH]4)c(-c4cccc(S(=O)(=O)[O-])c4F)c4nc(c(-c5cccc(S(=O)(=O)[O-])c5F)c5ccc2[nH]5)C=C4)C=C3)cc1)c1ccc(F)cc1
REMARK SMILES IDX 25 1 24 2 23 3 21 4 22 5 18 6 17 7 15 8 16 9 4 11 3 12 1 13
REMARK SMILES IDX 2 14 95 16 96 17 101 18 97 19 100 20 98 21 99 22 5 23 6 24
REMARK SMILES IDX 7 25 14 26 8 27 9 28 13 29 10 31 12 32 11 33 19 34 20 35
REMARK SMILES IDX 26 37 27 38 28 39 29 40 30 41 31 42 32 43 33 44 94 45 34 46
REMARK SMILES IDX 93 47 35 48 36 49 37 50 87 51 38 52 92 53 86 54 88 55 39 56
REMARK SMILES IDX 91 57 85 58 84 59 40 61 72 62 52 63 71 64 53 65 56 66 70 67
REMARK SMILES IDX 89 68 54 69 55 70 69 72 90 73 57 74 41 75 42 76 50 77 43 78
REMARK SMILES IDX 45 79 51 80 44 81 46 82 47 83 48 84 49 85 73 86 74 87 82 88
REMARK SMILES IDX 75 89 77 90 83 91 76 92 78 93 79 94 80 95 81 96 58 97 59 98
REMARK SMILES IDX 67 99 60 100 62 101 68 102 61 103 63 104 64 105 65 106
REMARK SMILES IDX 66 107
REMARK H PARENT 17 10 3 15 8 30 20 36 88 60 56 71
REMARK Flexibility Score: inf
ROOT
ATOM      1  C   UNL A   1      37.766  23.700  26.149  1.00  0.00     0.202 C 
ENDROOT
BRANCH   1   2
ATOM      2  C   UNL A   1      36.470  23.302  25.422  1.00  0.00     0.261 C 
BRANCH   2   3
ATOM      3  O   UNL A   1      35.256  23.815  26.026  1.00  0.00    -0.462 OA
BRANCH   3   4
ATOM      4  C   UNL A   1      34.027  22.979  26.029  1.00  0.00     0.331 C 
ATOM      5  O   UNL A   1      34.405  21.895  25.496  1.00  0.00    -0.250 OA
BRANCH   4   6
ATOM      6  C   UNL A   1      32.060  23.635  26.792  1.00  0.00     0.218 C 
BRANCH   6   7
ATOM      7  N   UNL A   1      31.345  25.222  26.866  1.00  0.00    -0.339 N 
ATOM      8  C   UNL A   1      31.612  26.449  26.320  1.00  0.00     0.243 C 
ATOM      9  O   UNL A   1      30.675  27.261  26.339  1.00  0.00    -0.273 OA
ATOM     10  H   UNL A   1      30.549  25.241  27.445  1.00  0.00     0.164 HD
BRANCH   8  11
ATOM     11  C   UNL A   1      32.962  26.894  25.696  1.00  0.00     0.176 C 
BRANCH  11  12
ATOM     12  N   UNL A   1      32.650  27.545  24.420  1.00  0.00    -0.340 N 
ATOM     13  O   UNL A   1      31.827  27.740  22.334  1.00  0.00    -0.269 OA
ATOM     14  C   UNL A   1      32.176  27.003  23.253  1.00  0.00     0.251 C 
ATOM     15  H   UNL A   1      32.802  28.518  24.398  1.00  0.00     0.164 HD
BRANCH  14  16
ATOM     16  C   UNL A   1      32.209  25.537  23.027  1.00  0.00     0.040 A 
ATOM     17  C   UNL A   1      31.106  24.699  23.230  1.00  0.00     0.017 A 
ATOM     18  C   UNL A   1      33.429  24.992  22.606  1.00  0.00     0.017 A 
ATOM     19  C   UNL A   1      31.257  23.314  23.126  1.00  0.00     0.040 A 
ATOM     20  C   UNL A   1      33.570  23.611  22.475  1.00  0.00     0.040 A 
ATOM     21  C   UNL A   1      32.490  22.783  22.760  1.00  0.00     0.123 A 
ATOM     22  F   UNL A   1      32.642  21.455  22.681  1.00  0.00    -0.207 F 
ENDBRANCH  14  16
ENDBRANCH  11  12
BRANCH  11  23
ATOM     23  C   UNL A   1      33.999  27.629  26.583  1.00  0.00     0.072 C 
BRANCH  23  24
ATOM     24  C   UNL A   1      33.796  29.095  26.568  1.00  0.00    -0.020 A 
ATOM     25  C   UNL A   1      32.610  29.804  26.419  1.00  0.00     0.087 A 
ATOM     26  C   UNL A   1      34.795  29.983  27.007  1.00  0.00     0.003 A 
ATOM     27  N   UNL A   1      32.640  31.060  27.018  1.00  0.00    -0.361 N 
ATOM     28  C   UNL A   1      33.800  31.217  27.727  1.00  0.00     0.046 A 
ATOM     29  C   UNL A   1      36.540  29.819  27.468  1.00  0.00     0.010 A 
ATOM     30  H   UNL A   1      31.930  31.738  26.941  1.00  0.00     0.166 HD
ATOM     31  C   UNL A   1      34.470  32.289  28.998  1.00  0.00     0.026 A 
ATOM     32  C   UNL A   1      37.253  30.958  28.672  1.00  0.00     0.001 A 
ATOM     33  C   UNL A   1      36.230  32.203  29.397  1.00  0.00     0.002 A 
ENDBRANCH  23  24
ENDBRANCH  11  23
ENDBRANCH   8  11
ENDBRANCH   6   7
BRANCH   6  34
ATOM     34  C   UNL A   1      30.465  22.900  26.675  1.00  0.00     0.193 C 
BRANCH  34  35
ATOM     35  O   UNL A   1      29.760  22.705  27.899  1.00  0.00    -0.394 OA
ATOM     36  H   UNL A   1      29.387  23.550  28.195  1.00  0.00     0.210 HD
ENDBRANCH  34  35
ENDBRANCH   6  34
ENDBRANCH   4   6
ENDBRANCH   3   4
ENDBRANCH   2   3
ENDBRANCH   1   2
BRANCH   1  37
ATOM     37  O   UNL A   1      38.807  22.742  26.319  1.00  0.00    -0.374 OA
BRANCH  37  38
ATOM     38  C   UNL A   1      39.991  23.188  26.968  1.00  0.00     0.202 C 
BRANCH  38  39
ATOM     39  C   UNL A   1      39.961  24.502  27.765  1.00  0.00     0.261 C 
BRANCH  39  40
ATOM     40  O   UNL A   1      41.228  25.183  27.789  1.00  0.00    -0.460 OA
BRANCH  40  41
ATOM     41  C   UNL A   1      41.255  26.358  27.113  1.00  0.00     0.338 C 
ATOM     42  O   UNL A   1      41.168  26.521  25.908  1.00  0.00    -0.246 OA
BRANCH  41  43
ATOM     43  C   UNL A   1      41.189  27.475  28.071  1.00  0.00     0.060 A 
ATOM     44  C   UNL A   1      40.511  28.638  27.674  1.00  0.00     0.016 A 
ATOM     45  C   UNL A   1      41.866  27.423  29.288  1.00  0.00     0.016 A 
ATOM     46  C   UNL A   1      40.528  29.768  28.482  1.00  0.00     0.010 A 
ATOM     47  C   UNL A   1      41.915  28.570  30.082  1.00  0.00     0.010 A 
ATOM     48  C   UNL A   1      41.279  29.753  29.661  1.00  0.00    -0.014 A 
BRANCH  48  49
ATOM     49  C   UNL A   1      41.592  31.033  30.329  1.00  0.00     0.031 A 
ATOM     50  C   UNL A   1      42.894  31.703  29.986  1.00  0.00     0.074 A 
ATOM     51  C   UNL A   1      40.745  31.574  31.219  1.00  0.00     0.049 A 
ATOM     52  N   UNL A   1      43.446  32.757  30.518  1.00  0.00    -0.248 NA
ATOM     53  C   UNL A   1      43.678  31.094  28.897  1.00  0.00     0.031 C 
ATOM     54  C   UNL A   1      39.440  31.028  31.583  1.00  0.00     0.029 A 
ATOM     55  N   UNL A   1      40.880  32.689  32.006  1.00  0.00    -0.354 N 
ATOM     56  C   UNL A   1      44.661  32.916  29.860  1.00  0.00     0.074 A 
ATOM     57  C   UNL A   1      44.763  31.854  28.886  1.00  0.00     0.031 C 
ATOM     58  C   UNL A   1      38.911  31.783  32.561  1.00  0.00     0.029 A 
ATOM     59  C   UNL A   1      39.858  32.840  32.912  1.00  0.00     0.049 A 
ATOM     60  H   UNL A   1      41.633  33.319  31.928  1.00  0.00     0.167 HD
ATOM     61  C   UNL A   1      45.604  33.866  30.055  1.00  0.00     0.034 A 
ATOM     62  C   UNL A   1      39.732  33.708  33.936  1.00  0.00     0.034 A 
ATOM     63  C   UNL A   1      45.482  34.920  31.021  1.00  0.00     0.049 A 
ATOM     64  C   UNL A   1      40.817  34.730  34.161  1.00  0.00     0.074 A 
ATOM     65  C   UNL A   1      46.364  35.950  31.286  1.00  0.00     0.029 A 
ATOM     66  N   UNL A   1      44.412  35.070  31.891  1.00  0.00    -0.354 N 
ATOM     67  N   UNL A   1      41.924  34.919  33.485  1.00  0.00    -0.248 NA
ATOM     68  C   UNL A   1      40.624  35.675  35.270  1.00  0.00     0.031 C 
ATOM     69  C   UNL A   1      45.841  36.707  32.339  1.00  0.00     0.029 A 
ATOM     70  C   UNL A   1      44.614  36.171  32.701  1.00  0.00     0.049 A 
ATOM     71  H   UNL A   1      43.625  34.478  31.926  1.00  0.00     0.167 HD
ATOM     72  C   UNL A   1      42.534  36.032  34.052  1.00  0.00     0.074 A 
ATOM     73  C   UNL A   1      41.672  36.475  35.128  1.00  0.00     0.031 C 
ATOM     74  C   UNL A   1      43.704  36.631  33.718  1.00  0.00     0.034 A 
BRANCH  61  75
ATOM     75  C   UNL A   1      46.847  33.803  29.208  1.00  0.00     0.023 A 
ATOM     76  C   UNL A   1      47.951  33.039  29.636  1.00  0.00     0.012 A 
ATOM     77  C   UNL A   1      46.903  34.465  27.966  1.00  0.00     0.148 A 
ATOM     78  C   UNL A   1      49.104  32.961  28.855  1.00  0.00     0.002 A 
ATOM     79  C   UNL A   1      48.037  34.345  27.173  1.00  0.00     0.091 A 
ATOM     80  F   UNL A   1      45.852  35.208  27.591  1.00  0.00    -0.205 F 
ATOM     81  C   UNL A   1      49.143  33.604  27.620  1.00  0.00     0.022 A 
BRANCH  79  82
ATOM     82  S   UNL A   1      48.152  35.071  25.535  1.00  0.00     0.127 S 
ATOM     83  O   UNL A   1      48.194  36.499  25.847  1.00  0.00    -0.237 OA
ATOM     84  O   UNL A   1      49.414  34.518  25.042  1.00  0.00    -0.237 OA
ATOM     85  O   UNL A   1      46.970  34.624  24.812  1.00  0.00    -0.744 OA
ENDBRANCH  79  82
ENDBRANCH  61  75
BRANCH  62  86
ATOM     86  C   UNL A   1      38.529  33.653  34.814  1.00  0.00     0.023 A 
ATOM     87  C   UNL A   1      37.330  34.259  34.393  1.00  0.00     0.012 A 
ATOM     88  C   UNL A   1      38.561  32.984  36.053  1.00  0.00     0.148 A 
ATOM     89  C   UNL A   1      36.194  34.224  35.202  1.00  0.00     0.002 A 
ATOM     90  C   UNL A   1      37.411  32.906  36.828  1.00  0.00     0.091 A 
ATOM     91  F   UNL A   1      39.716  32.428  36.445  1.00  0.00    -0.205 F 
ATOM     92  C   UNL A   1      36.230  33.540  36.413  1.00  0.00     0.022 A 
BRANCH  90  93
ATOM     93  S   UNL A   1      37.332  31.935  38.339  1.00  0.00     0.127 S 
ATOM     94  O   UNL A   1      37.395  30.571  37.820  1.00  0.00    -0.237 OA
ATOM     95  O   UNL A   1      38.534  32.382  39.045  1.00  0.00    -0.237 OA
ATOM     96  O   UNL A   1      36.083  32.312  38.984  1.00  0.00    -0.744 OA
ENDBRANCH  90  93
ENDBRANCH  62  86
BRANCH  74  97
ATOM     97  C   UNL A   1      44.098  37.878  34.463  1.00  0.00     0.023 A 
ATOM     98  C   UNL A   1      44.942  37.796  35.586  1.00  0.00     0.012 A 
ATOM     99  C   UNL A   1      43.722  39.142  33.966  1.00  0.00     0.148 A 
ATOM    100  C   UNL A   1      45.392  38.955  36.217  1.00  0.00     0.002 A 
ATOM    101  C   UNL A   1      44.216  40.293  34.567  1.00  0.00     0.091 A 
ATOM    102  F   UNL A   1      42.904  39.193  32.905  1.00  0.00    -0.205 F 
ATOM    103  C   UNL A   1      45.042  40.201  35.698  1.00  0.00     0.022 A 
BRANCH 101 104
ATOM    104  S   UNL A   1      43.907  41.933  33.906  1.00  0.00     0.127 S 
ATOM    105  O   UNL A   1      44.656  42.775  34.838  1.00  0.00    -0.237 OA
ATOM    106  O   UNL A   1      44.487  41.840  32.566  1.00  0.00    -0.237 OA
ATOM    107  O   UNL A   1      42.461  42.114  33.930  1.00  0.00    -0.744 OA
ENDBRANCH 101 104
ENDBRANCH  74  97
ENDBRANCH  48  49
ENDBRANCH  41  43
ENDBRANCH  40  41
ENDBRANCH  39  40
ENDBRANCH  38  39
ENDBRANCH  37  38
ENDBRANCH   1  37
TORSDOF 25
ENDMDL
MODEL 3
REMARK VINA RESULT:     -11.3      1.899      2.185
REMARK SMILES O=C(N[C@@H](Cc1c[nH]c2ccccc12)C(=O)N[C@@H](CO)C(=O)OCCOCCOC(=O)c1ccc(-c2c3nc(c(-c4cccc(S(=O)(=O)[O-])c4F)c4ccc([nH]4)c(-c4cccc(S(=O)(=O)[O-])c4F)c4nc(c(-c5cccc(S(=O)(=O)[O-])c5F)c5ccc2[nH]5)C=C4)C=C3)cc1)c1ccc(F)cc1
REMARK SMILES IDX 25 1 24 2 23 3 21 4 22 5 18 6 17 7 15 8 16 9 4 11 3 12 1 13
REMARK SMILES IDX 2 14 95 16 96 17 101 18 97 19 100 20 98 21 99 22 5 23 6 24
REMARK SMILES IDX 7 25 14 26 8 27 9 28 13 29 10 31 12 32 11 33 19 34 20 35
REMARK SMILES IDX 26 37 27 38 28 39 29 40 30 41 31 42 32 43 33 44 94 45 34 46
REMARK SMILES IDX 93 47 35 48 36 49 37 50 87 51 38 52 92 53 86 54 88 55 39 56
REMARK SMILES IDX 91 57 85 58 84 59 40 61 72 62 52 63 71 64 53 65 56 66 70 67
REMARK SMILES IDX 89 68 54 69 55 70 69 72 90 73 57 74 41 75 42 76 50 77 43 78
REMARK SMILES IDX 45 79 51 80 44 81 46 82 47 83 48 84 49 85 73 86 74 87 82 88
REMARK SMILES IDX 75 89 77 90 83 91 76 92 78 93 79 94 80 95 81 96 58 97 59 98
REMARK SMILES IDX 67 99 60 100 62 101 68 102 61 103 63 104 64 105 65 106
REMARK SMILES IDX 66 107
REMARK H PARENT 17 10 3 15 8 30 20 36 88 60 56 71
REMARK Flexibility Score: inf
ROOT
ATOM      1  C   UNL A   1      32.890  28.316  26.626  1.00  0.00     0.202 C 
ENDROOT
BRANCH   1   2
ATOM      2  C   UNL A   1      31.761  27.528  27.311  1.00  0.00     0.261 C 
BRANCH   2   3
ATOM      3  O   UNL A   1      30.969  26.704  26.418  1.00  0.00    -0.462 OA
BRANCH   3   4
ATOM      4  C   UNL A   1      31.070  26.907  24.949  1.00  0.00     0.331 C 
ATOM      5  O   UNL A   1      29.871  27.110  24.596  1.00  0.00    -0.250 OA
BRANCH   4   6
ATOM      6  C   UNL A   1      32.948  26.809  23.791  1.00  0.00     0.218 C 
BRANCH   6   7
ATOM      7  N   UNL A   1      33.971  25.454  23.402  1.00  0.00    -0.339 N 
ATOM      8  C   UNL A   1      34.365  24.305  24.033  1.00  0.00     0.243 C 
ATOM      9  O   UNL A   1      34.831  23.421  23.299  1.00  0.00    -0.273 OA
ATOM     10  H   UNL A   1      34.364  25.535  22.503  1.00  0.00     0.164 HD
BRANCH   8  11
ATOM     11  C   UNL A   1      34.279  24.027  25.559  1.00  0.00     0.176 C 
BRANCH  11  12
ATOM     12  N   UNL A   1      32.855  23.957  25.901  1.00  0.00    -0.340 N 
ATOM     13  O   UNL A   1      30.870  22.994  26.342  1.00  0.00    -0.269 OA
ATOM     14  C   UNL A   1      31.998  22.887  25.866  1.00  0.00     0.251 C 
ATOM     15  H   UNL A   1      32.454  24.805  26.201  1.00  0.00     0.164 HD
BRANCH  14  16
ATOM     16  C   UNL A   1      32.359  21.646  25.138  1.00  0.00     0.040 A 
ATOM     17  C   UNL A   1      32.170  21.476  23.762  1.00  0.00     0.017 A 
ATOM     18  C   UNL A   1      32.901  20.604  25.902  1.00  0.00     0.017 A 
ATOM     19  C   UNL A   1      32.411  20.229  23.177  1.00  0.00     0.040 A 
ATOM     20  C   UNL A   1      33.167  19.369  25.310  1.00  0.00     0.040 A 
ATOM     21  C   UNL A   1      32.896  19.186  23.959  1.00  0.00     0.123 A 
ATOM     22  F   UNL A   1      33.107  17.986  23.404  1.00  0.00    -0.207 F 
ENDBRANCH  14  16
ENDBRANCH  11  12
BRANCH  11  23
ATOM     23  C   UNL A   1      35.168  22.918  26.176  1.00  0.00     0.072 C 
BRANCH  23  24
ATOM     24  C   UNL A   1      36.586  23.064  25.778  1.00  0.00    -0.020 A 
ATOM     25  C   UNL A   1      37.441  24.139  25.994  1.00  0.00     0.087 A 
ATOM     26  C   UNL A   1      37.353  21.960  25.362  1.00  0.00     0.003 A 
ATOM     27  N   UNL A   1      38.782  23.774  26.051  1.00  0.00    -0.361 N 
ATOM     28  C   UNL A   1      38.901  22.411  26.018  1.00  0.00     0.046 A 
ATOM     29  C   UNL A   1      36.991  20.233  24.951  1.00  0.00     0.010 A 
ATOM     30  H   UNL A   1      39.536  24.405  26.106  1.00  0.00     0.166 HD
ATOM     31  C   UNL A   1      40.130  21.154  26.375  1.00  0.00     0.026 A 
ATOM     32  C   UNL A   1      38.256  18.973  25.211  1.00  0.00     0.001 A 
ATOM     33  C   UNL A   1      39.822  19.444  25.881  1.00  0.00     0.002 A 
ENDBRANCH  23  24
ENDBRANCH  11  23
ENDBRANCH   8  11
ENDBRANCH   6   7
BRANCH   6  34
ATOM     34  C   UNL A   1      33.449  27.635  22.320  1.00  0.00     0.193 C 
BRANCH  34  35
ATOM     35  O   UNL A   1      33.307  26.911  21.100  1.00  0.00    -0.394 OA
ATOM     36  H   UNL A   1      34.123  26.990  20.580  1.00  0.00     0.210 HD
ENDBRANCH  34  35
ENDBRANCH   6  34
ENDBRANCH   4   6
ENDBRANCH   3   4
ENDBRANCH   2   3
ENDBRANCH   1   2
BRANCH   1  37
ATOM     37  O   UNL A   1      33.125  29.675  26.983  1.00  0.00    -0.374 OA
BRANCH  37  38
ATOM     38  C   UNL A   1      32.132  30.620  26.604  1.00  0.00     0.202 C 
BRANCH  38  39
ATOM     39  C   UNL A   1      32.197  32.046  27.173  1.00  0.00     0.261 C 
BRANCH  39  40
ATOM     40  O   UNL A   1      33.495  32.399  27.683  1.00  0.00    -0.460 OA
BRANCH  40  41
ATOM     41  C   UNL A   1      33.533  33.549  28.400  1.00  0.00     0.338 C 
ATOM     42  O   UNL A   1      32.751  34.482  28.342  1.00  0.00    -0.246 OA
BRANCH  41  43
ATOM     43  C   UNL A   1      34.558  33.437  29.451  1.00  0.00     0.060 A 
ATOM     44  C   UNL A   1      35.669  34.291  29.374  1.00  0.00     0.016 A 
ATOM     45  C   UNL A   1      34.483  32.447  30.429  1.00  0.00     0.016 A 
ATOM     46  C   UNL A   1      36.728  34.142  30.261  1.00  0.00     0.010 A 
ATOM     47  C   UNL A   1      35.563  32.274  31.296  1.00  0.00     0.010 A 
ATOM     48  C   UNL A   1      36.701  33.095  31.187  1.00  0.00    -0.014 A 
BRANCH  48  49
ATOM     49  C   UNL A   1      37.951  32.714  31.876  1.00  0.00     0.031 A 
ATOM     50  C   UNL A   1      38.900  31.799  31.153  1.00  0.00     0.074 A 
ATOM     51  C   UNL A   1      38.224  33.163  33.111  1.00  0.00     0.049 A 
ATOM     52  N   UNL A   1      39.992  31.231  31.584  1.00  0.00    -0.248 NA
ATOM     53  C   UNL A   1      38.566  31.481  29.753  1.00  0.00     0.031 C 
ATOM     54  C   UNL A   1      37.394  34.090  33.876  1.00  0.00     0.029 A 
ATOM     55  N   UNL A   1      39.267  32.866  33.952  1.00  0.00    -0.354 N 
ATOM     56  C   UNL A   1      40.453  30.456  30.526  1.00  0.00     0.074 A 
ATOM     57  C   UNL A   1      39.529  30.631  29.430  1.00  0.00     0.031 C 
ATOM     58  C   UNL A   1      37.933  34.249  35.097  1.00  0.00     0.029 A 
ATOM     59  C   UNL A   1      39.123  33.407  35.206  1.00  0.00     0.049 A 
ATOM     60  H   UNL A   1      40.041  32.320  33.682  1.00  0.00     0.167 HD
ATOM     61  C   UNL A   1      41.553  29.670  30.478  1.00  0.00     0.034 A 
ATOM     62  C   UNL A   1      39.849  33.205  36.324  1.00  0.00     0.034 A 
ATOM     63  C   UNL A   1      42.467  29.515  31.574  1.00  0.00     0.049 A 
ATOM     64  C   UNL A   1      41.045  32.290  36.258  1.00  0.00     0.074 A 
ATOM     65  C   UNL A   1      43.626  28.764  31.628  1.00  0.00     0.029 A 
ATOM     66  N   UNL A   1      42.316  30.115  32.815  1.00  0.00    -0.354 N 
ATOM     67  N   UNL A   1      41.516  31.622  35.232  1.00  0.00    -0.248 NA
ATOM     68  C   UNL A   1      41.825  32.120  37.492  1.00  0.00     0.031 C 
ATOM     69  C   UNL A   1      44.161  28.886  32.914  1.00  0.00     0.029 A 
ATOM     70  C   UNL A   1      43.356  29.746  33.647  1.00  0.00     0.049 A 
ATOM     71  H   UNL A   1      41.576  30.714  33.067  1.00  0.00     0.167 HD
ATOM     72  C   UNL A   1      42.673  30.996  35.682  1.00  0.00     0.074 A 
ATOM     73  C   UNL A   1      42.832  31.364  37.073  1.00  0.00     0.031 C 
ATOM     74  C   UNL A   1      43.526  30.184  35.008  1.00  0.00     0.034 A 
BRANCH  61  75
ATOM     75  C   UNL A   1      41.822  28.918  29.202  1.00  0.00     0.023 A 
ATOM     76  C   UNL A   1      42.403  29.582  28.103  1.00  0.00     0.012 A 
ATOM     77  C   UNL A   1      41.539  27.542  29.107  1.00  0.00     0.148 A 
ATOM     78  C   UNL A   1      42.671  28.896  26.920  1.00  0.00     0.002 A 
ATOM     79  C   UNL A   1      41.850  26.854  27.941  1.00  0.00     0.091 A 
ATOM     80  F   UNL A   1      40.961  26.935  30.154  1.00  0.00    -0.205 F 
ATOM     81  C   UNL A   1      42.405  27.530  26.843  1.00  0.00     0.022 A 
BRANCH  79  82
ATOM     82  S   UNL A   1      41.618  25.081  27.773  1.00  0.00     0.127 S 
ATOM     83  O   UNL A   1      42.672  24.562  28.644  1.00  0.00    -0.237 OA
ATOM     84  O   UNL A   1      40.261  24.899  28.286  1.00  0.00    -0.237 OA
ATOM     85  O   UNL A   1      41.778  24.786  26.356  1.00  0.00    -0.744 OA
ENDBRANCH  79  82
ENDBRANCH  61  75
BRANCH  62  86
ATOM     86  C   UNL A   1      39.471  33.889  37.592  1.00  0.00     0.023 A 
ATOM     87  C   UNL A   1      39.911  35.205  37.832  1.00  0.00     0.012 A 
ATOM     88  C   UNL A   1      38.658  33.253  38.550  1.00  0.00     0.148 A 
ATOM     89  C   UNL A   1      39.573  35.863  39.015  1.00  0.00     0.002 A 
ATOM     90  C   UNL A   1      38.280  33.934  39.701  1.00  0.00     0.091 A 
ATOM     91  F   UNL A   1      38.263  31.994  38.311  1.00  0.00    -0.205 F 
ATOM     92  C   UNL A   1      38.750  35.233  39.944  1.00  0.00     0.022 A 
BRANCH  90  93
ATOM     93  S   UNL A   1      37.118  33.247  40.887  1.00  0.00     0.127 S 
ATOM     94  O   UNL A   1      37.909  32.181  41.497  1.00  0.00    -0.237 OA
ATOM     95  O   UNL A   1      36.859  34.397  41.754  1.00  0.00    -0.237 OA
ATOM     96  O   UNL A   1      35.967  32.814  40.105  1.00  0.00    -0.744 OA
ENDBRANCH  90  93
ENDBRANCH  62  86
BRANCH  74  97
ATOM     97  C   UNL A   1      44.753  29.693  35.728  1.00  0.00     0.023 A 
ATOM     98  C   UNL A   1      44.736  28.453  36.393  1.00  0.00     0.012 A 
ATOM     99  C   UNL A   1      45.959  30.417  35.636  1.00  0.00     0.148 A 
ATOM    100  C   UNL A   1      45.898  27.947  36.973  1.00  0.00     0.002 A 
ATOM    101  C   UNL A   1      47.124  29.884  36.170  1.00  0.00     0.091 A 
ATOM    102  F   UNL A   1      45.945  31.603  35.011  1.00  0.00    -0.205 F 
ATOM    103  C   UNL A   1      47.093  28.654  36.848  1.00  0.00     0.022 A 
BRANCH 101 104
ATOM    104  S   UNL A   1      48.726  30.669  35.965  1.00  0.00     0.127 S 
ATOM    105  O   UNL A   1      48.465  32.014  36.479  1.00  0.00    -0.237 OA
ATOM    106  O   UNL A   1      49.585  29.846  36.816  1.00  0.00    -0.237 OA
ATOM    107  O   UNL A   1      49.033  30.598  34.542  1.00  0.00    -0.744 OA
ENDBRANCH 101 104
ENDBRANCH  74  97
ENDBRANCH  48  49
ENDBRANCH  41  43
ENDBRANCH  40  41
ENDBRANCH  39  40
ENDBRANCH  38  39
ENDBRANCH  37  38
ENDBRANCH   1  37
TORSDOF 25
ENDMDL
