MODEL 1
REMARK VINA RESULT:      -9.9      0.000      0.000
REMARK SMILES Cc1cc(C(=O)N[C@@H]2C(=O)N3C(C(=O)OCCOCCOC(=O)c4ccc(-c5c6nc(c(-c7cccc(S(=O)(=O)[O-])c7F)c7ccc([nH]7)c(-c7cccc(S(=O)(=O)[O-])c7F)c7nc(c(-c8cccc(S(=O)(=O)[O-])c8F)c8ccc5[nH]8)C=C7)C=C6)cc4)=C(CSc4nnc(C)s4)CS[C@H]23)n(C)n1
REMARK SMILES IDX 18 1 17 2 16 3 15 4 13 5 14 6 12 7 8 8 9 9 98 10 10 11 11 12
REMARK SMILES IDX 97 13 96 14 87 15 7 16 5 17 6 18 4 20 1 21 2 22 3 23 101 24
REMARK SMILES IDX 99 25 100 26 88 27 89 28 90 29 91 30 95 31 92 32 93 33 94 34
REMARK SMILES IDX 19 35 20 36 21 37 22 38 23 39 24 40 25 41 86 42 26 43 85 44
REMARK SMILES IDX 27 45 28 46 29 47 79 48 30 49 84 50 78 51 80 52 31 53 83 54
REMARK SMILES IDX 77 55 76 56 32 58 64 59 44 60 63 61 45 62 48 63 62 64 81 65
REMARK SMILES IDX 46 66 47 67 61 69 82 70 49 71 33 72 34 73 42 74 35 75 37 76
REMARK SMILES IDX 43 77 36 78 38 79 39 80 40 81 41 82 65 83 66 84 74 85 67 86
REMARK SMILES IDX 69 87 75 88 68 89 70 90 71 91 72 92 73 93 50 94 51 95 59 96
REMARK SMILES IDX 52 97 54 98 60 99 53 100 55 101 56 102 57 103 58 104
REMARK H PARENT 7 19 80 57 48 68
REMARK Flexibility Score: inf
ROOT
ATOM      1  O   UNL A   1      35.401  29.407  27.333  1.00  0.00    -0.374 OA
ENDROOT
BRANCH   1   2
ATOM      2  C   UNL A   1      34.082  29.286  26.803  1.00  0.00     0.202 C 
BRANCH   2   3
ATOM      3  C   UNL A   1      33.514  27.881  26.616  1.00  0.00     0.261 C 
BRANCH   3   4
ATOM      4  O   UNL A   1      32.262  27.938  25.913  1.00  0.00    -0.459 OA
BRANCH   4   5
ATOM      5  C   UNL A   1      31.366  26.997  26.268  1.00  0.00     0.355 C 
ATOM      6  O   UNL A   1      30.705  26.991  27.301  1.00  0.00    -0.244 OA
BRANCH   5   7
ATOM      7  C   UNL A   1      31.193  25.919  25.241  1.00  0.00     0.132 C 
ATOM      8  C   UNL A   1      33.365  23.304  25.466  1.00  0.00     0.206 C 
ATOM      9  C   UNL A   1      32.405  24.043  26.448  1.00  0.00     0.253 C 
ATOM     10  C   UNL A   1      32.628  24.132  24.369  1.00  0.00     0.181 C 
ATOM     11  O   UNL A   1      32.103  23.954  27.612  1.00  0.00    -0.272 OA
ATOM     12  N   UNL A   1      32.012  24.852  25.438  1.00  0.00    -0.289 N 
ATOM     13  S   UNL A   1      31.281  23.365  23.445  1.00  0.00    -0.129 SA
ATOM     14  C   UNL A   1      30.610  24.978  22.956  1.00  0.00     0.106 C 
ATOM     15  C   UNL A   1      30.454  25.987  24.101  1.00  0.00    -0.019 C 
BRANCH   8  16
ATOM     16  N   UNL A   1      33.366  21.827  25.351  1.00  0.00    -0.336 N 
ATOM     17  C   UNL A   1      34.468  20.998  25.203  1.00  0.00     0.270 C 
ATOM     18  O   UNL A   1      34.268  19.786  25.143  1.00  0.00    -0.268 OA
ATOM     19  H   UNL A   1      32.487  21.385  25.383  1.00  0.00     0.164 HD
BRANCH  17  20
ATOM     20  C   UNL A   1      35.780  21.602  25.057  1.00  0.00     0.126 A 
ATOM     21  C   UNL A   1      38.742  23.264  26.372  1.00  0.00     0.069 C 
ATOM     22  C   UNL A   1      37.673  22.652  25.545  1.00  0.00     0.060 A 
ATOM     23  C   UNL A   1      36.940  21.476  25.808  1.00  0.00     0.059 A 
ATOM     24  N   UNL A   1      37.220  23.255  24.447  1.00  0.00    -0.178 NA
ATOM     25  N   UNL A   1      36.131  22.530  24.101  1.00  0.00    -0.263 N 
ATOM     26  C   UNL A   1      35.499  22.839  22.841  1.00  0.00     0.174 C 
ENDBRANCH  17  20
ENDBRANCH   8  16
BRANCH  15  27
ATOM     27  C   UNL A   1      29.471  27.075  23.742  1.00  0.00     0.111 C 
BRANCH  27  28
ATOM     28  S   UNL A   1      30.007  28.260  22.483  1.00  0.00    -0.089 SA
BRANCH  28  29
ATOM     29  C   UNL A   1      28.984  29.672  22.569  1.00  0.00     0.174 A 
ATOM     30  N   UNL A   1      27.984  29.825  23.406  1.00  0.00    -0.132 NA
ATOM     31  S   UNL A   1      29.292  31.085  21.640  1.00  0.00    -0.091 S 
ATOM     32  N   UNL A   1      27.506  31.120  23.448  1.00  0.00    -0.143 NA
ATOM     33  C   UNL A   1      28.183  31.913  22.648  1.00  0.00     0.115 A 
ATOM     34  C   UNL A   1      28.074  33.392  22.615  1.00  0.00     0.081 C 
ENDBRANCH  28  29
ENDBRANCH  27  28
ENDBRANCH  15  27
ENDBRANCH   5   7
ENDBRANCH   4   5
ENDBRANCH   3   4
ENDBRANCH   2   3
ENDBRANCH   1   2
BRANCH   1  35
ATOM     35  C   UNL A   1      35.557  30.000  28.620  1.00  0.00     0.202 C 
BRANCH  35  36
ATOM     36  C   UNL A   1      36.734  29.551  29.498  1.00  0.00     0.261 C 
BRANCH  36  37
ATOM     37  O   UNL A   1      36.373  29.246  30.852  1.00  0.00    -0.460 OA
BRANCH  37  38
ATOM     38  C   UNL A   1      36.919  30.067  31.785  1.00  0.00     0.338 C 
ATOM     39  O   UNL A   1      36.361  30.938  32.428  1.00  0.00    -0.246 OA
BRANCH  38  40
ATOM     40  C   UNL A   1      38.309  29.646  32.033  1.00  0.00     0.060 A 
ATOM     41  C   UNL A   1      39.342  30.575  31.878  1.00  0.00     0.016 A 
ATOM     42  C   UNL A   1      38.594  28.327  32.375  1.00  0.00     0.016 A 
ATOM     43  C   UNL A   1      40.667  30.174  32.044  1.00  0.00     0.010 A 
ATOM     44  C   UNL A   1      39.913  27.936  32.593  1.00  0.00     0.010 A 
ATOM     45  C   UNL A   1      40.963  28.843  32.374  1.00  0.00    -0.014 A 
BRANCH  45  46
ATOM     46  C   UNL A   1      42.361  28.347  32.325  1.00  0.00     0.031 A 
ATOM     47  C   UNL A   1      43.218  28.468  33.559  1.00  0.00     0.074 A 
ATOM     48  C   UNL A   1      42.868  27.815  31.198  1.00  0.00     0.049 A 
ATOM     49  N   UNL A   1      44.475  28.150  33.730  1.00  0.00    -0.248 NA
ATOM     50  C   UNL A   1      42.580  29.045  34.756  1.00  0.00     0.031 C 
ATOM     51  C   UNL A   1      42.148  27.666  29.934  1.00  0.00     0.029 A 
ATOM     52  N   UNL A   1      44.121  27.321  30.932  1.00  0.00    -0.354 N 
ATOM     53  C   UNL A   1      44.787  28.527  35.032  1.00  0.00     0.074 A 
ATOM     54  C   UNL A   1      43.600  29.127  35.596  1.00  0.00     0.031 C 
ATOM     55  C   UNL A   1      42.974  27.126  29.022  1.00  0.00     0.029 A 
ATOM     56  C   UNL A   1      44.288  26.922  29.626  1.00  0.00     0.049 A 
ATOM     57  H   UNL A   1      44.831  27.258  31.610  1.00  0.00     0.167 HD
ATOM     58  C   UNL A   1      45.948  28.365  35.708  1.00  0.00     0.034 A 
ATOM     59  C   UNL A   1      45.384  26.466  28.989  1.00  0.00     0.034 A 
ATOM     60  C   UNL A   1      47.115  27.734  35.156  1.00  0.00     0.049 A 
ATOM     61  C   UNL A   1      46.667  26.297  29.761  1.00  0.00     0.074 A 
ATOM     62  C   UNL A   1      48.318  27.456  35.779  1.00  0.00     0.029 A 
ATOM     63  N   UNL A   1      47.231  27.296  33.846  1.00  0.00    -0.354 N 
ATOM     64  N   UNL A   1      46.908  26.541  31.026  1.00  0.00    -0.248 NA
ATOM     65  C   UNL A   1      47.819  25.755  29.025  1.00  0.00     0.031 C 
ATOM     66  C   UNL A   1      49.177  26.888  34.832  1.00  0.00     0.029 A 
ATOM     67  C   UNL A   1      48.491  26.767  33.634  1.00  0.00     0.049 A 
ATOM     68  H   UNL A   1      46.520  27.354  33.166  1.00  0.00     0.167 HD
ATOM     69  C   UNL A   1      48.224  26.149  31.248  1.00  0.00     0.074 A 
ATOM     70  C   UNL A   1      48.721  25.633  29.989  1.00  0.00     0.031 C 
ATOM     71  C   UNL A   1      48.957  26.215  32.387  1.00  0.00     0.034 A 
BRANCH  58  72
ATOM     72  C   UNL A   1      46.005  28.860  37.131  1.00  0.00     0.023 A 
ATOM     73  C   UNL A   1      46.207  30.231  37.394  1.00  0.00     0.012 A 
ATOM     74  C   UNL A   1      45.816  27.972  38.209  1.00  0.00     0.148 A 
ATOM     75  C   UNL A   1      46.263  30.703  38.705  1.00  0.00     0.002 A 
ATOM     76  C   UNL A   1      45.821  28.459  39.510  1.00  0.00     0.091 A 
ATOM     77  F   UNL A   1      45.648  26.669  37.942  1.00  0.00    -0.205 F 
ATOM     78  C   UNL A   1      46.059  29.820  39.761  1.00  0.00     0.022 A 
BRANCH  76  79
ATOM     79  S   UNL A   1      45.486  27.418  40.935  1.00  0.00     0.127 S 
ATOM     80  O   UNL A   1      46.628  26.504  40.908  1.00  0.00    -0.237 OA
ATOM     81  O   UNL A   1      45.505  28.386  42.032  1.00  0.00    -0.237 OA
ATOM     82  O   UNL A   1      44.189  26.802  40.688  1.00  0.00    -0.744 OA
ENDBRANCH  76  79
ENDBRANCH  58  72
BRANCH  59  83
ATOM     83  C   UNL A   1      45.306  26.099  27.546  1.00  0.00     0.023 A 
ATOM     84  C   UNL A   1      45.439  27.099  26.564  1.00  0.00     0.012 A 
ATOM     85  C   UNL A   1      45.123  24.762  27.144  1.00  0.00     0.148 A 
ATOM     86  C   UNL A   1      45.358  26.780  25.207  1.00  0.00     0.002 A 
ATOM     87  C   UNL A   1      45.103  24.442  25.792  1.00  0.00     0.091 A 
ATOM     88  F   UNL A   1      44.988  23.826  28.094  1.00  0.00    -0.205 F 
ATOM     89  C   UNL A   1      45.200  25.451  24.822  1.00  0.00     0.022 A 
BRANCH  87  90
ATOM     90  S   UNL A   1      45.040  22.746  25.202  1.00  0.00     0.127 S 
ATOM     91  O   UNL A   1      45.190  22.925  23.760  1.00  0.00    -0.237 OA
ATOM     92  O   UNL A   1      46.196  22.153  25.874  1.00  0.00    -0.237 OA
ATOM     93  O   UNL A   1      43.755  22.220  25.642  1.00  0.00    -0.744 OA
ENDBRANCH  87  90
ENDBRANCH  59  83
BRANCH  71  94
ATOM     94  C   UNL A   1      50.364  25.676  32.350  1.00  0.00     0.023 A 
ATOM     95  C   UNL A   1      51.447  26.536  32.081  1.00  0.00     0.012 A 
ATOM     96  C   UNL A   1      50.615  24.324  32.658  1.00  0.00     0.148 A 
ATOM     97  C   UNL A   1      52.755  26.051  32.085  1.00  0.00     0.002 A 
ATOM     98  C   UNL A   1      51.924  23.860  32.714  1.00  0.00     0.091 A 
ATOM     99  F   UNL A   1      49.571  23.518  32.898  1.00  0.00    -0.205 F 
ATOM    100  C   UNL A   1      52.993  24.718  32.412  1.00  0.00     0.022 A 
BRANCH  98 101
ATOM    101  S   UNL A   1      52.334  22.188  33.225  1.00  0.00     0.127 S 
ATOM    102  O   UNL A   1      51.777  21.397  32.129  1.00  0.00    -0.237 OA
ATOM    103  O   UNL A   1      53.797  22.229  33.268  1.00  0.00    -0.237 OA
ATOM    104  O   UNL A   1      51.696  21.993  34.520  1.00  0.00    -0.744 OA
ENDBRANCH  98 101
ENDBRANCH  71  94
ENDBRANCH  45  46
ENDBRANCH  38  40
ENDBRANCH  37  38
ENDBRANCH  36  37
ENDBRANCH  35  36
ENDBRANCH   1  35
TORSDOF 22
ENDMDL
MODEL 2
REMARK VINA RESULT:      -9.6      1.781      2.363
REMARK SMILES Cc1cc(C(=O)N[C@@H]2C(=O)N3C(C(=O)OCCOCCOC(=O)c4ccc(-c5c6nc(c(-c7cccc(S(=O)(=O)[O-])c7F)c7ccc([nH]7)c(-c7cccc(S(=O)(=O)[O-])c7F)c7nc(c(-c8cccc(S(=O)(=O)[O-])c8F)c8ccc5[nH]8)C=C7)C=C6)cc4)=C(CSc4nnc(C)s4)CS[C@H]23)n(C)n1
REMARK SMILES IDX 18 1 17 2 16 3 15 4 13 5 14 6 12 7 8 8 9 9 98 10 10 11 11 12
REMARK SMILES IDX 97 13 96 14 87 15 7 16 5 17 6 18 4 20 1 21 2 22 3 23 101 24
REMARK SMILES IDX 99 25 100 26 88 27 89 28 90 29 91 30 95 31 92 32 93 33 94 34
REMARK SMILES IDX 19 35 20 36 21 37 22 38 23 39 24 40 25 41 86 42 26 43 85 44
REMARK SMILES IDX 27 45 28 46 29 47 79 48 30 49 84 50 78 51 80 52 31 53 83 54
REMARK SMILES IDX 77 55 76 56 32 58 64 59 44 60 63 61 45 62 48 63 62 64 81 65
REMARK SMILES IDX 46 66 47 67 61 69 82 70 49 71 33 72 34 73 42 74 35 75 37 76
REMARK SMILES IDX 43 77 36 78 38 79 39 80 40 81 41 82 65 83 66 84 74 85 67 86
REMARK SMILES IDX 69 87 75 88 68 89 70 90 71 91 72 92 73 93 50 94 51 95 59 96
REMARK SMILES IDX 52 97 54 98 60 99 53 100 55 101 56 102 57 103 58 104
REMARK H PARENT 7 19 80 57 48 68
REMARK Flexibility Score: inf
ROOT
ATOM      1  O   UNL A   1      35.346  29.473  27.223  1.00  0.00    -0.374 OA
ENDROOT
BRANCH   1   2
ATOM      2  C   UNL A   1      34.069  28.976  26.828  1.00  0.00     0.202 C 
BRANCH   2   3
ATOM      3  C   UNL A   1      33.921  27.469  26.625  1.00  0.00     0.261 C 
BRANCH   3   4
ATOM      4  O   UNL A   1      32.649  27.169  26.026  1.00  0.00    -0.459 OA
BRANCH   4   5
ATOM      5  C   UNL A   1      32.304  25.867  26.044  1.00  0.00     0.355 C 
ATOM      6  O   UNL A   1      31.582  25.329  26.878  1.00  0.00    -0.244 OA
BRANCH   5   7
ATOM      7  C   UNL A   1      32.859  25.086  24.892  1.00  0.00     0.132 C 
ATOM      8  C   UNL A   1      35.813  23.491  25.478  1.00  0.00     0.206 C 
ATOM      9  C   UNL A   1      34.424  23.560  26.185  1.00  0.00     0.253 C 
ATOM     10  C   UNL A   1      35.082  24.226  24.313  1.00  0.00     0.181 C 
ATOM     11  O   UNL A   1      33.918  23.087  27.171  1.00  0.00    -0.272 OA
ATOM     12  N   UNL A   1      33.980  24.385  25.209  1.00  0.00    -0.289 N 
ATOM     13  S   UNL A   1      34.456  23.263  22.921  1.00  0.00    -0.129 SA
ATOM     14  C   UNL A   1      33.302  24.580  22.444  1.00  0.00     0.106 C 
ATOM     15  C   UNL A   1      32.461  25.148  23.593  1.00  0.00    -0.019 C 
BRANCH   8  16
ATOM     16  N   UNL A   1      36.470  22.195  25.190  1.00  0.00    -0.336 N 
ATOM     17  C   UNL A   1      37.748  21.802  25.559  1.00  0.00     0.270 C 
ATOM     18  O   UNL A   1      38.113  20.672  25.242  1.00  0.00    -0.268 OA
ATOM     19  H   UNL A   1      35.941  21.540  24.680  1.00  0.00     0.164 HD
BRANCH  17  20
ATOM     20  C   UNL A   1      38.605  22.761  26.232  1.00  0.00     0.126 A 
ATOM     21  C   UNL A   1      40.197  26.024  26.535  1.00  0.00     0.069 C 
ATOM     22  C   UNL A   1      39.743  24.617  26.665  1.00  0.00     0.060 A 
ATOM     23  C   UNL A   1      38.436  24.111  26.511  1.00  0.00     0.059 A 
ATOM     24  N   UNL A   1      40.613  23.627  26.864  1.00  0.00    -0.178 NA
ATOM     25  N   UNL A   1      39.873  22.506  26.707  1.00  0.00    -0.263 N 
ATOM     26  C   UNL A   1      40.501  21.245  27.023  1.00  0.00     0.174 C 
ENDBRANCH  17  20
ENDBRANCH   8  16
BRANCH  15  27
ATOM     27  C   UNL A   1      31.226  25.847  23.075  1.00  0.00     0.111 C 
BRANCH  27  28
ATOM     28  S   UNL A   1      31.455  27.535  22.463  1.00  0.00    -0.089 SA
BRANCH  28  29
ATOM     29  C   UNL A   1      29.937  28.388  22.590  1.00  0.00     0.174 A 
ATOM     30  N   UNL A   1      28.873  27.939  23.214  1.00  0.00    -0.132 NA
ATOM     31  S   UNL A   1      29.739  29.997  22.019  1.00  0.00    -0.091 S 
ATOM     32  N   UNL A   1      27.900  28.902  23.390  1.00  0.00    -0.143 NA
ATOM     33  C   UNL A   1      28.276  30.065  22.907  1.00  0.00     0.115 A 
ATOM     34  C   UNL A   1      27.570  31.352  23.122  1.00  0.00     0.081 C 
ENDBRANCH  28  29
ENDBRANCH  27  28
ENDBRANCH  15  27
ENDBRANCH   5   7
ENDBRANCH   4   5
ENDBRANCH   3   4
ENDBRANCH   2   3
ENDBRANCH   1   2
BRANCH   1  35
ATOM     35  C   UNL A   1      35.488  29.989  28.544  1.00  0.00     0.202 C 
BRANCH  35  36
ATOM     36  C   UNL A   1      36.756  29.639  29.336  1.00  0.00     0.261 C 
BRANCH  36  37
ATOM     37  O   UNL A   1      36.506  29.183  30.673  1.00  0.00    -0.460 OA
BRANCH  37  38
ATOM     38  C   UNL A   1      37.031  29.966  31.649  1.00  0.00     0.338 C 
ATOM     39  O   UNL A   1      36.480  30.866  32.258  1.00  0.00    -0.246 OA
BRANCH  38  40
ATOM     40  C   UNL A   1      38.373  29.462  31.992  1.00  0.00     0.060 A 
ATOM     41  C   UNL A   1      39.446  30.357  32.041  1.00  0.00     0.016 A 
ATOM     42  C   UNL A   1      38.577  28.104  32.221  1.00  0.00     0.016 A 
ATOM     43  C   UNL A   1      40.732  29.884  32.299  1.00  0.00     0.010 A 
ATOM     44  C   UNL A   1      39.852  27.637  32.531  1.00  0.00     0.010 A 
ATOM     45  C   UNL A   1      40.948  28.514  32.516  1.00  0.00    -0.014 A 
BRANCH  45  46
ATOM     46  C   UNL A   1      42.327  27.966  32.559  1.00  0.00     0.031 A 
ATOM     47  C   UNL A   1      42.982  27.751  33.898  1.00  0.00     0.074 A 
ATOM     48  C   UNL A   1      42.993  27.681  31.425  1.00  0.00     0.049 A 
ATOM     49  N   UNL A   1      44.190  27.332  34.173  1.00  0.00    -0.248 NA
ATOM     50  C   UNL A   1      42.176  28.071  35.090  1.00  0.00     0.031 C 
ATOM     51  C   UNL A   1      42.477  27.867  30.069  1.00  0.00     0.029 A 
ATOM     52  N   UNL A   1      44.262  27.193  31.237  1.00  0.00    -0.354 N 
ATOM     53  C   UNL A   1      44.301  27.381  35.558  1.00  0.00     0.074 A 
ATOM     54  C   UNL A   1      43.053  27.900  36.067  1.00  0.00     0.031 C 
ATOM     55  C   UNL A   1      43.425  27.507  29.188  1.00  0.00     0.029 A 
ATOM     56  C   UNL A   1      44.624  27.097  29.914  1.00  0.00     0.049 A 
ATOM     57  H   UNL A   1      44.855  26.935  31.979  1.00  0.00     0.167 HD
ATOM     58  C   UNL A   1      45.339  27.002  36.341  1.00  0.00     0.034 A 
ATOM     59  C   UNL A   1      45.797  26.739  29.355  1.00  0.00     0.034 A 
ATOM     60  C   UNL A   1      46.565  26.452  35.833  1.00  0.00     0.049 A 
ATOM     61  C   UNL A   1      46.940  26.325  30.246  1.00  0.00     0.074 A 
ATOM     62  C   UNL A   1      47.650  25.970  36.543  1.00  0.00     0.029 A 
ATOM     63  N   UNL A   1      46.876  26.322  34.489  1.00  0.00    -0.354 N 
ATOM     64  N   UNL A   1      46.984  26.257  31.554  1.00  0.00    -0.248 NA
ATOM     65  C   UNL A   1      48.182  25.904  29.581  1.00  0.00     0.031 C 
ATOM     66  C   UNL A   1      48.635  25.589  35.626  1.00  0.00     0.029 A 
ATOM     67  C   UNL A   1      48.144  25.786  34.346  1.00  0.00     0.049 A 
ATOM     68  H   UNL A   1      46.282  26.575  33.745  1.00  0.00     0.167 HD
ATOM     69  C   UNL A   1      48.242  25.751  31.869  1.00  0.00     0.074 A 
ATOM     70  C   UNL A   1      48.919  25.513  30.612  1.00  0.00     0.031 C 
ATOM     71  C   UNL A   1      48.788  25.512  33.087  1.00  0.00     0.034 A 
BRANCH  58  72
ATOM     72  C   UNL A   1      45.182  27.152  37.833  1.00  0.00     0.023 A 
ATOM     73  C   UNL A   1      44.672  26.083  38.600  1.00  0.00     0.012 A 
ATOM     74  C   UNL A   1      45.579  28.337  38.482  1.00  0.00     0.148 A 
ATOM     75  C   UNL A   1      44.520  26.207  39.980  1.00  0.00     0.002 A 
ATOM     76  C   UNL A   1      45.473  28.434  39.864  1.00  0.00     0.091 A 
ATOM     77  F   UNL A   1      46.040  29.352  37.736  1.00  0.00    -0.205 F 
ATOM     78  C   UNL A   1      44.930  27.377  40.613  1.00  0.00     0.022 A 
BRANCH  76  79
ATOM     79  S   UNL A   1      46.050  29.866  40.782  1.00  0.00     0.127 S 
ATOM     80  O   UNL A   1      45.915  29.405  42.164  1.00  0.00    -0.237 OA
ATOM     81  O   UNL A   1      47.431  29.992  40.313  1.00  0.00    -0.237 OA
ATOM     82  O   UNL A   1      45.176  30.967  40.404  1.00  0.00    -0.744 OA
ENDBRANCH  76  79
ENDBRANCH  58  72
BRANCH  59  83
ATOM     83  C   UNL A   1      45.939  26.720  27.871  1.00  0.00     0.023 A 
ATOM     84  C   UNL A   1      46.185  27.920  27.178  1.00  0.00     0.012 A 
ATOM     85  C   UNL A   1      45.853  25.514  27.148  1.00  0.00     0.148 A 
ATOM     86  C   UNL A   1      46.310  27.927  25.788  1.00  0.00     0.002 A 
ATOM     87  C   UNL A   1      46.037  25.520  25.770  1.00  0.00     0.091 A 
ATOM     88  F   UNL A   1      45.607  24.384  27.824  1.00  0.00    -0.205 F 
ATOM     89  C   UNL A   1      46.246  26.726  25.086  1.00  0.00     0.022 A 
BRANCH  87  90
ATOM     90  S   UNL A   1      46.107  24.009  24.801  1.00  0.00     0.127 S 
ATOM     91  O   UNL A   1      47.101  24.350  23.786  1.00  0.00    -0.237 OA
ATOM     92  O   UNL A   1      46.551  23.034  25.797  1.00  0.00    -0.237 OA
ATOM     93  O   UNL A   1      44.753  23.790  24.309  1.00  0.00    -0.744 OA
ENDBRANCH  87  90
ENDBRANCH  59  83
BRANCH  71  94
ATOM     94  C   UNL A   1      50.173  24.918  33.131  1.00  0.00     0.023 A 
ATOM     95  C   UNL A   1      50.345  23.519  33.110  1.00  0.00     0.012 A 
ATOM     96  C   UNL A   1      51.306  25.755  33.116  1.00  0.00     0.148 A 
ATOM     97  C   UNL A   1      51.625  22.964  33.110  1.00  0.00     0.002 A 
ATOM     98  C   UNL A   1      52.577  25.195  33.061  1.00  0.00     0.091 A 
ATOM     99  F   UNL A   1      51.122  27.082  33.150  1.00  0.00    -0.205 F 
ATOM    100  C   UNL A   1      52.738  23.801  33.074  1.00  0.00     0.022 A 
BRANCH  98 101
ATOM    101  S   UNL A   1      54.064  26.190  32.909  1.00  0.00     0.127 S 
ATOM    102  O   UNL A   1      54.061  26.923  34.174  1.00  0.00    -0.237 OA
ATOM    103  O   UNL A   1      55.107  25.170  32.795  1.00  0.00    -0.237 OA
ATOM    104  O   UNL A   1      53.883  27.007  31.716  1.00  0.00    -0.744 OA
ENDBRANCH  98 101
ENDBRANCH  71  94
ENDBRANCH  45  46
ENDBRANCH  38  40
ENDBRANCH  37  38
ENDBRANCH  36  37
ENDBRANCH  35  36
ENDBRANCH   1  35
TORSDOF 22
ENDMDL
MODEL 3
REMARK VINA RESULT:      -8.8      8.402     13.064
REMARK SMILES Cc1cc(C(=O)N[C@@H]2C(=O)N3C(C(=O)OCCOCCOC(=O)c4ccc(-c5c6nc(c(-c7cccc(S(=O)(=O)[O-])c7F)c7ccc([nH]7)c(-c7cccc(S(=O)(=O)[O-])c7F)c7nc(c(-c8cccc(S(=O)(=O)[O-])c8F)c8ccc5[nH]8)C=C7)C=C6)cc4)=C(CSc4nnc(C)s4)CS[C@H]23)n(C)n1
REMARK SMILES IDX 18 1 17 2 16 3 15 4 13 5 14 6 12 7 8 8 9 9 98 10 10 11 11 12
REMARK SMILES IDX 97 13 96 14 87 15 7 16 5 17 6 18 4 20 1 21 2 22 3 23 101 24
REMARK SMILES IDX 99 25 100 26 88 27 89 28 90 29 91 30 95 31 92 32 93 33 94 34
REMARK SMILES IDX 19 35 20 36 21 37 22 38 23 39 24 40 25 41 86 42 26 43 85 44
REMARK SMILES IDX 27 45 28 46 29 47 79 48 30 49 84 50 78 51 80 52 31 53 83 54
REMARK SMILES IDX 77 55 76 56 32 58 64 59 44 60 63 61 45 62 48 63 62 64 81 65
REMARK SMILES IDX 46 66 47 67 61 69 82 70 49 71 33 72 34 73 42 74 35 75 37 76
REMARK SMILES IDX 43 77 36 78 38 79 39 80 40 81 41 82 65 83 66 84 74 85 67 86
REMARK SMILES IDX 69 87 75 88 68 89 70 90 71 91 72 92 73 93 50 94 51 95 59 96
REMARK SMILES IDX 52 97 54 98 60 99 53 100 55 101 56 102 57 103 58 104
REMARK H PARENT 7 19 80 57 48 68
REMARK Flexibility Score: inf
ROOT
ATOM      1  O   UNL A   1      43.416  27.271  32.077  1.00  0.00    -0.374 OA
ENDROOT
BRANCH   1   2
ATOM      2  C   UNL A   1      44.030  28.479  31.631  1.00  0.00     0.202 C 
BRANCH   2   3
ATOM      3  C   UNL A   1      43.184  29.751  31.632  1.00  0.00     0.261 C 
BRANCH   3   4
ATOM      4  O   UNL A   1      41.794  29.426  31.459  1.00  0.00    -0.459 OA
BRANCH   4   5
ATOM      5  C   UNL A   1      41.127  30.219  30.599  1.00  0.00     0.355 C 
ATOM      6  O   UNL A   1      41.637  30.968  29.772  1.00  0.00    -0.244 OA
BRANCH   5   7
ATOM      7  C   UNL A   1      39.637  30.089  30.699  1.00  0.00     0.132 C 
ATOM      8  C   UNL A   1      38.178  31.772  33.277  1.00  0.00     0.206 C 
ATOM      9  C   UNL A   1      39.169  32.134  32.129  1.00  0.00     0.253 C 
ATOM     10  C   UNL A   1      37.999  30.437  32.491  1.00  0.00     0.181 C 
ATOM     11  O   UNL A   1      39.761  33.117  31.759  1.00  0.00    -0.272 OA
ATOM     12  N   UNL A   1      39.094  30.862  31.677  1.00  0.00    -0.289 N 
ATOM     13  S   UNL A   1      36.592  30.254  31.376  1.00  0.00    -0.129 SA
ATOM     14  C   UNL A   1      37.401  28.908  30.469  1.00  0.00     0.106 C 
ATOM     15  C   UNL A   1      38.849  29.190  30.050  1.00  0.00    -0.019 C 
BRANCH   8  16
ATOM     16  N   UNL A   1      36.976  32.595  33.549  1.00  0.00    -0.336 N 
ATOM     17  C   UNL A   1      36.768  33.448  34.623  1.00  0.00     0.270 C 
ATOM     18  O   UNL A   1      35.705  34.064  34.666  1.00  0.00    -0.268 OA
ATOM     19  H   UNL A   1      36.243  32.528  32.895  1.00  0.00     0.164 HD
BRANCH  17  20
ATOM     20  C   UNL A   1      37.776  33.514  35.665  1.00  0.00     0.126 A 
ATOM     21  C   UNL A   1      38.821  33.720  39.148  1.00  0.00     0.069 C 
ATOM     22  C   UNL A   1      38.715  33.682  37.669  1.00  0.00     0.060 A 
ATOM     23  C   UNL A   1      37.889  32.854  36.881  1.00  0.00     0.059 A 
ATOM     24  N   UNL A   1      39.376  34.553  36.907  1.00  0.00    -0.178 NA
ATOM     25  N   UNL A   1      38.868  34.355  35.669  1.00  0.00    -0.263 N 
ATOM     26  C   UNL A   1      39.502  35.047  34.572  1.00  0.00     0.174 C 
ENDBRANCH  17  20
ENDBRANCH   8  16
BRANCH  15  27
ATOM     27  C   UNL A   1      39.278  28.286  28.919  1.00  0.00     0.111 C 
BRANCH  27  28
ATOM     28  S   UNL A   1      40.630  27.136  29.278  1.00  0.00    -0.089 SA
BRANCH  28  29
ATOM     29  C   UNL A   1      40.348  25.649  28.408  1.00  0.00     0.174 A 
ATOM     30  N   UNL A   1      39.271  25.382  27.706  1.00  0.00    -0.132 NA
ATOM     31  S   UNL A   1      41.548  24.427  28.270  1.00  0.00    -0.091 S 
ATOM     32  N   UNL A   1      39.405  24.260  26.913  1.00  0.00    -0.143 NA
ATOM     33  C   UNL A   1      40.600  23.725  27.028  1.00  0.00     0.115 A 
ATOM     34  C   UNL A   1      41.145  22.651  26.162  1.00  0.00     0.081 C 
ENDBRANCH  28  29
ENDBRANCH  27  28
ENDBRANCH  15  27
ENDBRANCH   5   7
ENDBRANCH   4   5
ENDBRANCH   3   4
ENDBRANCH   2   3
ENDBRANCH   1   2
BRANCH   1  35
ATOM     35  C   UNL A   1      43.860  26.706  33.309  1.00  0.00     0.202 C 
BRANCH  35  36
ATOM     36  C   UNL A   1      42.818  26.403  34.395  1.00  0.00     0.261 C 
BRANCH  36  37
ATOM     37  O   UNL A   1      41.752  27.359  34.469  1.00  0.00    -0.460 OA
BRANCH  37  38
ATOM     38  C   UNL A   1      41.522  27.860  35.709  1.00  0.00     0.338 C 
ATOM     39  O   UNL A   1      41.205  27.246  36.713  1.00  0.00    -0.246 OA
BRANCH  38  40
ATOM     40  C   UNL A   1      41.865  29.293  35.714  1.00  0.00     0.060 A 
ATOM     41  C   UNL A   1      40.850  30.238  35.538  1.00  0.00     0.016 A 
ATOM     42  C   UNL A   1      43.190  29.699  35.849  1.00  0.00     0.016 A 
ATOM     43  C   UNL A   1      41.168  31.595  35.473  1.00  0.00     0.010 A 
ATOM     44  C   UNL A   1      43.504  31.056  35.837  1.00  0.00     0.010 A 
ATOM     45  C   UNL A   1      42.504  32.010  35.593  1.00  0.00    -0.014 A 
BRANCH  45  46
ATOM     46  C   UNL A   1      42.885  33.413  35.296  1.00  0.00     0.031 A 
ATOM     47  C   UNL A   1      43.045  34.381  36.440  1.00  0.00     0.074 A 
ATOM     48  C   UNL A   1      43.070  33.826  34.028  1.00  0.00     0.049 A 
ATOM     49  N   UNL A   1      43.323  35.658  36.413  1.00  0.00    -0.248 NA
ATOM     50  C   UNL A   1      42.844  33.842  37.797  1.00  0.00     0.031 C 
ATOM     51  C   UNL A   1      42.922  32.992  32.836  1.00  0.00     0.029 A 
ATOM     52  N   UNL A   1      43.401  35.063  33.535  1.00  0.00    -0.354 N 
ATOM     53  C   UNL A   1      43.286  36.081  37.737  1.00  0.00     0.074 A 
ATOM     54  C   UNL A   1      42.927  34.935  38.540  1.00  0.00     0.031 C 
ATOM     55  C   UNL A   1      43.152  33.745  31.746  1.00  0.00     0.029 A 
ATOM     56  C   UNL A   1      43.431  35.117  32.161  1.00  0.00     0.049 A 
ATOM     57  H   UNL A   1      43.600  35.837  34.109  1.00  0.00     0.167 HD
ATOM     58  C   UNL A   1      43.552  37.308  38.245  1.00  0.00     0.034 A 
ATOM     59  C   UNL A   1      43.637  36.161  31.334  1.00  0.00     0.034 A 
ATOM     60  C   UNL A   1      43.945  38.436  37.447  1.00  0.00     0.049 A 
ATOM     61  C   UNL A   1      43.929  37.518  31.922  1.00  0.00     0.074 A 
ATOM     62  C   UNL A   1      44.308  39.702  37.869  1.00  0.00     0.029 A 
ATOM     63  N   UNL A   1      44.014  38.440  36.063  1.00  0.00    -0.354 N 
ATOM     64  N   UNL A   1      44.014  37.871  33.181  1.00  0.00    -0.248 NA
ATOM     65  C   UNL A   1      44.188  38.611  30.974  1.00  0.00     0.031 C 
ATOM     66  C   UNL A   1      44.553  40.484  36.736  1.00  0.00     0.029 A 
ATOM     67  C   UNL A   1      44.393  39.691  35.611  1.00  0.00     0.049 A 
ATOM     68  H   UNL A   1      43.820  37.665  35.486  1.00  0.00     0.167 HD
ATOM     69  C   UNL A   1      44.373  39.216  33.178  1.00  0.00     0.074 A 
ATOM     70  C   UNL A   1      44.507  39.606  31.790  1.00  0.00     0.031 C 
ATOM     71  C   UNL A   1      44.567  40.053  34.228  1.00  0.00     0.034 A 
BRANCH  58  72
ATOM     72  C   UNL A   1      43.449  37.485  39.738  1.00  0.00     0.023 A 
ATOM     73  C   UNL A   1      44.578  37.263  40.556  1.00  0.00     0.012 A 
ATOM     74  C   UNL A   1      42.244  37.912  40.330  1.00  0.00     0.148 A 
ATOM     75  C   UNL A   1      44.496  37.421  41.938  1.00  0.00     0.002 A 
ATOM     76  C   UNL A   1      42.186  38.119  41.703  1.00  0.00     0.091 A 
ATOM     77  F   UNL A   1      41.175  38.097  39.542  1.00  0.00    -0.205 F 
ATOM     78  C   UNL A   1      43.305  37.859  42.510  1.00  0.00     0.022 A 
BRANCH  76  79
ATOM     79  S   UNL A   1      40.724  38.760  42.524  1.00  0.00     0.127 S 
ATOM     80  O   UNL A   1      40.717  40.152  42.072  1.00  0.00    -0.237 OA
ATOM     81  O   UNL A   1      39.663  37.928  41.955  1.00  0.00    -0.237 OA
ATOM     82  O   UNL A   1      40.946  38.570  43.951  1.00  0.00    -0.744 OA
ENDBRANCH  76  79
ENDBRANCH  58  72
BRANCH  59  83
ATOM     83  C   UNL A   1      43.613  35.957  29.858  1.00  0.00     0.023 A 
ATOM     84  C   UNL A   1      42.394  36.049  29.160  1.00  0.00     0.012 A 
ATOM     85  C   UNL A   1      44.796  35.693  29.141  1.00  0.00     0.148 A 
ATOM     86  C   UNL A   1      42.347  35.850  27.780  1.00  0.00     0.002 A 
ATOM     87  C   UNL A   1      44.752  35.555  27.758  1.00  0.00     0.091 A 
ATOM     88  F   UNL A   1      45.946  35.598  29.824  1.00  0.00    -0.205 F 
ATOM     89  C   UNL A   1      43.526  35.614  27.078  1.00  0.00     0.022 A 
BRANCH  87  90
ATOM     90  S   UNL A   1      46.234  35.383  26.758  1.00  0.00     0.127 S 
ATOM     91  O   UNL A   1      47.023  34.444  27.550  1.00  0.00    -0.237 OA
ATOM     92  O   UNL A   1      45.692  34.837  25.513  1.00  0.00    -0.237 OA
ATOM     93  O   UNL A   1      46.787  36.725  26.634  1.00  0.00    -0.744 OA
ENDBRANCH  87  90
ENDBRANCH  59  83
BRANCH  71  94
ATOM     94  C   UNL A   1      44.994  41.467  33.929  1.00  0.00     0.023 A 
ATOM     95  C   UNL A   1      46.344  41.755  33.642  1.00  0.00     0.012 A 
ATOM     96  C   UNL A   1      44.037  42.499  33.857  1.00  0.00     0.148 A 
ATOM     97  C   UNL A   1      46.739  43.054  33.326  1.00  0.00     0.002 A 
ATOM     98  C   UNL A   1      44.429  43.780  33.488  1.00  0.00     0.091 A 
ATOM     99  F   UNL A   1      42.761  42.208  34.146  1.00  0.00    -0.205 F 
ATOM    100  C   UNL A   1      45.780  44.062  33.237  1.00  0.00     0.022 A 
BRANCH  98 101
ATOM    101  S   UNL A   1      43.254  45.117  33.248  1.00  0.00     0.127 S 
ATOM    102  O   UNL A   1      43.841  46.178  34.065  1.00  0.00    -0.237 OA
ATOM    103  O   UNL A   1      43.333  45.341  31.804  1.00  0.00    -0.237 OA
ATOM    104  O   UNL A   1      41.968  44.613  33.713  1.00  0.00    -0.744 OA
ENDBRANCH  98 101
ENDBRANCH  71  94
ENDBRANCH  45  46
ENDBRANCH  38  40
ENDBRANCH  37  38
ENDBRANCH  36  37
ENDBRANCH  35  36
ENDBRANCH   1  35
TORSDOF 22
ENDMDL
