MODEL 1
REMARK VINA RESULT:     -11.0      0.000      0.000
REMARK SMILES O=C(CCC(=O)N1Cc2[nH]cnc2C[C@H]1C(=O)NCc1ccccc1)OCCOCCOC(=O)c1ccc(-c2c3nc(c(-c4cccc(S(=O)(=O)[O-])c4F)c4ccc([nH]4)c(-c4cccc(S(=O)(=O)[O-])c4F)c4nc(c(-c5cccc(S(=O)(=O)[O-])c5F)c5ccc2[nH]5)C=C4)C=C3)cc1
REMARK SMILES IDX 27 1 26 2 2 3 1 4 3 5 4 6 5 7 6 8 7 9 8 10 15 11 9 12 14 13
REMARK SMILES IDX 10 14 13 15 11 16 12 18 16 19 17 20 18 21 19 23 20 24 21 25
REMARK SMILES IDX 25 26 22 27 24 28 23 29 28 30 29 31 30 32 31 33 32 34 33 35
REMARK SMILES IDX 34 36 35 37 36 38 97 39 37 40 96 41 38 42 39 43 40 44 90 45
REMARK SMILES IDX 41 46 95 47 89 48 91 49 42 50 94 51 88 52 87 53 43 55 75 56
REMARK SMILES IDX 55 57 74 58 56 59 59 60 73 61 92 62 57 63 58 64 72 66 93 67
REMARK SMILES IDX 60 68 44 69 45 70 53 71 46 72 48 73 54 74 47 75 49 76 50 77
REMARK SMILES IDX 51 78 52 79 76 80 77 81 85 82 78 83 80 84 86 85 79 86 81 87
REMARK SMILES IDX 82 88 83 89 84 90 61 91 62 92 70 93 63 94 65 95 71 96 64 97
REMARK SMILES IDX 66 98 67 99 68 100 69 101
REMARK H PARENT 10 17 18 22 91 54 59 65
REMARK Flexibility Score: inf
ROOT
ATOM      1  C   UNL A   1      37.536  23.612  25.775  1.00  0.00     0.261 C 
ENDROOT
BRANCH   1   2
ATOM      2  O   UNL A   1      36.415  22.723  25.675  1.00  0.00    -0.463 OA
BRANCH   2   3
ATOM      3  C   UNL A   1      36.184  21.913  24.618  1.00  0.00     0.306 C 
ATOM      4  O   UNL A   1      36.771  22.087  23.554  1.00  0.00    -0.252 OA
BRANCH   3   5
ATOM      5  C   UNL A   1      35.265  20.743  24.800  1.00  0.00     0.132 C 
BRANCH   5   6
ATOM      6  C   UNL A   1      34.251  21.071  25.881  1.00  0.00     0.112 C 
BRANCH   6   7
ATOM      7  C   UNL A   1      32.839  21.172  25.343  1.00  0.00     0.224 C 
ATOM      8  O   UNL A   1      32.195  20.126  25.194  1.00  0.00    -0.275 OA
BRANCH   7   9
ATOM      9  N   UNL A   1      32.277  22.414  25.049  1.00  0.00    -0.324 N 
ATOM     10  C   UNL A   1      31.510  22.989  26.169  1.00  0.00     0.176 C 
ATOM     11  C   UNL A   1      32.210  23.011  23.660  1.00  0.00     0.180 C 
ATOM     12  C   UNL A   1      30.937  24.288  25.814  1.00  0.00     0.058 A 
ATOM     13  C   UNL A   1      31.041  23.982  23.353  1.00  0.00     0.093 C 
ATOM     14  N   UNL A   1      30.540  25.286  26.655  1.00  0.00    -0.347 N 
ATOM     15  C   UNL A   1      30.704  24.760  24.552  1.00  0.00     0.066 A 
ATOM     16  C   UNL A   1      30.110  26.319  25.864  1.00  0.00     0.197 A 
ATOM     17  H   UNL A   1      30.559  25.267  27.639  1.00  0.00     0.167 HD
ATOM     18  N   UNL A   1      30.211  26.029  24.585  1.00  0.00    -0.242 NA
BRANCH  11  19
ATOM     19  C   UNL A   1      33.522  23.548  23.045  1.00  0.00     0.243 C 
ATOM     20  O   UNL A   1      33.815  23.241  21.883  1.00  0.00    -0.273 OA
ATOM     21  N   UNL A   1      34.390  24.383  23.657  1.00  0.00    -0.350 N 
ATOM     22  H   UNL A   1      35.222  24.535  23.155  1.00  0.00     0.163 HD
BRANCH  21  23
ATOM     23  C   UNL A   1      34.323  25.089  24.910  1.00  0.00     0.151 C 
BRANCH  23  24
ATOM     24  C   UNL A   1      33.868  26.523  24.811  1.00  0.00    -0.029 A 
ATOM     25  C   UNL A   1      33.625  27.057  23.537  1.00  0.00     0.005 A 
ATOM     26  C   UNL A   1      33.660  27.344  25.928  1.00  0.00     0.005 A 
ATOM     27  C   UNL A   1      33.167  28.368  23.387  1.00  0.00     0.000 A 
ATOM     28  C   UNL A   1      33.174  28.644  25.781  1.00  0.00     0.000 A 
ATOM     29  C   UNL A   1      32.929  29.155  24.510  1.00  0.00     0.000 A 
ENDBRANCH  23  24
ENDBRANCH  21  23
ENDBRANCH  11  19
ENDBRANCH   7   9
ENDBRANCH   6   7
ENDBRANCH   5   6
ENDBRANCH   3   5
ENDBRANCH   2   3
ENDBRANCH   1   2
BRANCH   1  30
ATOM     30  C   UNL A   1      38.653  23.111  26.696  1.00  0.00     0.202 C 
BRANCH  30  31
ATOM     31  O   UNL A   1      39.826  22.573  26.103  1.00  0.00    -0.374 OA
BRANCH  31  32
ATOM     32  C   UNL A   1      41.066  22.586  26.818  1.00  0.00     0.202 C 
BRANCH  32  33
ATOM     33  C   UNL A   1      42.212  23.510  26.413  1.00  0.00     0.261 C 
BRANCH  33  34
ATOM     34  O   UNL A   1      42.048  24.842  26.903  1.00  0.00    -0.460 OA
BRANCH  34  35
ATOM     35  C   UNL A   1      41.626  25.740  25.995  1.00  0.00     0.338 C 
ATOM     36  O   UNL A   1      42.110  25.932  24.882  1.00  0.00    -0.246 OA
BRANCH  35  37
ATOM     37  C   UNL A   1      40.591  26.616  26.559  1.00  0.00     0.060 A 
ATOM     38  C   UNL A   1      40.808  27.979  26.343  1.00  0.00     0.016 A 
ATOM     39  C   UNL A   1      39.760  26.151  27.588  1.00  0.00     0.016 A 
ATOM     40  C   UNL A   1      40.475  28.850  27.353  1.00  0.00     0.010 A 
ATOM     41  C   UNL A   1      39.417  27.032  28.595  1.00  0.00     0.010 A 
ATOM     42  C   UNL A   1      39.903  28.336  28.521  1.00  0.00    -0.014 A 
BRANCH  42  43
ATOM     43  C   UNL A   1      40.007  29.183  29.694  1.00  0.00     0.031 A 
ATOM     44  C   UNL A   1      38.930  30.170  29.881  1.00  0.00     0.074 A 
ATOM     45  C   UNL A   1      41.036  29.098  30.559  1.00  0.00     0.049 A 
ATOM     46  N   UNL A   1      39.020  31.459  29.854  1.00  0.00    -0.248 NA
ATOM     47  C   UNL A   1      37.574  29.641  30.043  1.00  0.00     0.031 C 
ATOM     48  C   UNL A   1      42.008  28.009  30.698  1.00  0.00     0.029 A 
ATOM     49  N   UNL A   1      41.336  29.927  31.599  1.00  0.00    -0.354 N 
ATOM     50  C   UNL A   1      37.748  31.915  30.180  1.00  0.00     0.074 A 
ATOM     51  C   UNL A   1      36.874  30.767  30.162  1.00  0.00     0.031 C 
ATOM     52  C   UNL A   1      42.609  28.116  31.904  1.00  0.00     0.029 A 
ATOM     53  C   UNL A   1      42.166  29.345  32.541  1.00  0.00     0.049 A 
ATOM     54  H   UNL A   1      40.997  30.848  31.671  1.00  0.00     0.167 HD
ATOM     55  C   UNL A   1      37.514  33.175  30.628  1.00  0.00     0.034 A 
ATOM     56  C   UNL A   1      42.387  29.795  33.797  1.00  0.00     0.034 A 
ATOM     57  C   UNL A   1      38.608  34.073  30.403  1.00  0.00     0.049 A 
ATOM     58  C   UNL A   1      42.009  31.225  33.852  1.00  0.00     0.074 A 
ATOM     59  C   UNL A   1      39.259  34.573  29.295  1.00  0.00     0.029 A 
ATOM     60  N   UNL A   1      39.396  34.384  31.483  1.00  0.00    -0.354 N 
ATOM     61  N   UNL A   1      42.664  32.186  33.261  1.00  0.00    -0.248 NA
ATOM     62  C   UNL A   1      40.680  31.576  34.325  1.00  0.00     0.031 C 
ATOM     63  C   UNL A   1      40.600  34.804  29.714  1.00  0.00     0.029 A 
ATOM     64  C   UNL A   1      40.697  34.409  31.051  1.00  0.00     0.049 A 
ATOM     65  H   UNL A   1      39.084  34.559  32.400  1.00  0.00     0.167 HD
ATOM     66  C   UNL A   1      41.694  33.124  32.928  1.00  0.00     0.074 A 
ATOM     67  C   UNL A   1      40.535  32.766  33.736  1.00  0.00     0.031 C 
ATOM     68  C   UNL A   1      41.822  33.920  31.825  1.00  0.00     0.034 A 
BRANCH  55  69
ATOM     69  C   UNL A   1      36.359  33.529  31.516  1.00  0.00     0.023 A 
ATOM     70  C   UNL A   1      36.300  32.962  32.803  1.00  0.00     0.012 A 
ATOM     71  C   UNL A   1      35.226  34.239  31.063  1.00  0.00     0.148 A 
ATOM     72  C   UNL A   1      35.168  33.114  33.611  1.00  0.00     0.002 A 
ATOM     73  C   UNL A   1      34.145  34.468  31.903  1.00  0.00     0.091 A 
ATOM     74  F   UNL A   1      35.136  34.605  29.776  1.00  0.00    -0.205 F 
ATOM     75  C   UNL A   1      34.099  33.890  33.172  1.00  0.00     0.022 A 
BRANCH  73  76
ATOM     76  S   UNL A   1      32.824  35.566  31.383  1.00  0.00     0.127 S 
ATOM     77  O   UNL A   1      33.483  36.867  31.414  1.00  0.00    -0.237 OA
ATOM     78  O   UNL A   1      32.505  35.066  30.045  1.00  0.00    -0.237 OA
ATOM     79  O   UNL A   1      31.769  35.340  32.365  1.00  0.00    -0.744 OA
ENDBRANCH  73  76
ENDBRANCH  55  69
BRANCH  56  80
ATOM     80  C   UNL A   1      42.680  29.006  35.012  1.00  0.00     0.023 A 
ATOM     81  C   UNL A   1      41.700  28.144  35.538  1.00  0.00     0.012 A 
ATOM     82  C   UNL A   1      43.994  28.917  35.525  1.00  0.00     0.148 A 
ATOM     83  C   UNL A   1      42.021  27.213  36.532  1.00  0.00     0.002 A 
ATOM     84  C   UNL A   1      44.304  28.005  36.528  1.00  0.00     0.091 A 
ATOM     85  F   UNL A   1      44.960  29.658  34.965  1.00  0.00    -0.205 F 
ATOM     86  C   UNL A   1      43.320  27.143  37.029  1.00  0.00     0.022 A 
BRANCH  84  87
ATOM     87  S   UNL A   1      45.961  27.874  37.213  1.00  0.00     0.127 S 
ATOM     88  O   UNL A   1      46.170  29.211  37.771  1.00  0.00    -0.237 OA
ATOM     89  O   UNL A   1      45.797  26.816  38.205  1.00  0.00    -0.237 OA
ATOM     90  O   UNL A   1      46.826  27.563  36.082  1.00  0.00    -0.744 OA
ENDBRANCH  84  87
ENDBRANCH  56  80
BRANCH  68  91
ATOM     91  C   UNL A   1      43.172  34.000  31.150  1.00  0.00     0.023 A 
ATOM     92  C   UNL A   1      44.144  34.931  31.572  1.00  0.00     0.012 A 
ATOM     93  C   UNL A   1      43.545  33.004  30.228  1.00  0.00     0.148 A 
ATOM     94  C   UNL A   1      45.446  34.890  31.069  1.00  0.00     0.002 A 
ATOM     95  C   UNL A   1      44.856  32.936  29.766  1.00  0.00     0.091 A 
ATOM     96  F   UNL A   1      42.618  32.115  29.839  1.00  0.00    -0.205 F 
ATOM     97  C   UNL A   1      45.806  33.883  30.177  1.00  0.00     0.022 A 
BRANCH  95  98
ATOM     98  S   UNL A   1      45.423  31.579  28.734  1.00  0.00     0.127 S 
ATOM     99  O   UNL A   1      44.949  31.978  27.411  1.00  0.00    -0.237 OA
ATOM    100  O   UNL A   1      46.877  31.633  28.903  1.00  0.00    -0.237 OA
ATOM    101  O   UNL A   1      44.809  30.378  29.290  1.00  0.00    -0.744 OA
ENDBRANCH  95  98
ENDBRANCH  68  91
ENDBRANCH  42  43
ENDBRANCH  35  37
ENDBRANCH  34  35
ENDBRANCH  33  34
ENDBRANCH  32  33
ENDBRANCH  31  32
ENDBRANCH  30  31
ENDBRANCH   1  30
TORSDOF 23
ENDMDL
MODEL 2
REMARK VINA RESULT:     -10.3      2.900      8.078
REMARK SMILES O=C(CCC(=O)N1Cc2[nH]cnc2C[C@H]1C(=O)NCc1ccccc1)OCCOCCOC(=O)c1ccc(-c2c3nc(c(-c4cccc(S(=O)(=O)[O-])c4F)c4ccc([nH]4)c(-c4cccc(S(=O)(=O)[O-])c4F)c4nc(c(-c5cccc(S(=O)(=O)[O-])c5F)c5ccc2[nH]5)C=C4)C=C3)cc1
REMARK SMILES IDX 27 1 26 2 2 3 1 4 3 5 4 6 5 7 6 8 7 9 8 10 15 11 9 12 14 13
REMARK SMILES IDX 10 14 13 15 11 16 12 18 16 19 17 20 18 21 19 23 20 24 21 25
REMARK SMILES IDX 25 26 22 27 24 28 23 29 28 30 29 31 30 32 31 33 32 34 33 35
REMARK SMILES IDX 34 36 35 37 36 38 97 39 37 40 96 41 38 42 39 43 40 44 90 45
REMARK SMILES IDX 41 46 95 47 89 48 91 49 42 50 94 51 88 52 87 53 43 55 75 56
REMARK SMILES IDX 55 57 74 58 56 59 59 60 73 61 92 62 57 63 58 64 72 66 93 67
REMARK SMILES IDX 60 68 44 69 45 70 53 71 46 72 48 73 54 74 47 75 49 76 50 77
REMARK SMILES IDX 51 78 52 79 76 80 77 81 85 82 78 83 80 84 86 85 79 86 81 87
REMARK SMILES IDX 82 88 83 89 84 90 61 91 62 92 70 93 63 94 65 95 71 96 64 97
REMARK SMILES IDX 66 98 67 99 68 100 69 101
REMARK H PARENT 10 17 18 22 91 54 59 65
REMARK Flexibility Score: inf
ROOT
ATOM      1  C   UNL A   1      34.419  31.343  27.423  1.00  0.00     0.261 C 
ENDROOT
BRANCH   1   2
ATOM      2  O   UNL A   1      33.443  30.292  27.411  1.00  0.00    -0.463 OA
BRANCH   2   3
ATOM      3  C   UNL A   1      32.255  30.369  26.770  1.00  0.00     0.306 C 
ATOM      4  O   UNL A   1      31.722  31.456  26.567  1.00  0.00    -0.252 OA
BRANCH   3   5
ATOM      5  C   UNL A   1      31.649  29.109  26.233  1.00  0.00     0.132 C 
BRANCH   5   6
ATOM      6  C   UNL A   1      31.312  29.306  24.765  1.00  0.00     0.112 C 
BRANCH   6   7
ATOM      7  C   UNL A   1      30.953  28.007  24.072  1.00  0.00     0.224 C 
ATOM      8  O   UNL A   1      30.329  28.069  23.005  1.00  0.00    -0.275 OA
BRANCH   7   9
ATOM      9  N   UNL A   1      31.339  26.782  24.613  1.00  0.00    -0.324 N 
ATOM     10  C   UNL A   1      30.336  26.204  25.526  1.00  0.00     0.176 C 
ATOM     11  C   UNL A   1      32.736  26.211  24.516  1.00  0.00     0.180 C 
ATOM     12  C   UNL A   1      30.785  24.923  26.073  1.00  0.00     0.058 A 
ATOM     13  C   UNL A   1      33.207  25.268  25.655  1.00  0.00     0.093 C 
ATOM     14  N   UNL A   1      30.020  23.919  26.591  1.00  0.00    -0.347 N 
ATOM     15  C   UNL A   1      32.074  24.477  26.154  1.00  0.00     0.066 A 
ATOM     16  C   UNL A   1      30.878  22.909  26.936  1.00  0.00     0.197 A 
ATOM     17  H   UNL A   1      29.041  23.920  26.696  1.00  0.00     0.167 HD
ATOM     18  N   UNL A   1      32.129  23.218  26.669  1.00  0.00    -0.242 NA
BRANCH  11  19
ATOM     19  C   UNL A   1      33.193  25.657  23.147  1.00  0.00     0.243 C 
ATOM     20  O   UNL A   1      33.546  26.447  22.263  1.00  0.00    -0.273 OA
ATOM     21  N   UNL A   1      33.287  24.349  22.823  1.00  0.00    -0.350 N 
ATOM     22  H   UNL A   1      33.493  24.184  21.875  1.00  0.00     0.163 HD
BRANCH  21  23
ATOM     23  C   UNL A   1      33.140  23.151  23.609  1.00  0.00     0.151 C 
BRANCH  23  24
ATOM     24  C   UNL A   1      34.428  22.445  23.943  1.00  0.00    -0.029 A 
ATOM     25  C   UNL A   1      35.633  23.015  23.505  1.00  0.00     0.005 A 
ATOM     26  C   UNL A   1      34.485  21.255  24.682  1.00  0.00     0.005 A 
ATOM     27  C   UNL A   1      36.859  22.424  23.818  1.00  0.00     0.000 A 
ATOM     28  C   UNL A   1      35.711  20.679  25.019  1.00  0.00     0.000 A 
ATOM     29  C   UNL A   1      36.897  21.264  24.586  1.00  0.00     0.000 A 
ENDBRANCH  23  24
ENDBRANCH  21  23
ENDBRANCH  11  19
ENDBRANCH   7   9
ENDBRANCH   6   7
ENDBRANCH   5   6
ENDBRANCH   3   5
ENDBRANCH   2   3
ENDBRANCH   1   2
BRANCH   1  30
ATOM     30  C   UNL A   1      34.392  32.208  28.687  1.00  0.00     0.202 C 
BRANCH  30  31
ATOM     31  O   UNL A   1      35.094  33.442  28.675  1.00  0.00    -0.374 OA
BRANCH  31  32
ATOM     32  C   UNL A   1      34.422  34.650  28.304  1.00  0.00     0.202 C 
BRANCH  32  33
ATOM     33  C   UNL A   1      33.233  35.181  29.103  1.00  0.00     0.261 C 
BRANCH  33  34
ATOM     34  O   UNL A   1      33.135  34.596  30.403  1.00  0.00    -0.460 OA
BRANCH  34  35
ATOM     35  C   UNL A   1      33.636  35.339  31.406  1.00  0.00     0.338 C 
ATOM     36  O   UNL A   1      33.576  36.562  31.507  1.00  0.00    -0.246 OA
BRANCH  35  37
ATOM     37  C   UNL A   1      34.439  34.518  32.321  1.00  0.00     0.060 A 
ATOM     38  C   UNL A   1      35.490  35.201  32.938  1.00  0.00     0.016 A 
ATOM     39  C   UNL A   1      34.429  33.121  32.206  1.00  0.00     0.016 A 
ATOM     40  C   UNL A   1      36.671  34.525  33.127  1.00  0.00     0.010 A 
ATOM     41  C   UNL A   1      35.615  32.443  32.409  1.00  0.00     0.010 A 
ATOM     42  C   UNL A   1      36.749  33.185  32.732  1.00  0.00    -0.014 A 
BRANCH  42  43
ATOM     43  C   UNL A   1      38.089  32.674  32.514  1.00  0.00     0.031 A 
ATOM     44  C   UNL A   1      39.010  32.753  33.660  1.00  0.00     0.074 A 
ATOM     45  C   UNL A   1      38.488  32.173  31.329  1.00  0.00     0.049 A 
ATOM     46  N   UNL A   1      40.093  33.451  33.764  1.00  0.00    -0.248 NA
ATOM     47  C   UNL A   1      38.626  32.014  34.865  1.00  0.00     0.031 C 
ATOM     48  C   UNL A   1      37.650  31.748  30.203  1.00  0.00     0.029 A 
ATOM     49  N   UNL A   1      39.745  31.811  30.945  1.00  0.00    -0.354 N 
ATOM     50  C   UNL A   1      40.633  33.098  34.994  1.00  0.00     0.074 A 
ATOM     51  C   UNL A   1      39.635  32.313  35.680  1.00  0.00     0.031 C 
ATOM     52  C   UNL A   1      38.386  30.957  29.391  1.00  0.00     0.029 A 
ATOM     53  C   UNL A   1      39.759  30.945  29.865  1.00  0.00     0.049 A 
ATOM     54  H   UNL A   1      40.560  32.135  31.391  1.00  0.00     0.167 HD
ATOM     55  C   UNL A   1      41.936  33.310  35.310  1.00  0.00     0.034 A 
ATOM     56  C   UNL A   1      40.807  30.192  29.461  1.00  0.00     0.034 A 
ATOM     57  C   UNL A   1      42.597  34.223  34.425  1.00  0.00     0.049 A 
ATOM     58  C   UNL A   1      42.045  30.779  30.021  1.00  0.00     0.074 A 
ATOM     59  C   UNL A   1      42.446  35.553  34.093  1.00  0.00     0.029 A 
ATOM     60  N   UNL A   1      43.442  33.687  33.486  1.00  0.00    -0.354 N 
ATOM     61  N   UNL A   1      42.560  31.917  29.643  1.00  0.00    -0.248 NA
ATOM     62  C   UNL A   1      42.573  30.236  31.262  1.00  0.00     0.031 C 
ATOM     63  C   UNL A   1      42.883  35.658  32.741  1.00  0.00     0.029 A 
ATOM     64  C   UNL A   1      43.254  34.379  32.318  1.00  0.00     0.049 A 
ATOM     65  H   UNL A   1      44.069  32.941  33.626  1.00  0.00     0.167 HD
ATOM     66  C   UNL A   1      43.167  32.426  30.785  1.00  0.00     0.074 A 
ATOM     67  C   UNL A   1      43.271  31.290  31.692  1.00  0.00     0.031 C 
ATOM     68  C   UNL A   1      43.263  33.772  31.001  1.00  0.00     0.034 A 
BRANCH  55  69
ATOM     69  C   UNL A   1      42.688  32.470  36.299  1.00  0.00     0.023 A 
ATOM     70  C   UNL A   1      43.312  33.108  37.387  1.00  0.00     0.012 A 
ATOM     71  C   UNL A   1      42.974  31.103  36.092  1.00  0.00     0.148 A 
ATOM     72  C   UNL A   1      44.169  32.408  38.244  1.00  0.00     0.002 A 
ATOM     73  C   UNL A   1      43.748  30.392  36.999  1.00  0.00     0.091 A 
ATOM     74  F   UNL A   1      42.593  30.505  34.955  1.00  0.00    -0.205 F 
ATOM     75  C   UNL A   1      44.367  31.043  38.066  1.00  0.00     0.022 A 
BRANCH  73  76
ATOM     76  S   UNL A   1      43.903  28.611  36.838  1.00  0.00     0.127 S 
ATOM     77  O   UNL A   1      44.428  28.235  38.146  1.00  0.00    -0.237 OA
ATOM     78  O   UNL A   1      42.524  28.195  36.582  1.00  0.00    -0.237 OA
ATOM     79  O   UNL A   1      44.794  28.435  35.696  1.00  0.00    -0.744 OA
ENDBRANCH  73  76
ENDBRANCH  55  69
BRANCH  56  80
ATOM     80  C   UNL A   1      40.782  28.862  28.816  1.00  0.00     0.023 A 
ATOM     81  C   UNL A   1      39.768  27.945  29.148  1.00  0.00     0.012 A 
ATOM     82  C   UNL A   1      41.608  28.574  27.706  1.00  0.00     0.148 A 
ATOM     83  C   UNL A   1      39.574  26.784  28.391  1.00  0.00     0.002 A 
ATOM     84  C   UNL A   1      41.425  27.408  26.969  1.00  0.00     0.091 A 
ATOM     85  F   UNL A   1      42.510  29.484  27.314  1.00  0.00    -0.205 F 
ATOM     86  C   UNL A   1      40.401  26.514  27.303  1.00  0.00     0.022 A 
BRANCH  84  87
ATOM     87  S   UNL A   1      42.466  27.003  25.560  1.00  0.00     0.127 S 
ATOM     88  O   UNL A   1      42.280  28.169  24.695  1.00  0.00    -0.237 OA
ATOM     89  O   UNL A   1      43.785  26.905  26.177  1.00  0.00    -0.237 OA
ATOM     90  O   UNL A   1      41.919  25.768  25.015  1.00  0.00    -0.744 OA
ENDBRANCH  84  87
ENDBRANCH  56  80
BRANCH  68  91
ATOM     91  C   UNL A   1      42.996  34.706  29.842  1.00  0.00     0.023 A 
ATOM     92  C   UNL A   1      41.680  35.005  29.435  1.00  0.00     0.012 A 
ATOM     93  C   UNL A   1      44.060  35.445  29.291  1.00  0.00     0.148 A 
ATOM     94  C   UNL A   1      41.429  35.996  28.483  1.00  0.00     0.002 A 
ATOM     95  C   UNL A   1      43.803  36.465  28.380  1.00  0.00     0.091 A 
ATOM     96  F   UNL A   1      45.309  35.162  29.692  1.00  0.00    -0.205 F 
ATOM     97  C   UNL A   1      42.490  36.736  27.966  1.00  0.00     0.022 A 
BRANCH  95  98
ATOM     98  S   UNL A   1      45.105  37.554  27.790  1.00  0.00     0.127 S 
ATOM     99  O   UNL A   1      45.962  36.635  27.046  1.00  0.00    -0.237 OA
ATOM    100  O   UNL A   1      44.371  38.511  26.960  1.00  0.00    -0.237 OA
ATOM    101  O   UNL A   1      45.698  38.143  28.986  1.00  0.00    -0.744 OA
ENDBRANCH  95  98
ENDBRANCH  68  91
ENDBRANCH  42  43
ENDBRANCH  35  37
ENDBRANCH  34  35
ENDBRANCH  33  34
ENDBRANCH  32  33
ENDBRANCH  31  32
ENDBRANCH  30  31
ENDBRANCH   1  30
TORSDOF 23
ENDMDL
MODEL 3
REMARK VINA RESULT:     -10.1      3.637      8.854
REMARK SMILES O=C(CCC(=O)N1Cc2[nH]cnc2C[C@H]1C(=O)NCc1ccccc1)OCCOCCOC(=O)c1ccc(-c2c3nc(c(-c4cccc(S(=O)(=O)[O-])c4F)c4ccc([nH]4)c(-c4cccc(S(=O)(=O)[O-])c4F)c4nc(c(-c5cccc(S(=O)(=O)[O-])c5F)c5ccc2[nH]5)C=C4)C=C3)cc1
REMARK SMILES IDX 27 1 26 2 2 3 1 4 3 5 4 6 5 7 6 8 7 9 8 10 15 11 9 12 14 13
REMARK SMILES IDX 10 14 13 15 11 16 12 18 16 19 17 20 18 21 19 23 20 24 21 25
REMARK SMILES IDX 25 26 22 27 24 28 23 29 28 30 29 31 30 32 31 33 32 34 33 35
REMARK SMILES IDX 34 36 35 37 36 38 97 39 37 40 96 41 38 42 39 43 40 44 90 45
REMARK SMILES IDX 41 46 95 47 89 48 91 49 42 50 94 51 88 52 87 53 43 55 75 56
REMARK SMILES IDX 55 57 74 58 56 59 59 60 73 61 92 62 57 63 58 64 72 66 93 67
REMARK SMILES IDX 60 68 44 69 45 70 53 71 46 72 48 73 54 74 47 75 49 76 50 77
REMARK SMILES IDX 51 78 52 79 76 80 77 81 85 82 78 83 80 84 86 85 79 86 81 87
REMARK SMILES IDX 82 88 83 89 84 90 61 91 62 92 70 93 63 94 65 95 71 96 64 97
REMARK SMILES IDX 66 98 67 99 68 100 69 101
REMARK H PARENT 10 17 18 22 91 54 59 65
REMARK Flexibility Score: inf
ROOT
ATOM      1  C   UNL A   1      31.760  29.144  27.119  1.00  0.00     0.261 C 
ENDROOT
BRANCH   1   2
ATOM      2  O   UNL A   1      31.709  28.225  26.019  1.00  0.00    -0.463 OA
BRANCH   2   3
ATOM      3  C   UNL A   1      31.560  28.597  24.728  1.00  0.00     0.306 C 
ATOM      4  O   UNL A   1      30.446  28.828  24.267  1.00  0.00    -0.252 OA
BRANCH   3   5
ATOM      5  C   UNL A   1      32.789  28.812  23.899  1.00  0.00     0.132 C 
BRANCH   5   6
ATOM      6  C   UNL A   1      33.714  27.618  24.061  1.00  0.00     0.112 C 
BRANCH   6   7
ATOM      7  C   UNL A   1      33.094  26.330  23.562  1.00  0.00     0.224 C 
ATOM      8  O   UNL A   1      32.190  26.405  22.720  1.00  0.00    -0.275 OA
BRANCH   7   9
ATOM      9  N   UNL A   1      33.550  25.096  24.023  1.00  0.00    -0.324 N 
ATOM     10  C   UNL A   1      33.519  24.973  25.492  1.00  0.00     0.176 C 
ATOM     11  C   UNL A   1      34.262  24.075  23.163  1.00  0.00     0.180 C 
ATOM     12  C   UNL A   1      34.011  23.666  25.931  1.00  0.00     0.058 A 
ATOM     13  C   UNL A   1      35.271  23.127  23.862  1.00  0.00     0.093 C 
ATOM     14  N   UNL A   1      33.761  23.030  27.111  1.00  0.00    -0.347 N 
ATOM     15  C   UNL A   1      34.811  22.814  25.221  1.00  0.00     0.066 A 
ATOM     16  C   UNL A   1      34.399  21.819  27.050  1.00  0.00     0.197 A 
ATOM     17  H   UNL A   1      33.225  23.374  27.862  1.00  0.00     0.167 HD
ATOM     18  N   UNL A   1      35.033  21.659  25.908  1.00  0.00    -0.242 NA
BRANCH  11  19
ATOM     19  C   UNL A   1      33.418  23.287  22.135  1.00  0.00     0.243 C 
ATOM     20  O   UNL A   1      33.550  23.533  20.930  1.00  0.00    -0.273 OA
ATOM     21  N   UNL A   1      32.551  22.294  22.430  1.00  0.00    -0.350 N 
ATOM     22  H   UNL A   1      32.025  21.980  21.661  1.00  0.00     0.163 HD
BRANCH  21  23
ATOM     23  C   UNL A   1      32.255  21.612  23.663  1.00  0.00     0.151 C 
BRANCH  23  24
ATOM     24  C   UNL A   1      32.474  20.122  23.637  1.00  0.00    -0.029 A 
ATOM     25  C   UNL A   1      32.212  19.431  22.445  1.00  0.00     0.005 A 
ATOM     26  C   UNL A   1      32.942  19.393  24.739  1.00  0.00     0.005 A 
ATOM     27  C   UNL A   1      32.433  18.055  22.352  1.00  0.00     0.000 A 
ATOM     28  C   UNL A   1      33.191  18.023  24.640  1.00  0.00     0.000 A 
ATOM     29  C   UNL A   1      32.935  17.355  23.446  1.00  0.00     0.000 A 
ENDBRANCH  23  24
ENDBRANCH  21  23
ENDBRANCH  11  19
ENDBRANCH   7   9
ENDBRANCH   6   7
ENDBRANCH   5   6
ENDBRANCH   3   5
ENDBRANCH   2   3
ENDBRANCH   1   2
BRANCH   1  30
ATOM     30  C   UNL A   1      32.287  30.535  26.750  1.00  0.00     0.202 C 
BRANCH  30  31
ATOM     31  O   UNL A   1      33.562  30.924  27.237  1.00  0.00    -0.374 OA
BRANCH  31  32
ATOM     32  C   UNL A   1      33.750  32.225  27.806  1.00  0.00     0.202 C 
BRANCH  32  33
ATOM     33  C   UNL A   1      35.144  32.776  28.098  1.00  0.00     0.261 C 
BRANCH  33  34
ATOM     34  O   UNL A   1      35.817  32.059  29.134  1.00  0.00    -0.460 OA
BRANCH  34  35
ATOM     35  C   UNL A   1      36.785  31.223  28.717  1.00  0.00     0.338 C 
ATOM     36  O   UNL A   1      36.868  30.698  27.610  1.00  0.00    -0.246 OA
BRANCH  35  37
ATOM     37  C   UNL A   1      37.680  30.858  29.824  1.00  0.00     0.060 A 
ATOM     38  C   UNL A   1      38.922  31.497  29.797  1.00  0.00     0.016 A 
ATOM     39  C   UNL A   1      37.475  29.664  30.530  1.00  0.00     0.016 A 
ATOM     40  C   UNL A   1      40.025  30.774  30.182  1.00  0.00     0.010 A 
ATOM     41  C   UNL A   1      38.586  28.946  30.927  1.00  0.00     0.010 A 
ATOM     42  C   UNL A   1      39.845  29.457  30.617  1.00  0.00    -0.014 A 
BRANCH  42  43
ATOM     43  C   UNL A   1      41.023  28.612  30.558  1.00  0.00     0.031 A 
ATOM     44  C   UNL A   1      41.696  28.345  31.840  1.00  0.00     0.074 A 
ATOM     45  C   UNL A   1      41.497  28.112  29.401  1.00  0.00     0.049 A 
ATOM     46  N   UNL A   1      42.882  28.706  32.205  1.00  0.00    -0.248 NA
ATOM     47  C   UNL A   1      40.911  27.652  32.864  1.00  0.00     0.031 C 
ATOM     48  C   UNL A   1      40.809  28.023  28.109  1.00  0.00     0.029 A 
ATOM     49  N   UNL A   1      42.667  27.446  29.185  1.00  0.00    -0.354 N 
ATOM     50  C   UNL A   1      43.068  28.124  33.453  1.00  0.00     0.074 A 
ATOM     51  C   UNL A   1      41.789  27.596  33.864  1.00  0.00     0.031 C 
ATOM     52  C   UNL A   1      41.457  27.124  27.335  1.00  0.00     0.029 A 
ATOM     53  C   UNL A   1      42.663  26.695  28.022  1.00  0.00     0.049 A 
ATOM     54  H   UNL A   1      43.438  27.497  29.795  1.00  0.00     0.167 HD
ATOM     55  C   UNL A   1      44.296  27.941  34.002  1.00  0.00     0.034 A 
ATOM     56  C   UNL A   1      43.537  25.715  27.703  1.00  0.00     0.034 A 
ATOM     57  C   UNL A   1      45.327  28.701  33.358  1.00  0.00     0.049 A 
ATOM     58  C   UNL A   1      44.755  25.891  28.527  1.00  0.00     0.074 A 
ATOM     59  C   UNL A   1      45.592  30.041  33.175  1.00  0.00     0.029 A 
ATOM     60  N   UNL A   1      46.168  28.025  32.510  1.00  0.00    -0.354 N 
ATOM     61  N   UNL A   1      45.609  26.867  28.384  1.00  0.00    -0.248 NA
ATOM     62  C   UNL A   1      44.877  25.130  29.759  1.00  0.00     0.031 C 
ATOM     63  C   UNL A   1      46.291  30.124  31.937  1.00  0.00     0.029 A 
ATOM     64  C   UNL A   1      46.392  28.828  31.423  1.00  0.00     0.049 A 
ATOM     65  H   UNL A   1      46.542  27.125  32.656  1.00  0.00     0.167 HD
ATOM     66  C   UNL A   1      46.097  27.099  29.664  1.00  0.00     0.074 A 
ATOM     67  C   UNL A   1      45.729  25.913  30.426  1.00  0.00     0.031 C 
ATOM     68  C   UNL A   1      46.495  28.346  30.059  1.00  0.00     0.034 A 
BRANCH  55  69
ATOM     69  C   UNL A   1      44.602  26.853  34.987  1.00  0.00     0.023 A 
ATOM     70  C   UNL A   1      45.039  27.214  36.275  1.00  0.00     0.012 A 
ATOM     71  C   UNL A   1      44.669  25.488  34.634  1.00  0.00     0.148 A 
ATOM     72  C   UNL A   1      45.503  26.253  37.179  1.00  0.00     0.002 A 
ATOM     73  C   UNL A   1      45.039  24.529  35.566  1.00  0.00     0.091 A 
ATOM     74  F   UNL A   1      44.482  25.117  33.360  1.00  0.00    -0.205 F 
ATOM     75  C   UNL A   1      45.479  24.905  36.835  1.00  0.00     0.022 A 
BRANCH  73  76
ATOM     76  S   UNL A   1      44.893  22.786  35.162  1.00  0.00     0.127 S 
ATOM     77  O   UNL A   1      45.189  22.153  36.442  1.00  0.00    -0.237 OA
ATOM     78  O   UNL A   1      43.499  22.678  34.727  1.00  0.00    -0.237 OA
ATOM     79  O   UNL A   1      45.863  22.588  34.090  1.00  0.00    -0.744 OA
ENDBRANCH  73  76
ENDBRANCH  55  69
BRANCH  56  80
ATOM     80  C   UNL A   1      43.293  24.497  26.901  1.00  0.00     0.023 A 
ATOM     81  C   UNL A   1      44.285  24.033  26.019  1.00  0.00     0.012 A 
ATOM     82  C   UNL A   1      42.187  23.658  27.167  1.00  0.00     0.148 A 
ATOM     83  C   UNL A   1      44.188  22.766  25.431  1.00  0.00     0.002 A 
ATOM     84  C   UNL A   1      42.084  22.408  26.565  1.00  0.00     0.091 A 
ATOM     85  F   UNL A   1      41.286  24.042  28.082  1.00  0.00    -0.205 F 
ATOM     86  C   UNL A   1      43.089  21.954  25.702  1.00  0.00     0.022 A 
BRANCH  84  87
ATOM     87  S   UNL A   1      40.685  21.321  26.870  1.00  0.00     0.127 S 
ATOM     88  O   UNL A   1      40.755  21.129  28.320  1.00  0.00    -0.237 OA
ATOM     89  O   UNL A   1      39.563  22.135  26.414  1.00  0.00    -0.237 OA
ATOM     90  O   UNL A   1      40.956  20.113  26.100  1.00  0.00    -0.744 OA
ENDBRANCH  84  87
ENDBRANCH  56  80
BRANCH  68  91
ATOM     91  C   UNL A   1      46.705  29.402  28.999  1.00  0.00     0.023 A 
ATOM     92  C   UNL A   1      47.948  29.545  28.349  1.00  0.00     0.012 A 
ATOM     93  C   UNL A   1      45.597  30.116  28.506  1.00  0.00     0.148 A 
ATOM     94  C   UNL A   1      48.093  30.400  27.253  1.00  0.00     0.002 A 
ATOM     95  C   UNL A   1      45.733  30.928  27.384  1.00  0.00     0.091 A 
ATOM     96  F   UNL A   1      44.415  29.966  29.123  1.00  0.00    -0.205 F 
ATOM     97  C   UNL A   1      46.982  31.080  26.761  1.00  0.00     0.022 A 
BRANCH  95  98
ATOM     98  S   UNL A   1      44.314  31.714  26.610  1.00  0.00     0.127 S 
ATOM     99  O   UNL A   1      43.445  30.573  26.329  1.00  0.00    -0.237 OA
ATOM    100  O   UNL A   1      43.827  32.606  27.664  1.00  0.00    -0.237 OA
ATOM    101  O   UNL A   1      44.839  32.412  25.442  1.00  0.00    -0.744 OA
ENDBRANCH  95  98
ENDBRANCH  68  91
ENDBRANCH  42  43
ENDBRANCH  35  37
ENDBRANCH  34  35
ENDBRANCH  33  34
ENDBRANCH  32  33
ENDBRANCH  31  32
ENDBRANCH  30  31
ENDBRANCH   1  30
TORSDOF 23
ENDMDL
