MODEL 1
REMARK VINA RESULT:     -10.5      0.000      0.000
REMARK SMILES CC(C)(C)OC(=O)N[C@H](Cc1ccc(N=[N+]=[N-])cc1)C(=O)OCCOCCOC(=O)c1ccc(-c2c3nc(c(-c4cccc(S(=O)(=O)[O-])c4F)c4ccc([nH]4)c(-c4cccc(S(=O)(=O)[O-])c4F)c4nc(c(-c5cccc(S(=O)(=O)[O-])c5F)c5ccc2[nH]5)C=C4)C=C3)cc1
REMARK SMILES IDX 25 1 24 2 23 3 22 4 20 5 21 6 9 7 8 8 6 9 7 10 5 12 2 13
REMARK SMILES IDX 1 14 3 15 4 16 10 17 11 18 12 19 19 20 13 21 18 22 14 23
REMARK SMILES IDX 15 24 16 25 17 26 26 27 27 28 28 29 29 30 30 31 31 32 32 33
REMARK SMILES IDX 93 34 33 35 92 36 34 37 35 38 36 39 86 40 37 41 91 42 85 43
REMARK SMILES IDX 87 44 38 45 90 46 84 47 83 48 39 50 71 51 51 52 70 53 52 54
REMARK SMILES IDX 55 55 69 56 88 57 53 58 54 59 68 61 89 62 56 63 40 64 41 65
REMARK SMILES IDX 49 66 42 67 44 68 50 69 43 70 45 71 46 72 47 73 48 74 72 75
REMARK SMILES IDX 73 76 81 77 74 78 76 79 82 80 75 81 77 82 78 83 79 84 80 85
REMARK SMILES IDX 57 86 58 87 66 88 59 89 61 90 67 91 60 92 62 93 63 94 64 95
REMARK SMILES IDX 65 96
REMARK H PARENT 8 11 87 49 55 60
REMARK Flexibility Score: inf
ROOT
ATOM      1  O   UNL A   1      33.239  29.872  26.180  1.00  0.00    -0.374 OA
ENDROOT
BRANCH   1   2
ATOM      2  C   UNL A   1      33.660  28.513  26.245  1.00  0.00     0.202 C 
BRANCH   2   3
ATOM      3  C   UNL A   1      33.889  27.776  24.924  1.00  0.00     0.261 C 
BRANCH   3   4
ATOM      4  O   UNL A   1      33.767  28.620  23.764  1.00  0.00    -0.462 OA
BRANCH   4   5
ATOM      5  C   UNL A   1      33.187  28.041  22.681  1.00  0.00     0.329 C 
ATOM      6  O   UNL A   1      33.776  27.304  21.893  1.00  0.00    -0.250 OA
BRANCH   5   7
ATOM      7  C   UNL A   1      31.752  28.507  22.410  1.00  0.00     0.199 C 
BRANCH   7   8
ATOM      8  N   UNL A   1      31.562  29.535  23.440  1.00  0.00    -0.308 N 
ATOM      9  C   UNL A   1      30.391  30.005  23.929  1.00  0.00     0.408 C 
ATOM     10  O   UNL A   1      30.368  30.949  24.704  1.00  0.00    -0.225 OA
ATOM     11  H   UNL A   1      32.381  29.928  23.817  1.00  0.00     0.168 HD
BRANCH   9  12
ATOM     12  O   UNL A   1      29.326  29.302  23.488  1.00  0.00    -0.444 OA
BRANCH  12  13
ATOM     13  C   UNL A   1      28.170  30.005  22.978  1.00  0.00     0.106 C 
ATOM     14  C   UNL A   1      28.522  30.321  21.518  1.00  0.00     0.056 C 
ATOM     15  C   UNL A   1      27.946  31.319  23.731  1.00  0.00     0.056 C 
ATOM     16  C   UNL A   1      26.929  29.102  22.995  1.00  0.00     0.056 C 
ENDBRANCH  12  13
ENDBRANCH   9  12
ENDBRANCH   7   8
BRANCH   7  17
ATOM     17  C   UNL A   1      30.650  27.419  22.380  1.00  0.00     0.072 C 
BRANCH  17  18
ATOM     18  C   UNL A   1      30.795  26.248  23.347  1.00  0.00    -0.045 A 
ATOM     19  C   UNL A   1      31.274  24.986  22.970  1.00  0.00     0.004 A 
ATOM     20  C   UNL A   1      30.324  26.395  24.662  1.00  0.00     0.004 A 
ATOM     21  C   UNL A   1      31.379  23.947  23.909  1.00  0.00     0.010 A 
ATOM     22  C   UNL A   1      30.423  25.353  25.595  1.00  0.00     0.010 A 
ATOM     23  C   UNL A   1      30.988  24.125  25.238  1.00  0.00     0.038 A 
BRANCH  23  24
ATOM     24  N   UNL A   1      31.129  23.043  26.128  1.00  0.00    -0.061 NA
ATOM     25  N   UNL A   1      30.210  22.933  26.958  1.00  0.00     0.005 N 
ATOM     26  N   UNL A   1      29.370  22.815  27.727  1.00  0.00    -0.003 NA
ENDBRANCH  23  24
ENDBRANCH  17  18
ENDBRANCH   7  17
ENDBRANCH   5   7
ENDBRANCH   4   5
ENDBRANCH   3   4
ENDBRANCH   2   3
ENDBRANCH   1   2
BRANCH   1  27
ATOM     27  C   UNL A   1      33.158  30.613  27.393  1.00  0.00     0.202 C 
BRANCH  27  28
ATOM     28  C   UNL A   1      32.552  32.020  27.338  1.00  0.00     0.261 C 
BRANCH  28  29
ATOM     29  O   UNL A   1      33.532  33.074  27.270  1.00  0.00    -0.460 OA
BRANCH  29  30
ATOM     30  C   UNL A   1      33.471  33.948  28.307  1.00  0.00     0.338 C 
ATOM     31  O   UNL A   1      32.599  34.778  28.512  1.00  0.00    -0.246 OA
BRANCH  30  32
ATOM     32  C   UNL A   1      34.522  33.690  29.308  1.00  0.00     0.060 A 
ATOM     33  C   UNL A   1      35.796  34.200  29.040  1.00  0.00     0.016 A 
ATOM     34  C   UNL A   1      34.327  32.794  30.362  1.00  0.00     0.016 A 
ATOM     35  C   UNL A   1      36.892  33.766  29.782  1.00  0.00     0.010 A 
ATOM     36  C   UNL A   1      35.433  32.366  31.113  1.00  0.00     0.010 A 
ATOM     37  C   UNL A   1      36.730  32.813  30.797  1.00  0.00    -0.014 A 
BRANCH  37  38
ATOM     38  C   UNL A   1      37.946  32.237  31.436  1.00  0.00     0.031 A 
ATOM     39  C   UNL A   1      38.396  32.720  32.792  1.00  0.00     0.074 A 
ATOM     40  C   UNL A   1      38.604  31.227  30.838  1.00  0.00     0.049 A 
ATOM     41  N   UNL A   1      39.369  32.274  33.546  1.00  0.00    -0.248 NA
ATOM     42  C   UNL A   1      37.657  33.849  33.376  1.00  0.00     0.031 C 
ATOM     43  C   UNL A   1      38.275  30.670  29.526  1.00  0.00     0.029 A 
ATOM     44  N   UNL A   1      39.685  30.491  31.254  1.00  0.00    -0.354 N 
ATOM     45  C   UNL A   1      39.377  33.078  34.681  1.00  0.00     0.074 A 
ATOM     46  C   UNL A   1      38.320  34.053  34.507  1.00  0.00     0.031 C 
ATOM     47  C   UNL A   1      39.136  29.678  29.245  1.00  0.00     0.029 A 
ATOM     48  C   UNL A   1      40.094  29.549  30.340  1.00  0.00     0.049 A 
ATOM     49  H   UNL A   1      40.126  30.625  32.124  1.00  0.00     0.167 HD
ATOM     50  C   UNL A   1      40.175  33.005  35.774  1.00  0.00     0.034 A 
ATOM     51  C   UNL A   1      41.129  28.687  30.372  1.00  0.00     0.034 A 
ATOM     52  C   UNL A   1      41.219  32.027  35.953  1.00  0.00     0.049 A 
ATOM     53  C   UNL A   1      42.008  28.634  31.592  1.00  0.00     0.074 A 
ATOM     54  C   UNL A   1      42.048  31.845  37.047  1.00  0.00     0.029 A 
ATOM     55  N   UNL A   1      41.590  31.079  35.013  1.00  0.00    -0.354 N 
ATOM     56  N   UNL A   1      41.926  29.327  32.701  1.00  0.00    -0.248 NA
ATOM     57  C   UNL A   1      43.099  27.648  31.580  1.00  0.00     0.031 C 
ATOM     58  C   UNL A   1      42.950  30.818  36.749  1.00  0.00     0.029 A 
ATOM     59  C   UNL A   1      42.646  30.320  35.493  1.00  0.00     0.049 A 
ATOM     60  H   UNL A   1      41.166  30.962  34.133  1.00  0.00     0.167 HD
ATOM     61  C   UNL A   1      42.926  28.835  33.534  1.00  0.00     0.074 A 
ATOM     62  C   UNL A   1      43.584  27.768  32.808  1.00  0.00     0.031 C 
ATOM     63  C   UNL A   1      43.274  29.235  34.782  1.00  0.00     0.034 A 
BRANCH  50  64
ATOM     64  C   UNL A   1      39.951  34.008  36.879  1.00  0.00     0.023 A 
ATOM     65  C   UNL A   1      40.271  35.366  36.677  1.00  0.00     0.012 A 
ATOM     66  C   UNL A   1      39.358  33.616  38.097  1.00  0.00     0.148 A 
ATOM     67  C   UNL A   1      40.041  36.309  37.679  1.00  0.00     0.002 A 
ATOM     68  C   UNL A   1      39.087  34.570  39.072  1.00  0.00     0.091 A 
ATOM     69  F   UNL A   1      39.074  32.319  38.280  1.00  0.00    -0.205 F 
ATOM     70  C   UNL A   1      39.440  35.914  38.871  1.00  0.00     0.022 A 
BRANCH  68  71
ATOM     71  S   UNL A   1      38.240  34.175  40.607  1.00  0.00     0.127 S 
ATOM     72  O   UNL A   1      39.240  33.356  41.293  1.00  0.00    -0.237 OA
ATOM     73  O   UNL A   1      38.031  35.500  41.192  1.00  0.00    -0.237 OA
ATOM     74  O   UNL A   1      37.020  33.478  40.226  1.00  0.00    -0.744 OA
ENDBRANCH  68  71
ENDBRANCH  50  64
BRANCH  51  75
ATOM     75  C   UNL A   1      41.376  27.778  29.217  1.00  0.00     0.023 A 
ATOM     76  C   UNL A   1      40.684  26.555  29.122  1.00  0.00     0.012 A 
ATOM     77  C   UNL A   1      42.289  28.132  28.205  1.00  0.00     0.148 A 
ATOM     78  C   UNL A   1      40.928  25.683  28.059  1.00  0.00     0.002 A 
ATOM     79  C   UNL A   1      42.479  27.288  27.118  1.00  0.00     0.091 A 
ATOM     80  F   UNL A   1      42.946  29.295  28.322  1.00  0.00    -0.205 F 
ATOM     81  C   UNL A   1      41.815  26.054  27.053  1.00  0.00     0.022 A 
BRANCH  79  82
ATOM     82  S   UNL A   1      43.498  27.747  25.713  1.00  0.00     0.127 S 
ATOM     83  O   UNL A   1      42.490  28.015  24.690  1.00  0.00    -0.237 OA
ATOM     84  O   UNL A   1      44.192  28.930  26.222  1.00  0.00    -0.237 OA
ATOM     85  O   UNL A   1      44.363  26.603  25.462  1.00  0.00    -0.744 OA
ENDBRANCH  79  82
ENDBRANCH  51  75
BRANCH  63  86
ATOM     86  C   UNL A   1      44.383  28.479  35.471  1.00  0.00     0.023 A 
ATOM     87  C   UNL A   1      45.731  28.765  35.176  1.00  0.00     0.012 A 
ATOM     88  C   UNL A   1      44.086  27.497  36.438  1.00  0.00     0.148 A 
ATOM     89  C   UNL A   1      46.761  28.048  35.786  1.00  0.00     0.002 A 
ATOM     90  C   UNL A   1      45.118  26.828  37.084  1.00  0.00     0.091 A 
ATOM     91  F   UNL A   1      42.798  27.223  36.697  1.00  0.00    -0.205 F 
ATOM     92  C   UNL A   1      46.454  27.087  36.746  1.00  0.00     0.022 A 
BRANCH  90  93
ATOM     93  S   UNL A   1      44.818  25.646  38.404  1.00  0.00     0.127 S 
ATOM     94  O   UNL A   1      44.037  24.621  37.714  1.00  0.00    -0.237 OA
ATOM     95  O   UNL A   1      46.175  25.238  38.768  1.00  0.00    -0.237 OA
ATOM     96  O   UNL A   1      44.109  26.378  39.444  1.00  0.00    -0.744 OA
ENDBRANCH  90  93
ENDBRANCH  63  86
ENDBRANCH  37  38
ENDBRANCH  30  32
ENDBRANCH  29  30
ENDBRANCH  28  29
ENDBRANCH  27  28
ENDBRANCH   1  27
TORSDOF 23
ENDMDL
MODEL 2
REMARK VINA RESULT:     -10.5      5.607     11.072
REMARK SMILES CC(C)(C)OC(=O)N[C@H](Cc1ccc(N=[N+]=[N-])cc1)C(=O)OCCOCCOC(=O)c1ccc(-c2c3nc(c(-c4cccc(S(=O)(=O)[O-])c4F)c4ccc([nH]4)c(-c4cccc(S(=O)(=O)[O-])c4F)c4nc(c(-c5cccc(S(=O)(=O)[O-])c5F)c5ccc2[nH]5)C=C4)C=C3)cc1
REMARK SMILES IDX 25 1 24 2 23 3 22 4 20 5 21 6 9 7 8 8 6 9 7 10 5 12 2 13
REMARK SMILES IDX 1 14 3 15 4 16 10 17 11 18 12 19 19 20 13 21 18 22 14 23
REMARK SMILES IDX 15 24 16 25 17 26 26 27 27 28 28 29 29 30 30 31 31 32 32 33
REMARK SMILES IDX 93 34 33 35 92 36 34 37 35 38 36 39 86 40 37 41 91 42 85 43
REMARK SMILES IDX 87 44 38 45 90 46 84 47 83 48 39 50 71 51 51 52 70 53 52 54
REMARK SMILES IDX 55 55 69 56 88 57 53 58 54 59 68 61 89 62 56 63 40 64 41 65
REMARK SMILES IDX 49 66 42 67 44 68 50 69 43 70 45 71 46 72 47 73 48 74 72 75
REMARK SMILES IDX 73 76 81 77 74 78 76 79 82 80 75 81 77 82 78 83 79 84 80 85
REMARK SMILES IDX 57 86 58 87 66 88 59 89 61 90 67 91 60 92 62 93 63 94 64 95
REMARK SMILES IDX 65 96
REMARK H PARENT 8 11 87 49 55 60
REMARK Flexibility Score: inf
ROOT
ATOM      1  O   UNL A   1      37.703  21.937  25.118  1.00  0.00    -0.374 OA
ENDROOT
BRANCH   1   2
ATOM      2  C   UNL A   1      37.214  23.275  25.089  1.00  0.00     0.202 C 
BRANCH   2   3
ATOM      3  C   UNL A   1      36.226  23.693  26.180  1.00  0.00     0.261 C 
BRANCH   3   4
ATOM      4  O   UNL A   1      35.319  24.733  25.769  1.00  0.00    -0.462 OA
BRANCH   4   5
ATOM      5  C   UNL A   1      34.018  24.360  25.653  1.00  0.00     0.329 C 
ATOM      6  O   UNL A   1      33.368  23.832  26.553  1.00  0.00    -0.250 OA
BRANCH   5   7
ATOM      7  C   UNL A   1      33.445  24.501  24.239  1.00  0.00     0.199 C 
BRANCH   7   8
ATOM      8  N   UNL A   1      32.003  24.575  24.495  1.00  0.00    -0.308 N 
ATOM      9  C   UNL A   1      31.171  25.612  24.243  1.00  0.00     0.408 C 
ATOM     10  O   UNL A   1      30.008  25.589  24.613  1.00  0.00    -0.225 OA
ATOM     11  H   UNL A   1      31.593  23.776  24.899  1.00  0.00     0.168 HD
BRANCH   9  12
ATOM     12  O   UNL A   1      31.771  26.596  23.540  1.00  0.00    -0.444 OA
BRANCH  12  13
ATOM     13  C   UNL A   1      31.660  27.965  23.993  1.00  0.00     0.106 C 
ATOM     14  C   UNL A   1      31.849  27.886  25.515  1.00  0.00     0.056 C 
ATOM     15  C   UNL A   1      30.270  28.535  23.694  1.00  0.00     0.056 C 
ATOM     16  C   UNL A   1      32.785  28.829  23.408  1.00  0.00     0.056 C 
ENDBRANCH  12  13
ENDBRANCH   9  12
ENDBRANCH   7   8
BRANCH   7  17
ATOM     17  C   UNL A   1      33.857  23.430  23.198  1.00  0.00     0.072 C 
BRANCH  17  18
ATOM     18  C   UNL A   1      33.475  21.983  23.494  1.00  0.00    -0.045 A 
ATOM     19  C   UNL A   1      34.186  21.158  24.377  1.00  0.00     0.004 A 
ATOM     20  C   UNL A   1      32.423  21.401  22.769  1.00  0.00     0.004 A 
ATOM     21  C   UNL A   1      33.784  19.832  24.602  1.00  0.00     0.010 A 
ATOM     22  C   UNL A   1      32.029  20.073  22.991  1.00  0.00     0.010 A 
ATOM     23  C   UNL A   1      32.684  19.282  23.941  1.00  0.00     0.038 A 
BRANCH  23  24
ATOM     24  N   UNL A   1      32.332  17.948  24.222  1.00  0.00    -0.061 NA
ATOM     25  N   UNL A   1      33.112  17.098  23.757  1.00  0.00     0.005 N 
ATOM     26  N   UNL A   1      33.822  16.304  23.340  1.00  0.00    -0.003 NA
ENDBRANCH  23  24
ENDBRANCH  17  18
ENDBRANCH   7  17
ENDBRANCH   5   7
ENDBRANCH   4   5
ENDBRANCH   3   4
ENDBRANCH   2   3
ENDBRANCH   1   2
BRANCH   1  27
ATOM     27  C   UNL A   1      38.854  21.655  25.908  1.00  0.00     0.202 C 
BRANCH  27  28
ATOM     28  C   UNL A   1      39.519  20.284  25.746  1.00  0.00     0.261 C 
BRANCH  28  29
ATOM     29  O   UNL A   1      40.595  20.046  26.676  1.00  0.00    -0.460 OA
BRANCH  29  30
ATOM     30  C   UNL A   1      41.824  20.026  26.099  1.00  0.00     0.338 C 
ATOM     31  O   UNL A   1      42.233  19.219  25.280  1.00  0.00    -0.246 OA
BRANCH  30  32
ATOM     32  C   UNL A   1      42.612  21.224  26.443  1.00  0.00     0.060 A 
ATOM     33  C   UNL A   1      42.709  21.555  27.799  1.00  0.00     0.016 A 
ATOM     34  C   UNL A   1      43.056  22.116  25.464  1.00  0.00     0.016 A 
ATOM     35  C   UNL A   1      43.188  22.805  28.179  1.00  0.00     0.010 A 
ATOM     36  C   UNL A   1      43.547  23.373  25.853  1.00  0.00     0.010 A 
ATOM     37  C   UNL A   1      43.571  23.745  27.211  1.00  0.00    -0.014 A 
BRANCH  37  38
ATOM     38  C   UNL A   1      43.896  25.130  27.650  1.00  0.00     0.031 A 
ATOM     39  C   UNL A   1      45.321  25.622  27.628  1.00  0.00     0.074 A 
ATOM     40  C   UNL A   1      42.906  25.974  27.994  1.00  0.00     0.049 A 
ATOM     41  N   UNL A   1      45.786  26.820  27.880  1.00  0.00    -0.248 NA
ATOM     42  C   UNL A   1      46.360  24.641  27.277  1.00  0.00     0.031 C 
ATOM     43  C   UNL A   1      41.488  25.624  28.061  1.00  0.00     0.029 A 
ATOM     44  N   UNL A   1      42.943  27.298  28.354  1.00  0.00    -0.354 N 
ATOM     45  C   UNL A   1      47.167  26.735  27.742  1.00  0.00     0.074 A 
ATOM     46  C   UNL A   1      47.467  25.361  27.400  1.00  0.00     0.031 C 
ATOM     47  C   UNL A   1      40.788  26.707  28.437  1.00  0.00     0.029 A 
ATOM     48  C   UNL A   1      41.709  27.818  28.667  1.00  0.00     0.049 A 
ATOM     49  H   UNL A   1      43.774  27.827  28.384  1.00  0.00     0.167 HD
ATOM     50  C   UNL A   1      48.099  27.711  27.871  1.00  0.00     0.034 A 
ATOM     51  C   UNL A   1      41.358  29.044  29.101  1.00  0.00     0.034 A 
ATOM     52  C   UNL A   1      47.800  29.083  28.198  1.00  0.00     0.049 A 
ATOM     53  C   UNL A   1      42.414  30.106  29.247  1.00  0.00     0.074 A 
ATOM     54  C   UNL A   1      48.673  30.152  28.304  1.00  0.00     0.029 A 
ATOM     55  N   UNL A   1      46.537  29.573  28.491  1.00  0.00    -0.354 N 
ATOM     56  N   UNL A   1      43.699  30.033  29.001  1.00  0.00    -0.248 NA
ATOM     57  C   UNL A   1      41.961  31.432  29.691  1.00  0.00     0.031 C 
ATOM     58  C   UNL A   1      47.944  31.277  28.704  1.00  0.00     0.029 A 
ATOM     59  C   UNL A   1      46.608  30.924  28.792  1.00  0.00     0.049 A 
ATOM     60  H   UNL A   1      45.710  29.039  28.485  1.00  0.00     0.167 HD
ATOM     61  C   UNL A   1      44.202  31.311  29.221  1.00  0.00     0.074 A 
ATOM     62  C   UNL A   1      43.077  32.143  29.596  1.00  0.00     0.031 C 
ATOM     63  C   UNL A   1      45.481  31.755  29.129  1.00  0.00     0.034 A 
BRANCH  50  64
ATOM     64  C   UNL A   1      49.545  27.338  27.647  1.00  0.00     0.023 A 
ATOM     65  C   UNL A   1      50.282  26.719  28.677  1.00  0.00     0.012 A 
ATOM     66  C   UNL A   1      50.155  27.541  26.392  1.00  0.00     0.148 A 
ATOM     67  C   UNL A   1      51.610  26.342  28.474  1.00  0.00     0.002 A 
ATOM     68  C   UNL A   1      51.463  27.119  26.183  1.00  0.00     0.091 A 
ATOM     69  F   UNL A   1      49.445  28.146  25.428  1.00  0.00    -0.205 F 
ATOM     70  C   UNL A   1      52.196  26.531  27.226  1.00  0.00     0.022 A 
BRANCH  68  71
ATOM     71  S   UNL A   1      52.279  27.242  24.587  1.00  0.00     0.127 S 
ATOM     72  O   UNL A   1      52.572  28.674  24.516  1.00  0.00    -0.237 OA
ATOM     73  O   UNL A   1      53.452  26.388  24.774  1.00  0.00    -0.237 OA
ATOM     74  O   UNL A   1      51.321  26.754  23.605  1.00  0.00    -0.744 OA
ENDBRANCH  68  71
ENDBRANCH  50  64
BRANCH  51  75
ATOM     75  C   UNL A   1      39.930  29.344  29.405  1.00  0.00     0.023 A 
ATOM     76  C   UNL A   1      39.010  29.529  28.354  1.00  0.00     0.012 A 
ATOM     77  C   UNL A   1      39.481  29.436  30.736  1.00  0.00     0.148 A 
ATOM     78  C   UNL A   1      37.676  29.838  28.626  1.00  0.00     0.002 A 
ATOM     79  C   UNL A   1      38.139  29.681  30.998  1.00  0.00     0.091 A 
ATOM     80  F   UNL A   1      40.376  29.270  31.720  1.00  0.00    -0.205 F 
ATOM     81  C   UNL A   1      37.239  29.903  29.946  1.00  0.00     0.022 A 
BRANCH  79  82
ATOM     82  S   UNL A   1      37.465  29.647  32.662  1.00  0.00     0.127 S 
ATOM     83  O   UNL A   1      36.140  30.227  32.458  1.00  0.00    -0.237 OA
ATOM     84  O   UNL A   1      37.474  28.214  32.957  1.00  0.00    -0.237 OA
ATOM     85  O   UNL A   1      38.380  30.435  33.476  1.00  0.00    -0.744 OA
ENDBRANCH  79  82
ENDBRANCH  51  75
BRANCH  63  86
ATOM     86  C   UNL A   1      45.728  33.222  29.385  1.00  0.00     0.023 A 
ATOM     87  C   UNL A   1      46.157  33.663  30.652  1.00  0.00     0.012 A 
ATOM     88  C   UNL A   1      45.559  34.166  28.351  1.00  0.00     0.148 A 
ATOM     89  C   UNL A   1      46.357  35.020  30.903  1.00  0.00     0.002 A 
ATOM     90  C   UNL A   1      45.816  35.509  28.592  1.00  0.00     0.091 A 
ATOM     91  F   UNL A   1      45.134  33.734  27.153  1.00  0.00    -0.205 F 
ATOM     92  C   UNL A   1      46.195  35.942  29.872  1.00  0.00     0.022 A 
BRANCH  90  93
ATOM     93  S   UNL A   1      45.731  36.751  27.296  1.00  0.00     0.127 S 
ATOM     94  O   UNL A   1      44.291  36.834  27.057  1.00  0.00    -0.237 OA
ATOM     95  O   UNL A   1      46.309  37.924  27.954  1.00  0.00    -0.237 OA
ATOM     96  O   UNL A   1      46.521  36.230  26.189  1.00  0.00    -0.744 OA
ENDBRANCH  90  93
ENDBRANCH  63  86
ENDBRANCH  37  38
ENDBRANCH  30  32
ENDBRANCH  29  30
ENDBRANCH  28  29
ENDBRANCH  27  28
ENDBRANCH   1  27
TORSDOF 23
ENDMDL
MODEL 3
REMARK VINA RESULT:     -10.3      1.373      7.504
REMARK SMILES CC(C)(C)OC(=O)N[C@H](Cc1ccc(N=[N+]=[N-])cc1)C(=O)OCCOCCOC(=O)c1ccc(-c2c3nc(c(-c4cccc(S(=O)(=O)[O-])c4F)c4ccc([nH]4)c(-c4cccc(S(=O)(=O)[O-])c4F)c4nc(c(-c5cccc(S(=O)(=O)[O-])c5F)c5ccc2[nH]5)C=C4)C=C3)cc1
REMARK SMILES IDX 25 1 24 2 23 3 22 4 20 5 21 6 9 7 8 8 6 9 7 10 5 12 2 13
REMARK SMILES IDX 1 14 3 15 4 16 10 17 11 18 12 19 19 20 13 21 18 22 14 23
REMARK SMILES IDX 15 24 16 25 17 26 26 27 27 28 28 29 29 30 30 31 31 32 32 33
REMARK SMILES IDX 93 34 33 35 92 36 34 37 35 38 36 39 86 40 37 41 91 42 85 43
REMARK SMILES IDX 87 44 38 45 90 46 84 47 83 48 39 50 71 51 51 52 70 53 52 54
REMARK SMILES IDX 55 55 69 56 88 57 53 58 54 59 68 61 89 62 56 63 40 64 41 65
REMARK SMILES IDX 49 66 42 67 44 68 50 69 43 70 45 71 46 72 47 73 48 74 72 75
REMARK SMILES IDX 73 76 81 77 74 78 76 79 82 80 75 81 77 82 78 83 79 84 80 85
REMARK SMILES IDX 57 86 58 87 66 88 59 89 61 90 67 91 60 92 62 93 63 94 64 95
REMARK SMILES IDX 65 96
REMARK H PARENT 8 11 87 49 55 60
REMARK Flexibility Score: inf
ROOT
ATOM      1  O   UNL A   1      33.239  30.091  26.402  1.00  0.00    -0.374 OA
ENDROOT
BRANCH   1   2
ATOM      2  C   UNL A   1      33.982  28.883  26.276  1.00  0.00     0.202 C 
BRANCH   2   3
ATOM      3  C   UNL A   1      33.963  28.175  24.920  1.00  0.00     0.261 C 
BRANCH   3   4
ATOM      4  O   UNL A   1      33.375  28.961  23.868  1.00  0.00    -0.462 OA
BRANCH   4   5
ATOM      5  C   UNL A   1      32.827  28.252  22.846  1.00  0.00     0.329 C 
ATOM      6  O   UNL A   1      33.478  27.688  21.970  1.00  0.00    -0.250 OA
BRANCH   5   7
ATOM      7  C   UNL A   1      31.299  28.337  22.770  1.00  0.00     0.199 C 
BRANCH   7   8
ATOM      8  N   UNL A   1      30.983  29.238  23.883  1.00  0.00    -0.308 N 
ATOM      9  C   UNL A   1      30.329  30.421  23.826  1.00  0.00     0.408 C 
ATOM     10  O   UNL A   1      30.233  31.134  24.813  1.00  0.00    -0.225 OA
ATOM     11  H   UNL A   1      31.282  28.949  24.774  1.00  0.00     0.168 HD
BRANCH   9  12
ATOM     12  O   UNL A   1      29.806  30.665  22.606  1.00  0.00    -0.444 OA
BRANCH  12  13
ATOM     13  C   UNL A   1      28.503  31.286  22.500  1.00  0.00     0.106 C 
ATOM     14  C   UNL A   1      27.986  30.867  21.116  1.00  0.00     0.056 C 
ATOM     15  C   UNL A   1      28.612  32.812  22.548  1.00  0.00     0.056 C 
ATOM     16  C   UNL A   1      27.546  30.733  23.564  1.00  0.00     0.056 C 
ENDBRANCH  12  13
ENDBRANCH   9  12
ENDBRANCH   7   8
BRANCH   7  17
ATOM     17  C   UNL A   1      30.515  27.001  22.786  1.00  0.00     0.072 C 
BRANCH  17  18
ATOM     18  C   UNL A   1      31.181  25.806  23.462  1.00  0.00    -0.045 A 
ATOM     19  C   UNL A   1      31.835  24.784  22.762  1.00  0.00     0.004 A 
ATOM     20  C   UNL A   1      31.044  25.655  24.852  1.00  0.00     0.004 A 
ATOM     21  C   UNL A   1      32.424  23.707  23.445  1.00  0.00     0.010 A 
ATOM     22  C   UNL A   1      31.627  24.574  25.530  1.00  0.00     0.010 A 
ATOM     23  C   UNL A   1      32.358  23.605  24.836  1.00  0.00     0.038 A 
BRANCH  23  24
ATOM     24  N   UNL A   1      32.980  22.504  25.457  1.00  0.00    -0.061 NA
ATOM     25  N   UNL A   1      32.427  21.411  25.244  1.00  0.00     0.005 N 
ATOM     26  N   UNL A   1      31.933  20.396  25.054  1.00  0.00    -0.003 NA
ENDBRANCH  23  24
ENDBRANCH  17  18
ENDBRANCH   7  17
ENDBRANCH   5   7
ENDBRANCH   4   5
ENDBRANCH   3   4
ENDBRANCH   2   3
ENDBRANCH   1   2
BRANCH   1  27
ATOM     27  C   UNL A   1      33.688  31.067  27.338  1.00  0.00     0.202 C 
BRANCH  27  28
ATOM     28  C   UNL A   1      32.819  32.311  27.553  1.00  0.00     0.261 C 
BRANCH  28  29
ATOM     29  O   UNL A   1      33.517  33.553  27.333  1.00  0.00    -0.460 OA
BRANCH  29  30
ATOM     30  C   UNL A   1      33.462  34.407  28.387  1.00  0.00     0.338 C 
ATOM     31  O   UNL A   1      32.612  35.259  28.593  1.00  0.00    -0.246 OA
BRANCH  30  32
ATOM     32  C   UNL A   1      34.484  34.095  29.403  1.00  0.00     0.060 A 
ATOM     33  C   UNL A   1      35.823  34.248  29.026  1.00  0.00     0.016 A 
ATOM     34  C   UNL A   1      34.156  33.464  30.605  1.00  0.00     0.016 A 
ATOM     35  C   UNL A   1      36.835  33.713  29.818  1.00  0.00     0.010 A 
ATOM     36  C   UNL A   1      35.181  32.934  31.405  1.00  0.00     0.010 A 
ATOM     37  C   UNL A   1      36.525  33.012  30.993  1.00  0.00    -0.014 A 
BRANCH  37  38
ATOM     38  C   UNL A   1      37.617  32.296  31.707  1.00  0.00     0.031 A 
ATOM     39  C   UNL A   1      38.357  31.168  31.033  1.00  0.00     0.074 A 
ATOM     40  C   UNL A   1      38.002  32.706  32.930  1.00  0.00     0.049 A 
ATOM     41  N   UNL A   1      39.395  30.492  31.456  1.00  0.00    -0.248 NA
ATOM     42  C   UNL A   1      37.866  30.744  29.713  1.00  0.00     0.031 C 
ATOM     43  C   UNL A   1      37.369  33.781  33.693  1.00  0.00     0.029 A 
ATOM     44  N   UNL A   1      39.015  32.266  33.745  1.00  0.00    -0.354 N 
ATOM     45  C   UNL A   1      39.670  29.550  30.470  1.00  0.00     0.074 A 
ATOM     46  C   UNL A   1      38.676  29.731  29.434  1.00  0.00     0.031 C 
ATOM     47  C   UNL A   1      38.009  33.920  34.866  1.00  0.00     0.029 A 
ATOM     48  C   UNL A   1      39.076  32.925  34.950  1.00  0.00     0.049 A 
ATOM     49  H   UNL A   1      39.639  31.548  33.491  1.00  0.00     0.167 HD
ATOM     50  C   UNL A   1      40.665  28.631  30.421  1.00  0.00     0.034 A 
ATOM     51  C   UNL A   1      39.890  32.744  36.009  1.00  0.00     0.034 A 
ATOM     52  C   UNL A   1      41.664  28.459  31.447  1.00  0.00     0.049 A 
ATOM     53  C   UNL A   1      40.979  31.708  35.933  1.00  0.00     0.074 A 
ATOM     54  C   UNL A   1      42.739  27.586  31.463  1.00  0.00     0.029 A 
ATOM     55  N   UNL A   1      41.702  29.157  32.644  1.00  0.00    -0.354 N 
ATOM     56  N   UNL A   1      41.291  30.907  34.945  1.00  0.00    -0.248 NA
ATOM     57  C   UNL A   1      41.855  31.583  37.107  1.00  0.00     0.031 C 
ATOM     58  C   UNL A   1      43.399  27.725  32.689  1.00  0.00     0.029 A 
ATOM     59  C   UNL A   1      42.771  28.725  33.413  1.00  0.00     0.049 A 
ATOM     60  H   UNL A   1      41.064  29.857  32.909  1.00  0.00     0.167 HD
ATOM     61  C   UNL A   1      42.422  30.212  35.360  1.00  0.00     0.074 A 
ATOM     62  C   UNL A   1      42.753  30.706  36.681  1.00  0.00     0.031 C 
ATOM     63  C   UNL A   1      43.118  29.245  34.711  1.00  0.00     0.034 A 
BRANCH  50  64
ATOM     64  C   UNL A   1      40.738  27.735  29.209  1.00  0.00     0.023 A 
ATOM     65  C   UNL A   1      39.881  26.621  29.101  1.00  0.00     0.012 A 
ATOM     66  C   UNL A   1      41.611  28.036  28.142  1.00  0.00     0.148 A 
ATOM     67  C   UNL A   1      39.917  25.801  27.973  1.00  0.00     0.002 A 
ATOM     68  C   UNL A   1      41.606  27.243  27.001  1.00  0.00     0.091 A 
ATOM     69  F   UNL A   1      42.431  29.090  28.267  1.00  0.00    -0.205 F 
ATOM     70  C   UNL A   1      40.770  26.118  26.919  1.00  0.00     0.022 A 
BRANCH  68  71
ATOM     71  S   UNL A   1      42.607  27.616  25.556  1.00  0.00     0.127 S 
ATOM     72  O   UNL A   1      42.275  26.498  24.672  1.00  0.00    -0.237 OA
ATOM     73  O   UNL A   1      42.068  28.909  25.134  1.00  0.00    -0.237 OA
ATOM     74  O   UNL A   1      43.987  27.653  26.020  1.00  0.00    -0.744 OA
ENDBRANCH  68  71
ENDBRANCH  50  64
BRANCH  51  75
ATOM     75  C   UNL A   1      39.723  33.585  37.227  1.00  0.00     0.023 A 
ATOM     76  C   UNL A   1      38.775  33.228  38.206  1.00  0.00     0.012 A 
ATOM     77  C   UNL A   1      40.511  34.736  37.422  1.00  0.00     0.148 A 
ATOM     78  C   UNL A   1      38.589  34.024  39.338  1.00  0.00     0.002 A 
ATOM     79  C   UNL A   1      40.365  35.487  38.580  1.00  0.00     0.091 A 
ATOM     80  F   UNL A   1      41.398  35.064  36.471  1.00  0.00    -0.205 F 
ATOM     81  C   UNL A   1      39.392  35.145  39.530  1.00  0.00     0.022 A 
BRANCH  79  82
ATOM     82  S   UNL A   1      41.447  36.865  38.973  1.00  0.00     0.127 S 
ATOM     83  O   UNL A   1      40.496  37.859  39.465  1.00  0.00    -0.237 OA
ATOM     84  O   UNL A   1      42.315  36.281  39.995  1.00  0.00    -0.237 OA
ATOM     85  O   UNL A   1      42.125  37.202  37.729  1.00  0.00    -0.744 OA
ENDBRANCH  79  82
ENDBRANCH  51  75
BRANCH  63  86
ATOM     86  C   UNL A   1      44.346  28.694  35.395  1.00  0.00     0.023 A 
ATOM     87  C   UNL A   1      45.616  29.247  35.135  1.00  0.00     0.012 A 
ATOM     88  C   UNL A   1      44.233  27.638  36.323  1.00  0.00     0.148 A 
ATOM     89  C   UNL A   1      46.758  28.721  35.740  1.00  0.00     0.002 A 
ATOM     90  C   UNL A   1      45.368  27.159  36.965  1.00  0.00     0.091 A 
ATOM     91  F   UNL A   1      43.021  27.111  36.548  1.00  0.00    -0.205 F 
ATOM     92  C   UNL A   1      46.633  27.684  36.661  1.00  0.00     0.022 A 
BRANCH  90  93
ATOM     93  S   UNL A   1      45.288  25.894  38.239  1.00  0.00     0.127 S 
ATOM     94  O   UNL A   1      46.690  25.777  38.631  1.00  0.00    -0.237 OA
ATOM     95  O   UNL A   1      44.423  26.519  39.241  1.00  0.00    -0.237 OA
ATOM     96  O   UNL A   1      44.715  24.717  37.599  1.00  0.00    -0.744 OA
ENDBRANCH  90  93
ENDBRANCH  63  86
ENDBRANCH  37  38
ENDBRANCH  30  32
ENDBRANCH  29  30
ENDBRANCH  28  29
ENDBRANCH  27  28
ENDBRANCH   1  27
TORSDOF 23
ENDMDL
