MODEL 1
REMARK VINA RESULT:     -11.4      0.000      0.000
REMARK SMILES CCN(C(=O)c1ccc(C)cc1F)[C@@H]1COC[C@@H]1C(=O)OCCOCCOC(=O)c1ccc(-c2c3nc(c(-c4cccc(S(=O)(=O)[O-])c4F)c4ccc([nH]4)c(-c4cccc(S(=O)(=O)[O-])c4F)c4nc(c(-c5cccc(S(=O)(=O)[O-])c5F)c5ccc2[nH]5)C=C4)C=C3)cc1
REMARK SMILES IDX 24 1 23 2 22 3 21 4 19 5 20 6 18 7 14 8 15 9 16 10 17 11
REMARK SMILES IDX 3 12 2 13 1 14 4 15 5 16 6 17 7 18 12 19 8 20 11 21 13 22
REMARK SMILES IDX 9 23 10 24 25 25 26 26 27 27 28 28 29 29 30 30 31 31 92 32
REMARK SMILES IDX 32 33 91 34 33 35 34 36 35 37 85 38 36 39 90 40 84 41 86 42
REMARK SMILES IDX 37 43 89 44 83 45 82 46 38 48 70 49 50 50 69 51 51 52 54 53
REMARK SMILES IDX 68 54 87 55 52 56 53 57 67 59 88 60 55 61 39 62 40 63 48 64
REMARK SMILES IDX 41 65 43 66 49 67 42 68 44 69 45 70 46 71 47 72 71 73 72 74
REMARK SMILES IDX 80 75 73 76 75 77 81 78 74 79 76 80 77 81 78 82 79 83 56 84
REMARK SMILES IDX 57 85 65 86 58 87 60 88 66 89 59 90 61 91 62 92 63 93 64 94
REMARK H PARENT 86 47 54 58
REMARK Flexibility Score: inf
ROOT
ATOM      1  O   UNL A   1      35.130  21.551  25.313  1.00  0.00    -0.374 OA
ENDROOT
BRANCH   1   2
ATOM      2  C   UNL A   1      33.911  21.377  26.039  1.00  0.00     0.202 C 
BRANCH   2   3
ATOM      3  C   UNL A   1      32.924  22.538  25.948  1.00  0.00     0.261 C 
BRANCH   3   4
ATOM      4  O   UNL A   1      31.910  22.315  24.951  1.00  0.00    -0.463 OA
BRANCH   4   5
ATOM      5  C   UNL A   1      31.845  23.225  23.948  1.00  0.00     0.313 C 
ATOM      6  O   UNL A   1      30.842  23.422  23.271  1.00  0.00    -0.252 OA
BRANCH   5   7
ATOM      7  C   UNL A   1      33.178  23.914  23.725  1.00  0.00     0.150 C 
ATOM      8  C   UNL A   1      33.215  25.419  23.425  1.00  0.00     0.127 C 
ATOM      9  C   UNL A   1      32.659  25.432  21.997  1.00  0.00     0.186 C 
ATOM     10  O   UNL A   1      33.171  24.258  21.350  1.00  0.00    -0.378 OA
ATOM     11  C   UNL A   1      33.683  23.381  22.376  1.00  0.00     0.177 C 
BRANCH   8  12
ATOM     12  N   UNL A   1      32.730  26.515  24.311  1.00  0.00    -0.333 N 
BRANCH  12  13
ATOM     13  C   UNL A   1      33.700  26.974  25.326  1.00  0.00     0.117 C 
ATOM     14  C   UNL A   1      33.201  28.185  26.101  1.00  0.00     0.027 C 
ENDBRANCH  12  13
BRANCH  12  15
ATOM     15  C   UNL A   1      31.339  26.653  24.530  1.00  0.00     0.257 C 
ATOM     16  O   UNL A   1      30.786  26.055  25.449  1.00  0.00    -0.269 OA
BRANCH  15  17
ATOM     17  C   UNL A   1      30.477  27.518  23.656  1.00  0.00     0.075 A 
ATOM     18  C   UNL A   1      29.079  27.404  23.617  1.00  0.00     0.017 A 
ATOM     19  C   UNL A   1      31.059  28.588  22.967  1.00  0.00     0.136 A 
ATOM     20  C   UNL A   1      28.290  28.317  22.898  1.00  0.00     0.004 A 
ATOM     21  C   UNL A   1      30.275  29.531  22.287  1.00  0.00     0.043 A 
ATOM     22  F   UNL A   1      32.388  28.766  22.963  1.00  0.00    -0.206 F 
ATOM     23  C   UNL A   1      28.880  29.414  22.262  1.00  0.00    -0.048 A 
ATOM     24  C   UNL A   1      28.022  30.533  21.740  1.00  0.00     0.044 C 
ENDBRANCH  15  17
ENDBRANCH  12  15
ENDBRANCH   8  12
ENDBRANCH   5   7
ENDBRANCH   4   5
ENDBRANCH   3   4
ENDBRANCH   2   3
ENDBRANCH   1   2
BRANCH   1  25
ATOM     25  C   UNL A   1      35.849  20.355  25.015  1.00  0.00     0.202 C 
BRANCH  25  26
ATOM     26  C   UNL A   1      37.357  20.548  24.850  1.00  0.00     0.261 C 
BRANCH  26  27
ATOM     27  O   UNL A   1      37.828  21.637  25.664  1.00  0.00    -0.460 OA
BRANCH  27  28
ATOM     28  C   UNL A   1      39.097  21.521  26.139  1.00  0.00     0.338 C 
ATOM     29  O   UNL A   1      39.824  20.551  26.027  1.00  0.00    -0.246 OA
BRANCH  28  30
ATOM     30  C   UNL A   1      39.537  22.809  26.738  1.00  0.00     0.060 A 
ATOM     31  C   UNL A   1      38.877  23.991  26.399  1.00  0.00     0.016 A 
ATOM     32  C   UNL A   1      40.608  22.864  27.623  1.00  0.00     0.016 A 
ATOM     33  C   UNL A   1      39.349  25.220  26.883  1.00  0.00     0.010 A 
ATOM     34  C   UNL A   1      41.063  24.076  28.134  1.00  0.00     0.010 A 
ATOM     35  C   UNL A   1      40.477  25.274  27.718  1.00  0.00    -0.014 A 
BRANCH  35  36
ATOM     36  C   UNL A   1      41.102  26.561  28.111  1.00  0.00     0.031 A 
ATOM     37  C   UNL A   1      42.536  26.849  27.738  1.00  0.00     0.074 A 
ATOM     38  C   UNL A   1      40.427  27.431  28.884  1.00  0.00     0.049 A 
ATOM     39  N   UNL A   1      43.250  27.924  27.959  1.00  0.00    -0.248 NA
ATOM     40  C   UNL A   1      43.282  25.772  27.063  1.00  0.00     0.031 C 
ATOM     41  C   UNL A   1      39.096  27.203  29.447  1.00  0.00     0.029 A 
ATOM     42  N   UNL A   1      40.785  28.668  29.357  1.00  0.00    -0.354 N 
ATOM     43  C   UNL A   1      44.529  27.641  27.487  1.00  0.00     0.074 A 
ATOM     44  C   UNL A   1      44.506  26.278  27.007  1.00  0.00     0.031 C 
ATOM     45  C   UNL A   1      38.748  28.269  30.189  1.00  0.00     0.029 A 
ATOM     46  C   UNL A   1      39.825  29.255  30.146  1.00  0.00     0.049 A 
ATOM     47  H   UNL A   1      41.648  29.094  29.150  1.00  0.00     0.167 HD
ATOM     48  C   UNL A   1      45.610  28.456  27.419  1.00  0.00     0.034 A 
ATOM     49  C   UNL A   1      39.809  30.462  30.746  1.00  0.00     0.034 A 
ATOM     50  C   UNL A   1      45.596  29.835  27.831  1.00  0.00     0.049 A 
ATOM     51  C   UNL A   1      40.963  31.404  30.528  1.00  0.00     0.074 A 
ATOM     52  C   UNL A   1      46.580  30.795  27.663  1.00  0.00     0.029 A 
ATOM     53  N   UNL A   1      44.546  30.453  28.490  1.00  0.00    -0.354 N 
ATOM     54  N   UNL A   1      42.082  31.203  29.876  1.00  0.00    -0.248 NA
ATOM     55  C   UNL A   1      40.828  32.761  31.080  1.00  0.00     0.031 C 
ATOM     56  C   UNL A   1      46.128  31.990  28.233  1.00  0.00     0.029 A 
ATOM     57  C   UNL A   1      44.853  31.780  28.735  1.00  0.00     0.049 A 
ATOM     58  H   UNL A   1      43.703  30.013  28.747  1.00  0.00     0.167 HD
ATOM     59  C   UNL A   1      42.765  32.414  29.904  1.00  0.00     0.074 A 
ATOM     60  C   UNL A   1      41.923  33.350  30.619  1.00  0.00     0.031 C 
ATOM     61  C   UNL A   1      43.985  32.719  29.396  1.00  0.00     0.034 A 
BRANCH  48  62
ATOM     62  C   UNL A   1      46.876  27.918  26.795  1.00  0.00     0.023 A 
ATOM     63  C   UNL A   1      47.798  27.215  27.599  1.00  0.00     0.012 A 
ATOM     64  C   UNL A   1      47.109  28.015  25.408  1.00  0.00     0.148 A 
ATOM     65  C   UNL A   1      48.947  26.653  27.044  1.00  0.00     0.002 A 
ATOM     66  C   UNL A   1      48.233  27.409  24.854  1.00  0.00     0.091 A 
ATOM     67  F   UNL A   1      46.233  28.697  24.657  1.00  0.00    -0.205 F 
ATOM     68  C   UNL A   1      49.158  26.739  25.672  1.00  0.00     0.022 A 
BRANCH  66  69
ATOM     69  S   UNL A   1      48.552  27.378  23.086  1.00  0.00     0.127 S 
ATOM     70  O   UNL A   1      49.886  27.974  23.017  1.00  0.00    -0.237 OA
ATOM     71  O   UNL A   1      48.509  25.945  22.790  1.00  0.00    -0.237 OA
ATOM     72  O   UNL A   1      47.487  28.158  22.471  1.00  0.00    -0.744 OA
ENDBRANCH  66  69
ENDBRANCH  48  62
BRANCH  49  73
ATOM     73  C   UNL A   1      38.600  30.891  31.502  1.00  0.00     0.023 A 
ATOM     74  C   UNL A   1      38.570  30.724  32.900  1.00  0.00     0.012 A 
ATOM     75  C   UNL A   1      37.506  31.499  30.858  1.00  0.00     0.148 A 
ATOM     76  C   UNL A   1      37.459  31.124  33.642  1.00  0.00     0.002 A 
ATOM     77  C   UNL A   1      36.424  31.944  31.609  1.00  0.00     0.091 A 
ATOM     78  F   UNL A   1      37.552  31.644  29.527  1.00  0.00    -0.205 F 
ATOM     79  C   UNL A   1      36.391  31.741  32.998  1.00  0.00     0.022 A 
BRANCH  77  80
ATOM     80  S   UNL A   1      35.060  32.864  30.888  1.00  0.00     0.127 S 
ATOM     81  O   UNL A   1      35.723  34.094  30.462  1.00  0.00    -0.237 OA
ATOM     82  O   UNL A   1      34.642  31.981  29.798  1.00  0.00    -0.237 OA
ATOM     83  O   UNL A   1      34.079  33.009  31.953  1.00  0.00    -0.744 OA
ENDBRANCH  77  80
ENDBRANCH  49  73
BRANCH  61  84
ATOM     84  C   UNL A   1      44.481  34.132  29.557  1.00  0.00     0.023 A 
ATOM     85  C   UNL A   1      45.177  34.502  30.725  1.00  0.00     0.012 A 
ATOM     86  C   UNL A   1      44.326  35.071  28.518  1.00  0.00     0.148 A 
ATOM     87  C   UNL A   1      45.683  35.794  30.871  1.00  0.00     0.002 A 
ATOM     88  C   UNL A   1      44.873  36.342  28.651  1.00  0.00     0.091 A 
ATOM     89  F   UNL A   1      43.646  34.707  27.421  1.00  0.00    -0.205 F 
ATOM     90  C   UNL A   1      45.540  36.709  29.831  1.00  0.00     0.022 A 
BRANCH  88  91
ATOM     91  S   UNL A   1      44.821  37.558  27.328  1.00  0.00     0.127 S 
ATOM     92  O   UNL A   1      45.336  38.750  27.998  1.00  0.00    -0.237 OA
ATOM     93  O   UNL A   1      45.726  36.975  26.336  1.00  0.00    -0.237 OA
ATOM     94  O   UNL A   1      43.428  37.631  26.904  1.00  0.00    -0.744 OA
ENDBRANCH  88  91
ENDBRANCH  61  84
ENDBRANCH  35  36
ENDBRANCH  28  30
ENDBRANCH  27  28
ENDBRANCH  26  27
ENDBRANCH  25  26
ENDBRANCH   1  25
TORSDOF 21
ENDMDL
MODEL 2
REMARK VINA RESULT:     -11.4      4.903     10.452
REMARK SMILES CCN(C(=O)c1ccc(C)cc1F)[C@@H]1COC[C@@H]1C(=O)OCCOCCOC(=O)c1ccc(-c2c3nc(c(-c4cccc(S(=O)(=O)[O-])c4F)c4ccc([nH]4)c(-c4cccc(S(=O)(=O)[O-])c4F)c4nc(c(-c5cccc(S(=O)(=O)[O-])c5F)c5ccc2[nH]5)C=C4)C=C3)cc1
REMARK SMILES IDX 24 1 23 2 22 3 21 4 19 5 20 6 18 7 14 8 15 9 16 10 17 11
REMARK SMILES IDX 3 12 2 13 1 14 4 15 5 16 6 17 7 18 12 19 8 20 11 21 13 22
REMARK SMILES IDX 9 23 10 24 25 25 26 26 27 27 28 28 29 29 30 30 31 31 92 32
REMARK SMILES IDX 32 33 91 34 33 35 34 36 35 37 85 38 36 39 90 40 84 41 86 42
REMARK SMILES IDX 37 43 89 44 83 45 82 46 38 48 70 49 50 50 69 51 51 52 54 53
REMARK SMILES IDX 68 54 87 55 52 56 53 57 67 59 88 60 55 61 39 62 40 63 48 64
REMARK SMILES IDX 41 65 43 66 49 67 42 68 44 69 45 70 46 71 47 72 71 73 72 74
REMARK SMILES IDX 80 75 73 76 75 77 81 78 74 79 76 80 77 81 78 82 79 83 56 84
REMARK SMILES IDX 57 85 65 86 58 87 60 88 66 89 59 90 61 91 62 92 63 93 64 94
REMARK H PARENT 86 47 54 58
REMARK Flexibility Score: inf
ROOT
ATOM      1  O   UNL A   1      31.494  29.195  24.472  1.00  0.00    -0.374 OA
ENDROOT
BRANCH   1   2
ATOM      2  C   UNL A   1      30.398  29.032  23.568  1.00  0.00     0.202 C 
BRANCH   2   3
ATOM      3  C   UNL A   1      30.214  27.623  23.010  1.00  0.00     0.261 C 
BRANCH   3   4
ATOM      4  O   UNL A   1      30.031  26.646  24.050  1.00  0.00    -0.463 OA
BRANCH   4   5
ATOM      5  C   UNL A   1      30.749  25.502  23.932  1.00  0.00     0.313 C 
ATOM      6  O   UNL A   1      30.403  24.547  23.245  1.00  0.00    -0.252 OA
BRANCH   5   7
ATOM      7  C   UNL A   1      31.990  25.524  24.804  1.00  0.00     0.150 C 
ATOM      8  C   UNL A   1      32.572  24.204  25.332  1.00  0.00     0.127 C 
ATOM      9  C   UNL A   1      31.512  23.832  26.374  1.00  0.00     0.186 C 
ATOM     10  O   UNL A   1      31.083  25.062  26.976  1.00  0.00    -0.378 OA
ATOM     11  C   UNL A   1      31.535  26.142  26.134  1.00  0.00     0.177 C 
BRANCH   8  12
ATOM     12  N   UNL A   1      33.093  23.072  24.515  1.00  0.00    -0.333 N 
BRANCH  12  13
ATOM     13  C   UNL A   1      32.533  21.748  24.855  1.00  0.00     0.117 C 
ATOM     14  C   UNL A   1      32.436  20.830  23.643  1.00  0.00     0.027 C 
ENDBRANCH  12  13
BRANCH  12  15
ATOM     15  C   UNL A   1      34.375  23.183  23.930  1.00  0.00     0.257 C 
ATOM     16  O   UNL A   1      34.510  23.623  22.791  1.00  0.00    -0.269 OA
BRANCH  15  17
ATOM     17  C   UNL A   1      35.621  22.761  24.656  1.00  0.00     0.075 A 
ATOM     18  C   UNL A   1      36.220  21.505  24.472  1.00  0.00     0.017 A 
ATOM     19  C   UNL A   1      36.313  23.701  25.428  1.00  0.00     0.136 A 
ATOM     20  C   UNL A   1      37.458  21.193  25.055  1.00  0.00     0.004 A 
ATOM     21  C   UNL A   1      37.572  23.413  25.974  1.00  0.00     0.043 A 
ATOM     22  F   UNL A   1      35.808  24.924  25.643  1.00  0.00    -0.206 F 
ATOM     23  C   UNL A   1      38.165  22.160  25.776  1.00  0.00    -0.048 A 
ATOM     24  C   UNL A   1      39.600  21.919  26.154  1.00  0.00     0.044 C 
ENDBRANCH  15  17
ENDBRANCH  12  15
ENDBRANCH   8  12
ENDBRANCH   5   7
ENDBRANCH   4   5
ENDBRANCH   3   4
ENDBRANCH   2   3
ENDBRANCH   1   2
BRANCH   1  25
ATOM     25  C   UNL A   1      31.393  30.294  25.376  1.00  0.00     0.202 C 
BRANCH  25  26
ATOM     26  C   UNL A   1      32.067  30.065  26.729  1.00  0.00     0.261 C 
BRANCH  26  27
ATOM     27  O   UNL A   1      33.494  30.208  26.622  1.00  0.00    -0.460 OA
BRANCH  27  28
ATOM     28  C   UNL A   1      34.051  31.201  27.366  1.00  0.00     0.338 C 
ATOM     29  O   UNL A   1      33.535  32.266  27.651  1.00  0.00    -0.246 OA
BRANCH  28  30
ATOM     30  C   UNL A   1      35.371  30.763  27.894  1.00  0.00     0.060 A 
ATOM     31  C   UNL A   1      35.632  29.404  28.066  1.00  0.00     0.016 A 
ATOM     32  C   UNL A   1      36.353  31.687  28.236  1.00  0.00     0.016 A 
ATOM     33  C   UNL A   1      36.835  28.990  28.656  1.00  0.00     0.010 A 
ATOM     34  C   UNL A   1      37.564  31.284  28.792  1.00  0.00     0.010 A 
ATOM     35  C   UNL A   1      37.791  29.933  29.066  1.00  0.00    -0.014 A 
BRANCH  35  36
ATOM     36  C   UNL A   1      38.996  29.545  29.841  1.00  0.00     0.031 A 
ATOM     37  C   UNL A   1      39.275  30.191  31.176  1.00  0.00     0.074 A 
ATOM     38  C   UNL A   1      39.892  28.691  29.312  1.00  0.00     0.049 A 
ATOM     39  N   UNL A   1      40.253  29.965  32.018  1.00  0.00    -0.248 NA
ATOM     40  C   UNL A   1      38.360  31.263  31.606  1.00  0.00     0.031 C 
ATOM     41  C   UNL A   1      39.823  28.121  27.968  1.00  0.00     0.029 A 
ATOM     42  N   UNL A   1      41.053  28.182  29.835  1.00  0.00    -0.354 N 
ATOM     43  C   UNL A   1      40.091  30.883  33.051  1.00  0.00     0.074 A 
ATOM     44  C   UNL A   1      38.949  31.700  32.711  1.00  0.00     0.031 C 
ATOM     45  C   UNL A   1      40.897  27.337  27.770  1.00  0.00     0.029 A 
ATOM     46  C   UNL A   1      41.722  27.344  28.976  1.00  0.00     0.049 A 
ATOM     47  H   UNL A   1      41.377  28.398  30.739  1.00  0.00     0.167 HD
ATOM     48  C   UNL A   1      40.803  31.006  34.198  1.00  0.00     0.034 A 
ATOM     49  C   UNL A   1      42.860  26.642  29.152  1.00  0.00     0.034 A 
ATOM     50  C   UNL A   1      41.891  30.136  34.560  1.00  0.00     0.049 A 
ATOM     51  C   UNL A   1      43.547  26.685  30.492  1.00  0.00     0.074 A 
ATOM     52  C   UNL A   1      42.577  30.066  35.759  1.00  0.00     0.029 A 
ATOM     53  N   UNL A   1      42.450  29.182  33.724  1.00  0.00    -0.354 N 
ATOM     54  N   UNL A   1      43.246  27.393  31.552  1.00  0.00    -0.248 NA
ATOM     55  C   UNL A   1      44.696  25.786  30.678  1.00  0.00     0.031 C 
ATOM     56  C   UNL A   1      43.561  29.078  35.645  1.00  0.00     0.029 A 
ATOM     57  C   UNL A   1      43.471  28.516  34.381  1.00  0.00     0.049 A 
ATOM     58  H   UNL A   1      42.164  29.003  32.800  1.00  0.00     0.167 HD
ATOM     59  C   UNL A   1      44.140  27.000  32.542  1.00  0.00     0.074 A 
ATOM     60  C   UNL A   1      44.980  25.974  31.961  1.00  0.00     0.031 C 
ATOM     61  C   UNL A   1      44.263  27.457  33.813  1.00  0.00     0.034 A 
BRANCH  48  62
ATOM     62  C   UNL A   1      40.377  32.056  35.198  1.00  0.00     0.023 A 
ATOM     63  C   UNL A   1      40.982  33.330  35.161  1.00  0.00     0.012 A 
ATOM     64  C   UNL A   1      39.319  31.824  36.101  1.00  0.00     0.148 A 
ATOM     65  C   UNL A   1      40.571  34.341  36.029  1.00  0.00     0.002 A 
ATOM     66  C   UNL A   1      38.882  32.853  36.929  1.00  0.00     0.091 A 
ATOM     67  F   UNL A   1      38.762  30.605  36.135  1.00  0.00    -0.205 F 
ATOM     68  C   UNL A   1      39.514  34.107  36.902  1.00  0.00     0.022 A 
BRANCH  66  69
ATOM     69  S   UNL A   1      37.467  32.688  38.025  1.00  0.00     0.127 S 
ATOM     70  O   UNL A   1      37.886  33.496  39.170  1.00  0.00    -0.237 OA
ATOM     71  O   UNL A   1      36.389  33.274  37.227  1.00  0.00    -0.237 OA
ATOM     72  O   UNL A   1      37.325  31.263  38.285  1.00  0.00    -0.744 OA
ENDBRANCH  66  69
ENDBRANCH  48  62
BRANCH  49  73
ATOM     73  C   UNL A   1      43.344  25.742  28.069  1.00  0.00     0.023 A 
ATOM     74  C   UNL A   1      42.609  24.580  27.764  1.00  0.00     0.012 A 
ATOM     75  C   UNL A   1      44.492  26.048  27.315  1.00  0.00     0.148 A 
ATOM     76  C   UNL A   1      43.026  23.719  26.750  1.00  0.00     0.002 A 
ATOM     77  C   UNL A   1      44.874  25.213  26.271  1.00  0.00     0.091 A 
ATOM     78  F   UNL A   1      45.180  27.155  27.625  1.00  0.00    -0.205 F 
ATOM     79  C   UNL A   1      44.152  24.040  25.998  1.00  0.00     0.022 A 
BRANCH  77  80
ATOM     80  S   UNL A   1      46.233  25.609  25.166  1.00  0.00     0.127 S 
ATOM     81  O   UNL A   1      47.365  25.650  26.087  1.00  0.00    -0.237 OA
ATOM     82  O   UNL A   1      46.224  24.466  24.252  1.00  0.00    -0.237 OA
ATOM     83  O   UNL A   1      45.875  26.876  24.545  1.00  0.00    -0.744 OA
ENDBRANCH  77  80
ENDBRANCH  49  73
BRANCH  61  84
ATOM     84  C   UNL A   1      45.321  26.833  34.686  1.00  0.00     0.023 A 
ATOM     85  C   UNL A   1      46.626  27.362  34.691  1.00  0.00     0.012 A 
ATOM     86  C   UNL A   1      45.000  25.773  35.558  1.00  0.00     0.148 A 
ATOM     87  C   UNL A   1      47.606  26.825  35.527  1.00  0.00     0.002 A 
ATOM     88  C   UNL A   1      45.968  25.275  36.421  1.00  0.00     0.091 A 
ATOM     89  F   UNL A   1      43.756  25.273  35.527  1.00  0.00    -0.205 F 
ATOM     90  C   UNL A   1      47.275  25.790  36.398  1.00  0.00     0.022 A 
BRANCH  88  91
ATOM     91  S   UNL A   1      45.610  24.007  37.644  1.00  0.00     0.127 S 
ATOM     92  O   UNL A   1      44.474  24.591  38.354  1.00  0.00    -0.237 OA
ATOM     93  O   UNL A   1      45.279  22.853  36.807  1.00  0.00    -0.237 OA
ATOM     94  O   UNL A   1      46.827  23.852  38.431  1.00  0.00    -0.744 OA
ENDBRANCH  88  91
ENDBRANCH  61  84
ENDBRANCH  35  36
ENDBRANCH  28  30
ENDBRANCH  27  28
ENDBRANCH  26  27
ENDBRANCH  25  26
ENDBRANCH   1  25
TORSDOF 21
ENDMDL
MODEL 3
REMARK VINA RESULT:     -11.3      4.746      9.897
REMARK SMILES CCN(C(=O)c1ccc(C)cc1F)[C@@H]1COC[C@@H]1C(=O)OCCOCCOC(=O)c1ccc(-c2c3nc(c(-c4cccc(S(=O)(=O)[O-])c4F)c4ccc([nH]4)c(-c4cccc(S(=O)(=O)[O-])c4F)c4nc(c(-c5cccc(S(=O)(=O)[O-])c5F)c5ccc2[nH]5)C=C4)C=C3)cc1
REMARK SMILES IDX 24 1 23 2 22 3 21 4 19 5 20 6 18 7 14 8 15 9 16 10 17 11
REMARK SMILES IDX 3 12 2 13 1 14 4 15 5 16 6 17 7 18 12 19 8 20 11 21 13 22
REMARK SMILES IDX 9 23 10 24 25 25 26 26 27 27 28 28 29 29 30 30 31 31 92 32
REMARK SMILES IDX 32 33 91 34 33 35 34 36 35 37 85 38 36 39 90 40 84 41 86 42
REMARK SMILES IDX 37 43 89 44 83 45 82 46 38 48 70 49 50 50 69 51 51 52 54 53
REMARK SMILES IDX 68 54 87 55 52 56 53 57 67 59 88 60 55 61 39 62 40 63 48 64
REMARK SMILES IDX 41 65 43 66 49 67 42 68 44 69 45 70 46 71 47 72 71 73 72 74
REMARK SMILES IDX 80 75 73 76 75 77 81 78 74 79 76 80 77 81 78 82 79 83 56 84
REMARK SMILES IDX 57 85 65 86 58 87 60 88 66 89 59 90 61 91 62 92 63 93 64 94
REMARK H PARENT 86 47 54 58
REMARK Flexibility Score: inf
ROOT
ATOM      1  O   UNL A   1      31.518  29.623  24.957  1.00  0.00    -0.374 OA
ENDROOT
BRANCH   1   2
ATOM      2  C   UNL A   1      30.506  29.793  23.963  1.00  0.00     0.202 C 
BRANCH   2   3
ATOM      3  C   UNL A   1      30.199  28.555  23.124  1.00  0.00     0.261 C 
BRANCH   3   4
ATOM      4  O   UNL A   1      29.679  27.474  23.919  1.00  0.00    -0.463 OA
BRANCH   4   5
ATOM      5  C   UNL A   1      30.255  26.261  23.733  1.00  0.00     0.313 C 
ATOM      6  O   UNL A   1      29.917  25.472  22.857  1.00  0.00    -0.252 OA
BRANCH   5   7
ATOM      7  C   UNL A   1      31.317  25.976  24.779  1.00  0.00     0.150 C 
ATOM      8  C   UNL A   1      31.789  24.533  25.008  1.00  0.00     0.127 C 
ATOM      9  C   UNL A   1      30.556  23.945  25.703  1.00  0.00     0.186 C 
ATOM     10  O   UNL A   1      30.027  24.983  26.541  1.00  0.00    -0.378 OA
ATOM     11  C   UNL A   1      30.627  26.228  26.128  1.00  0.00     0.177 C 
BRANCH   8  12
ATOM     12  N   UNL A   1      32.448  23.644  24.011  1.00  0.00    -0.333 N 
BRANCH  12  13
ATOM     13  C   UNL A   1      32.012  22.233  24.049  1.00  0.00     0.117 C 
ATOM     14  C   UNL A   1      32.104  21.560  22.686  1.00  0.00     0.027 C 
ENDBRANCH  12  13
BRANCH  12  15
ATOM     15  C   UNL A   1      33.732  23.988  23.529  1.00  0.00     0.257 C 
ATOM     16  O   UNL A   1      33.861  24.642  22.497  1.00  0.00    -0.269 OA
BRANCH  15  17
ATOM     17  C   UNL A   1      34.988  23.566  24.236  1.00  0.00     0.075 A 
ATOM     18  C   UNL A   1      35.934  22.706  23.657  1.00  0.00     0.017 A 
ATOM     19  C   UNL A   1      35.321  24.167  25.455  1.00  0.00     0.136 A 
ATOM     20  C   UNL A   1      37.163  22.442  24.283  1.00  0.00     0.004 A 
ATOM     21  C   UNL A   1      36.565  23.946  26.063  1.00  0.00     0.043 A 
ATOM     22  F   UNL A   1      34.471  25.005  26.066  1.00  0.00    -0.206 F 
ATOM     23  C   UNL A   1      37.506  23.094  25.472  1.00  0.00    -0.048 A 
ATOM     24  C   UNL A   1      38.917  23.029  25.986  1.00  0.00     0.044 C 
ENDBRANCH  15  17
ENDBRANCH  12  15
ENDBRANCH   8  12
ENDBRANCH   5   7
ENDBRANCH   4   5
ENDBRANCH   3   4
ENDBRANCH   2   3
ENDBRANCH   1   2
BRANCH   1  25
ATOM     25  C   UNL A   1      31.621  30.670  25.921  1.00  0.00     0.202 C 
BRANCH  25  26
ATOM     26  C   UNL A   1      32.457  30.317  27.152  1.00  0.00     0.261 C 
BRANCH  26  27
ATOM     27  O   UNL A   1      33.863  30.384  26.855  1.00  0.00    -0.460 OA
BRANCH  27  28
ATOM     28  C   UNL A   1      34.615  31.138  27.699  1.00  0.00     0.338 C 
ATOM     29  O   UNL A   1      34.324  32.233  28.144  1.00  0.00    -0.246 OA
BRANCH  28  30
ATOM     30  C   UNL A   1      35.832  30.386  28.108  1.00  0.00     0.060 A 
ATOM     31  C   UNL A   1      35.822  29.644  29.289  1.00  0.00     0.016 A 
ATOM     32  C   UNL A   1      36.992  30.419  27.342  1.00  0.00     0.016 A 
ATOM     33  C   UNL A   1      36.995  29.014  29.730  1.00  0.00     0.010 A 
ATOM     34  C   UNL A   1      38.152  29.770  27.755  1.00  0.00     0.010 A 
ATOM     35  C   UNL A   1      38.182  29.113  28.987  1.00  0.00    -0.014 A 
BRANCH  35  36
ATOM     36  C   UNL A   1      39.477  28.604  29.503  1.00  0.00     0.031 A 
ATOM     37  C   UNL A   1      40.164  29.309  30.648  1.00  0.00     0.074 A 
ATOM     38  C   UNL A   1      40.090  27.574  28.891  1.00  0.00     0.049 A 
ATOM     39  N   UNL A   1      41.279  29.003  31.261  1.00  0.00    -0.248 NA
ATOM     40  C   UNL A   1      39.538  30.548  31.143  1.00  0.00     0.031 C 
ATOM     41  C   UNL A   1      39.614  26.909  27.679  1.00  0.00     0.029 A 
ATOM     42  N   UNL A   1      41.265  26.932  29.188  1.00  0.00    -0.354 N 
ATOM     43  C   UNL A   1      41.505  30.020  32.183  1.00  0.00     0.074 A 
ATOM     44  C   UNL A   1      40.435  30.979  32.020  1.00  0.00     0.031 C 
ATOM     45  C   UNL A   1      40.489  25.948  27.336  1.00  0.00     0.029 A 
ATOM     46  C   UNL A   1      41.580  25.926  28.307  1.00  0.00     0.049 A 
ATOM     47  H   UNL A   1      41.829  27.170  29.959  1.00  0.00     0.167 HD
ATOM     48  C   UNL A   1      42.488  30.126  33.110  1.00  0.00     0.034 A 
ATOM     49  C   UNL A   1      42.620  25.068  28.300  1.00  0.00     0.034 A 
ATOM     50  C   UNL A   1      43.503  29.126  33.313  1.00  0.00     0.049 A 
ATOM     51  C   UNL A   1      43.617  25.114  29.428  1.00  0.00     0.074 A 
ATOM     52  C   UNL A   1      44.450  29.051  34.320  1.00  0.00     0.029 A 
ATOM     53  N   UNL A   1      43.704  28.026  32.495  1.00  0.00    -0.354 N 
ATOM     54  N   UNL A   1      43.686  25.951  30.434  1.00  0.00    -0.248 NA
ATOM     55  C   UNL A   1      44.644  24.062  29.452  1.00  0.00     0.031 C 
ATOM     56  C   UNL A   1      45.231  27.910  34.103  1.00  0.00     0.029 A 
ATOM     57  C   UNL A   1      44.755  27.263  32.974  1.00  0.00     0.049 A 
ATOM     58  H   UNL A   1      43.176  27.816  31.691  1.00  0.00     0.167 HD
ATOM     59  C   UNL A   1      44.736  25.506  31.231  1.00  0.00     0.074 A 
ATOM     60  C   UNL A   1      45.259  24.311  30.601  1.00  0.00     0.031 C 
ATOM     61  C   UNL A   1      45.231  26.045  32.372  1.00  0.00     0.034 A 
BRANCH  48  62
ATOM     62  C   UNL A   1      42.470  31.313  34.044  1.00  0.00     0.023 A 
ATOM     63  C   UNL A   1      43.185  32.478  33.695  1.00  0.00     0.012 A 
ATOM     64  C   UNL A   1      41.673  31.319  35.207  1.00  0.00     0.148 A 
ATOM     65  C   UNL A   1      43.141  33.612  34.504  1.00  0.00     0.002 A 
ATOM     66  C   UNL A   1      41.595  32.473  35.983  1.00  0.00     0.091 A 
ATOM     67  F   UNL A   1      41.009  30.202  35.536  1.00  0.00    -0.205 F 
ATOM     68  C   UNL A   1      42.337  33.614  35.639  1.00  0.00     0.022 A 
BRANCH  66  69
ATOM     69  S   UNL A   1      40.517  32.613  37.414  1.00  0.00     0.127 S 
ATOM     70  O   UNL A   1      39.409  31.737  37.034  1.00  0.00    -0.237 OA
ATOM     71  O   UNL A   1      41.363  32.094  38.489  1.00  0.00    -0.237 OA
ATOM     72  O   UNL A   1      40.185  34.026  37.530  1.00  0.00    -0.744 OA
ENDBRANCH  66  69
ENDBRANCH  48  62
BRANCH  49  73
ATOM     73  C   UNL A   1      42.694  24.011  27.254  1.00  0.00     0.023 A 
ATOM     74  C   UNL A   1      43.352  24.291  26.040  1.00  0.00     0.012 A 
ATOM     75  C   UNL A   1      42.162  22.725  27.467  1.00  0.00     0.148 A 
ATOM     76  C   UNL A   1      43.449  23.322  25.042  1.00  0.00     0.002 A 
ATOM     77  C   UNL A   1      42.308  21.748  26.489  1.00  0.00     0.091 A 
ATOM     78  F   UNL A   1      41.535  22.481  28.626  1.00  0.00    -0.205 F 
ATOM     79  C   UNL A   1      42.936  22.049  25.270  1.00  0.00     0.022 A 
BRANCH  77  80
ATOM     80  S   UNL A   1      41.795  20.045  26.742  1.00  0.00     0.127 S 
ATOM     81  O   UNL A   1      42.654  19.635  27.849  1.00  0.00    -0.237 OA
ATOM     82  O   UNL A   1      40.381  20.202  27.085  1.00  0.00    -0.237 OA
ATOM     83  O   UNL A   1      42.033  19.372  25.473  1.00  0.00    -0.744 OA
ENDBRANCH  77  80
ENDBRANCH  49  73
BRANCH  61  84
ATOM     84  C   UNL A   1      46.377  25.337  33.046  1.00  0.00     0.023 A 
ATOM     85  C   UNL A   1      46.119  24.360  34.027  1.00  0.00     0.012 A 
ATOM     86  C   UNL A   1      47.707  25.586  32.650  1.00  0.00     0.148 A 
ATOM     87  C   UNL A   1      47.168  23.664  34.628  1.00  0.00     0.002 A 
ATOM     88  C   UNL A   1      48.743  24.855  33.219  1.00  0.00     0.091 A 
ATOM     89  F   UNL A   1      47.935  26.530  31.726  1.00  0.00    -0.205 F 
ATOM     90  C   UNL A   1      48.477  23.903  34.218  1.00  0.00     0.022 A 
BRANCH  88  91
ATOM     91  S   UNL A   1      50.451  25.027  32.687  1.00  0.00     0.127 S 
ATOM     92  O   UNL A   1      51.157  24.228  33.688  1.00  0.00    -0.237 OA
ATOM     93  O   UNL A   1      50.420  24.438  31.348  1.00  0.00    -0.237 OA
ATOM     94  O   UNL A   1      50.738  26.455  32.711  1.00  0.00    -0.744 OA
ENDBRANCH  88  91
ENDBRANCH  61  84
ENDBRANCH  35  36
ENDBRANCH  28  30
ENDBRANCH  27  28
ENDBRANCH  26  27
ENDBRANCH  25  26
ENDBRANCH   1  25
TORSDOF 21
ENDMDL
