MODEL 1
REMARK VINA RESULT:     -11.2      0.000      0.000
REMARK SMILES [NH3+][C@H](Cc1ccc2nsnc2c1)C(=O)OCCOCCOC(=O)c1ccc(-c2c3nc(c(-c4cccc(S(=O)(=O)[O-])c4F)c4ccc([nH]4)c(-c4cccc(S(=O)(=O)[O-])c4F)c4nc(c(-c5cccc(S(=O)(=O)[O-])c5F)c5ccc2[nH]5)C=C4)C=C3)cc1
REMARK SMILES IDX 19 1 18 2 17 3 16 4 15 5 13 6 14 7 2 8 1 9 3 13 4 14 5 15
REMARK SMILES IDX 12 16 6 17 11 18 7 19 10 20 8 21 9 22 20 23 21 24 22 25
REMARK SMILES IDX 23 26 24 27 25 28 86 29 26 30 85 31 27 32 28 33 29 34 79 35
REMARK SMILES IDX 30 36 84 37 78 38 80 39 31 40 83 41 77 42 76 43 32 45 64 46
REMARK SMILES IDX 44 47 63 48 45 49 48 50 62 51 81 52 46 53 47 54 61 56 82 57
REMARK SMILES IDX 49 58 33 59 34 60 42 61 35 62 37 63 43 64 36 65 38 66 39 67
REMARK SMILES IDX 40 68 41 69 65 70 66 71 74 72 67 73 69 74 75 75 68 76 70 77
REMARK SMILES IDX 71 78 72 79 73 80 50 81 51 82 59 83 52 84 54 85 60 86 53 87
REMARK SMILES IDX 55 88 56 89 57 90 58 91
REMARK H PARENT 1 10 1 11 1 12 80 44 48 55
REMARK Flexibility Score: inf
ROOT
ATOM      1  C   UNL A   1      35.792  20.994  25.008  1.00  0.00     0.202 C 
ENDROOT
BRANCH   1   2
ATOM      2  O   UNL A   1      35.180  21.445  26.215  1.00  0.00    -0.374 OA
BRANCH   2   3
ATOM      3  C   UNL A   1      34.946  22.845  26.352  1.00  0.00     0.202 C 
BRANCH   3   4
ATOM      4  C   UNL A   1      33.661  23.406  25.736  1.00  0.00     0.261 C 
BRANCH   4   5
ATOM      5  O   UNL A   1      32.478  22.744  26.224  1.00  0.00    -0.459 OA
BRANCH   5   6
ATOM      6  C   UNL A   1      31.462  23.578  26.572  1.00  0.00     0.365 C 
ATOM      7  O   UNL A   1      30.633  23.338  27.445  1.00  0.00    -0.245 OA
BRANCH   6   8
ATOM      8  C   UNL A   1      31.444  24.890  25.763  1.00  0.00     0.296 C 
BRANCH   8   9
ATOM      9  N   UNL A   1      31.346  26.029  26.693  1.00  0.00    -0.346 N 
ATOM     10  H   UNL A   1      30.546  26.608  26.439  1.00  0.00     0.345 HD
ATOM     11  H   UNL A   1      32.199  26.586  26.639  1.00  0.00     0.345 HD
ATOM     12  H   UNL A   1      31.226  25.683  27.645  1.00  0.00     0.345 HD
ENDBRANCH   8   9
BRANCH   8  13
ATOM     13  C   UNL A   1      30.522  24.930  24.517  1.00  0.00     0.113 C 
BRANCH  13  14
ATOM     14  C   UNL A   1      30.263  26.258  23.824  1.00  0.00    -0.039 A 
ATOM     15  C   UNL A   1      31.303  26.863  23.058  1.00  0.00     0.006 A 
ATOM     16  C   UNL A   1      28.967  26.823  23.878  1.00  0.00     0.035 A 
ATOM     17  C   UNL A   1      31.166  28.073  22.354  1.00  0.00     0.032 A 
ATOM     18  C   UNL A   1      28.762  28.029  23.160  1.00  0.00     0.105 A 
ATOM     19  C   UNL A   1      29.886  28.667  22.392  1.00  0.00     0.104 A 
ATOM     20  N   UNL A   1      27.607  28.702  23.065  1.00  0.00    -0.173 NA
ATOM     21  N   UNL A   1      29.531  29.800  21.770  1.00  0.00    -0.173 NA
ATOM     22  S   UNL A   1      27.938  30.073  22.174  1.00  0.00     0.069 S 
ENDBRANCH  13  14
ENDBRANCH   8  13
ENDBRANCH   6   8
ENDBRANCH   5   6
ENDBRANCH   4   5
ENDBRANCH   3   4
ENDBRANCH   2   3
ENDBRANCH   1   2
BRANCH   1  23
ATOM     23  C   UNL A   1      37.183  20.356  25.122  1.00  0.00     0.261 C 
BRANCH  23  24
ATOM     24  O   UNL A   1      38.242  21.329  25.076  1.00  0.00    -0.460 OA
BRANCH  24  25
ATOM     25  C   UNL A   1      39.245  21.110  25.963  1.00  0.00     0.338 C 
ATOM     26  O   UNL A   1      39.862  20.065  26.128  1.00  0.00    -0.246 OA
BRANCH  25  27
ATOM     27  C   UNL A   1      39.656  22.371  26.606  1.00  0.00     0.060 A 
ATOM     28  C   UNL A   1      39.002  23.542  26.198  1.00  0.00     0.016 A 
ATOM     29  C   UNL A   1      40.707  22.428  27.522  1.00  0.00     0.016 A 
ATOM     30  C   UNL A   1      39.439  24.782  26.658  1.00  0.00     0.010 A 
ATOM     31  C   UNL A   1      41.148  23.676  27.978  1.00  0.00     0.010 A 
ATOM     32  C   UNL A   1      40.545  24.860  27.514  1.00  0.00    -0.014 A 
BRANCH  32  33
ATOM     33  C   UNL A   1      41.153  26.182  27.800  1.00  0.00     0.031 A 
ATOM     34  C   UNL A   1      42.561  26.453  27.344  1.00  0.00     0.074 A 
ATOM     35  C   UNL A   1      40.454  27.138  28.437  1.00  0.00     0.049 A 
ATOM     36  N   UNL A   1      43.286  27.532  27.492  1.00  0.00    -0.248 NA
ATOM     37  C   UNL A   1      43.245  25.363  26.630  1.00  0.00     0.031 C 
ATOM     38  C   UNL A   1      39.082  27.000  28.921  1.00  0.00     0.029 A 
ATOM     39  N   UNL A   1      40.816  28.410  28.807  1.00  0.00    -0.354 N 
ATOM     40  C   UNL A   1      44.517  27.244  26.915  1.00  0.00     0.074 A 
ATOM     41  C   UNL A   1      44.446  25.885  26.422  1.00  0.00     0.031 C 
ATOM     42  C   UNL A   1      38.725  28.133  29.548  1.00  0.00     0.029 A 
ATOM     43  C   UNL A   1      39.849  29.067  29.530  1.00  0.00     0.049 A 
ATOM     44  H   UNL A   1      41.684  28.812  28.576  1.00  0.00     0.167 HD
ATOM     45  C   UNL A   1      45.603  28.043  26.790  1.00  0.00     0.034 A 
ATOM     46  C   UNL A   1      39.878  30.277  30.126  1.00  0.00     0.034 A 
ATOM     47  C   UNL A   1      45.667  29.401  27.259  1.00  0.00     0.049 A 
ATOM     48  C   UNL A   1      41.106  31.138  29.990  1.00  0.00     0.074 A 
ATOM     49  C   UNL A   1      46.706  30.305  27.137  1.00  0.00     0.029 A 
ATOM     50  N   UNL A   1      44.653  30.047  27.948  1.00  0.00    -0.354 N 
ATOM     51  N   UNL A   1      42.217  30.896  29.336  1.00  0.00    -0.248 NA
ATOM     52  C   UNL A   1      41.074  32.453  30.647  1.00  0.00     0.031 C 
ATOM     53  C   UNL A   1      46.330  31.492  27.774  1.00  0.00     0.029 A 
ATOM     54  C   UNL A   1      45.046  31.335  28.269  1.00  0.00     0.049 A 
ATOM     55  H   UNL A   1      43.782  29.649  28.176  1.00  0.00     0.167 HD
ATOM     56  C   UNL A   1      42.997  32.041  29.470  1.00  0.00     0.074 A 
ATOM     57  C   UNL A   1      42.225  32.982  30.254  1.00  0.00     0.031 C 
ATOM     58  C   UNL A   1      44.245  32.285  28.998  1.00  0.00     0.034 A 
BRANCH  45  59
ATOM     59  C   UNL A   1      46.811  27.477  26.091  1.00  0.00     0.023 A 
ATOM     60  C   UNL A   1      47.651  26.574  26.773  1.00  0.00     0.012 A 
ATOM     61  C   UNL A   1      47.078  27.788  24.743  1.00  0.00     0.148 A 
ATOM     62  C   UNL A   1      48.756  26.011  26.134  1.00  0.00     0.002 A 
ATOM     63  C   UNL A   1      48.157  27.191  24.100  1.00  0.00     0.091 A 
ATOM     64  F   UNL A   1      46.281  28.666  24.118  1.00  0.00    -0.205 F 
ATOM     65  C   UNL A   1      49.001  26.311  24.796  1.00  0.00     0.022 A 
BRANCH  63  66
ATOM     66  S   UNL A   1      48.512  27.455  22.359  1.00  0.00     0.127 S 
ATOM     67  O   UNL A   1      49.751  28.228  22.425  1.00  0.00    -0.237 OA
ATOM     68  O   UNL A   1      48.672  26.087  21.866  1.00  0.00    -0.237 OA
ATOM     69  O   UNL A   1      47.360  28.163  21.818  1.00  0.00    -0.744 OA
ENDBRANCH  63  66
ENDBRANCH  45  59
BRANCH  46  70
ATOM     70  C   UNL A   1      38.687  30.760  30.879  1.00  0.00     0.023 A 
ATOM     71  C   UNL A   1      38.616  30.561  32.272  1.00  0.00     0.012 A 
ATOM     72  C   UNL A   1      37.633  31.429  30.227  1.00  0.00     0.148 A 
ATOM     73  C   UNL A   1      37.505  30.995  32.996  1.00  0.00     0.002 A 
ATOM     74  C   UNL A   1      36.556  31.908  30.962  1.00  0.00     0.091 A 
ATOM     75  F   UNL A   1      37.710  31.591  28.899  1.00  0.00    -0.205 F 
ATOM     76  C   UNL A   1      36.482  31.677  32.345  1.00  0.00     0.022 A 
BRANCH  74  77
ATOM     77  S   UNL A   1      35.258  32.908  30.226  1.00  0.00     0.127 S 
ATOM     78  O   UNL A   1      34.665  31.974  29.272  1.00  0.00    -0.237 OA
ATOM     79  O   UNL A   1      34.423  33.221  31.385  1.00  0.00    -0.237 OA
ATOM     80  O   UNL A   1      35.935  34.062  29.647  1.00  0.00    -0.744 OA
ENDBRANCH  74  77
ENDBRANCH  46  70
BRANCH  58  81
ATOM     81  C   UNL A   1      44.851  33.637  29.275  1.00  0.00     0.023 A 
ATOM     82  C   UNL A   1      45.606  33.839  30.447  1.00  0.00     0.012 A 
ATOM     83  C   UNL A   1      44.742  34.679  28.333  1.00  0.00     0.148 A 
ATOM     84  C   UNL A   1      46.220  35.068  30.690  1.00  0.00     0.002 A 
ATOM     85  C   UNL A   1      45.395  35.885  28.560  1.00  0.00     0.091 A 
ATOM     86  F   UNL A   1      44.004  34.473  27.233  1.00  0.00    -0.205 F 
ATOM     87  C   UNL A   1      46.125  36.085  29.744  1.00  0.00     0.022 A 
BRANCH  85  88
ATOM     88  S   UNL A   1      45.408  37.215  27.353  1.00  0.00     0.127 S 
ATOM     89  O   UNL A   1      46.158  38.253  28.059  1.00  0.00    -0.237 OA
ATOM     90  O   UNL A   1      46.120  36.608  26.227  1.00  0.00    -0.237 OA
ATOM     91  O   UNL A   1      44.010  37.526  27.084  1.00  0.00    -0.744 OA
ENDBRANCH  85  88
ENDBRANCH  58  81
ENDBRANCH  32  33
ENDBRANCH  25  27
ENDBRANCH  24  25
ENDBRANCH  23  24
ENDBRANCH   1  23
TORSDOF 20
ENDMDL
MODEL 2
REMARK VINA RESULT:     -11.2      2.648      3.726
REMARK SMILES [NH3+][C@H](Cc1ccc2nsnc2c1)C(=O)OCCOCCOC(=O)c1ccc(-c2c3nc(c(-c4cccc(S(=O)(=O)[O-])c4F)c4ccc([nH]4)c(-c4cccc(S(=O)(=O)[O-])c4F)c4nc(c(-c5cccc(S(=O)(=O)[O-])c5F)c5ccc2[nH]5)C=C4)C=C3)cc1
REMARK SMILES IDX 19 1 18 2 17 3 16 4 15 5 13 6 14 7 2 8 1 9 3 13 4 14 5 15
REMARK SMILES IDX 12 16 6 17 11 18 7 19 10 20 8 21 9 22 20 23 21 24 22 25
REMARK SMILES IDX 23 26 24 27 25 28 86 29 26 30 85 31 27 32 28 33 29 34 79 35
REMARK SMILES IDX 30 36 84 37 78 38 80 39 31 40 83 41 77 42 76 43 32 45 64 46
REMARK SMILES IDX 44 47 63 48 45 49 48 50 62 51 81 52 46 53 47 54 61 56 82 57
REMARK SMILES IDX 49 58 33 59 34 60 42 61 35 62 37 63 43 64 36 65 38 66 39 67
REMARK SMILES IDX 40 68 41 69 65 70 66 71 74 72 67 73 69 74 75 75 68 76 70 77
REMARK SMILES IDX 71 78 72 79 73 80 50 81 51 82 59 83 52 84 54 85 60 86 53 87
REMARK SMILES IDX 55 88 56 89 57 90 58 91
REMARK H PARENT 1 10 1 11 1 12 80 44 48 55
REMARK Flexibility Score: inf
ROOT
ATOM      1  C   UNL A   1      35.804  21.346  25.290  1.00  0.00     0.202 C 
ENDROOT
BRANCH   1   2
ATOM      2  O   UNL A   1      35.909  22.733  24.977  1.00  0.00    -0.374 OA
BRANCH   2   3
ATOM      3  C   UNL A   1      35.241  23.656  25.837  1.00  0.00     0.202 C 
BRANCH   3   4
ATOM      4  C   UNL A   1      34.513  24.829  25.176  1.00  0.00     0.261 C 
BRANCH   4   5
ATOM      5  O   UNL A   1      33.355  24.413  24.428  1.00  0.00    -0.459 OA
BRANCH   5   6
ATOM      6  C   UNL A   1      33.553  24.305  23.086  1.00  0.00     0.365 C 
ATOM      7  O   UNL A   1      34.028  25.190  22.379  1.00  0.00    -0.245 OA
BRANCH   6   8
ATOM      8  C   UNL A   1      33.126  22.939  22.515  1.00  0.00     0.296 C 
BRANCH   8   9
ATOM      9  N   UNL A   1      32.903  23.071  21.064  1.00  0.00    -0.346 N 
ATOM     10  H   UNL A   1      32.085  23.655  20.897  1.00  0.00     0.345 HD
ATOM     11  H   UNL A   1      32.751  22.147  20.658  1.00  0.00     0.345 HD
ATOM     12  H   UNL A   1      33.721  23.500  20.631  1.00  0.00     0.345 HD
ENDBRANCH   8   9
BRANCH   8  13
ATOM     13  C   UNL A   1      32.054  22.151  23.312  1.00  0.00     0.113 C 
BRANCH  13  14
ATOM     14  C   UNL A   1      32.230  20.656  23.521  1.00  0.00    -0.039 A 
ATOM     15  C   UNL A   1      32.336  19.798  22.387  1.00  0.00     0.006 A 
ATOM     16  C   UNL A   1      32.376  20.156  24.837  1.00  0.00     0.035 A 
ATOM     17  C   UNL A   1      32.528  18.406  22.462  1.00  0.00     0.032 A 
ATOM     18  C   UNL A   1      32.602  18.762  24.972  1.00  0.00     0.105 A 
ATOM     19  C   UNL A   1      32.671  17.873  23.762  1.00  0.00     0.104 A 
ATOM     20  N   UNL A   1      32.791  18.103  26.124  1.00  0.00    -0.173 NA
ATOM     21  N   UNL A   1      32.890  16.584  24.059  1.00  0.00    -0.173 NA
ATOM     22  S   UNL A   1      32.936  16.492  25.721  1.00  0.00     0.069 S 
ENDBRANCH  13  14
ENDBRANCH   8  13
ENDBRANCH   6   8
ENDBRANCH   5   6
ENDBRANCH   4   5
ENDBRANCH   3   4
ENDBRANCH   2   3
ENDBRANCH   1   2
BRANCH   1  23
ATOM     23  C   UNL A   1      37.080  20.501  25.170  1.00  0.00     0.261 C 
BRANCH  23  24
ATOM     24  O   UNL A   1      38.261  21.305  25.001  1.00  0.00    -0.460 OA
BRANCH  24  25
ATOM     25  C   UNL A   1      39.229  21.082  25.925  1.00  0.00     0.338 C 
ATOM     26  O   UNL A   1      39.823  20.030  26.125  1.00  0.00    -0.246 OA
BRANCH  25  27
ATOM     27  C   UNL A   1      39.639  22.346  26.564  1.00  0.00     0.060 A 
ATOM     28  C   UNL A   1      39.011  23.520  26.126  1.00  0.00     0.016 A 
ATOM     29  C   UNL A   1      40.666  22.400  27.508  1.00  0.00     0.016 A 
ATOM     30  C   UNL A   1      39.451  24.760  26.584  1.00  0.00     0.010 A 
ATOM     31  C   UNL A   1      41.110  23.648  27.961  1.00  0.00     0.010 A 
ATOM     32  C   UNL A   1      40.535  24.833  27.468  1.00  0.00    -0.014 A 
BRANCH  32  33
ATOM     33  C   UNL A   1      41.152  26.151  27.755  1.00  0.00     0.031 A 
ATOM     34  C   UNL A   1      42.559  26.416  27.292  1.00  0.00     0.074 A 
ATOM     35  C   UNL A   1      40.462  27.108  28.401  1.00  0.00     0.049 A 
ATOM     36  N   UNL A   1      43.290  27.490  27.440  1.00  0.00    -0.248 NA
ATOM     37  C   UNL A   1      43.233  25.325  26.569  1.00  0.00     0.031 C 
ATOM     38  C   UNL A   1      39.092  26.976  28.892  1.00  0.00     0.029 A 
ATOM     39  N   UNL A   1      40.833  28.377  28.773  1.00  0.00    -0.354 N 
ATOM     40  C   UNL A   1      44.516  27.198  26.854  1.00  0.00     0.074 A 
ATOM     41  C   UNL A   1      44.435  25.842  26.356  1.00  0.00     0.031 C 
ATOM     42  C   UNL A   1      38.745  28.108  29.526  1.00  0.00     0.029 A 
ATOM     43  C   UNL A   1      39.875  29.036  29.504  1.00  0.00     0.049 A 
ATOM     44  H   UNL A   1      41.702  28.775  28.538  1.00  0.00     0.167 HD
ATOM     45  C   UNL A   1      45.606  27.991  26.725  1.00  0.00     0.034 A 
ATOM     46  C   UNL A   1      39.913  30.244  30.105  1.00  0.00     0.034 A 
ATOM     47  C   UNL A   1      45.680  29.347  27.199  1.00  0.00     0.049 A 
ATOM     48  C   UNL A   1      41.146  31.099  29.965  1.00  0.00     0.074 A 
ATOM     49  C   UNL A   1      46.723  30.247  27.074  1.00  0.00     0.029 A 
ATOM     50  N   UNL A   1      44.674  29.997  27.897  1.00  0.00    -0.354 N 
ATOM     51  N   UNL A   1      42.251  30.853  29.303  1.00  0.00    -0.248 NA
ATOM     52  C   UNL A   1      41.124  32.412  30.627  1.00  0.00     0.031 C 
ATOM     53  C   UNL A   1      46.358  31.433  27.718  1.00  0.00     0.029 A 
ATOM     54  C   UNL A   1      45.076  31.281  28.221  1.00  0.00     0.049 A 
ATOM     55  H   UNL A   1      43.802  29.602  28.129  1.00  0.00     0.167 HD
ATOM     56  C   UNL A   1      43.038  31.994  29.437  1.00  0.00     0.074 A 
ATOM     57  C   UNL A   1      42.276  32.936  30.229  1.00  0.00     0.031 C 
ATOM     58  C   UNL A   1      44.285  32.232  28.958  1.00  0.00     0.034 A 
BRANCH  45  59
ATOM     59  C   UNL A   1      46.806  27.422  26.017  1.00  0.00     0.023 A 
ATOM     60  C   UNL A   1      47.630  26.491  26.681  1.00  0.00     0.012 A 
ATOM     61  C   UNL A   1      47.082  27.757  24.676  1.00  0.00     0.148 A 
ATOM     62  C   UNL A   1      48.727  25.924  26.032  1.00  0.00     0.002 A 
ATOM     63  C   UNL A   1      48.153  27.158  24.024  1.00  0.00     0.091 A 
ATOM     64  F   UNL A   1      46.300  28.662  24.070  1.00  0.00    -0.205 F 
ATOM     65  C   UNL A   1      48.981  26.249  24.702  1.00  0.00     0.022 A 
BRANCH  63  66
ATOM     66  S   UNL A   1      48.516  27.454  22.289  1.00  0.00     0.127 S 
ATOM     67  O   UNL A   1      49.769  28.203  22.375  1.00  0.00    -0.237 OA
ATOM     68  O   UNL A   1      48.653  26.094  21.766  1.00  0.00    -0.237 OA
ATOM     69  O   UNL A   1      47.379  28.194  21.762  1.00  0.00    -0.744 OA
ENDBRANCH  63  66
ENDBRANCH  45  59
BRANCH  46  70
ATOM     70  C   UNL A   1      38.730  30.731  30.867  1.00  0.00     0.023 A 
ATOM     71  C   UNL A   1      38.677  30.547  32.263  1.00  0.00     0.012 A 
ATOM     72  C   UNL A   1      37.665  31.388  30.221  1.00  0.00     0.148 A 
ATOM     73  C   UNL A   1      37.573  30.984  32.996  1.00  0.00     0.002 A 
ATOM     74  C   UNL A   1      36.595  31.870  30.963  1.00  0.00     0.091 A 
ATOM     75  F   UNL A   1      37.725  31.535  28.889  1.00  0.00    -0.205 F 
ATOM     76  C   UNL A   1      36.538  31.654  32.349  1.00  0.00     0.022 A 
BRANCH  74  77
ATOM     77  S   UNL A   1      35.284  32.856  30.232  1.00  0.00     0.127 S 
ATOM     78  O   UNL A   1      34.756  31.947  29.217  1.00  0.00    -0.237 OA
ATOM     79  O   UNL A   1      34.401  33.083  31.376  1.00  0.00    -0.237 OA
ATOM     80  O   UNL A   1      35.934  34.059  29.729  1.00  0.00    -0.744 OA
ENDBRANCH  74  77
ENDBRANCH  46  70
BRANCH  58  81
ATOM     81  C   UNL A   1      44.899  33.580  29.237  1.00  0.00     0.023 A 
ATOM     82  C   UNL A   1      45.646  33.779  30.414  1.00  0.00     0.012 A 
ATOM     83  C   UNL A   1      44.808  34.620  28.291  1.00  0.00     0.148 A 
ATOM     84  C   UNL A   1      46.268  35.003  30.659  1.00  0.00     0.002 A 
ATOM     85  C   UNL A   1      45.469  35.822  28.520  1.00  0.00     0.091 A 
ATOM     86  F   UNL A   1      44.077  34.418  27.185  1.00  0.00    -0.205 F 
ATOM     87  C   UNL A   1      46.191  36.019  29.709  1.00  0.00     0.022 A 
BRANCH  85  88
ATOM     88  S   UNL A   1      45.503  37.148  27.309  1.00  0.00     0.127 S 
ATOM     89  O   UNL A   1      46.151  36.497  26.172  1.00  0.00    -0.237 OA
ATOM     90  O   UNL A   1      44.081  37.434  27.119  1.00  0.00    -0.237 OA
ATOM     91  O   UNL A   1      46.259  38.232  27.923  1.00  0.00    -0.744 OA
ENDBRANCH  85  88
ENDBRANCH  58  81
ENDBRANCH  32  33
ENDBRANCH  25  27
ENDBRANCH  24  25
ENDBRANCH  23  24
ENDBRANCH   1  23
TORSDOF 20
ENDMDL
MODEL 3
REMARK VINA RESULT:     -11.1      5.164      9.957
REMARK SMILES [NH3+][C@H](Cc1ccc2nsnc2c1)C(=O)OCCOCCOC(=O)c1ccc(-c2c3nc(c(-c4cccc(S(=O)(=O)[O-])c4F)c4ccc([nH]4)c(-c4cccc(S(=O)(=O)[O-])c4F)c4nc(c(-c5cccc(S(=O)(=O)[O-])c5F)c5ccc2[nH]5)C=C4)C=C3)cc1
REMARK SMILES IDX 19 1 18 2 17 3 16 4 15 5 13 6 14 7 2 8 1 9 3 13 4 14 5 15
REMARK SMILES IDX 12 16 6 17 11 18 7 19 10 20 8 21 9 22 20 23 21 24 22 25
REMARK SMILES IDX 23 26 24 27 25 28 86 29 26 30 85 31 27 32 28 33 29 34 79 35
REMARK SMILES IDX 30 36 84 37 78 38 80 39 31 40 83 41 77 42 76 43 32 45 64 46
REMARK SMILES IDX 44 47 63 48 45 49 48 50 62 51 81 52 46 53 47 54 61 56 82 57
REMARK SMILES IDX 49 58 33 59 34 60 42 61 35 62 37 63 43 64 36 65 38 66 39 67
REMARK SMILES IDX 40 68 41 69 65 70 66 71 74 72 67 73 69 74 75 75 68 76 70 77
REMARK SMILES IDX 71 78 72 79 73 80 50 81 51 82 59 83 52 84 54 85 60 86 53 87
REMARK SMILES IDX 55 88 56 89 57 90 58 91
REMARK H PARENT 1 10 1 11 1 12 80 44 48 55
REMARK Flexibility Score: inf
ROOT
ATOM      1  C   UNL A   1      32.894  29.610  24.764  1.00  0.00     0.202 C 
ENDROOT
BRANCH   1   2
ATOM      2  O   UNL A   1      32.622  28.255  24.415  1.00  0.00    -0.374 OA
BRANCH   2   3
ATOM      3  C   UNL A   1      33.603  27.276  24.757  1.00  0.00     0.202 C 
BRANCH   3   4
ATOM      4  C   UNL A   1      33.486  26.617  26.133  1.00  0.00     0.261 C 
BRANCH   4   5
ATOM      5  O   UNL A   1      32.362  25.722  26.226  1.00  0.00    -0.459 OA
BRANCH   5   6
ATOM      6  C   UNL A   1      31.180  26.323  26.529  1.00  0.00     0.365 C 
ATOM      7  O   UNL A   1      31.064  27.298  27.266  1.00  0.00    -0.245 OA
BRANCH   6   8
ATOM      8  C   UNL A   1      29.967  25.664  25.844  1.00  0.00     0.296 C 
BRANCH   8   9
ATOM      9  N   UNL A   1      29.759  24.322  26.417  1.00  0.00    -0.346 N 
ATOM     10  H   UNL A   1      28.991  23.859  25.932  1.00  0.00     0.345 HD
ATOM     11  H   UNL A   1      29.533  24.407  27.409  1.00  0.00     0.345 HD
ATOM     12  H   UNL A   1      30.611  23.770  26.310  1.00  0.00     0.345 HD
ENDBRANCH   8   9
BRANCH   8  13
ATOM     13  C   UNL A   1      29.888  25.777  24.299  1.00  0.00     0.113 C 
BRANCH  13  14
ATOM     14  C   UNL A   1      29.199  26.978  23.674  1.00  0.00    -0.039 A 
ATOM     15  C   UNL A   1      27.821  27.217  23.950  1.00  0.00     0.006 A 
ATOM     16  C   UNL A   1      29.962  27.886  22.902  1.00  0.00     0.035 A 
ATOM     17  C   UNL A   1      27.091  28.311  23.448  1.00  0.00     0.032 A 
ATOM     18  C   UNL A   1      29.285  29.025  22.396  1.00  0.00     0.105 A 
ATOM     19  C   UNL A   1      27.821  29.234  22.669  1.00  0.00     0.104 A 
ATOM     20  N   UNL A   1      29.834  30.010  21.670  1.00  0.00    -0.173 NA
ATOM     21  N   UNL A   1      27.332  30.356  22.121  1.00  0.00    -0.173 NA
ATOM     22  S   UNL A   1      28.589  31.049  21.279  1.00  0.00     0.069 S 
ENDBRANCH  13  14
ENDBRANCH   8  13
ENDBRANCH   6   8
ENDBRANCH   5   6
ENDBRANCH   4   5
ENDBRANCH   3   4
ENDBRANCH   2   3
ENDBRANCH   1   2
BRANCH   1  23
ATOM     23  C   UNL A   1      31.968  30.268  25.797  1.00  0.00     0.261 C 
BRANCH  23  24
ATOM     24  O   UNL A   1      32.553  30.316  27.111  1.00  0.00    -0.460 OA
BRANCH  24  25
ATOM     25  C   UNL A   1      33.292  31.427  27.355  1.00  0.00     0.338 C 
ATOM     26  O   UNL A   1      32.884  32.581  27.413  1.00  0.00    -0.246 OA
BRANCH  25  27
ATOM     27  C   UNL A   1      34.666  31.062  27.744  1.00  0.00     0.060 A 
ATOM     28  C   UNL A   1      34.970  29.696  27.824  1.00  0.00     0.016 A 
ATOM     29  C   UNL A   1      35.615  32.022  28.104  1.00  0.00     0.016 A 
ATOM     30  C   UNL A   1      36.203  29.282  28.323  1.00  0.00     0.010 A 
ATOM     31  C   UNL A   1      36.850  31.602  28.611  1.00  0.00     0.010 A 
ATOM     32  C   UNL A   1      37.132  30.233  28.764  1.00  0.00    -0.014 A 
BRANCH  32  33
ATOM     33  C   UNL A   1      38.329  29.785  29.516  1.00  0.00     0.031 A 
ATOM     34  C   UNL A   1      38.551  30.301  30.913  1.00  0.00     0.074 A 
ATOM     35  C   UNL A   1      39.198  28.914  28.973  1.00  0.00     0.049 A 
ATOM     36  N   UNL A   1      39.528  30.047  31.744  1.00  0.00    -0.248 NA
ATOM     37  C   UNL A   1      37.538  31.229  31.442  1.00  0.00     0.031 C 
ATOM     38  C   UNL A   1      39.090  28.338  27.634  1.00  0.00     0.029 A 
ATOM     39  N   UNL A   1      40.358  28.380  29.478  1.00  0.00    -0.354 N 
ATOM     40  C   UNL A   1      39.264  30.800  32.882  1.00  0.00     0.074 A 
ATOM     41  C   UNL A   1      38.040  31.530  32.632  1.00  0.00     0.031 C 
ATOM     42  C   UNL A   1      40.155  27.550  27.412  1.00  0.00     0.029 A 
ATOM     43  C   UNL A   1      41.030  27.584  28.582  1.00  0.00     0.049 A 
ATOM     44  H   UNL A   1      40.677  28.552  30.394  1.00  0.00     0.167 HD
ATOM     45  C   UNL A   1      39.967  30.867  34.037  1.00  0.00     0.034 A 
ATOM     46  C   UNL A   1      42.226  26.969  28.689  1.00  0.00     0.034 A 
ATOM     47  C   UNL A   1      41.171  30.124  34.295  1.00  0.00     0.049 A 
ATOM     48  C   UNL A   1      42.999  27.075  29.978  1.00  0.00     0.074 A 
ATOM     49  C   UNL A   1      41.929  30.089  35.452  1.00  0.00     0.029 A 
ATOM     50  N   UNL A   1      41.799  29.294  33.381  1.00  0.00    -0.354 N 
ATOM     51  N   UNL A   1      42.674  27.695  31.088  1.00  0.00    -0.248 NA
ATOM     52  C   UNL A   1      44.288  26.371  30.042  1.00  0.00     0.031 C 
ATOM     53  C   UNL A   1      43.029  29.255  35.229  1.00  0.00     0.029 A 
ATOM     54  C   UNL A   1      42.942  28.751  33.942  1.00  0.00     0.049 A 
ATOM     55  H   UNL A   1      41.480  29.117  32.466  1.00  0.00     0.167 HD
ATOM     56  C   UNL A   1      43.698  27.423  31.991  1.00  0.00     0.074 A 
ATOM     57  C   UNL A   1      44.645  26.570  31.304  1.00  0.00     0.031 C 
ATOM     58  C   UNL A   1      43.846  27.853  33.269  1.00  0.00     0.034 A 
BRANCH  45  59
ATOM     59  C   UNL A   1      39.435  31.757  35.129  1.00  0.00     0.023 A 
ATOM     60  C   UNL A   1      38.509  31.241  36.058  1.00  0.00     0.012 A 
ATOM     61  C   UNL A   1      39.898  33.080  35.274  1.00  0.00     0.148 A 
ATOM     62  C   UNL A   1      38.028  32.037  37.098  1.00  0.00     0.002 A 
ATOM     63  C   UNL A   1      39.446  33.853  36.337  1.00  0.00     0.091 A 
ATOM     64  F   UNL A   1      40.761  33.559  34.367  1.00  0.00    -0.205 F 
ATOM     65  C   UNL A   1      38.505  33.337  37.243  1.00  0.00     0.022 A 
BRANCH  63  66
ATOM     66  S   UNL A   1      40.057  35.513  36.653  1.00  0.00     0.127 S 
ATOM     67  O   UNL A   1      39.450  35.808  37.951  1.00  0.00    -0.237 OA
ATOM     68  O   UNL A   1      41.505  35.307  36.690  1.00  0.00    -0.237 OA
ATOM     69  O   UNL A   1      39.589  36.330  35.543  1.00  0.00    -0.744 OA
ENDBRANCH  63  66
ENDBRANCH  45  59
BRANCH  46  70
ATOM     70  C   UNL A   1      42.752  26.166  27.550  1.00  0.00     0.023 A 
ATOM     71  C   UNL A   1      43.655  26.754  26.642  1.00  0.00     0.012 A 
ATOM     72  C   UNL A   1      42.374  24.821  27.369  1.00  0.00     0.148 A 
ATOM     73  C   UNL A   1      44.151  26.025  25.560  1.00  0.00     0.002 A 
ATOM     74  C   UNL A   1      42.914  24.085  26.322  1.00  0.00     0.091 A 
ATOM     75  F   UNL A   1      41.498  24.287  28.231  1.00  0.00    -0.205 F 
ATOM     76  C   UNL A   1      43.790  24.689  25.406  1.00  0.00     0.022 A 
BRANCH  74  77
ATOM     77  S   UNL A   1      42.605  22.327  26.124  1.00  0.00     0.127 S 
ATOM     78  O   UNL A   1      43.527  21.980  25.045  1.00  0.00    -0.237 OA
ATOM     79  O   UNL A   1      42.971  21.804  27.441  1.00  0.00    -0.237 OA
ATOM     80  O   UNL A   1      41.187  22.213  25.809  1.00  0.00    -0.744 OA
ENDBRANCH  74  77
ENDBRANCH  46  70
BRANCH  58  81
ATOM     81  C   UNL A   1      45.055  27.380  34.035  1.00  0.00     0.023 A 
ATOM     82  C   UNL A   1      46.229  28.157  34.038  1.00  0.00     0.012 A 
ATOM     83  C   UNL A   1      44.995  26.212  34.819  1.00  0.00     0.148 A 
ATOM     84  C   UNL A   1      47.337  27.761  34.788  1.00  0.00     0.002 A 
ATOM     85  C   UNL A   1      46.087  25.848  35.600  1.00  0.00     0.091 A 
ATOM     86  F   UNL A   1      43.875  25.476  34.789  1.00  0.00    -0.205 F 
ATOM     87  C   UNL A   1      47.263  26.616  35.577  1.00  0.00     0.022 A 
BRANCH  85  88
ATOM     88  S   UNL A   1      46.045  24.444  36.719  1.00  0.00     0.127 S 
ATOM     89  O   UNL A   1      45.831  23.332  35.795  1.00  0.00    -0.237 OA
ATOM     90  O   UNL A   1      47.377  24.486  37.324  1.00  0.00    -0.237 OA
ATOM     91  O   UNL A   1      44.954  24.705  37.649  1.00  0.00    -0.744 OA
ENDBRANCH  85  88
ENDBRANCH  58  81
ENDBRANCH  32  33
ENDBRANCH  25  27
ENDBRANCH  24  25
ENDBRANCH  23  24
ENDBRANCH   1  23
TORSDOF 20
ENDMDL
