MODEL 1
REMARK VINA RESULT:     -10.0      0.000      0.000
REMARK SMILES O=C(CCC(=O)OCCOCCOC(=O)c1ccc(-c2c3nc(c(-c4cccc(S(=O)(=O)[O-])c4F)c4ccc([nH]4)c(-c4cccc(S(=O)(=O)[O-])c4F)c4nc(c(-c5cccc(S(=O)(=O)[O-])c5F)c5ccc2[nH]5)C=C4)C=C3)cc1)Nc1nncs1
REMARK SMILES IDX 10 1 9 2 8 3 7 4 5 5 6 6 4 7 3 8 2 9 1 10 79 11 80 13 81 14
REMARK SMILES IDX 84 15 82 16 83 17 11 18 12 19 13 20 14 21 15 22 16 23 17 24
REMARK SMILES IDX 78 25 18 26 77 27 19 28 20 29 21 30 71 31 22 32 76 33 70 34
REMARK SMILES IDX 72 35 23 36 75 37 69 38 68 39 24 41 56 42 36 43 55 44 37 45
REMARK SMILES IDX 40 46 54 47 73 48 38 49 39 50 53 52 74 53 41 54 25 55 26 56
REMARK SMILES IDX 34 57 27 58 29 59 35 60 28 61 30 62 31 63 32 64 33 65 57 66
REMARK SMILES IDX 58 67 66 68 59 69 61 70 67 71 60 72 62 73 63 74 64 75 65 76
REMARK SMILES IDX 42 77 43 78 51 79 44 80 46 81 52 82 45 83 47 84 48 85 49 86
REMARK SMILES IDX 50 87
REMARK H PARENT 79 12 72 40 40 51
REMARK Flexibility Score: inf
ROOT
ATOM      1  O   UNL A   1      36.819  23.238  24.273  1.00  0.00    -0.374 OA
ENDROOT
BRANCH   1   2
ATOM      2  C   UNL A   1      35.463  23.659  24.443  1.00  0.00     0.202 C 
BRANCH   2   3
ATOM      3  C   UNL A   1      34.427  22.921  23.588  1.00  0.00     0.261 C 
BRANCH   3   4
ATOM      4  O   UNL A   1      33.247  22.613  24.367  1.00  0.00    -0.463 OA
BRANCH   4   5
ATOM      5  C   UNL A   1      32.345  23.618  24.545  1.00  0.00     0.306 C 
ATOM      6  O   UNL A   1      31.642  24.098  23.668  1.00  0.00    -0.252 OA
BRANCH   5   7
ATOM      7  C   UNL A   1      32.334  24.102  25.980  1.00  0.00     0.132 C 
BRANCH   7   8
ATOM      8  C   UNL A   1      32.726  25.563  26.175  1.00  0.00     0.112 C 
BRANCH   8   9
ATOM      9  C   UNL A   1      31.636  26.564  25.829  1.00  0.00     0.226 C 
ATOM     10  O   UNL A   1      30.686  26.712  26.591  1.00  0.00    -0.275 OA
ATOM     11  N   UNL A   1      31.862  27.245  24.661  1.00  0.00    -0.301 N 
ATOM     12  H   UNL A   1      32.659  27.020  24.129  1.00  0.00     0.172 HD
BRANCH  11  13
ATOM     13  C   UNL A   1      31.023  28.224  24.210  1.00  0.00     0.212 A 
ATOM     14  N   UNL A   1      30.958  29.495  24.514  1.00  0.00    -0.120 NA
ATOM     15  S   UNL A   1      29.872  27.684  23.070  1.00  0.00    -0.083 S 
ATOM     16  N   UNL A   1      29.931  30.126  23.833  1.00  0.00    -0.145 NA
ATOM     17  C   UNL A   1      29.251  29.288  23.079  1.00  0.00     0.204 A 
ENDBRANCH  11  13
ENDBRANCH   8   9
ENDBRANCH   7   8
ENDBRANCH   5   7
ENDBRANCH   4   5
ENDBRANCH   3   4
ENDBRANCH   2   3
ENDBRANCH   1   2
BRANCH   1  18
ATOM     18  C   UNL A   1      37.032  21.887  23.880  1.00  0.00     0.202 C 
BRANCH  18  19
ATOM     19  C   UNL A   1      37.790  20.995  24.872  1.00  0.00     0.261 C 
BRANCH  19  20
ATOM     20  O   UNL A   1      38.159  21.690  26.075  1.00  0.00    -0.460 OA
BRANCH  20  21
ATOM     21  C   UNL A   1      39.489  21.661  26.341  1.00  0.00     0.338 C 
ATOM     22  O   UNL A   1      40.293  20.818  25.960  1.00  0.00    -0.246 OA
BRANCH  21  23
ATOM     23  C   UNL A   1      39.916  22.900  27.015  1.00  0.00     0.060 A 
ATOM     24  C   UNL A   1      39.216  24.069  26.696  1.00  0.00     0.016 A 
ATOM     25  C   UNL A   1      41.011  22.947  27.879  1.00  0.00     0.016 A 
ATOM     26  C   UNL A   1      39.646  25.300  27.189  1.00  0.00     0.010 A 
ATOM     27  C   UNL A   1      41.436  24.186  28.379  1.00  0.00     0.010 A 
ATOM     28  C   UNL A   1      40.781  25.376  28.007  1.00  0.00    -0.014 A 
BRANCH  28  29
ATOM     29  C   UNL A   1      41.325  26.712  28.372  1.00  0.00     0.031 A 
ATOM     30  C   UNL A   1      42.760  27.047  28.054  1.00  0.00     0.074 A 
ATOM     31  C   UNL A   1      40.541  27.643  28.948  1.00  0.00     0.049 A 
ATOM     32  N   UNL A   1      43.387  28.189  28.178  1.00  0.00    -0.248 NA
ATOM     33  C   UNL A   1      43.595  25.962  27.514  1.00  0.00     0.031 C 
ATOM     34  C   UNL A   1      39.132  27.467  29.299  1.00  0.00     0.029 A 
ATOM     35  N   UNL A   1      40.824  28.925  29.350  1.00  0.00    -0.354 N 
ATOM     36  C   UNL A   1      44.687  27.960  27.744  1.00  0.00     0.074 A 
ATOM     37  C   UNL A   1      44.770  26.560  27.389  1.00  0.00     0.031 C 
ATOM     38  C   UNL A   1      38.687  28.581  29.904  1.00  0.00     0.029 A 
ATOM     39  C   UNL A   1      39.770  29.558  29.964  1.00  0.00     0.049 A 
ATOM     40  H   UNL A   1      41.701  29.350  29.213  1.00  0.00     0.167 HD
ATOM     41  C   UNL A   1      45.713  28.836  27.619  1.00  0.00     0.034 A 
ATOM     42  C   UNL A   1      39.678  30.791  30.500  1.00  0.00     0.034 A 
ATOM     43  C   UNL A   1      45.632  30.234  27.956  1.00  0.00     0.049 A 
ATOM     44  C   UNL A   1      40.841  31.738  30.379  1.00  0.00     0.074 A 
ATOM     45  C   UNL A   1      46.588  31.219  27.784  1.00  0.00     0.029 A 
ATOM     46  N   UNL A   1      44.542  30.840  28.561  1.00  0.00    -0.354 N 
ATOM     47  N   UNL A   1      42.002  31.551  29.801  1.00  0.00    -0.248 NA
ATOM     48  C   UNL A   1      40.654  33.088  30.930  1.00  0.00     0.031 C 
ATOM     49  C   UNL A   1      46.093  32.411  28.325  1.00  0.00     0.029 A 
ATOM     50  C   UNL A   1      44.811  32.178  28.794  1.00  0.00     0.049 A 
ATOM     51  H   UNL A   1      43.700  30.385  28.792  1.00  0.00     0.167 HD
ATOM     52  C   UNL A   1      42.662  32.774  29.867  1.00  0.00     0.074 A 
ATOM     53  C   UNL A   1      41.762  33.697  30.531  1.00  0.00     0.031 C 
ATOM     54  C   UNL A   1      43.900  33.104  29.419  1.00  0.00     0.034 A 
BRANCH  41  55
ATOM     55  C   UNL A   1      47.013  28.311  27.066  1.00  0.00     0.023 A 
ATOM     56  C   UNL A   1      48.071  27.990  27.942  1.00  0.00     0.012 A 
ATOM     57  C   UNL A   1      47.174  28.093  25.683  1.00  0.00     0.148 A 
ATOM     58  C   UNL A   1      49.282  27.503  27.449  1.00  0.00     0.002 A 
ATOM     59  C   UNL A   1      48.365  27.561  25.204  1.00  0.00     0.091 A 
ATOM     60  F   UNL A   1      46.166  28.422  24.864  1.00  0.00    -0.205 F 
ATOM     61  C   UNL A   1      49.424  27.280  26.082  1.00  0.00     0.022 A 
BRANCH  59  62
ATOM     62  S   UNL A   1      48.615  27.158  23.472  1.00  0.00     0.127 S 
ATOM     63  O   UNL A   1      47.969  25.849  23.378  1.00  0.00    -0.237 OA
ATOM     64  O   UNL A   1      47.898  28.240  22.798  1.00  0.00    -0.237 OA
ATOM     65  O   UNL A   1      50.056  27.162  23.263  1.00  0.00    -0.744 OA
ENDBRANCH  59  62
ENDBRANCH  41  55
BRANCH  42  66
ATOM     66  C   UNL A   1      38.399  31.236  31.125  1.00  0.00     0.023 A 
ATOM     67  C   UNL A   1      38.212  31.081  32.512  1.00  0.00     0.012 A 
ATOM     68  C   UNL A   1      37.378  31.821  30.353  1.00  0.00     0.148 A 
ATOM     69  C   UNL A   1      37.014  31.466  33.115  1.00  0.00     0.002 A 
ATOM     70  C   UNL A   1      36.208  32.250  30.968  1.00  0.00     0.091 A 
ATOM     71  F   UNL A   1      37.579  31.957  29.035  1.00  0.00    -0.205 F 
ATOM     72  C   UNL A   1      36.016  32.057  32.345  1.00  0.00     0.022 A 
BRANCH  70  73
ATOM     73  S   UNL A   1      34.919  33.133  30.083  1.00  0.00     0.127 S 
ATOM     74  O   UNL A   1      34.411  32.101  29.184  1.00  0.00    -0.237 OA
ATOM     75  O   UNL A   1      34.015  33.507  31.171  1.00  0.00    -0.237 OA
ATOM     76  O   UNL A   1      35.585  34.259  29.440  1.00  0.00    -0.744 OA
ENDBRANCH  70  73
ENDBRANCH  42  66
BRANCH  54  77
ATOM     77  C   UNL A   1      44.343  34.536  29.588  1.00  0.00     0.023 A 
ATOM     78  C   UNL A   1      45.034  34.933  30.750  1.00  0.00     0.012 A 
ATOM     79  C   UNL A   1      44.097  35.488  28.576  1.00  0.00     0.148 A 
ATOM     80  C   UNL A   1      45.422  36.260  30.929  1.00  0.00     0.002 A 
ATOM     81  C   UNL A   1      44.538  36.796  28.738  1.00  0.00     0.091 A 
ATOM     82  F   UNL A   1      43.422  35.103  27.484  1.00  0.00    -0.205 F 
ATOM     83  C   UNL A   1      45.183  37.189  29.920  1.00  0.00     0.022 A 
BRANCH  81  84
ATOM     84  S   UNL A   1      44.362  38.031  27.444  1.00  0.00     0.127 S 
ATOM     85  O   UNL A   1      44.521  39.275  28.194  1.00  0.00    -0.237 OA
ATOM     86  O   UNL A   1      45.477  37.711  26.551  1.00  0.00    -0.237 OA
ATOM     87  O   UNL A   1      43.045  37.810  26.861  1.00  0.00    -0.744 OA
ENDBRANCH  81  84
ENDBRANCH  54  77
ENDBRANCH  28  29
ENDBRANCH  21  23
ENDBRANCH  20  21
ENDBRANCH  19  20
ENDBRANCH  18  19
ENDBRANCH   1  18
TORSDOF 20
ENDMDL
MODEL 2
REMARK VINA RESULT:      -9.9      2.240      3.162
REMARK SMILES O=C(CCC(=O)OCCOCCOC(=O)c1ccc(-c2c3nc(c(-c4cccc(S(=O)(=O)[O-])c4F)c4ccc([nH]4)c(-c4cccc(S(=O)(=O)[O-])c4F)c4nc(c(-c5cccc(S(=O)(=O)[O-])c5F)c5ccc2[nH]5)C=C4)C=C3)cc1)Nc1nncs1
REMARK SMILES IDX 10 1 9 2 8 3 7 4 5 5 6 6 4 7 3 8 2 9 1 10 79 11 80 13 81 14
REMARK SMILES IDX 84 15 82 16 83 17 11 18 12 19 13 20 14 21 15 22 16 23 17 24
REMARK SMILES IDX 78 25 18 26 77 27 19 28 20 29 21 30 71 31 22 32 76 33 70 34
REMARK SMILES IDX 72 35 23 36 75 37 69 38 68 39 24 41 56 42 36 43 55 44 37 45
REMARK SMILES IDX 40 46 54 47 73 48 38 49 39 50 53 52 74 53 41 54 25 55 26 56
REMARK SMILES IDX 34 57 27 58 29 59 35 60 28 61 30 62 31 63 32 64 33 65 57 66
REMARK SMILES IDX 58 67 66 68 59 69 61 70 67 71 60 72 62 73 63 74 64 75 65 76
REMARK SMILES IDX 42 77 43 78 51 79 44 80 46 81 52 82 45 83 47 84 48 85 49 86
REMARK SMILES IDX 50 87
REMARK H PARENT 79 12 72 40 40 51
REMARK Flexibility Score: inf
ROOT
ATOM      1  O   UNL A   1      36.135  23.859  24.793  1.00  0.00    -0.374 OA
ENDROOT
BRANCH   1   2
ATOM      2  C   UNL A   1      34.727  23.963  25.017  1.00  0.00     0.202 C 
BRANCH   2   3
ATOM      3  C   UNL A   1      34.147  25.381  24.946  1.00  0.00     0.261 C 
BRANCH   3   4
ATOM      4  O   UNL A   1      32.746  25.342  24.587  1.00  0.00    -0.463 OA
BRANCH   4   5
ATOM      5  C   UNL A   1      31.897  24.749  25.472  1.00  0.00     0.306 C 
ATOM      6  O   UNL A   1      31.754  25.081  26.640  1.00  0.00    -0.252 OA
BRANCH   5   7
ATOM      7  C   UNL A   1      31.158  23.591  24.837  1.00  0.00     0.132 C 
BRANCH   7   8
ATOM      8  C   UNL A   1      30.961  22.375  25.738  1.00  0.00     0.112 C 
BRANCH   8   9
ATOM      9  C   UNL A   1      32.154  21.437  25.808  1.00  0.00     0.226 C 
ATOM     10  O   UNL A   1      32.967  21.559  26.718  1.00  0.00    -0.275 OA
ATOM     11  N   UNL A   1      32.174  20.494  24.813  1.00  0.00    -0.301 N 
ATOM     12  H   UNL A   1      31.467  20.514  24.128  1.00  0.00     0.172 HD
BRANCH  11  13
ATOM     13  C   UNL A   1      33.137  19.528  24.738  1.00  0.00     0.212 A 
ATOM     14  N   UNL A   1      34.436  19.630  24.625  1.00  0.00    -0.120 NA
ATOM     15  S   UNL A   1      32.529  17.933  24.792  1.00  0.00    -0.083 S 
ATOM     16  N   UNL A   1      35.037  18.385  24.559  1.00  0.00    -0.145 NA
ATOM     17  C   UNL A   1      34.154  17.408  24.587  1.00  0.00     0.204 A 
ENDBRANCH  11  13
ENDBRANCH   8   9
ENDBRANCH   7   8
ENDBRANCH   5   7
ENDBRANCH   4   5
ENDBRANCH   3   4
ENDBRANCH   2   3
ENDBRANCH   1   2
BRANCH   1  18
ATOM     18  C   UNL A   1      36.569  22.905  23.829  1.00  0.00     0.202 C 
BRANCH  18  19
ATOM     19  C   UNL A   1      37.378  21.713  24.360  1.00  0.00     0.261 C 
BRANCH  19  20
ATOM     20  O   UNL A   1      37.627  21.795  25.773  1.00  0.00    -0.460 OA
BRANCH  20  21
ATOM     21  C   UNL A   1      38.932  21.647  26.111  1.00  0.00     0.338 C 
ATOM     22  O   UNL A   1      39.673  20.728  25.781  1.00  0.00    -0.246 OA
BRANCH  21  23
ATOM     23  C   UNL A   1      39.437  22.850  26.797  1.00  0.00     0.060 A 
ATOM     24  C   UNL A   1      38.777  24.056  26.530  1.00  0.00     0.016 A 
ATOM     25  C   UNL A   1      40.563  22.830  27.620  1.00  0.00     0.016 A 
ATOM     26  C   UNL A   1      39.277  25.255  27.034  1.00  0.00     0.010 A 
ATOM     27  C   UNL A   1      41.059  24.037  28.132  1.00  0.00     0.010 A 
ATOM     28  C   UNL A   1      40.444  25.263  27.811  1.00  0.00    -0.014 A 
BRANCH  28  29
ATOM     29  C   UNL A   1      41.058  26.565  28.185  1.00  0.00     0.031 A 
ATOM     30  C   UNL A   1      42.493  26.846  27.822  1.00  0.00     0.074 A 
ATOM     31  C   UNL A   1      40.336  27.515  28.810  1.00  0.00     0.049 A 
ATOM     32  N   UNL A   1      43.174  27.957  27.949  1.00  0.00    -0.248 NA
ATOM     33  C   UNL A   1      43.260  25.740  27.228  1.00  0.00     0.031 C 
ATOM     34  C   UNL A   1      38.934  27.391  29.208  1.00  0.00     0.029 A 
ATOM     35  N   UNL A   1      40.689  28.774  29.230  1.00  0.00    -0.354 N 
ATOM     36  C   UNL A   1      44.446  27.684  27.462  1.00  0.00     0.074 A 
ATOM     37  C   UNL A   1      44.456  26.290  27.073  1.00  0.00     0.031 C 
ATOM     38  C   UNL A   1      38.559  28.508  29.853  1.00  0.00     0.029 A 
ATOM     39  C   UNL A   1      39.685  29.437  29.896  1.00  0.00     0.049 A 
ATOM     40  H   UNL A   1      41.578  29.164  29.070  1.00  0.00     0.167 HD
ATOM     41  C   UNL A   1      45.505  28.518  27.319  1.00  0.00     0.034 A 
ATOM     42  C   UNL A   1      39.666  30.659  30.462  1.00  0.00     0.034 A 
ATOM     43  C   UNL A   1      45.496  29.909  27.690  1.00  0.00     0.049 A 
ATOM     44  C   UNL A   1      40.864  31.558  30.320  1.00  0.00     0.074 A 
ATOM     45  C   UNL A   1      46.487  30.856  27.505  1.00  0.00     0.029 A 
ATOM     46  N   UNL A   1      44.456  30.546  28.348  1.00  0.00    -0.354 N 
ATOM     47  N   UNL A   1      41.995  31.336  29.696  1.00  0.00    -0.248 NA
ATOM     48  C   UNL A   1      40.756  32.902  30.907  1.00  0.00     0.031 C 
ATOM     49  C   UNL A   1      46.064  32.055  28.091  1.00  0.00     0.029 A 
ATOM     50  C   UNL A   1      44.790  31.866  28.601  1.00  0.00     0.049 A 
ATOM     51  H   UNL A   1      43.604  30.123  28.599  1.00  0.00     0.167 HD
ATOM     52  C   UNL A   1      42.709  32.528  29.764  1.00  0.00     0.074 A 
ATOM     53  C   UNL A   1      41.875  33.472  30.481  1.00  0.00     0.031 C 
ATOM     54  C   UNL A   1      43.944  32.815  29.279  1.00  0.00     0.034 A 
BRANCH  41  55
ATOM     55  C   UNL A   1      46.760  27.951  26.707  1.00  0.00     0.023 A 
ATOM     56  C   UNL A   1      47.698  27.281  27.521  1.00  0.00     0.012 A 
ATOM     57  C   UNL A   1      46.992  28.042  25.321  1.00  0.00     0.148 A 
ATOM     58  C   UNL A   1      48.866  26.750  26.973  1.00  0.00     0.002 A 
ATOM     59  C   UNL A   1      48.133  27.467  24.775  1.00  0.00     0.091 A 
ATOM     60  F   UNL A   1      46.100  28.698  24.566  1.00  0.00    -0.205 F 
ATOM     61  C   UNL A   1      49.078  26.835  25.600  1.00  0.00     0.022 A 
BRANCH  59  62
ATOM     62  S   UNL A   1      48.454  27.448  23.007  1.00  0.00     0.127 S 
ATOM     63  O   UNL A   1      47.313  28.204  22.493  1.00  0.00    -0.237 OA
ATOM     64  O   UNL A   1      49.736  28.146  22.920  1.00  0.00    -0.237 OA
ATOM     65  O   UNL A   1      48.500  26.045  22.623  1.00  0.00    -0.744 OA
ENDBRANCH  59  62
ENDBRANCH  41  55
BRANCH  42  66
ATOM     66  C   UNL A   1      38.432  31.143  31.143  1.00  0.00     0.023 A 
ATOM     67  C   UNL A   1      38.306  31.004  32.539  1.00  0.00     0.012 A 
ATOM     68  C   UNL A   1      37.391  31.749  30.416  1.00  0.00     0.148 A 
ATOM     69  C   UNL A   1      37.150  31.426  33.194  1.00  0.00     0.002 A 
ATOM     70  C   UNL A   1      36.263  32.215  31.082  1.00  0.00     0.091 A 
ATOM     71  F   UNL A   1      37.532  31.870  29.088  1.00  0.00    -0.205 F 
ATOM     72  C   UNL A   1      36.132  32.037  32.468  1.00  0.00     0.022 A 
BRANCH  70  73
ATOM     73  S   UNL A   1      34.957  33.126  30.251  1.00  0.00     0.127 S 
ATOM     74  O   UNL A   1      35.704  34.207  29.614  1.00  0.00    -0.237 OA
ATOM     75  O   UNL A   1      34.427  32.115  29.335  1.00  0.00    -0.237 OA
ATOM     76  O   UNL A   1      34.032  33.530  31.302  1.00  0.00    -0.744 OA
ENDBRANCH  70  73
ENDBRANCH  42  66
BRANCH  54  77
ATOM     77  C   UNL A   1      44.454  34.223  29.463  1.00  0.00     0.023 A 
ATOM     78  C   UNL A   1      45.249  34.548  30.580  1.00  0.00     0.012 A 
ATOM     79  C   UNL A   1      44.168  35.221  28.509  1.00  0.00     0.148 A 
ATOM     80  C   UNL A   1      45.702  35.853  30.776  1.00  0.00     0.002 A 
ATOM     81  C   UNL A   1      44.671  36.506  28.682  1.00  0.00     0.091 A 
ATOM     82  F   UNL A   1      43.395  34.904  27.461  1.00  0.00    -0.205 F 
ATOM     83  C   UNL A   1      45.421  36.829  29.822  1.00  0.00     0.022 A 
BRANCH  81  84
ATOM     84  S   UNL A   1      44.442  37.795  27.451  1.00  0.00     0.127 S 
ATOM     85  O   UNL A   1      45.580  37.565  26.563  1.00  0.00    -0.237 OA
ATOM     86  O   UNL A   1      43.141  37.451  26.875  1.00  0.00    -0.237 OA
ATOM     87  O   UNL A   1      44.459  39.053  28.185  1.00  0.00    -0.744 OA
ENDBRANCH  81  84
ENDBRANCH  54  77
ENDBRANCH  28  29
ENDBRANCH  21  23
ENDBRANCH  20  21
ENDBRANCH  19  20
ENDBRANCH  18  19
ENDBRANCH   1  18
TORSDOF 20
ENDMDL
MODEL 3
REMARK VINA RESULT:      -9.9      4.081      5.783
REMARK SMILES O=C(CCC(=O)OCCOCCOC(=O)c1ccc(-c2c3nc(c(-c4cccc(S(=O)(=O)[O-])c4F)c4ccc([nH]4)c(-c4cccc(S(=O)(=O)[O-])c4F)c4nc(c(-c5cccc(S(=O)(=O)[O-])c5F)c5ccc2[nH]5)C=C4)C=C3)cc1)Nc1nncs1
REMARK SMILES IDX 10 1 9 2 8 3 7 4 5 5 6 6 4 7 3 8 2 9 1 10 79 11 80 13 81 14
REMARK SMILES IDX 84 15 82 16 83 17 11 18 12 19 13 20 14 21 15 22 16 23 17 24
REMARK SMILES IDX 78 25 18 26 77 27 19 28 20 29 21 30 71 31 22 32 76 33 70 34
REMARK SMILES IDX 72 35 23 36 75 37 69 38 68 39 24 41 56 42 36 43 55 44 37 45
REMARK SMILES IDX 40 46 54 47 73 48 38 49 39 50 53 52 74 53 41 54 25 55 26 56
REMARK SMILES IDX 34 57 27 58 29 59 35 60 28 61 30 62 31 63 32 64 33 65 57 66
REMARK SMILES IDX 58 67 66 68 59 69 61 70 67 71 60 72 62 73 63 74 64 75 65 76
REMARK SMILES IDX 42 77 43 78 51 79 44 80 46 81 52 82 45 83 47 84 48 85 49 86
REMARK SMILES IDX 50 87
REMARK H PARENT 79 12 72 40 40 51
REMARK Flexibility Score: inf
ROOT
ATOM      1  O   UNL A   1      43.979  18.048  25.715  1.00  0.00    -0.374 OA
ENDROOT
BRANCH   1   2
ATOM      2  C   UNL A   1      44.264  18.886  24.592  1.00  0.00     0.202 C 
BRANCH   2   3
ATOM      3  C   UNL A   1      45.268  20.017  24.845  1.00  0.00     0.261 C 
BRANCH   3   4
ATOM      4  O   UNL A   1      44.662  21.070  25.630  1.00  0.00    -0.463 OA
BRANCH   4   5
ATOM      5  C   UNL A   1      45.324  22.260  25.682  1.00  0.00     0.306 C 
ATOM      6  O   UNL A   1      46.024  22.636  26.611  1.00  0.00    -0.252 OA
BRANCH   5   7
ATOM      7  C   UNL A   1      45.064  23.091  24.443  1.00  0.00     0.132 C 
BRANCH   7   8
ATOM      8  C   UNL A   1      43.902  24.073  24.553  1.00  0.00     0.112 C 
BRANCH   8   9
ATOM      9  C   UNL A   1      44.279  25.446  25.084  1.00  0.00     0.226 C 
ATOM     10  O   UNL A   1      45.448  25.686  25.365  1.00  0.00    -0.275 OA
ATOM     11  N   UNL A   1      43.222  26.316  25.166  1.00  0.00    -0.301 N 
ATOM     12  H   UNL A   1      42.324  25.992  24.925  1.00  0.00     0.172 HD
BRANCH  11  13
ATOM     13  C   UNL A   1      43.370  27.612  25.569  1.00  0.00     0.212 A 
ATOM     14  N   UNL A   1      44.450  28.321  25.773  1.00  0.00    -0.120 NA
ATOM     15  S   UNL A   1      41.896  28.424  25.858  1.00  0.00    -0.083 S 
ATOM     16  N   UNL A   1      44.143  29.600  26.203  1.00  0.00    -0.145 NA
ATOM     17  C   UNL A   1      42.844  29.776  26.337  1.00  0.00     0.204 A 
ENDBRANCH  11  13
ENDBRANCH   8   9
ENDBRANCH   7   8
ENDBRANCH   5   7
ENDBRANCH   4   5
ENDBRANCH   3   4
ENDBRANCH   2   3
ENDBRANCH   1   2
BRANCH   1  18
ATOM     18  C   UNL A   1      42.677  18.148  26.282  1.00  0.00     0.202 C 
BRANCH  18  19
ATOM     19  C   UNL A   1      42.558  18.935  27.594  1.00  0.00     0.261 C 
BRANCH  19  20
ATOM     20  O   UNL A   1      41.368  19.738  27.655  1.00  0.00    -0.460 OA
BRANCH  20  21
ATOM     21  C   UNL A   1      41.339  20.748  26.752  1.00  0.00     0.338 C 
ATOM     22  O   UNL A   1      41.081  20.656  25.557  1.00  0.00    -0.246 OA
BRANCH  21  23
ATOM     23  C   UNL A   1      41.482  22.054  27.420  1.00  0.00     0.060 A 
ATOM     24  C   UNL A   1      40.848  23.148  26.818  1.00  0.00     0.016 A 
ATOM     25  C   UNL A   1      42.268  22.234  28.559  1.00  0.00     0.016 A 
ATOM     26  C   UNL A   1      41.048  24.434  27.315  1.00  0.00     0.010 A 
ATOM     27  C   UNL A   1      42.460  23.529  29.061  1.00  0.00     0.010 A 
ATOM     28  C   UNL A   1      41.884  24.643  28.420  1.00  0.00    -0.014 A 
BRANCH  28  29
ATOM     29  C   UNL A   1      42.225  26.035  28.820  1.00  0.00     0.031 A 
ATOM     30  C   UNL A   1      43.664  26.480  28.824  1.00  0.00     0.074 A 
ATOM     31  C   UNL A   1      41.259  26.917  29.140  1.00  0.00     0.049 A 
ATOM     32  N   UNL A   1      44.157  27.677  29.021  1.00  0.00    -0.248 NA
ATOM     33  C   UNL A   1      44.682  25.451  28.559  1.00  0.00     0.031 C 
ATOM     34  C   UNL A   1      39.824  26.635  29.164  1.00  0.00     0.029 A 
ATOM     35  N   UNL A   1      41.342  28.235  29.519  1.00  0.00    -0.354 N 
ATOM     36  C   UNL A   1      45.536  27.544  28.915  1.00  0.00     0.074 A 
ATOM     37  C   UNL A   1      45.806  26.143  28.674  1.00  0.00     0.031 C 
ATOM     38  C   UNL A   1      39.166  27.729  29.581  1.00  0.00     0.029 A 
ATOM     39  C   UNL A   1      40.128  28.799  29.832  1.00  0.00     0.049 A 
ATOM     40  H   UNL A   1      42.193  28.728  29.564  1.00  0.00     0.167 HD
ATOM     41  C   UNL A   1      46.494  28.501  28.979  1.00  0.00     0.034 A 
ATOM     42  C   UNL A   1      39.820  30.040  30.256  1.00  0.00     0.034 A 
ATOM     43  C   UNL A   1      46.231  29.898  29.203  1.00  0.00     0.049 A 
ATOM     44  C   UNL A   1      40.905  31.078  30.352  1.00  0.00     0.074 A 
ATOM     45  C   UNL A   1      47.125  30.955  29.198  1.00  0.00     0.029 A 
ATOM     46  N   UNL A   1      44.987  30.431  29.501  1.00  0.00    -0.354 N 
ATOM     47  N   UNL A   1      42.180  30.970  30.072  1.00  0.00    -0.248 NA
ATOM     48  C   UNL A   1      40.493  32.429  30.762  1.00  0.00     0.031 C 
ATOM     49  C   UNL A   1      46.428  32.120  29.537  1.00  0.00     0.029 A 
ATOM     50  C   UNL A   1      45.092  31.797  29.708  1.00  0.00     0.049 A 
ATOM     51  H   UNL A   1      44.151  29.916  29.556  1.00  0.00     0.167 HD
ATOM     52  C   UNL A   1      42.712  32.247  30.215  1.00  0.00     0.074 A 
ATOM     53  C   UNL A   1      41.614  33.114  30.595  1.00  0.00     0.031 C 
ATOM     54  C   UNL A   1      43.993  32.665  30.048  1.00  0.00     0.034 A 
BRANCH  41  55
ATOM     55  C   UNL A   1      47.924  28.068  28.776  1.00  0.00     0.023 A 
ATOM     56  C   UNL A   1      48.717  27.718  29.889  1.00  0.00     0.012 A 
ATOM     57  C   UNL A   1      48.470  27.965  27.481  1.00  0.00     0.148 A 
ATOM     58  C   UNL A   1      50.043  27.316  29.720  1.00  0.00     0.002 A 
ATOM     59  C   UNL A   1      49.775  27.516  27.318  1.00  0.00     0.091 A 
ATOM     60  F   UNL A   1      47.708  28.321  26.437  1.00  0.00    -0.205 F 
ATOM     61  C   UNL A   1      50.567  27.206  28.435  1.00  0.00     0.022 A 
BRANCH  59  62
ATOM     62  S   UNL A   1      50.513  27.259  25.701  1.00  0.00     0.127 S 
ATOM     63  O   UNL A   1      51.885  26.901  26.056  1.00  0.00    -0.237 OA
ATOM     64  O   UNL A   1      49.713  26.155  25.170  1.00  0.00    -0.237 OA
ATOM     65  O   UNL A   1      50.359  28.518  24.985  1.00  0.00    -0.744 OA
ENDBRANCH  59  62
ENDBRANCH  41  55
BRANCH  42  66
ATOM     66  C   UNL A   1      38.401  30.397  30.540  1.00  0.00     0.023 A 
ATOM     67  C   UNL A   1      37.864  30.157  31.819  1.00  0.00     0.012 A 
ATOM     68  C   UNL A   1      37.588  30.983  29.551  1.00  0.00     0.148 A 
ATOM     69  C   UNL A   1      36.532  30.460  32.099  1.00  0.00     0.002 A 
ATOM     70  C   UNL A   1      36.277  31.330  29.852  1.00  0.00     0.091 A 
ATOM     71  F   UNL A   1      38.121  31.201  28.340  1.00  0.00    -0.205 F 
ATOM     72  C   UNL A   1      35.740  31.052  31.119  1.00  0.00     0.022 A 
BRANCH  70  73
ATOM     73  S   UNL A   1      35.219  32.210  28.697  1.00  0.00     0.127 S 
ATOM     74  O   UNL A   1      34.569  31.110  27.989  1.00  0.00    -0.237 OA
ATOM     75  O   UNL A   1      34.352  32.962  29.603  1.00  0.00    -0.237 OA
ATOM     76  O   UNL A   1      36.115  33.035  27.897  1.00  0.00    -0.744 OA
ENDBRANCH  70  73
ENDBRANCH  42  66
BRANCH  54  77
ATOM     77  C   UNL A   1      44.275  34.136  30.228  1.00  0.00     0.023 A 
ATOM     78  C   UNL A   1      44.676  34.632  31.484  1.00  0.00     0.012 A 
ATOM     79  C   UNL A   1      44.168  35.026  29.139  1.00  0.00     0.148 A 
ATOM     80  C   UNL A   1      44.912  35.995  31.668  1.00  0.00     0.002 A 
ATOM     81  C   UNL A   1      44.460  36.374  29.318  1.00  0.00     0.091 A 
ATOM     82  F   UNL A   1      43.766  34.545  27.954  1.00  0.00    -0.205 F 
ATOM     83  C   UNL A   1      44.813  36.863  30.584  1.00  0.00     0.022 A 
BRANCH  81  84
ATOM     84  S   UNL A   1      44.456  37.542  27.952  1.00  0.00     0.127 S 
ATOM     85  O   UNL A   1      44.250  38.812  28.646  1.00  0.00    -0.237 OA
ATOM     86  O   UNL A   1      45.794  37.367  27.387  1.00  0.00    -0.237 OA
ATOM     87  O   UNL A   1      43.373  37.122  27.073  1.00  0.00    -0.744 OA
ENDBRANCH  81  84
ENDBRANCH  54  77
ENDBRANCH  28  29
ENDBRANCH  21  23
ENDBRANCH  20  21
ENDBRANCH  19  20
ENDBRANCH  18  19
ENDBRANCH   1  18
TORSDOF 20
ENDMDL
