MODEL 1
REMARK VINA RESULT:     -10.1      0.000      0.000
REMARK SMILES CC[NH+](CC)C[C@H](C)NC(=O)N[C@H]1C=C[C@@H](C(=O)OCCOCCOC(=O)c2ccc(-c3c4nc(c(-c5cccc(S(=O)(=O)[O-])c5F)c5ccc([nH]5)c(-c5cccc(S(=O)(=O)[O-])c5F)c5nc(c(-c6cccc(S(=O)(=O)[O-])c6F)c6ccc3[nH]6)C=C5)C=C4)cc2)C1
REMARK SMILES IDX 21 1 20 2 19 3 17 4 18 5 16 6 13 7 14 8 91 9 15 10 12 11
REMARK SMILES IDX 9 12 10 13 11 15 7 17 8 18 6 19 3 20 2 22 1 23 4 24 5 25
REMARK SMILES IDX 22 26 23 27 24 28 25 29 26 30 27 31 28 32 29 33 90 34 30 35
REMARK SMILES IDX 89 36 31 37 32 38 33 39 83 40 34 41 88 42 82 43 84 44 35 45
REMARK SMILES IDX 87 46 81 47 80 48 36 50 68 51 48 52 67 53 49 54 52 55 66 56
REMARK SMILES IDX 85 57 50 58 51 59 65 61 86 62 53 63 37 64 38 65 46 66 39 67
REMARK SMILES IDX 41 68 47 69 40 70 42 71 43 72 44 73 45 74 69 75 70 76 78 77
REMARK SMILES IDX 71 78 73 79 79 80 72 81 74 82 75 83 76 84 77 85 54 86 55 87
REMARK SMILES IDX 63 88 56 89 58 90 64 91 57 92 59 93 60 94 61 95 62 96
REMARK H PARENT 9 14 12 16 3 21 84 49 52 60
REMARK Flexibility Score: inf
ROOT
ATOM      1  C   UNL A   1      35.122  21.653  25.161  1.00  0.00     0.202 C 
ENDROOT
BRANCH   1   2
ATOM      2  C   UNL A   1      34.348  22.245  26.341  1.00  0.00     0.261 C 
BRANCH   2   3
ATOM      3  O   UNL A   1      32.990  22.512  25.957  1.00  0.00    -0.463 OA
BRANCH   3   4
ATOM      4  C   UNL A   1      32.235  23.198  26.851  1.00  0.00     0.312 C 
ATOM      5  O   UNL A   1      31.941  22.805  27.975  1.00  0.00    -0.252 OA
BRANCH   4   6
ATOM      6  C   UNL A   1      31.768  24.540  26.314  1.00  0.00     0.124 C 
ATOM      7  C   UNL A   1      32.238  26.507  25.014  1.00  0.00     0.107 C 
ATOM      8  C   UNL A   1      31.486  25.503  24.202  1.00  0.00    -0.006 C 
ATOM      9  C   UNL A   1      32.833  25.626  26.112  1.00  0.00     0.048 C 
ATOM     10  C   UNL A   1      31.189  24.423  24.936  1.00  0.00    -0.014 C 
BRANCH   7  11
ATOM     11  N   UNL A   1      33.245  27.172  24.239  1.00  0.00    -0.332 N 
ATOM     12  N   UNL A   1      32.742  29.488  24.289  1.00  0.00    -0.330 N 
ATOM     13  C   UNL A   1      33.480  28.443  23.907  1.00  0.00     0.315 C 
ATOM     14  H   UNL A   1      33.059  30.324  23.880  1.00  0.00     0.165 HD
ATOM     15  O   UNL A   1      34.446  28.682  23.179  1.00  0.00    -0.249 OA
ATOM     16  H   UNL A   1      33.913  26.552  23.868  1.00  0.00     0.165 HD
BRANCH  12  17
ATOM     17  C   UNL A   1      31.592  29.716  25.154  1.00  0.00     0.135 C 
ATOM     18  C   UNL A   1      32.070  30.237  26.512  1.00  0.00     0.037 C 
BRANCH  17  19
ATOM     19  C   UNL A   1      30.449  30.583  24.528  1.00  0.00     0.287 C 
BRANCH  19  20
ATOM     20  N   UNL A   1      29.446  30.090  23.574  1.00  0.00    -0.334 N 
ATOM     21  H   UNL A   1      28.628  30.286  24.151  1.00  0.00     0.348 HD
BRANCH  20  22
ATOM     22  C   UNL A   1      29.103  30.885  22.406  1.00  0.00     0.258 C 
ATOM     23  C   UNL A   1      28.195  32.055  22.754  1.00  0.00     0.071 C 
ENDBRANCH  20  22
BRANCH  20  24
ATOM     24  C   UNL A   1      29.438  28.643  23.345  1.00  0.00     0.258 C 
ATOM     25  C   UNL A   1      30.255  28.134  22.169  1.00  0.00     0.071 C 
ENDBRANCH  20  24
ENDBRANCH  19  20
ENDBRANCH  17  19
ENDBRANCH  12  17
ENDBRANCH   7  11
ENDBRANCH   4   6
ENDBRANCH   3   4
ENDBRANCH   2   3
ENDBRANCH   1   2
BRANCH   1  26
ATOM     26  O   UNL A   1      36.424  21.145  25.462  1.00  0.00    -0.374 OA
BRANCH  26  27
ATOM     27  C   UNL A   1      36.875  20.021  24.708  1.00  0.00     0.202 C 
BRANCH  27  28
ATOM     28  C   UNL A   1      38.267  19.473  25.047  1.00  0.00     0.261 C 
BRANCH  28  29
ATOM     29  O   UNL A   1      38.773  19.988  26.290  1.00  0.00    -0.460 OA
BRANCH  29  30
ATOM     30  C   UNL A   1      40.119  20.129  26.337  1.00  0.00     0.338 C 
ATOM     31  O   UNL A   1      40.955  19.362  25.873  1.00  0.00    -0.246 OA
BRANCH  30  32
ATOM     32  C   UNL A   1      40.481  21.456  26.866  1.00  0.00     0.060 A 
ATOM     33  C   UNL A   1      39.939  22.574  26.217  1.00  0.00     0.016 A 
ATOM     34  C   UNL A   1      41.391  21.614  27.913  1.00  0.00     0.016 A 
ATOM     35  C   UNL A   1      40.345  23.856  26.578  1.00  0.00     0.010 A 
ATOM     36  C   UNL A   1      41.804  22.905  28.266  1.00  0.00     0.010 A 
ATOM     37  C   UNL A   1      41.313  24.028  27.575  1.00  0.00    -0.014 A 
BRANCH  37  38
ATOM     38  C   UNL A   1      41.905  25.372  27.788  1.00  0.00     0.031 A 
ATOM     39  C   UNL A   1      41.082  26.437  28.460  1.00  0.00     0.074 A 
ATOM     40  C   UNL A   1      43.165  25.637  27.400  1.00  0.00     0.049 A 
ATOM     41  N   UNL A   1      41.403  27.671  28.749  1.00  0.00    -0.248 NA
ATOM     42  C   UNL A   1      39.715  26.064  28.860  1.00  0.00     0.031 C 
ATOM     43  C   UNL A   1      44.061  24.692  26.735  1.00  0.00     0.029 A 
ATOM     44  N   UNL A   1      43.901  26.793  27.488  1.00  0.00    -0.354 N 
ATOM     45  C   UNL A   1      40.272  28.232  29.330  1.00  0.00     0.074 A 
ATOM     46  C   UNL A   1      39.253  27.205  29.351  1.00  0.00     0.031 C 
ATOM     47  C   UNL A   1      45.215  25.317  26.444  1.00  0.00     0.029 A 
ATOM     48  C   UNL A   1      45.133  26.709  26.884  1.00  0.00     0.049 A 
ATOM     49  H   UNL A   1      43.577  27.606  27.940  1.00  0.00     0.167 HD
ATOM     50  C   UNL A   1      40.100  29.485  29.814  1.00  0.00     0.034 A 
ATOM     51  C   UNL A   1      46.076  27.652  26.690  1.00  0.00     0.034 A 
ATOM     52  C   UNL A   1      41.122  30.496  29.822  1.00  0.00     0.049 A 
ATOM     53  C   UNL A   1      45.857  29.039  27.237  1.00  0.00     0.074 A 
ATOM     54  C   UNL A   1      41.066  31.769  30.361  1.00  0.00     0.029 A 
ATOM     55  N   UNL A   1      42.378  30.357  29.251  1.00  0.00    -0.354 N 
ATOM     56  N   UNL A   1      44.840  29.506  27.921  1.00  0.00    -0.248 NA
ATOM     57  C   UNL A   1      46.932  30.019  27.019  1.00  0.00     0.031 C 
ATOM     58  C   UNL A   1      42.279  32.412  30.089  1.00  0.00     0.029 A 
ATOM     59  C   UNL A   1      43.099  31.527  29.407  1.00  0.00     0.049 A 
ATOM     60  H   UNL A   1      42.707  29.545  28.802  1.00  0.00     0.167 HD
ATOM     61  C   UNL A   1      45.167  30.820  28.242  1.00  0.00     0.074 A 
ATOM     62  C   UNL A   1      46.486  31.067  27.700  1.00  0.00     0.031 C 
ATOM     63  C   UNL A   1      44.435  31.743  28.914  1.00  0.00     0.034 A 
BRANCH  50  64
ATOM     64  C   UNL A   1      38.760  29.835  30.403  1.00  0.00     0.023 A 
ATOM     65  C   UNL A   1      38.450  29.440  31.720  1.00  0.00     0.012 A 
ATOM     66  C   UNL A   1      37.838  30.617  29.680  1.00  0.00     0.148 A 
ATOM     67  C   UNL A   1      37.234  29.799  32.301  1.00  0.00     0.002 A 
ATOM     68  C   UNL A   1      36.647  31.007  30.279  1.00  0.00     0.091 A 
ATOM     69  F   UNL A   1      38.143  30.962  28.420  1.00  0.00    -0.205 F 
ATOM     70  C   UNL A   1      36.339  30.591  31.585  1.00  0.00     0.022 A 
BRANCH  68  71
ATOM     71  S   UNL A   1      35.465  32.091  29.470  1.00  0.00     0.127 S 
ATOM     72  O   UNL A   1      34.943  31.223  28.415  1.00  0.00    -0.237 OA
ATOM     73  O   UNL A   1      34.518  32.374  30.549  1.00  0.00    -0.237 OA
ATOM     74  O   UNL A   1      36.226  33.245  29.012  1.00  0.00    -0.744 OA
ENDBRANCH  68  71
ENDBRANCH  50  64
BRANCH  51  75
ATOM     75  C   UNL A   1      47.332  27.311  25.963  1.00  0.00     0.023 A 
ATOM     76  C   UNL A   1      48.383  26.670  26.647  1.00  0.00     0.012 A 
ATOM     77  C   UNL A   1      47.486  27.612  24.596  1.00  0.00     0.148 A 
ATOM     78  C   UNL A   1      49.578  26.368  25.991  1.00  0.00     0.002 A 
ATOM     79  C   UNL A   1      48.656  27.256  23.935  1.00  0.00     0.091 A 
ATOM     80  F   UNL A   1      46.485  28.242  23.966  1.00  0.00    -0.205 F 
ATOM     81  C   UNL A   1      49.711  26.650  24.635  1.00  0.00     0.022 A 
BRANCH  79  82
ATOM     82  S   UNL A   1      48.855  27.463  22.162  1.00  0.00     0.127 S 
ATOM     83  O   UNL A   1      47.989  28.608  21.894  1.00  0.00    -0.237 OA
ATOM     84  O   UNL A   1      50.289  27.734  22.046  1.00  0.00    -0.237 OA
ATOM     85  O   UNL A   1      48.440  26.197  21.572  1.00  0.00    -0.744 OA
ENDBRANCH  79  82
ENDBRANCH  51  75
BRANCH  63  86
ATOM     86  C   UNL A   1      45.049  33.101  29.138  1.00  0.00     0.023 A 
ATOM     87  C   UNL A   1      45.761  33.361  30.326  1.00  0.00     0.012 A 
ATOM     88  C   UNL A   1      44.989  34.093  28.138  1.00  0.00     0.148 A 
ATOM     89  C   UNL A   1      46.377  34.596  30.528  1.00  0.00     0.002 A 
ATOM     90  C   UNL A   1      45.646  35.302  28.326  1.00  0.00     0.091 A 
ATOM     91  F   UNL A   1      44.291  33.834  27.022  1.00  0.00    -0.205 F 
ATOM     92  C   UNL A   1      46.330  35.561  29.525  1.00  0.00     0.022 A 
BRANCH  90  93
ATOM     93  S   UNL A   1      45.720  36.565  27.049  1.00  0.00     0.127 S 
ATOM     94  O   UNL A   1      46.806  37.416  27.533  1.00  0.00    -0.237 OA
ATOM     95  O   UNL A   1      46.045  35.783  25.855  1.00  0.00    -0.237 OA
ATOM     96  O   UNL A   1      44.401  37.184  27.023  1.00  0.00    -0.744 OA
ENDBRANCH  90  93
ENDBRANCH  63  86
ENDBRANCH  37  38
ENDBRANCH  30  32
ENDBRANCH  29  30
ENDBRANCH  28  29
ENDBRANCH  27  28
ENDBRANCH  26  27
ENDBRANCH   1  26
TORSDOF 23
ENDMDL
MODEL 2
REMARK VINA RESULT:     -10.1      5.919     11.278
REMARK SMILES CC[NH+](CC)C[C@H](C)NC(=O)N[C@H]1C=C[C@@H](C(=O)OCCOCCOC(=O)c2ccc(-c3c4nc(c(-c5cccc(S(=O)(=O)[O-])c5F)c5ccc([nH]5)c(-c5cccc(S(=O)(=O)[O-])c5F)c5nc(c(-c6cccc(S(=O)(=O)[O-])c6F)c6ccc3[nH]6)C=C5)C=C4)cc2)C1
REMARK SMILES IDX 21 1 20 2 19 3 17 4 18 5 16 6 13 7 14 8 91 9 15 10 12 11
REMARK SMILES IDX 9 12 10 13 11 15 7 17 8 18 6 19 3 20 2 22 1 23 4 24 5 25
REMARK SMILES IDX 22 26 23 27 24 28 25 29 26 30 27 31 28 32 29 33 90 34 30 35
REMARK SMILES IDX 89 36 31 37 32 38 33 39 83 40 34 41 88 42 82 43 84 44 35 45
REMARK SMILES IDX 87 46 81 47 80 48 36 50 68 51 48 52 67 53 49 54 52 55 66 56
REMARK SMILES IDX 85 57 50 58 51 59 65 61 86 62 53 63 37 64 38 65 46 66 39 67
REMARK SMILES IDX 41 68 47 69 40 70 42 71 43 72 44 73 45 74 69 75 70 76 78 77
REMARK SMILES IDX 71 78 73 79 79 80 72 81 74 82 75 83 76 84 77 85 54 86 55 87
REMARK SMILES IDX 63 88 56 89 58 90 64 91 57 92 59 93 60 94 61 95 62 96
REMARK H PARENT 9 14 12 16 3 21 84 49 52 60
REMARK Flexibility Score: inf
ROOT
ATOM      1  C   UNL A   1      34.025  29.865  27.588  1.00  0.00     0.202 C 
ENDROOT
BRANCH   1   2
ATOM      2  C   UNL A   1      34.107  28.552  26.807  1.00  0.00     0.261 C 
BRANCH   2   3
ATOM      3  O   UNL A   1      32.795  28.150  26.380  1.00  0.00    -0.463 OA
BRANCH   3   4
ATOM      4  C   UNL A   1      32.600  28.053  25.042  1.00  0.00     0.312 C 
ATOM      5  O   UNL A   1      32.753  28.966  24.238  1.00  0.00    -0.252 OA
BRANCH   4   6
ATOM      6  C   UNL A   1      32.158  26.663  24.615  1.00  0.00     0.124 C 
ATOM      7  C   UNL A   1      30.896  24.674  25.093  1.00  0.00     0.107 C 
ATOM      8  C   UNL A   1      30.117  25.596  24.211  1.00  0.00    -0.006 C 
ATOM      9  C   UNL A   1      31.902  25.634  25.724  1.00  0.00     0.048 C 
ATOM     10  C   UNL A   1      30.834  26.686  23.912  1.00  0.00    -0.014 C 
BRANCH   7  11
ATOM     11  N   UNL A   1      30.059  24.037  26.068  1.00  0.00    -0.332 N 
ATOM     12  N   UNL A   1      31.350  22.325  27.078  1.00  0.00    -0.330 N 
ATOM     13  C   UNL A   1      30.225  23.026  26.925  1.00  0.00     0.315 C 
ATOM     14  H   UNL A   1      31.233  21.587  27.719  1.00  0.00     0.165 HD
ATOM     15  O   UNL A   1      29.265  22.698  27.626  1.00  0.00    -0.249 OA
ATOM     16  H   UNL A   1      29.160  24.434  26.117  1.00  0.00     0.165 HD
BRANCH  12  17
ATOM     17  C   UNL A   1      32.707  22.363  26.548  1.00  0.00     0.135 C 
ATOM     18  C   UNL A   1      33.708  22.282  27.704  1.00  0.00     0.037 C 
BRANCH  17  19
ATOM     19  C   UNL A   1      33.005  21.340  25.402  1.00  0.00     0.287 C 
BRANCH  19  20
ATOM     20  N   UNL A   1      34.220  21.334  24.576  1.00  0.00    -0.334 N 
ATOM     21  H   UNL A   1      33.785  20.966  23.729  1.00  0.00     0.348 HD
BRANCH  20  22
ATOM     22  C   UNL A   1      34.744  22.582  24.046  1.00  0.00     0.258 C 
ATOM     23  C   UNL A   1      33.778  23.242  23.073  1.00  0.00     0.071 C 
ENDBRANCH  20  22
BRANCH  20  24
ATOM     24  C   UNL A   1      35.246  20.358  24.954  1.00  0.00     0.258 C 
ATOM     25  C   UNL A   1      36.682  20.854  24.977  1.00  0.00     0.071 C 
ENDBRANCH  20  24
ENDBRANCH  19  20
ENDBRANCH  17  19
ENDBRANCH  12  17
ENDBRANCH   7  11
ENDBRANCH   4   6
ENDBRANCH   3   4
ENDBRANCH   2   3
ENDBRANCH   1   2
BRANCH   1  26
ATOM     26  O   UNL A   1      33.630  31.015  26.835  1.00  0.00    -0.374 OA
BRANCH  26  27
ATOM     27  C   UNL A   1      32.287  31.470  27.000  1.00  0.00     0.202 C 
BRANCH  27  28
ATOM     28  C   UNL A   1      32.071  32.989  27.030  1.00  0.00     0.261 C 
BRANCH  28  29
ATOM     29  O   UNL A   1      32.675  33.608  28.178  1.00  0.00    -0.460 OA
BRANCH  29  30
ATOM     30  C   UNL A   1      33.888  34.162  27.947  1.00  0.00     0.338 C 
ATOM     31  O   UNL A   1      34.163  35.004  27.100  1.00  0.00    -0.246 OA
BRANCH  30  32
ATOM     32  C   UNL A   1      34.845  33.761  28.994  1.00  0.00     0.060 A 
ATOM     33  C   UNL A   1      36.122  34.338  28.950  1.00  0.00     0.016 A 
ATOM     34  C   UNL A   1      34.539  32.786  29.946  1.00  0.00     0.016 A 
ATOM     35  C   UNL A   1      37.115  33.904  29.824  1.00  0.00     0.010 A 
ATOM     36  C   UNL A   1      35.543  32.346  30.817  1.00  0.00     0.010 A 
ATOM     37  C   UNL A   1      36.845  32.874  30.734  1.00  0.00    -0.014 A 
BRANCH  37  38
ATOM     38  C   UNL A   1      37.964  32.263  31.493  1.00  0.00     0.031 A 
ATOM     39  C   UNL A   1      38.745  31.138  30.869  1.00  0.00     0.074 A 
ATOM     40  C   UNL A   1      38.291  32.714  32.718  1.00  0.00     0.049 A 
ATOM     41  N   UNL A   1      39.759  30.469  31.351  1.00  0.00    -0.248 NA
ATOM     42  C   UNL A   1      38.328  30.709  29.524  1.00  0.00     0.031 C 
ATOM     43  C   UNL A   1      37.608  33.793  33.431  1.00  0.00     0.029 A 
ATOM     44  N   UNL A   1      39.267  32.299  33.589  1.00  0.00    -0.354 N 
ATOM     45  C   UNL A   1      40.079  29.519  30.388  1.00  0.00     0.074 A 
ATOM     46  C   UNL A   1      39.150  29.696  29.293  1.00  0.00     0.031 C 
ATOM     47  C   UNL A   1      38.166  33.932  34.646  1.00  0.00     0.029 A 
ATOM     48  C   UNL A   1      39.229  32.941  34.804  1.00  0.00     0.049 A 
ATOM     49  H   UNL A   1      39.930  31.606  33.366  1.00  0.00     0.167 HD
ATOM     50  C   UNL A   1      41.066  28.592  30.407  1.00  0.00     0.034 A 
ATOM     51  C   UNL A   1      39.955  32.739  35.921  1.00  0.00     0.034 A 
ATOM     52  C   UNL A   1      42.010  28.438  31.481  1.00  0.00     0.049 A 
ATOM     53  C   UNL A   1      41.045  31.698  35.915  1.00  0.00     0.074 A 
ATOM     54  C   UNL A   1      43.092  27.579  31.556  1.00  0.00     0.029 A 
ATOM     55  N   UNL A   1      41.976  29.144  32.673  1.00  0.00    -0.354 N 
ATOM     56  N   UNL A   1      41.434  30.914  34.938  1.00  0.00    -0.248 NA
ATOM     57  C   UNL A   1      41.823  31.540  37.154  1.00  0.00     0.031 C 
ATOM     58  C   UNL A   1      43.695  27.745  32.807  1.00  0.00     0.029 A 
ATOM     59  C   UNL A   1      43.006  28.728  33.498  1.00  0.00     0.049 A 
ATOM     60  H   UNL A   1      41.317  29.840  32.898  1.00  0.00     0.167 HD
ATOM     61  C   UNL A   1      42.518  30.197  35.432  1.00  0.00     0.074 A 
ATOM     62  C   UNL A   1      42.742  30.656  36.786  1.00  0.00     0.031 C 
ATOM     63  C   UNL A   1      43.255  29.233  34.823  1.00  0.00     0.034 A 
BRANCH  50  64
ATOM     64  C   UNL A   1      41.198  27.680  29.218  1.00  0.00     0.023 A 
ATOM     65  C   UNL A   1      40.491  26.460  29.190  1.00  0.00     0.012 A 
ATOM     66  C   UNL A   1      41.961  28.063  28.098  1.00  0.00     0.148 A 
ATOM     67  C   UNL A   1      40.559  25.626  28.074  1.00  0.00     0.002 A 
ATOM     68  C   UNL A   1      41.991  27.247  26.974  1.00  0.00     0.091 A 
ATOM     69  F   UNL A   1      42.644  29.216  28.155  1.00  0.00    -0.205 F 
ATOM     70  C   UNL A   1      41.299  26.025  26.964  1.00  0.00     0.022 A 
BRANCH  68  71
ATOM     71  S   UNL A   1      42.850  27.708  25.465  1.00  0.00     0.127 S 
ATOM     72  O   UNL A   1      42.751  26.478  24.682  1.00  0.00    -0.237 OA
ATOM     73  O   UNL A   1      42.030  28.813  24.969  1.00  0.00    -0.237 OA
ATOM     74  O   UNL A   1      44.198  28.085  25.869  1.00  0.00    -0.744 OA
ENDBRANCH  68  71
ENDBRANCH  50  64
BRANCH  51  75
ATOM     75  C   UNL A   1      39.694  33.558  37.138  1.00  0.00     0.023 A 
ATOM     76  C   UNL A   1      40.216  34.863  37.229  1.00  0.00     0.012 A 
ATOM     77  C   UNL A   1      38.923  33.054  38.204  1.00  0.00     0.148 A 
ATOM     78  C   UNL A   1      40.006  35.636  38.371  1.00  0.00     0.002 A 
ATOM     79  C   UNL A   1      38.669  33.850  39.315  1.00  0.00     0.091 A 
ATOM     80  F   UNL A   1      38.451  31.803  38.111  1.00  0.00    -0.205 F 
ATOM     81  C   UNL A   1      39.225  35.135  39.408  1.00  0.00     0.022 A 
BRANCH  79  82
ATOM     82  S   UNL A   1      37.564  33.331  40.632  1.00  0.00     0.127 S 
ATOM     83  O   UNL A   1      37.447  34.552  41.424  1.00  0.00    -0.237 OA
ATOM     84  O   UNL A   1      36.358  32.960  39.889  1.00  0.00    -0.237 OA
ATOM     85  O   UNL A   1      38.230  32.210  41.281  1.00  0.00    -0.744 OA
ENDBRANCH  79  82
ENDBRANCH  51  75
BRANCH  63  86
ATOM     86  C   UNL A   1      44.398  28.629  35.596  1.00  0.00     0.023 A 
ATOM     87  C   UNL A   1      45.699  29.147  35.444  1.00  0.00     0.012 A 
ATOM     88  C   UNL A   1      44.170  27.600  36.533  1.00  0.00     0.148 A 
ATOM     89  C   UNL A   1      46.761  28.631  36.187  1.00  0.00     0.002 A 
ATOM     90  C   UNL A   1      45.223  27.125  37.305  1.00  0.00     0.091 A 
ATOM     91  F   UNL A   1      42.929  27.106  36.652  1.00  0.00    -0.205 F 
ATOM     92  C   UNL A   1      46.521  27.630  37.125  1.00  0.00     0.022 A 
BRANCH  90  93
ATOM     93  S   UNL A   1      44.989  25.905  38.604  1.00  0.00     0.127 S 
ATOM     94  O   UNL A   1      43.950  26.534  39.420  1.00  0.00    -0.237 OA
ATOM     95  O   UNL A   1      44.546  24.730  37.853  1.00  0.00    -0.237 OA
ATOM     96  O   UNL A   1      46.287  25.754  39.249  1.00  0.00    -0.744 OA
ENDBRANCH  90  93
ENDBRANCH  63  86
ENDBRANCH  37  38
ENDBRANCH  30  32
ENDBRANCH  29  30
ENDBRANCH  28  29
ENDBRANCH  27  28
ENDBRANCH  26  27
ENDBRANCH   1  26
TORSDOF 23
ENDMDL
MODEL 3
REMARK VINA RESULT:      -9.8      1.713      2.176
REMARK SMILES CC[NH+](CC)C[C@H](C)NC(=O)N[C@H]1C=C[C@@H](C(=O)OCCOCCOC(=O)c2ccc(-c3c4nc(c(-c5cccc(S(=O)(=O)[O-])c5F)c5ccc([nH]5)c(-c5cccc(S(=O)(=O)[O-])c5F)c5nc(c(-c6cccc(S(=O)(=O)[O-])c6F)c6ccc3[nH]6)C=C5)C=C4)cc2)C1
REMARK SMILES IDX 21 1 20 2 19 3 17 4 18 5 16 6 13 7 14 8 91 9 15 10 12 11
REMARK SMILES IDX 9 12 10 13 11 15 7 17 8 18 6 19 3 20 2 22 1 23 4 24 5 25
REMARK SMILES IDX 22 26 23 27 24 28 25 29 26 30 27 31 28 32 29 33 90 34 30 35
REMARK SMILES IDX 89 36 31 37 32 38 33 39 83 40 34 41 88 42 82 43 84 44 35 45
REMARK SMILES IDX 87 46 81 47 80 48 36 50 68 51 48 52 67 53 49 54 52 55 66 56
REMARK SMILES IDX 85 57 50 58 51 59 65 61 86 62 53 63 37 64 38 65 46 66 39 67
REMARK SMILES IDX 41 68 47 69 40 70 42 71 43 72 44 73 45 74 69 75 70 76 78 77
REMARK SMILES IDX 71 78 73 79 79 80 72 81 74 82 75 83 76 84 77 85 54 86 55 87
REMARK SMILES IDX 63 88 56 89 58 90 64 91 57 92 59 93 60 94 61 95 62 96
REMARK H PARENT 9 14 12 16 3 21 84 49 52 60
REMARK Flexibility Score: inf
ROOT
ATOM      1  C   UNL A   1      35.803  21.091  25.003  1.00  0.00     0.202 C 
ENDROOT
BRANCH   1   2
ATOM      2  C   UNL A   1      34.918  21.705  26.089  1.00  0.00     0.261 C 
BRANCH   2   3
ATOM      3  O   UNL A   1      33.600  21.950  25.572  1.00  0.00    -0.463 OA
BRANCH   3   4
ATOM      4  C   UNL A   1      32.810  22.774  26.304  1.00  0.00     0.312 C 
ATOM      5  O   UNL A   1      32.629  22.689  27.514  1.00  0.00    -0.252 OA
BRANCH   4   6
ATOM      6  C   UNL A   1      32.143  23.847  25.459  1.00  0.00     0.124 C 
ATOM      7  C   UNL A   1      31.842  24.871  23.305  1.00  0.00     0.107 C 
ATOM      8  C   UNL A   1      30.750  23.888  23.581  1.00  0.00    -0.006 C 
ATOM      9  C   UNL A   1      32.933  24.391  24.261  1.00  0.00     0.048 C 
ATOM     10  C   UNL A   1      30.895  23.346  24.798  1.00  0.00    -0.014 C 
BRANCH   7  11
ATOM     11  N   UNL A   1      32.259  24.832  21.934  1.00  0.00    -0.332 N 
ATOM     12  N   UNL A   1      32.981  27.017  21.366  1.00  0.00    -0.330 N 
ATOM     13  C   UNL A   1      32.742  25.735  21.078  1.00  0.00     0.315 C 
ATOM     14  H   UNL A   1      33.277  27.517  20.572  1.00  0.00     0.165 HD
ATOM     15  O   UNL A   1      32.979  25.371  19.924  1.00  0.00    -0.249 OA
ATOM     16  H   UNL A   1      32.168  23.938  21.532  1.00  0.00     0.165 HD
BRANCH  12  17
ATOM     17  C   UNL A   1      32.920  27.870  22.545  1.00  0.00     0.135 C 
ATOM     18  C   UNL A   1      34.314  28.428  22.843  1.00  0.00     0.037 C 
BRANCH  17  19
ATOM     19  C   UNL A   1      31.809  28.972  22.514  1.00  0.00     0.287 C 
BRANCH  19  20
ATOM     20  N   UNL A   1      31.137  29.522  23.699  1.00  0.00    -0.334 N 
ATOM     21  H   UNL A   1      31.514  30.466  23.622  1.00  0.00     0.348 HD
BRANCH  20  22
ATOM     22  C   UNL A   1      29.717  29.833  23.651  1.00  0.00     0.258 C 
ATOM     23  C   UNL A   1      28.985  29.009  22.600  1.00  0.00     0.071 C 
ENDBRANCH  20  22
BRANCH  20  24
ATOM     24  C   UNL A   1      31.601  29.011  24.992  1.00  0.00     0.258 C 
ATOM     25  C   UNL A   1      31.016  27.685  25.450  1.00  0.00     0.071 C 
ENDBRANCH  20  24
ENDBRANCH  19  20
ENDBRANCH  17  19
ENDBRANCH  12  17
ENDBRANCH   7  11
ENDBRANCH   4   6
ENDBRANCH   3   4
ENDBRANCH   2   3
ENDBRANCH   1   2
BRANCH   1  26
ATOM     26  O   UNL A   1      37.146  20.788  25.391  1.00  0.00    -0.374 OA
BRANCH  26  27
ATOM     27  C   UNL A   1      37.731  19.607  24.845  1.00  0.00     0.202 C 
BRANCH  27  28
ATOM     28  C   UNL A   1      39.086  19.176  25.421  1.00  0.00     0.261 C 
BRANCH  28  29
ATOM     29  O   UNL A   1      39.472  19.960  26.563  1.00  0.00    -0.460 OA
BRANCH  29  30
ATOM     30  C   UNL A   1      40.807  20.146  26.694  1.00  0.00     0.338 C 
ATOM     31  O   UNL A   1      41.694  19.370  26.359  1.00  0.00    -0.246 OA
BRANCH  30  32
ATOM     32  C   UNL A   1      41.094  21.524  27.130  1.00  0.00     0.060 A 
ATOM     33  C   UNL A   1      40.752  22.560  26.250  1.00  0.00     0.016 A 
ATOM     34  C   UNL A   1      41.756  21.800  28.328  1.00  0.00     0.016 A 
ATOM     35  C   UNL A   1      41.119  23.872  26.539  1.00  0.00     0.010 A 
ATOM     36  C   UNL A   1      42.131  23.119  28.611  1.00  0.00     0.010 A 
ATOM     37  C   UNL A   1      41.849  24.154  27.700  1.00  0.00    -0.014 A 
BRANCH  37  38
ATOM     38  C   UNL A   1      42.431  25.507  27.881  1.00  0.00     0.031 A 
ATOM     39  C   UNL A   1      41.592  26.589  28.504  1.00  0.00     0.074 A 
ATOM     40  C   UNL A   1      43.697  25.766  27.507  1.00  0.00     0.049 A 
ATOM     41  N   UNL A   1      41.902  27.833  28.759  1.00  0.00    -0.248 NA
ATOM     42  C   UNL A   1      40.219  26.222  28.891  1.00  0.00     0.031 C 
ATOM     43  C   UNL A   1      44.608  24.805  26.888  1.00  0.00     0.029 A 
ATOM     44  N   UNL A   1      44.425  26.928  27.571  1.00  0.00    -0.354 N 
ATOM     45  C   UNL A   1      40.758  28.407  29.302  1.00  0.00     0.074 A 
ATOM     46  C   UNL A   1      39.743  27.376  29.338  1.00  0.00     0.031 C 
ATOM     47  C   UNL A   1      45.765  25.426  26.598  1.00  0.00     0.029 A 
ATOM     48  C   UNL A   1      45.668  26.830  26.992  1.00  0.00     0.049 A 
ATOM     49  H   UNL A   1      44.090  27.753  27.991  1.00  0.00     0.167 HD
ATOM     50  C   UNL A   1      40.572  29.674  29.743  1.00  0.00     0.034 A 
ATOM     51  C   UNL A   1      46.611  27.771  26.785  1.00  0.00     0.034 A 
ATOM     52  C   UNL A   1      41.590  30.689  29.737  1.00  0.00     0.049 A 
ATOM     53  C   UNL A   1      46.376  29.174  27.283  1.00  0.00     0.074 A 
ATOM     54  C   UNL A   1      41.519  31.979  30.233  1.00  0.00     0.029 A 
ATOM     55  N   UNL A   1      42.856  30.538  29.193  1.00  0.00    -0.354 N 
ATOM     56  N   UNL A   1      45.346  29.658  27.934  1.00  0.00    -0.248 NA
ATOM     57  C   UNL A   1      47.451  30.152  27.053  1.00  0.00     0.031 C 
ATOM     58  C   UNL A   1      42.733  32.618  29.963  1.00  0.00     0.029 A 
ATOM     59  C   UNL A   1      43.570  31.717  29.324  1.00  0.00     0.049 A 
ATOM     60  H   UNL A   1      43.197  29.714  28.775  1.00  0.00     0.167 HD
ATOM     61  C   UNL A   1      45.661  30.982  28.219  1.00  0.00     0.074 A 
ATOM     62  C   UNL A   1      46.988  31.219  27.693  1.00  0.00     0.031 C 
ATOM     63  C   UNL A   1      44.913  31.923  28.848  1.00  0.00     0.034 A 
BRANCH  50  64
ATOM     64  C   UNL A   1      39.220  30.035  30.296  1.00  0.00     0.023 A 
ATOM     65  C   UNL A   1      38.983  29.936  31.682  1.00  0.00     0.012 A 
ATOM     66  C   UNL A   1      38.211  30.543  29.455  1.00  0.00     0.148 A 
ATOM     67  C   UNL A   1      37.753  30.317  32.219  1.00  0.00     0.002 A 
ATOM     68  C   UNL A   1      37.004  30.959  30.003  1.00  0.00     0.091 A 
ATOM     69  F   UNL A   1      38.450  30.607  28.137  1.00  0.00    -0.205 F 
ATOM     70  C   UNL A   1      36.770  30.837  31.383  1.00  0.00     0.022 A 
BRANCH  68  71
ATOM     71  S   UNL A   1      35.704  31.716  29.021  1.00  0.00     0.127 S 
ATOM     72  O   UNL A   1      36.390  32.887  28.476  1.00  0.00    -0.237 OA
ATOM     73  O   UNL A   1      35.411  30.671  28.039  1.00  0.00    -0.237 OA
ATOM     74  O   UNL A   1      34.616  32.002  29.946  1.00  0.00    -0.744 OA
ENDBRANCH  68  71
ENDBRANCH  50  64
BRANCH  51  75
ATOM     75  C   UNL A   1      47.881  27.414  26.091  1.00  0.00     0.023 A 
ATOM     76  C   UNL A   1      47.964  27.516  24.689  1.00  0.00     0.012 A 
ATOM     77  C   UNL A   1      49.009  26.981  26.815  1.00  0.00     0.148 A 
ATOM     78  C   UNL A   1      49.135  27.160  24.018  1.00  0.00     0.002 A 
ATOM     79  C   UNL A   1      50.190  26.683  26.146  1.00  0.00     0.091 A 
ATOM     80  F   UNL A   1      48.906  26.869  28.146  1.00  0.00    -0.205 F 
ATOM     81  C   UNL A   1      50.250  26.754  24.746  1.00  0.00     0.022 A 
BRANCH  79  82
ATOM     82  S   UNL A   1      51.709  26.283  27.017  1.00  0.00     0.127 S 
ATOM     83  O   UNL A   1      52.607  27.338  26.557  1.00  0.00    -0.237 OA
ATOM     84  O   UNL A   1      51.295  26.393  28.417  1.00  0.00    -0.237 OA
ATOM     85  O   UNL A   1      52.051  24.928  26.602  1.00  0.00    -0.744 OA
ENDBRANCH  79  82
ENDBRANCH  51  75
BRANCH  63  86
ATOM     86  C   UNL A   1      45.517  33.290  29.039  1.00  0.00     0.023 A 
ATOM     87  C   UNL A   1      46.317  33.552  30.169  1.00  0.00     0.012 A 
ATOM     88  C   UNL A   1      45.359  34.292  28.060  1.00  0.00     0.148 A 
ATOM     89  C   UNL A   1      46.923  34.796  30.338  1.00  0.00     0.002 A 
ATOM     90  C   UNL A   1      46.005  35.512  28.210  1.00  0.00     0.091 A 
ATOM     91  F   UNL A   1      44.579  34.032  26.999  1.00  0.00    -0.205 F 
ATOM     92  C   UNL A   1      46.777  35.771  29.354  1.00  0.00     0.022 A 
BRANCH  90  93
ATOM     93  S   UNL A   1      45.953  36.790  26.947  1.00  0.00     0.127 S 
ATOM     94  O   UNL A   1      46.435  36.067  25.771  1.00  0.00    -0.237 OA
ATOM     95  O   UNL A   1      44.531  37.135  26.910  1.00  0.00    -0.237 OA
ATOM     96  O   UNL A   1      46.820  37.859  27.425  1.00  0.00    -0.744 OA
ENDBRANCH  90  93
ENDBRANCH  63  86
ENDBRANCH  37  38
ENDBRANCH  30  32
ENDBRANCH  29  30
ENDBRANCH  28  29
ENDBRANCH  27  28
ENDBRANCH  26  27
ENDBRANCH   1  26
TORSDOF 23
ENDMDL
