MODEL 1
REMARK VINA RESULT:      -9.5      0.000      0.000
REMARK SMILES CCC(C)(C)c1cccc(C(=O)OCCOCCOC(=O)c2ccc(-c3c4nc(c(-c5cccc(S(=O)(=O)[O-])c5F)c5ccc([nH]5)c(-c5cccc(S(=O)(=O)[O-])c5F)c5nc(c(-c6cccc(S(=O)(=O)[O-])c6F)c6ccc3[nH]6)C=C5)C=C4)cc2)c1
REMARK SMILES IDX 17 1 16 2 15 3 14 4 13 5 11 6 12 7 10 8 6 9 7 10 85 11 8 12
REMARK SMILES IDX 9 13 3 14 4 15 5 16 2 17 1 18 18 19 19 20 20 21 21 22 22 23
REMARK SMILES IDX 23 24 84 25 24 26 83 27 25 28 26 29 27 30 77 31 28 32 82 33
REMARK SMILES IDX 76 34 78 35 29 36 81 37 75 38 74 39 30 41 62 42 42 43 61 44
REMARK SMILES IDX 43 45 46 46 60 47 79 48 44 49 45 50 59 52 80 53 47 54 31 55
REMARK SMILES IDX 32 56 40 57 33 58 35 59 41 60 34 61 36 62 37 63 38 64 39 65
REMARK SMILES IDX 63 66 64 67 72 68 65 69 67 70 73 71 66 72 68 73 69 74 70 75
REMARK SMILES IDX 71 76 48 77 49 78 57 79 50 80 52 81 58 82 51 83 53 84 54 85
REMARK SMILES IDX 55 86 56 87
REMARK H PARENT 78 40 46 51
REMARK Flexibility Score: inf
ROOT
ATOM      1  C   UNL A   1      41.109  19.513  26.367  1.00  0.00     0.202 C 
ENDROOT
BRANCH   1   2
ATOM      2  O   UNL A   1      42.014  19.319  25.279  1.00  0.00    -0.374 OA
BRANCH   2   3
ATOM      3  C   UNL A   1      43.334  18.880  25.608  1.00  0.00     0.202 C 
BRANCH   3   4
ATOM      4  C   UNL A   1      44.396  19.041  24.515  1.00  0.00     0.261 C 
BRANCH   4   5
ATOM      5  O   UNL A   1      44.529  20.416  24.120  1.00  0.00    -0.460 OA
BRANCH   5   6
ATOM      6  C   UNL A   1      45.581  21.076  24.658  1.00  0.00     0.338 C 
ATOM      7  O   UNL A   1      46.706  20.632  24.843  1.00  0.00    -0.246 OA
BRANCH   6   8
ATOM      8  C   UNL A   1      45.252  22.513  24.824  1.00  0.00     0.060 A 
ATOM      9  C   UNL A   1      45.869  24.867  25.117  1.00  0.00    -0.042 A 
ATOM     10  C   UNL A   1      44.493  25.163  25.185  1.00  0.00     0.004 A 
ATOM     11  C   UNL A   1      46.230  23.510  24.967  1.00  0.00     0.020 A 
ATOM     12  C   UNL A   1      43.519  24.169  25.071  1.00  0.00     0.001 A 
ATOM     13  C   UNL A   1      43.897  22.848  24.877  1.00  0.00     0.016 A 
BRANCH   9  14
ATOM     14  C   UNL A   1      46.933  25.983  25.219  1.00  0.00    -0.011 C 
ATOM     15  C   UNL A   1      47.401  26.223  26.678  1.00  0.00     0.016 C 
ATOM     16  C   UNL A   1      46.349  27.344  24.753  1.00  0.00     0.016 C 
BRANCH  14  17
ATOM     17  C   UNL A   1      48.153  25.662  24.308  1.00  0.00     0.008 C 
ATOM     18  C   UNL A   1      49.519  26.098  24.831  1.00  0.00     0.005 C 
ENDBRANCH  14  17
ENDBRANCH   9  14
ENDBRANCH   6   8
ENDBRANCH   5   6
ENDBRANCH   4   5
ENDBRANCH   3   4
ENDBRANCH   2   3
ENDBRANCH   1   2
BRANCH   1  19
ATOM     19  C   UNL A   1      40.033  20.591  26.186  1.00  0.00     0.261 C 
BRANCH  19  20
ATOM     20  O   UNL A   1      40.516  21.904  26.513  1.00  0.00    -0.460 OA
BRANCH  20  21
ATOM     21  C   UNL A   1      39.576  22.878  26.493  1.00  0.00     0.338 C 
ATOM     22  O   UNL A   1      38.368  22.734  26.355  1.00  0.00    -0.246 OA
BRANCH  21  23
ATOM     23  C   UNL A   1      40.183  24.172  26.850  1.00  0.00     0.060 A 
ATOM     24  C   UNL A   1      40.638  24.333  28.165  1.00  0.00     0.016 A 
ATOM     25  C   UNL A   1      40.253  25.229  25.941  1.00  0.00     0.016 A 
ATOM     26  C   UNL A   1      41.115  25.570  28.593  1.00  0.00     0.010 A 
ATOM     27  C   UNL A   1      40.727  26.472  26.373  1.00  0.00     0.010 A 
ATOM     28  C   UNL A   1      41.125  26.658  27.710  1.00  0.00    -0.014 A 
BRANCH  28  29
ATOM     29  C   UNL A   1      41.426  28.017  28.221  1.00  0.00     0.031 A 
ATOM     30  C   UNL A   1      42.857  28.478  28.279  1.00  0.00     0.074 A 
ATOM     31  C   UNL A   1      40.436  28.829  28.632  1.00  0.00     0.049 A 
ATOM     32  N   UNL A   1      43.344  29.608  28.717  1.00  0.00    -0.248 NA
ATOM     33  C   UNL A   1      43.873  27.536  27.780  1.00  0.00     0.031 C 
ATOM     34  C   UNL A   1      39.013  28.496  28.624  1.00  0.00     0.029 A 
ATOM     35  N   UNL A   1      40.484  30.095  29.159  1.00  0.00    -0.354 N 
ATOM     36  C   UNL A   1      44.724  29.506  28.577  1.00  0.00     0.074 A 
ATOM     37  C   UNL A   1      44.996  28.196  28.025  1.00  0.00     0.031 C 
ATOM     38  C   UNL A   1      38.323  29.520  29.153  1.00  0.00     0.029 A 
ATOM     39  C   UNL A   1      39.257  30.569  29.558  1.00  0.00     0.049 A 
ATOM     40  H   UNL A   1      41.317  30.614  29.244  1.00  0.00     0.167 HD
ATOM     41  C   UNL A   1      45.677  30.424  28.865  1.00  0.00     0.034 A 
ATOM     42  C   UNL A   1      38.929  31.709  30.198  1.00  0.00     0.034 A 
ATOM     43  C   UNL A   1      45.401  31.732  29.396  1.00  0.00     0.049 A 
ATOM     44  C   UNL A   1      40.008  32.706  30.528  1.00  0.00     0.074 A 
ATOM     45  C   UNL A   1      46.293  32.752  29.674  1.00  0.00     0.029 A 
ATOM     46  N   UNL A   1      44.142  32.196  29.745  1.00  0.00    -0.354 N 
ATOM     47  N   UNL A   1      41.294  32.644  30.279  1.00  0.00    -0.248 NA
ATOM     48  C   UNL A   1      39.587  33.947  31.196  1.00  0.00     0.031 C 
ATOM     49  C   UNL A   1      45.576  33.823  30.220  1.00  0.00     0.029 A 
ATOM     50  C   UNL A   1      44.233  33.482  30.250  1.00  0.00     0.049 A 
ATOM     51  H   UNL A   1      43.306  31.685  29.647  1.00  0.00     0.167 HD
ATOM     52  C   UNL A   1      41.829  33.849  30.724  1.00  0.00     0.074 A 
ATOM     53  C   UNL A   1      40.724  34.628  31.244  1.00  0.00     0.031 C 
ATOM     54  C   UNL A   1      43.119  34.267  30.716  1.00  0.00     0.034 A 
BRANCH  41  55
ATOM     55  C   UNL A   1      47.110  30.051  28.591  1.00  0.00     0.023 A 
ATOM     56  C   UNL A   1      47.670  30.307  27.323  1.00  0.00     0.012 A 
ATOM     57  C   UNL A   1      47.917  29.492  29.601  1.00  0.00     0.148 A 
ATOM     58  C   UNL A   1      48.999  29.979  27.053  1.00  0.00     0.002 A 
ATOM     59  C   UNL A   1      49.252  29.209  29.339  1.00  0.00     0.091 A 
ATOM     60  F   UNL A   1      47.361  29.234  30.795  1.00  0.00    -0.205 F 
ATOM     61  C   UNL A   1      49.791  29.441  28.062  1.00  0.00     0.022 A 
BRANCH  59  62
ATOM     62  S   UNL A   1      50.375  28.587  30.596  1.00  0.00     0.127 S 
ATOM     63  O   UNL A   1      50.307  29.646  31.602  1.00  0.00    -0.237 OA
ATOM     64  O   UNL A   1      49.735  27.332  30.988  1.00  0.00    -0.237 OA
ATOM     65  O   UNL A   1      51.666  28.431  29.939  1.00  0.00    -0.744 OA
ENDBRANCH  59  62
ENDBRANCH  41  55
BRANCH  42  66
ATOM     66  C   UNL A   1      37.505  31.980  30.543  1.00  0.00     0.023 A 
ATOM     67  C   UNL A   1      37.006  31.594  31.802  1.00  0.00     0.012 A 
ATOM     68  C   UNL A   1      36.650  32.639  29.638  1.00  0.00     0.148 A 
ATOM     69  C   UNL A   1      35.675  31.835  32.143  1.00  0.00     0.002 A 
ATOM     70  C   UNL A   1      35.342  32.927  30.006  1.00  0.00     0.091 A 
ATOM     71  F   UNL A   1      37.140  32.983  28.439  1.00  0.00    -0.205 F 
ATOM     72  C   UNL A   1      34.847  32.512  31.252  1.00  0.00     0.022 A 
BRANCH  70  73
ATOM     73  S   UNL A   1      34.244  33.906  28.975  1.00  0.00     0.127 S 
ATOM     74  O   UNL A   1      33.723  32.899  28.052  1.00  0.00    -0.237 OA
ATOM     75  O   UNL A   1      33.277  34.403  29.954  1.00  0.00    -0.237 OA
ATOM     76  O   UNL A   1      35.079  34.939  28.378  1.00  0.00    -0.744 OA
ENDBRANCH  70  73
ENDBRANCH  42  66
BRANCH  54  77
ATOM     77  C   UNL A   1      43.414  35.648  31.244  1.00  0.00     0.023 A 
ATOM     78  C   UNL A   1      43.654  35.840  32.619  1.00  0.00     0.012 A 
ATOM     79  C   UNL A   1      43.528  36.744  30.365  1.00  0.00     0.148 A 
ATOM     80  C   UNL A   1      43.971  37.104  33.115  1.00  0.00     0.002 A 
ATOM     81  C   UNL A   1      43.894  37.990  30.858  1.00  0.00     0.091 A 
ATOM     82  F   UNL A   1      43.279  36.546  29.062  1.00  0.00    -0.205 F 
ATOM     83  C   UNL A   1      44.103  38.175  32.234  1.00  0.00     0.022 A 
BRANCH  81  84
ATOM     84  S   UNL A   1      44.182  39.404  29.787  1.00  0.00     0.127 S 
ATOM     85  O   UNL A   1      44.543  40.441  30.752  1.00  0.00    -0.237 OA
ATOM     86  O   UNL A   1      45.289  38.938  28.950  1.00  0.00    -0.237 OA
ATOM     87  O   UNL A   1      42.934  39.625  29.070  1.00  0.00    -0.744 OA
ENDBRANCH  81  84
ENDBRANCH  54  77
ENDBRANCH  28  29
ENDBRANCH  21  23
ENDBRANCH  20  21
ENDBRANCH  19  20
ENDBRANCH   1  19
TORSDOF 19
ENDMDL
MODEL 2
REMARK VINA RESULT:      -9.4      2.143      3.162
REMARK SMILES CCC(C)(C)c1cccc(C(=O)OCCOCCOC(=O)c2ccc(-c3c4nc(c(-c5cccc(S(=O)(=O)[O-])c5F)c5ccc([nH]5)c(-c5cccc(S(=O)(=O)[O-])c5F)c5nc(c(-c6cccc(S(=O)(=O)[O-])c6F)c6ccc3[nH]6)C=C5)C=C4)cc2)c1
REMARK SMILES IDX 17 1 16 2 15 3 14 4 13 5 11 6 12 7 10 8 6 9 7 10 85 11 8 12
REMARK SMILES IDX 9 13 3 14 4 15 5 16 2 17 1 18 18 19 19 20 20 21 21 22 22 23
REMARK SMILES IDX 23 24 84 25 24 26 83 27 25 28 26 29 27 30 77 31 28 32 82 33
REMARK SMILES IDX 76 34 78 35 29 36 81 37 75 38 74 39 30 41 62 42 42 43 61 44
REMARK SMILES IDX 43 45 46 46 60 47 79 48 44 49 45 50 59 52 80 53 47 54 31 55
REMARK SMILES IDX 32 56 40 57 33 58 35 59 41 60 34 61 36 62 37 63 38 64 39 65
REMARK SMILES IDX 63 66 64 67 72 68 65 69 67 70 73 71 66 72 68 73 69 74 70 75
REMARK SMILES IDX 71 76 48 77 49 78 57 79 50 80 52 81 58 82 51 83 53 84 54 85
REMARK SMILES IDX 55 86 56 87
REMARK H PARENT 78 40 46 51
REMARK Flexibility Score: inf
ROOT
ATOM      1  C   UNL A   1      42.107  19.283  26.153  1.00  0.00     0.202 C 
ENDROOT
BRANCH   1   2
ATOM      2  O   UNL A   1      42.865  19.812  25.065  1.00  0.00    -0.374 OA
BRANCH   2   3
ATOM      3  C   UNL A   1      44.171  19.266  24.863  1.00  0.00     0.202 C 
BRANCH   3   4
ATOM      4  C   UNL A   1      45.349  20.146  25.294  1.00  0.00     0.261 C 
BRANCH   4   5
ATOM      5  O   UNL A   1      44.894  21.400  25.826  1.00  0.00    -0.460 OA
BRANCH   5   6
ATOM      6  C   UNL A   1      45.590  22.489  25.424  1.00  0.00     0.338 C 
ATOM      7  O   UNL A   1      45.804  22.836  24.271  1.00  0.00    -0.246 OA
BRANCH   6   8
ATOM      8  C   UNL A   1      45.909  23.350  26.590  1.00  0.00     0.060 A 
ATOM      9  C   UNL A   1      45.446  24.250  28.822  1.00  0.00    -0.042 A 
ATOM     10  C   UNL A   1      46.597  25.050  28.680  1.00  0.00     0.004 A 
ATOM     11  C   UNL A   1      45.098  23.420  27.734  1.00  0.00     0.020 A 
ATOM     12  C   UNL A   1      47.389  25.003  27.531  1.00  0.00     0.001 A 
ATOM     13  C   UNL A   1      47.054  24.144  26.493  1.00  0.00     0.016 A 
BRANCH   9  14
ATOM     14  C   UNL A   1      44.595  24.296  30.111  1.00  0.00    -0.011 C 
ATOM     15  C   UNL A   1      43.677  23.055  30.260  1.00  0.00     0.016 C 
ATOM     16  C   UNL A   1      43.631  25.513  30.091  1.00  0.00     0.016 C 
BRANCH  14  17
ATOM     17  C   UNL A   1      45.506  24.445  31.364  1.00  0.00     0.008 C 
ATOM     18  C   UNL A   1      44.803  24.801  32.671  1.00  0.00     0.005 C 
ENDBRANCH  14  17
ENDBRANCH   9  14
ENDBRANCH   6   8
ENDBRANCH   5   6
ENDBRANCH   4   5
ENDBRANCH   3   4
ENDBRANCH   2   3
ENDBRANCH   1   2
BRANCH   1  19
ATOM     19  C   UNL A   1      40.580  19.389  26.048  1.00  0.00     0.261 C 
BRANCH  19  20
ATOM     20  O   UNL A   1      40.048  20.439  26.873  1.00  0.00    -0.460 OA
BRANCH  20  21
ATOM     21  C   UNL A   1      39.407  21.422  26.200  1.00  0.00     0.338 C 
ATOM     22  O   UNL A   1      38.540  21.287  25.346  1.00  0.00    -0.246 OA
BRANCH  21  23
ATOM     23  C   UNL A   1      39.763  22.735  26.767  1.00  0.00     0.060 A 
ATOM     24  C   UNL A   1      39.100  23.860  26.259  1.00  0.00     0.016 A 
ATOM     25  C   UNL A   1      40.766  22.876  27.728  1.00  0.00     0.016 A 
ATOM     26  C   UNL A   1      39.474  25.137  26.672  1.00  0.00     0.010 A 
ATOM     27  C   UNL A   1      41.144  24.158  28.138  1.00  0.00     0.010 A 
ATOM     28  C   UNL A   1      40.526  25.295  27.584  1.00  0.00    -0.014 A 
BRANCH  28  29
ATOM     29  C   UNL A   1      41.065  26.650  27.856  1.00  0.00     0.031 A 
ATOM     30  C   UNL A   1      42.408  27.031  27.296  1.00  0.00     0.074 A 
ATOM     31  C   UNL A   1      40.367  27.529  28.597  1.00  0.00     0.049 A 
ATOM     32  N   UNL A   1      43.077  28.144  27.436  1.00  0.00    -0.248 NA
ATOM     33  C   UNL A   1      43.087  26.019  26.470  1.00  0.00     0.031 C 
ATOM     34  C   UNL A   1      39.056  27.276  29.194  1.00  0.00     0.029 A 
ATOM     35  N   UNL A   1      40.679  28.805  28.993  1.00  0.00    -0.354 N 
ATOM     36  C   UNL A   1      44.269  27.959  26.744  1.00  0.00     0.074 A 
ATOM     37  C   UNL A   1      44.236  26.621  26.196  1.00  0.00     0.031 C 
ATOM     38  C   UNL A   1      38.689  28.353  29.908  1.00  0.00     0.029 A 
ATOM     39  C   UNL A   1      39.747  29.359  29.838  1.00  0.00     0.049 A 
ATOM     40  H   UNL A   1      41.492  29.278  28.701  1.00  0.00     0.167 HD
ATOM     41  C   UNL A   1      45.291  28.830  26.567  1.00  0.00     0.034 A 
ATOM     42  C   UNL A   1      39.759  30.534  30.499  1.00  0.00     0.034 A 
ATOM     43  C   UNL A   1      45.311  30.167  27.098  1.00  0.00     0.049 A 
ATOM     44  C   UNL A   1      40.916  31.478  30.303  1.00  0.00     0.074 A 
ATOM     45  C   UNL A   1      46.278  31.143  26.931  1.00  0.00     0.029 A 
ATOM     46  N   UNL A   1      44.330  30.712  27.911  1.00  0.00    -0.354 N 
ATOM     47  N   UNL A   1      41.980  31.336  29.549  1.00  0.00    -0.248 NA
ATOM     48  C   UNL A   1      40.859  32.760  31.022  1.00  0.00     0.031 C 
ATOM     49  C   UNL A   1      45.895  32.268  27.669  1.00  0.00     0.029 A 
ATOM     50  C   UNL A   1      44.672  32.005  28.268  1.00  0.00     0.049 A 
ATOM     51  H   UNL A   1      43.509  30.247  28.193  1.00  0.00     0.167 HD
ATOM     52  C   UNL A   1      42.698  32.522  29.673  1.00  0.00     0.074 A 
ATOM     53  C   UNL A   1      41.939  33.377  30.562  1.00  0.00     0.031 C 
ATOM     54  C   UNL A   1      43.884  32.866  29.112  1.00  0.00     0.034 A 
BRANCH  41  55
ATOM     55  C   UNL A   1      46.466  28.369  25.745  1.00  0.00     0.023 A 
ATOM     56  C   UNL A   1      46.330  28.221  24.350  1.00  0.00     0.012 A 
ATOM     57  C   UNL A   1      47.717  28.128  26.345  1.00  0.00     0.148 A 
ATOM     58  C   UNL A   1      47.409  27.805  23.570  1.00  0.00     0.002 A 
ATOM     59  C   UNL A   1      48.800  27.758  25.556  1.00  0.00     0.091 A 
ATOM     60  F   UNL A   1      47.822  28.252  27.677  1.00  0.00    -0.205 F 
ATOM     61  C   UNL A   1      48.645  27.584  24.171  1.00  0.00     0.022 A 
BRANCH  59  62
ATOM     62  S   UNL A   1      50.451  27.528  26.225  1.00  0.00     0.127 S 
ATOM     63  O   UNL A   1      50.455  26.094  26.513  1.00  0.00    -0.237 OA
ATOM     64  O   UNL A   1      51.298  27.927  25.102  1.00  0.00    -0.237 OA
ATOM     65  O   UNL A   1      50.537  28.399  27.390  1.00  0.00    -0.744 OA
ENDBRANCH  59  62
ENDBRANCH  41  55
BRANCH  42  66
ATOM     66  C   UNL A   1      38.617  30.896  31.386  1.00  0.00     0.023 A 
ATOM     67  C   UNL A   1      38.699  30.637  32.768  1.00  0.00     0.012 A 
ATOM     68  C   UNL A   1      37.463  31.516  30.871  1.00  0.00     0.148 A 
ATOM     69  C   UNL A   1      37.641  30.964  33.615  1.00  0.00     0.002 A 
ATOM     70  C   UNL A   1      36.436  31.891  31.728  1.00  0.00     0.091 A 
ATOM     71  F   UNL A   1      37.399  31.739  29.550  1.00  0.00    -0.205 F 
ATOM     72  C   UNL A   1      36.515  31.601  33.099  1.00  0.00     0.022 A 
BRANCH  70  73
ATOM     73  S   UNL A   1      35.010  32.830  31.172  1.00  0.00     0.127 S 
ATOM     74  O   UNL A   1      34.630  32.107  29.960  1.00  0.00    -0.237 OA
ATOM     75  O   UNL A   1      34.090  32.674  32.299  1.00  0.00    -0.237 OA
ATOM     76  O   UNL A   1      35.487  34.192  30.970  1.00  0.00    -0.744 OA
ENDBRANCH  70  73
ENDBRANCH  42  66
BRANCH  54  77
ATOM     77  C   UNL A   1      44.425  34.242  29.401  1.00  0.00     0.023 A 
ATOM     78  C   UNL A   1      45.497  34.403  30.300  1.00  0.00     0.012 A 
ATOM     79  C   UNL A   1      43.919  35.370  28.722  1.00  0.00     0.148 A 
ATOM     80  C   UNL A   1      46.036  35.666  30.544  1.00  0.00     0.002 A 
ATOM     81  C   UNL A   1      44.494  36.617  28.931  1.00  0.00     0.091 A 
ATOM     82  F   UNL A   1      42.886  35.200  27.884  1.00  0.00    -0.205 F 
ATOM     83  C   UNL A   1      45.544  36.770  29.851  1.00  0.00     0.022 A 
BRANCH  81  84
ATOM     84  S   UNL A   1      43.989  38.077  28.013  1.00  0.00     0.127 S 
ATOM     85  O   UNL A   1      45.152  38.948  28.174  1.00  0.00    -0.237 OA
ATOM     86  O   UNL A   1      43.809  37.545  26.661  1.00  0.00    -0.237 OA
ATOM     87  O   UNL A   1      42.764  38.546  28.646  1.00  0.00    -0.744 OA
ENDBRANCH  81  84
ENDBRANCH  54  77
ENDBRANCH  28  29
ENDBRANCH  21  23
ENDBRANCH  20  21
ENDBRANCH  19  20
ENDBRANCH   1  19
TORSDOF 19
ENDMDL
MODEL 3
REMARK VINA RESULT:      -9.4      2.360      8.384
REMARK SMILES CCC(C)(C)c1cccc(C(=O)OCCOCCOC(=O)c2ccc(-c3c4nc(c(-c5cccc(S(=O)(=O)[O-])c5F)c5ccc([nH]5)c(-c5cccc(S(=O)(=O)[O-])c5F)c5nc(c(-c6cccc(S(=O)(=O)[O-])c6F)c6ccc3[nH]6)C=C5)C=C4)cc2)c1
REMARK SMILES IDX 17 1 16 2 15 3 14 4 13 5 11 6 12 7 10 8 6 9 7 10 85 11 8 12
REMARK SMILES IDX 9 13 3 14 4 15 5 16 2 17 1 18 18 19 19 20 20 21 21 22 22 23
REMARK SMILES IDX 23 24 84 25 24 26 83 27 25 28 26 29 27 30 77 31 28 32 82 33
REMARK SMILES IDX 76 34 78 35 29 36 81 37 75 38 74 39 30 41 62 42 42 43 61 44
REMARK SMILES IDX 43 45 46 46 60 47 79 48 44 49 45 50 59 52 80 53 47 54 31 55
REMARK SMILES IDX 32 56 40 57 33 58 35 59 41 60 34 61 36 62 37 63 38 64 39 65
REMARK SMILES IDX 63 66 64 67 72 68 65 69 67 70 73 71 66 72 68 73 69 74 70 75
REMARK SMILES IDX 71 76 48 77 49 78 57 79 50 80 52 81 58 82 51 83 53 84 54 85
REMARK SMILES IDX 55 86 56 87
REMARK H PARENT 78 40 46 51
REMARK Flexibility Score: inf
ROOT
ATOM      1  C   UNL A   1      41.939  19.307  26.127  1.00  0.00     0.202 C 
ENDROOT
BRANCH   1   2
ATOM      2  O   UNL A   1      42.887  19.442  25.068  1.00  0.00    -0.374 OA
BRANCH   2   3
ATOM      3  C   UNL A   1      44.080  20.174  25.360  1.00  0.00     0.202 C 
BRANCH   3   4
ATOM      4  C   UNL A   1      43.936  21.696  25.464  1.00  0.00     0.261 C 
BRANCH   4   5
ATOM      5  O   UNL A   1      43.918  22.123  26.836  1.00  0.00    -0.460 OA
BRANCH   5   6
ATOM      6  C   UNL A   1      45.032  22.765  27.259  1.00  0.00     0.338 C 
ATOM      7  O   UNL A   1      46.055  22.956  26.615  1.00  0.00    -0.246 OA
BRANCH   6   8
ATOM      8  C   UNL A   1      44.786  23.402  28.576  1.00  0.00     0.060 A 
ATOM      9  C   UNL A   1      45.008  25.244  30.178  1.00  0.00    -0.042 A 
ATOM     10  C   UNL A   1      44.296  24.454  31.103  1.00  0.00     0.004 A 
ATOM     11  C   UNL A   1      45.274  24.675  28.913  1.00  0.00     0.020 A 
ATOM     12  C   UNL A   1      43.834  23.177  30.778  1.00  0.00     0.001 A 
ATOM     13  C   UNL A   1      44.066  22.656  29.513  1.00  0.00     0.016 A 
BRANCH   9  14
ATOM     14  C   UNL A   1      45.490  26.665  30.545  1.00  0.00    -0.011 C 
ATOM     15  C   UNL A   1      46.565  27.199  29.563  1.00  0.00     0.016 C 
ATOM     16  C   UNL A   1      46.176  26.671  31.938  1.00  0.00     0.016 C 
BRANCH  14  17
ATOM     17  C   UNL A   1      44.288  27.650  30.614  1.00  0.00     0.008 C 
ATOM     18  C   UNL A   1      44.612  29.082  31.031  1.00  0.00     0.005 C 
ENDBRANCH  14  17
ENDBRANCH   9  14
ENDBRANCH   6   8
ENDBRANCH   5   6
ENDBRANCH   4   5
ENDBRANCH   3   4
ENDBRANCH   2   3
ENDBRANCH   1   2
BRANCH   1  19
ATOM     19  C   UNL A   1      40.462  19.500  25.760  1.00  0.00     0.261 C 
BRANCH  19  20
ATOM     20  O   UNL A   1      39.769  20.329  26.709  1.00  0.00    -0.460 OA
BRANCH  20  21
ATOM     21  C   UNL A   1      39.091  21.368  26.167  1.00  0.00     0.338 C 
ATOM     22  O   UNL A   1      38.093  21.309  25.460  1.00  0.00    -0.246 OA
BRANCH  21  23
ATOM     23  C   UNL A   1      39.613  22.641  26.696  1.00  0.00     0.060 A 
ATOM     24  C   UNL A   1      39.117  23.825  26.137  1.00  0.00     0.016 A 
ATOM     25  C   UNL A   1      40.609  22.679  27.674  1.00  0.00     0.016 A 
ATOM     26  C   UNL A   1      39.655  25.054  26.514  1.00  0.00     0.010 A 
ATOM     27  C   UNL A   1      41.151  23.913  28.048  1.00  0.00     0.010 A 
ATOM     28  C   UNL A   1      40.703  25.102  27.443  1.00  0.00    -0.014 A 
BRANCH  28  29
ATOM     29  C   UNL A   1      41.417  26.380  27.680  1.00  0.00     0.031 A 
ATOM     30  C   UNL A   1      40.767  27.436  28.532  1.00  0.00     0.074 A 
ATOM     31  C   UNL A   1      42.629  26.598  27.141  1.00  0.00     0.049 A 
ATOM     32  N   UNL A   1      41.197  28.629  28.841  1.00  0.00    -0.248 NA
ATOM     33  C   UNL A   1      39.454  27.100  29.108  1.00  0.00     0.031 C 
ATOM     34  C   UNL A   1      43.361  25.653  26.299  1.00  0.00     0.029 A 
ATOM     35  N   UNL A   1      43.446  27.698  27.203  1.00  0.00    -0.354 N 
ATOM     36  C   UNL A   1      40.198  29.202  29.621  1.00  0.00     0.074 A 
ATOM     37  C   UNL A   1      39.134  28.227  29.727  1.00  0.00     0.031 C 
ATOM     38  C   UNL A   1      44.507  26.226  25.896  1.00  0.00     0.029 A 
ATOM     39  C   UNL A   1      44.578  27.585  26.431  1.00  0.00     0.049 A 
ATOM     40  H   UNL A   1      43.242  28.494  27.747  1.00  0.00     0.167 HD
ATOM     41  C   UNL A   1      40.176  30.421  30.210  1.00  0.00     0.034 A 
ATOM     42  C   UNL A   1      45.548  28.484  26.167  1.00  0.00     0.034 A 
ATOM     43  C   UNL A   1      41.244  31.380  30.119  1.00  0.00     0.049 A 
ATOM     44  C   UNL A   1      45.491  29.841  26.817  1.00  0.00     0.074 A 
ATOM     45  C   UNL A   1      41.337  32.623  30.721  1.00  0.00     0.029 A 
ATOM     46  N   UNL A   1      42.396  31.213  29.365  1.00  0.00    -0.354 N 
ATOM     47  N   UNL A   1      44.598  30.322  27.648  1.00  0.00    -0.248 NA
ATOM     48  C   UNL A   1      46.593  30.768  26.519  1.00  0.00     0.031 C 
ATOM     49  C   UNL A   1      42.533  33.219  30.308  1.00  0.00     0.029 A 
ATOM     50  C   UNL A   1      43.201  32.335  29.475  1.00  0.00     0.049 A 
ATOM     51  H   UNL A   1      42.609  30.414  28.832  1.00  0.00     0.167 HD
ATOM     52  C   UNL A   1      45.049  31.590  28.002  1.00  0.00     0.074 A 
ATOM     53  C   UNL A   1      46.303  31.795  27.306  1.00  0.00     0.031 C 
ATOM     54  C   UNL A   1      44.472  32.506  28.818  1.00  0.00     0.034 A 
BRANCH  41  55
ATOM     55  C   UNL A   1      38.962  30.779  31.027  1.00  0.00     0.023 A 
ATOM     56  C   UNL A   1      38.949  30.523  32.413  1.00  0.00     0.012 A 
ATOM     57  C   UNL A   1      37.852  31.413  30.432  1.00  0.00     0.148 A 
ATOM     58  C   UNL A   1      37.838  30.856  33.188  1.00  0.00     0.002 A 
ATOM     59  C   UNL A   1      36.768  31.783  31.219  1.00  0.00     0.091 A 
ATOM     60  F   UNL A   1      37.872  31.628  29.108  1.00  0.00    -0.205 F 
ATOM     61  C   UNL A   1      36.754  31.495  32.593  1.00  0.00     0.022 A 
BRANCH  59  62
ATOM     62  S   UNL A   1      35.358  32.682  30.561  1.00  0.00     0.127 S 
ATOM     63  O   UNL A   1      34.954  31.823  29.449  1.00  0.00    -0.237 OA
ATOM     64  O   UNL A   1      34.436  32.683  31.697  1.00  0.00    -0.237 OA
ATOM     65  O   UNL A   1      35.860  33.997  30.185  1.00  0.00    -0.744 OA
ENDBRANCH  59  62
ENDBRANCH  41  55
BRANCH  42  66
ATOM     66  C   UNL A   1      46.674  28.113  25.264  1.00  0.00     0.023 A 
ATOM     67  C   UNL A   1      46.515  28.226  23.869  1.00  0.00     0.012 A 
ATOM     68  C   UNL A   1      47.907  27.673  25.781  1.00  0.00     0.148 A 
ATOM     69  C   UNL A   1      47.556  27.881  23.006  1.00  0.00     0.002 A 
ATOM     70  C   UNL A   1      48.958  27.386  24.920  1.00  0.00     0.091 A 
ATOM     71  F   UNL A   1      48.031  27.558  27.112  1.00  0.00    -0.205 F 
ATOM     72  C   UNL A   1      48.780  27.473  23.530  1.00  0.00     0.022 A 
BRANCH  70  73
ATOM     73  S   UNL A   1      50.605  26.978  25.509  1.00  0.00     0.127 S 
ATOM     74  O   UNL A   1      50.376  25.698  26.176  1.00  0.00    -0.237 OA
ATOM     75  O   UNL A   1      51.359  26.896  24.257  1.00  0.00    -0.237 OA
ATOM     76  O   UNL A   1      50.999  28.081  26.375  1.00  0.00    -0.744 OA
ENDBRANCH  70  73
ENDBRANCH  42  66
BRANCH  54  77
ATOM     77  C   UNL A   1      45.203  33.804  29.047  1.00  0.00     0.023 A 
ATOM     78  C   UNL A   1      46.217  33.880  30.022  1.00  0.00     0.012 A 
ATOM     79  C   UNL A   1      44.937  34.930  28.240  1.00  0.00     0.148 A 
ATOM     80  C   UNL A   1      46.931  35.062  30.214  1.00  0.00     0.002 A 
ATOM     81  C   UNL A   1      45.687  36.088  28.402  1.00  0.00     0.091 A 
ATOM     82  F   UNL A   1      43.956  34.845  27.330  1.00  0.00    -0.205 F 
ATOM     83  C   UNL A   1      46.675  36.161  29.397  1.00  0.00     0.022 A 
BRANCH  81  84
ATOM     84  S   UNL A   1      45.493  37.519  27.332  1.00  0.00     0.127 S 
ATOM     85  O   UNL A   1      44.076  37.440  26.982  1.00  0.00    -0.237 OA
ATOM     86  O   UNL A   1      45.839  38.624  28.228  1.00  0.00    -0.237 OA
ATOM     87  O   UNL A   1      46.422  37.323  26.228  1.00  0.00    -0.744 OA
ENDBRANCH  81  84
ENDBRANCH  54  77
ENDBRANCH  28  29
ENDBRANCH  21  23
ENDBRANCH  20  21
ENDBRANCH  19  20
ENDBRANCH   1  19
TORSDOF 19
ENDMDL
