MODEL 1
REMARK VINA RESULT:     -11.9      0.000      0.000
REMARK SMILES O=C(OCCOCCOC(=O)[C@@H]1CN(c2nc(-c3ccccc3)no2)CC[NH2+]1)c1ccc(-c2c3nc(c(-c4cccc(S(=O)(=O)[O-])c4F)c4ccc([nH]4)c(-c4cccc(S(=O)(=O)[O-])c4F)c4nc(c(-c5cccc(S(=O)(=O)[O-])c5F)c5ccc2[nH]5)C=C4)C=C3)cc1
REMARK SMILES IDX 5 1 4 2 3 3 2 4 1 5 29 6 30 7 91 8 31 9 90 10 32 11 33 12
REMARK SMILES IDX 34 13 84 14 35 15 89 16 83 17 85 18 36 19 88 20 82 21 81 22
REMARK SMILES IDX 37 24 69 25 49 26 68 27 50 28 53 29 67 30 86 31 51 32 52 33
REMARK SMILES IDX 66 35 87 36 54 37 38 38 39 39 47 40 40 41 42 42 48 43 41 44
REMARK SMILES IDX 43 45 44 46 45 47 46 48 70 49 71 50 79 51 72 52 74 53 80 54
REMARK SMILES IDX 73 55 75 56 76 57 77 58 78 59 55 60 56 61 64 62 57 63 59 64
REMARK SMILES IDX 65 65 58 66 60 67 61 68 62 69 63 70 6 71 7 72 8 73 9 74
REMARK SMILES IDX 10 75 11 76 12 77 13 78 28 79 14 80 27 81 26 84 15 85 16 86
REMARK SMILES IDX 25 87 17 88 24 89 18 90 19 91 23 92 20 93 22 94 21 95
REMARK H PARENT 85 23 53 34 28 82 28 83
REMARK Flexibility Score: inf
ROOT
ATOM      1  C   UNL A   1      31.573  29.609  25.156  1.00  0.00     0.202 C 
ENDROOT
BRANCH   1   2
ATOM      2  C   UNL A   1      32.821  30.036  25.947  1.00  0.00     0.261 C 
BRANCH   2   3
ATOM      3  O   UNL A   1      32.532  31.035  26.939  1.00  0.00    -0.460 OA
BRANCH   3   4
ATOM      4  C   UNL A   1      33.412  31.917  27.477  1.00  0.00     0.338 C 
ATOM      5  O   UNL A   1      33.151  33.118  27.444  1.00  0.00    -0.246 OA
BRANCH   4   6
ATOM      6  C   UNL A   1      34.702  31.478  28.086  1.00  0.00     0.060 A 
ATOM      7  C   UNL A   1      34.936  30.178  28.528  1.00  0.00     0.016 A 
ATOM      8  C   UNL A   1      35.762  32.391  28.154  1.00  0.00     0.016 A 
ATOM      9  C   UNL A   1      36.119  29.785  29.091  1.00  0.00     0.010 A 
ATOM     10  C   UNL A   1      36.998  31.995  28.676  1.00  0.00     0.010 A 
ATOM     11  C   UNL A   1      37.163  30.689  29.153  1.00  0.00    -0.014 A 
BRANCH  11  12
ATOM     12  C   UNL A   1      38.351  30.206  29.854  1.00  0.00     0.031 A 
ATOM     13  C   UNL A   1      38.520  30.604  31.279  1.00  0.00     0.074 A 
ATOM     14  C   UNL A   1      39.103  29.259  29.266  1.00  0.00     0.049 A 
ATOM     15  N   UNL A   1      39.480  30.305  32.103  1.00  0.00    -0.248 NA
ATOM     16  C   UNL A   1      37.449  31.432  31.866  1.00  0.00     0.031 C 
ATOM     17  C   UNL A   1      38.863  28.696  27.930  1.00  0.00     0.029 A 
ATOM     18  N   UNL A   1      40.194  28.576  29.721  1.00  0.00    -0.354 N 
ATOM     19  C   UNL A   1      39.172  30.967  33.282  1.00  0.00     0.074 A 
ATOM     20  C   UNL A   1      37.917  31.654  33.084  1.00  0.00     0.031 C 
ATOM     21  C   UNL A   1      39.786  27.757  27.675  1.00  0.00     0.029 A 
ATOM     22  C   UNL A   1      40.724  27.717  28.789  1.00  0.00     0.049 A 
ATOM     23  H   UNL A   1      40.564  28.689  30.627  1.00  0.00     0.167 HD
ATOM     24  C   UNL A   1      39.901  31.006  34.416  1.00  0.00     0.034 A 
ATOM     25  C   UNL A   1      41.877  27.027  28.824  1.00  0.00     0.034 A 
ATOM     26  C   UNL A   1      41.141  30.300  34.560  1.00  0.00     0.049 A 
ATOM     27  C   UNL A   1      42.712  27.159  30.066  1.00  0.00     0.074 A 
ATOM     28  C   UNL A   1      42.014  30.293  35.629  1.00  0.00     0.029 A 
ATOM     29  N   UNL A   1      41.688  29.475  33.582  1.00  0.00    -0.354 N 
ATOM     30  N   UNL A   1      42.442  27.814  31.172  1.00  0.00    -0.248 NA
ATOM     31  C   UNL A   1      44.000  26.458  30.076  1.00  0.00     0.031 C 
ATOM     32  C   UNL A   1      43.109  29.495  35.280  1.00  0.00     0.029 A 
ATOM     33  C   UNL A   1      42.895  28.963  34.015  1.00  0.00     0.049 A 
ATOM     34  H   UNL A   1      41.274  29.283  32.711  1.00  0.00     0.167 HD
ATOM     35  C   UNL A   1      43.513  27.584  32.022  1.00  0.00     0.074 A 
ATOM     36  C   UNL A   1      44.424  26.708  31.307  1.00  0.00     0.031 C 
ATOM     37  C   UNL A   1      43.739  28.059  33.273  1.00  0.00     0.034 A 
BRANCH  24  38
ATOM     38  C   UNL A   1      39.408  31.900  35.517  1.00  0.00     0.023 A 
ATOM     39  C   UNL A   1      39.802  33.252  35.578  1.00  0.00     0.012 A 
ATOM     40  C   UNL A   1      38.576  31.376  36.524  1.00  0.00     0.148 A 
ATOM     41  C   UNL A   1      39.404  34.058  36.646  1.00  0.00     0.002 A 
ATOM     42  C   UNL A   1      38.145  32.196  37.558  1.00  0.00     0.091 A 
ATOM     43  F   UNL A   1      38.245  30.078  36.467  1.00  0.00    -0.205 F 
ATOM     44  C   UNL A   1      38.570  33.532  37.630  1.00  0.00     0.022 A 
BRANCH  42  45
ATOM     45  S   UNL A   1      37.023  31.627  38.839  1.00  0.00     0.127 S 
ATOM     46  O   UNL A   1      37.833  31.808  40.043  1.00  0.00    -0.237 OA
ATOM     47  O   UNL A   1      35.911  32.568  38.706  1.00  0.00    -0.237 OA
ATOM     48  O   UNL A   1      36.699  30.246  38.511  1.00  0.00    -0.744 OA
ENDBRANCH  42  45
ENDBRANCH  24  38
BRANCH  25  49
ATOM     49  C   UNL A   1      42.311  26.215  27.652  1.00  0.00     0.023 A 
ATOM     50  C   UNL A   1      43.113  26.793  26.652  1.00  0.00     0.012 A 
ATOM     51  C   UNL A   1      41.940  24.858  27.531  1.00  0.00     0.148 A 
ATOM     52  C   UNL A   1      43.511  26.049  25.539  1.00  0.00     0.002 A 
ATOM     53  C   UNL A   1      42.386  24.107  26.451  1.00  0.00     0.091 A 
ATOM     54  F   UNL A   1      41.164  24.325  28.484  1.00  0.00    -0.205 F 
ATOM     55  C   UNL A   1      43.156  24.705  25.443  1.00  0.00     0.022 A 
BRANCH  53  56
ATOM     56  S   UNL A   1      42.075  22.342  26.308  1.00  0.00     0.127 S 
ATOM     57  O   UNL A   1      42.844  22.000  25.115  1.00  0.00    -0.237 OA
ATOM     58  O   UNL A   1      42.629  21.836  27.565  1.00  0.00    -0.237 OA
ATOM     59  O   UNL A   1      40.630  22.204  26.191  1.00  0.00    -0.744 OA
ENDBRANCH  53  56
ENDBRANCH  25  49
BRANCH  37  60
ATOM     60  C   UNL A   1      44.994  27.599  33.957  1.00  0.00     0.023 A 
ATOM     61  C   UNL A   1      46.157  28.388  33.903  1.00  0.00     0.012 A 
ATOM     62  C   UNL A   1      44.980  26.423  34.731  1.00  0.00     0.148 A 
ATOM     63  C   UNL A   1      47.304  27.996  34.588  1.00  0.00     0.002 A 
ATOM     64  C   UNL A   1      46.106  26.070  35.458  1.00  0.00     0.091 A 
ATOM     65  F   UNL A   1      43.862  25.681  34.747  1.00  0.00    -0.205 F 
ATOM     66  C   UNL A   1      47.273  26.847  35.377  1.00  0.00     0.022 A 
BRANCH  64  67
ATOM     67  S   UNL A   1      46.115  24.677  36.589  1.00  0.00     0.127 S 
ATOM     68  O   UNL A   1      45.946  23.550  35.674  1.00  0.00    -0.237 OA
ATOM     69  O   UNL A   1      47.444  24.781  37.194  1.00  0.00    -0.237 OA
ATOM     70  O   UNL A   1      45.011  24.901  37.514  1.00  0.00    -0.744 OA
ENDBRANCH  64  67
ENDBRANCH  37  60
ENDBRANCH  11  12
ENDBRANCH   4   6
ENDBRANCH   3   4
ENDBRANCH   2   3
ENDBRANCH   1   2
BRANCH   1  71
ATOM     71  O   UNL A   1      31.728  29.029  23.859  1.00  0.00    -0.374 OA
BRANCH  71  72
ATOM     72  C   UNL A   1      30.637  28.276  23.324  1.00  0.00     0.202 C 
BRANCH  72  73
ATOM     73  C   UNL A   1      31.127  27.393  22.179  1.00  0.00     0.261 C 
BRANCH  73  74
ATOM     74  O   UNL A   1      32.557  27.415  22.230  1.00  0.00    -0.459 OA
BRANCH  74  75
ATOM     75  C   UNL A   1      33.135  26.196  22.019  1.00  0.00     0.366 C 
ATOM     76  O   UNL A   1      33.272  25.650  20.929  1.00  0.00    -0.245 OA
BRANCH  75  77
ATOM     77  C   UNL A   1      33.562  25.589  23.341  1.00  0.00     0.313 C 
ATOM     78  C   UNL A   1      32.538  24.506  23.667  1.00  0.00     0.199 C 
ATOM     79  N   UNL A   1      33.610  26.609  24.441  1.00  0.00    -0.332 N 
ATOM     80  N   UNL A   1      32.837  23.891  24.958  1.00  0.00    -0.312 N 
ATOM     81  C   UNL A   1      34.011  25.953  25.693  1.00  0.00     0.283 C 
ATOM     82  H   UNL A   1      32.687  27.029  24.555  1.00  0.00     0.347 HD
ATOM     83  H   UNL A   1      34.284  27.336  24.203  1.00  0.00     0.347 HD
ATOM     84  C   UNL A   1      33.075  24.787  26.090  1.00  0.00     0.183 C 
BRANCH  80  85
ATOM     85  C   UNL A   1      33.417  22.683  24.921  1.00  0.00     0.324 A 
ATOM     86  N   UNL A   1      33.080  21.638  24.207  1.00  0.00    -0.171 NA
ATOM     87  O   UNL A   1      34.358  22.411  25.870  1.00  0.00    -0.315 OA
ATOM     88  C   UNL A   1      33.832  20.646  24.774  1.00  0.00     0.204 A 
ATOM     89  N   UNL A   1      34.613  21.041  25.791  1.00  0.00    -0.055 NA
BRANCH  88  90
ATOM     90  C   UNL A   1      33.810  19.287  24.285  1.00  0.00     0.023 A 
ATOM     91  C   UNL A   1      32.731  18.827  23.522  1.00  0.00     0.012 A 
ATOM     92  C   UNL A   1      34.848  18.413  24.626  1.00  0.00     0.012 A 
ATOM     93  C   UNL A   1      32.670  17.486  23.142  1.00  0.00     0.001 A 
ATOM     94  C   UNL A   1      34.777  17.070  24.257  1.00  0.00     0.001 A 
ATOM     95  C   UNL A   1      33.683  16.606  23.525  1.00  0.00     0.000 A 
ENDBRANCH  88  90
ENDBRANCH  80  85
ENDBRANCH  75  77
ENDBRANCH  74  75
ENDBRANCH  73  74
ENDBRANCH  72  73
ENDBRANCH  71  72
ENDBRANCH   1  71
TORSDOF 19
ENDMDL
MODEL 2
REMARK VINA RESULT:     -11.8      5.267      8.551
REMARK SMILES O=C(OCCOCCOC(=O)[C@@H]1CN(c2nc(-c3ccccc3)no2)CC[NH2+]1)c1ccc(-c2c3nc(c(-c4cccc(S(=O)(=O)[O-])c4F)c4ccc([nH]4)c(-c4cccc(S(=O)(=O)[O-])c4F)c4nc(c(-c5cccc(S(=O)(=O)[O-])c5F)c5ccc2[nH]5)C=C4)C=C3)cc1
REMARK SMILES IDX 5 1 4 2 3 3 2 4 1 5 29 6 30 7 91 8 31 9 90 10 32 11 33 12
REMARK SMILES IDX 34 13 84 14 35 15 89 16 83 17 85 18 36 19 88 20 82 21 81 22
REMARK SMILES IDX 37 24 69 25 49 26 68 27 50 28 53 29 67 30 86 31 51 32 52 33
REMARK SMILES IDX 66 35 87 36 54 37 38 38 39 39 47 40 40 41 42 42 48 43 41 44
REMARK SMILES IDX 43 45 44 46 45 47 46 48 70 49 71 50 79 51 72 52 74 53 80 54
REMARK SMILES IDX 73 55 75 56 76 57 77 58 78 59 55 60 56 61 64 62 57 63 59 64
REMARK SMILES IDX 65 65 58 66 60 67 61 68 62 69 63 70 6 71 7 72 8 73 9 74
REMARK SMILES IDX 10 75 11 76 12 77 13 78 28 79 14 80 27 81 26 84 15 85 16 86
REMARK SMILES IDX 25 87 17 88 24 89 18 90 19 91 23 92 20 93 22 94 21 95
REMARK H PARENT 85 23 53 34 28 82 28 83
REMARK Flexibility Score: inf
ROOT
ATOM      1  C   UNL A   1      35.427  20.355  24.986  1.00  0.00     0.202 C 
ENDROOT
BRANCH   1   2
ATOM      2  C   UNL A   1      36.868  20.804  24.690  1.00  0.00     0.261 C 
BRANCH   2   3
ATOM      3  O   UNL A   1      37.460  21.519  25.787  1.00  0.00    -0.460 OA
BRANCH   3   4
ATOM      4  C   UNL A   1      38.773  21.526  26.132  1.00  0.00     0.338 C 
ATOM      5  O   UNL A   1      39.399  20.468  26.127  1.00  0.00    -0.246 OA
BRANCH   4   6
ATOM      6  C   UNL A   1      39.476  22.776  26.544  1.00  0.00     0.060 A 
ATOM      7  C   UNL A   1      39.116  24.042  26.089  1.00  0.00     0.016 A 
ATOM      8  C   UNL A   1      40.503  22.691  27.493  1.00  0.00     0.016 A 
ATOM      9  C   UNL A   1      39.772  25.183  26.467  1.00  0.00     0.010 A 
ATOM     10  C   UNL A   1      41.149  23.851  27.935  1.00  0.00     0.010 A 
ATOM     11  C   UNL A   1      40.782  25.093  27.406  1.00  0.00    -0.014 A 
BRANCH  11  12
ATOM     12  C   UNL A   1      41.480  26.349  27.675  1.00  0.00     0.031 A 
ATOM     13  C   UNL A   1      40.802  27.340  28.555  1.00  0.00     0.074 A 
ATOM     14  C   UNL A   1      42.771  26.456  27.313  1.00  0.00     0.049 A 
ATOM     15  N   UNL A   1      41.214  28.513  28.937  1.00  0.00    -0.248 NA
ATOM     16  C   UNL A   1      39.489  26.949  29.103  1.00  0.00     0.031 C 
ATOM     17  C   UNL A   1      43.541  25.424  26.606  1.00  0.00     0.029 A 
ATOM     18  N   UNL A   1      43.673  27.460  27.517  1.00  0.00    -0.354 N 
ATOM     19  C   UNL A   1      40.183  29.033  29.705  1.00  0.00     0.074 A 
ATOM     20  C   UNL A   1      39.140  28.036  29.771  1.00  0.00     0.031 C 
ATOM     21  C   UNL A   1      44.799  25.854  26.433  1.00  0.00     0.029 A 
ATOM     22  C   UNL A   1      44.895  27.216  26.938  1.00  0.00     0.049 A 
ATOM     23  H   UNL A   1      43.469  28.277  28.028  1.00  0.00     0.167 HD
ATOM     24  C   UNL A   1      40.122  30.252  30.278  1.00  0.00     0.034 A 
ATOM     25  C   UNL A   1      45.947  28.040  26.786  1.00  0.00     0.034 A 
ATOM     26  C   UNL A   1      41.192  31.203  30.184  1.00  0.00     0.049 A 
ATOM     27  C   UNL A   1      45.816  29.423  27.360  1.00  0.00     0.074 A 
ATOM     28  C   UNL A   1      41.246  32.495  30.666  1.00  0.00     0.029 A 
ATOM     29  N   UNL A   1      42.403  30.955  29.547  1.00  0.00    -0.354 N 
ATOM     30  N   UNL A   1      44.828  29.933  28.059  1.00  0.00    -0.248 NA
ATOM     31  C   UNL A   1      46.937  30.341  27.137  1.00  0.00     0.031 C 
ATOM     32  C   UNL A   1      42.475  33.042  30.283  1.00  0.00     0.029 A 
ATOM     33  C   UNL A   1      43.208  32.074  29.608  1.00  0.00     0.049 A 
ATOM     34  H   UNL A   1      42.650  30.105  29.116  1.00  0.00     0.167 HD
ATOM     35  C   UNL A   1      45.216  31.224  28.383  1.00  0.00     0.074 A 
ATOM     36  C   UNL A   1      46.543  31.406  27.822  1.00  0.00     0.031 C 
ATOM     37  C   UNL A   1      44.541  32.182  29.067  1.00  0.00     0.034 A 
BRANCH  24  38
ATOM     38  C   UNL A   1      38.837  30.624  30.961  1.00  0.00     0.023 A 
ATOM     39  C   UNL A   1      38.620  30.297  32.315  1.00  0.00     0.012 A 
ATOM     40  C   UNL A   1      37.821  31.272  30.234  1.00  0.00     0.148 A 
ATOM     41  C   UNL A   1      37.394  30.575  32.922  1.00  0.00     0.002 A 
ATOM     42  C   UNL A   1      36.622  31.589  30.858  1.00  0.00     0.091 A 
ATOM     43  F   UNL A   1      38.035  31.540  28.938  1.00  0.00    -0.205 F 
ATOM     44  C   UNL A   1      36.401  31.227  32.197  1.00  0.00     0.022 A 
BRANCH  42  45
ATOM     45  S   UNL A   1      35.304  32.479  30.026  1.00  0.00     0.127 S 
ATOM     46  O   UNL A   1      34.935  31.541  28.967  1.00  0.00    -0.237 OA
ATOM     47  O   UNL A   1      34.312  32.616  31.092  1.00  0.00    -0.237 OA
ATOM     48  O   UNL A   1      35.888  33.732  29.568  1.00  0.00    -0.744 OA
ENDBRANCH  42  45
ENDBRANCH  24  38
BRANCH  25  49
ATOM     49  C   UNL A   1      47.156  27.598  26.037  1.00  0.00     0.023 A 
ATOM     50  C   UNL A   1      48.191  26.919  26.706  1.00  0.00     0.012 A 
ATOM     51  C   UNL A   1      47.281  27.838  24.652  1.00  0.00     0.148 A 
ATOM     52  C   UNL A   1      49.338  26.516  26.020  1.00  0.00     0.002 A 
ATOM     53  C   UNL A   1      48.400  27.385  23.963  1.00  0.00     0.091 A 
ATOM     54  F   UNL A   1      46.295  28.500  24.030  1.00  0.00    -0.205 F 
ATOM     55  C   UNL A   1      49.439  26.740  24.650  1.00  0.00     0.022 A 
BRANCH  53  56
ATOM     56  S   UNL A   1      48.558  27.526  22.179  1.00  0.00     0.127 S 
ATOM     57  O   UNL A   1      49.754  28.353  22.050  1.00  0.00    -0.237 OA
ATOM     58  O   UNL A   1      48.728  26.129  21.780  1.00  0.00    -0.237 OA
ATOM     59  O   UNL A   1      47.316  28.134  21.719  1.00  0.00    -0.744 OA
ENDBRANCH  53  56
ENDBRANCH  25  49
BRANCH  37  60
ATOM     60  C   UNL A   1      45.251  33.487  29.285  1.00  0.00     0.023 A 
ATOM     61  C   UNL A   1      46.044  33.677  30.432  1.00  0.00     0.012 A 
ATOM     62  C   UNL A   1      45.198  34.488  28.296  1.00  0.00     0.148 A 
ATOM     63  C   UNL A   1      46.753  34.862  30.607  1.00  0.00     0.002 A 
ATOM     64  C   UNL A   1      45.954  35.639  28.449  1.00  0.00     0.091 A 
ATOM     65  F   UNL A   1      44.418  34.287  27.223  1.00  0.00    -0.205 F 
ATOM     66  C   UNL A   1      46.721  35.834  29.609  1.00  0.00     0.022 A 
BRANCH  64  67
ATOM     67  S   UNL A   1      46.064  36.887  27.164  1.00  0.00     0.127 S 
ATOM     68  O   UNL A   1      44.709  37.434  27.164  1.00  0.00    -0.237 OA
ATOM     69  O   UNL A   1      47.088  37.787  27.696  1.00  0.00    -0.237 OA
ATOM     70  O   UNL A   1      46.453  36.182  25.949  1.00  0.00    -0.744 OA
ENDBRANCH  64  67
ENDBRANCH  37  60
ENDBRANCH  11  12
ENDBRANCH   4   6
ENDBRANCH   3   4
ENDBRANCH   2   3
ENDBRANCH   1   2
BRANCH   1  71
ATOM     71  O   UNL A   1      34.357  21.293  24.848  1.00  0.00    -0.374 OA
BRANCH  71  72
ATOM     72  C   UNL A   1      33.102  20.815  24.357  1.00  0.00     0.202 C 
BRANCH  72  73
ATOM     73  C   UNL A   1      31.985  21.201  25.323  1.00  0.00     0.261 C 
BRANCH  73  74
ATOM     74  O   UNL A   1      31.364  22.372  24.782  1.00  0.00    -0.459 OA
BRANCH  74  75
ATOM     75  C   UNL A   1      31.516  23.485  25.558  1.00  0.00     0.366 C 
ATOM     76  O   UNL A   1      31.287  23.552  26.761  1.00  0.00    -0.245 OA
BRANCH  75  77
ATOM     77  C   UNL A   1      31.983  24.650  24.709  1.00  0.00     0.313 C 
ATOM     78  C   UNL A   1      30.836  24.976  23.757  1.00  0.00     0.199 C 
ATOM     79  N   UNL A   1      33.225  24.321  23.934  1.00  0.00    -0.332 N 
ATOM     80  N   UNL A   1      31.211  26.062  22.856  1.00  0.00    -0.312 N 
ATOM     81  C   UNL A   1      33.611  25.482  23.121  1.00  0.00     0.283 C 
ATOM     82  H   UNL A   1      33.045  23.523  23.325  1.00  0.00     0.347 HD
ATOM     83  H   UNL A   1      33.979  24.088  24.580  1.00  0.00     0.347 HD
ATOM     84  C   UNL A   1      32.493  25.944  22.159  1.00  0.00     0.183 C 
BRANCH  80  85
ATOM     85  C   UNL A   1      30.706  27.271  23.139  1.00  0.00     0.324 A 
ATOM     86  N   UNL A   1      29.966  28.043  22.384  1.00  0.00    -0.171 NA
ATOM     87  O   UNL A   1      31.156  27.888  24.270  1.00  0.00    -0.315 OA
ATOM     88  C   UNL A   1      29.988  29.226  23.071  1.00  0.00     0.204 A 
ATOM     89  N   UNL A   1      30.700  29.205  24.208  1.00  0.00    -0.055 NA
BRANCH  88  90
ATOM     90  C   UNL A   1      29.267  30.393  22.619  1.00  0.00     0.023 A 
ATOM     91  C   UNL A   1      28.762  30.453  21.315  1.00  0.00     0.012 A 
ATOM     92  C   UNL A   1      29.122  31.491  23.475  1.00  0.00     0.012 A 
ATOM     93  C   UNL A   1      28.158  31.623  20.856  1.00  0.00     0.001 A 
ATOM     94  C   UNL A   1      28.531  32.664  23.008  1.00  0.00     0.001 A 
ATOM     95  C   UNL A   1      28.060  32.733  21.697  1.00  0.00     0.000 A 
ENDBRANCH  88  90
ENDBRANCH  80  85
ENDBRANCH  75  77
ENDBRANCH  74  75
ENDBRANCH  73  74
ENDBRANCH  72  73
ENDBRANCH  71  72
ENDBRANCH   1  71
TORSDOF 19
ENDMDL
MODEL 3
REMARK VINA RESULT:     -11.6      1.815      2.280
REMARK SMILES O=C(OCCOCCOC(=O)[C@@H]1CN(c2nc(-c3ccccc3)no2)CC[NH2+]1)c1ccc(-c2c3nc(c(-c4cccc(S(=O)(=O)[O-])c4F)c4ccc([nH]4)c(-c4cccc(S(=O)(=O)[O-])c4F)c4nc(c(-c5cccc(S(=O)(=O)[O-])c5F)c5ccc2[nH]5)C=C4)C=C3)cc1
REMARK SMILES IDX 5 1 4 2 3 3 2 4 1 5 29 6 30 7 91 8 31 9 90 10 32 11 33 12
REMARK SMILES IDX 34 13 84 14 35 15 89 16 83 17 85 18 36 19 88 20 82 21 81 22
REMARK SMILES IDX 37 24 69 25 49 26 68 27 50 28 53 29 67 30 86 31 51 32 52 33
REMARK SMILES IDX 66 35 87 36 54 37 38 38 39 39 47 40 40 41 42 42 48 43 41 44
REMARK SMILES IDX 43 45 44 46 45 47 46 48 70 49 71 50 79 51 72 52 74 53 80 54
REMARK SMILES IDX 73 55 75 56 76 57 77 58 78 59 55 60 56 61 64 62 57 63 59 64
REMARK SMILES IDX 65 65 58 66 60 67 61 68 62 69 63 70 6 71 7 72 8 73 9 74
REMARK SMILES IDX 10 75 11 76 12 77 13 78 28 79 14 80 27 81 26 84 15 85 16 86
REMARK SMILES IDX 25 87 17 88 24 89 18 90 19 91 23 92 20 93 22 94 21 95
REMARK H PARENT 85 23 53 34 28 82 28 83
REMARK Flexibility Score: inf
ROOT
ATOM      1  C   UNL A   1      32.023  30.789  26.855  1.00  0.00     0.202 C 
ENDROOT
BRANCH   1   2
ATOM      2  C   UNL A   1      31.593  32.265  26.843  1.00  0.00     0.261 C 
BRANCH   2   3
ATOM      3  O   UNL A   1      32.712  33.166  26.889  1.00  0.00    -0.460 OA
BRANCH   3   4
ATOM      4  C   UNL A   1      33.328  33.633  28.005  1.00  0.00     0.338 C 
ATOM      5  O   UNL A   1      32.873  34.626  28.569  1.00  0.00    -0.246 OA
BRANCH   4   6
ATOM      6  C   UNL A   1      34.558  32.993  28.557  1.00  0.00     0.060 A 
ATOM      7  C   UNL A   1      34.557  31.749  29.184  1.00  0.00     0.016 A 
ATOM      8  C   UNL A   1      35.790  33.631  28.374  1.00  0.00     0.016 A 
ATOM      9  C   UNL A   1      35.689  31.173  29.693  1.00  0.00     0.010 A 
ATOM     10  C   UNL A   1      36.967  33.033  28.838  1.00  0.00     0.010 A 
ATOM     11  C   UNL A   1      36.903  31.806  29.508  1.00  0.00    -0.014 A 
BRANCH  11  12
ATOM     12  C   UNL A   1      38.038  31.160  30.166  1.00  0.00     0.031 A 
ATOM     13  C   UNL A   1      38.258  31.456  31.609  1.00  0.00     0.074 A 
ATOM     14  C   UNL A   1      38.680  30.172  29.517  1.00  0.00     0.049 A 
ATOM     15  N   UNL A   1      39.185  31.011  32.403  1.00  0.00    -0.248 NA
ATOM     16  C   UNL A   1      37.285  32.360  32.254  1.00  0.00     0.031 C 
ATOM     17  C   UNL A   1      38.373  29.714  28.155  1.00  0.00     0.029 A 
ATOM     18  N   UNL A   1      39.694  29.353  29.921  1.00  0.00    -0.354 N 
ATOM     19  C   UNL A   1      38.957  31.636  33.620  1.00  0.00     0.074 A 
ATOM     20  C   UNL A   1      37.782  32.462  33.476  1.00  0.00     0.031 C 
ATOM     21  C   UNL A   1      39.188  28.698  27.838  1.00  0.00     0.029 A 
ATOM     22  C   UNL A   1      40.123  28.496  28.936  1.00  0.00     0.049 A 
ATOM     23  H   UNL A   1      40.080  29.375  30.826  1.00  0.00     0.167 HD
ATOM     24  C   UNL A   1      39.694  31.533  34.746  1.00  0.00     0.034 A 
ATOM     25  C   UNL A   1      41.196  27.686  28.918  1.00  0.00     0.034 A 
ATOM     26  C   UNL A   1      40.852  30.691  34.835  1.00  0.00     0.049 A 
ATOM     27  C   UNL A   1      42.048  27.658  30.155  1.00  0.00     0.074 A 
ATOM     28  C   UNL A   1      41.726  30.531  35.891  1.00  0.00     0.029 A 
ATOM     29  N   UNL A   1      41.300  29.868  33.807  1.00  0.00    -0.354 N 
ATOM     30  N   UNL A   1      41.857  28.274  31.300  1.00  0.00    -0.248 NA
ATOM     31  C   UNL A   1      43.253  26.824  30.111  1.00  0.00     0.031 C 
ATOM     32  C   UNL A   1      42.727  29.642  35.485  1.00  0.00     0.029 A 
ATOM     33  C   UNL A   1      42.448  29.208  34.195  1.00  0.00     0.049 A 
ATOM     34  H   UNL A   1      40.863  29.771  32.931  1.00  0.00     0.167 HD
ATOM     35  C   UNL A   1      42.903  27.884  32.123  1.00  0.00     0.074 A 
ATOM     36  C   UNL A   1      43.710  26.958  31.349  1.00  0.00     0.031 C 
ATOM     37  C   UNL A   1      43.186  28.262  33.395  1.00  0.00     0.034 A 
BRANCH  24  38
ATOM     38  C   UNL A   1      39.306  32.411  35.901  1.00  0.00     0.023 A 
ATOM     39  C   UNL A   1      38.406  31.952  36.883  1.00  0.00     0.012 A 
ATOM     40  C   UNL A   1      39.815  33.721  35.985  1.00  0.00     0.148 A 
ATOM     41  C   UNL A   1      37.988  32.799  37.911  1.00  0.00     0.002 A 
ATOM     42  C   UNL A   1      39.432  34.542  37.037  1.00  0.00     0.091 A 
ATOM     43  F   UNL A   1      40.640  34.148  35.019  1.00  0.00    -0.205 F 
ATOM     44  C   UNL A   1      38.507  34.089  37.992  1.00  0.00     0.022 A 
BRANCH  42  45
ATOM     45  S   UNL A   1      40.089  36.197  37.260  1.00  0.00     0.127 S 
ATOM     46  O   UNL A   1      39.261  36.700  38.354  1.00  0.00    -0.237 OA
ATOM     47  O   UNL A   1      41.480  35.923  37.624  1.00  0.00    -0.237 OA
ATOM     48  O   UNL A   1      39.914  36.878  35.985  1.00  0.00    -0.744 OA
ENDBRANCH  42  45
ENDBRANCH  24  38
BRANCH  25  49
ATOM     49  C   UNL A   1      41.533  26.899  27.699  1.00  0.00     0.023 A 
ATOM     50  C   UNL A   1      42.074  27.543  26.571  1.00  0.00     0.012 A 
ATOM     51  C   UNL A   1      41.330  25.503  27.656  1.00  0.00     0.148 A 
ATOM     52  C   UNL A   1      42.376  26.821  25.415  1.00  0.00     0.002 A 
ATOM     53  C   UNL A   1      41.685  24.780  26.523  1.00  0.00     0.091 A 
ATOM     54  F   UNL A   1      40.800  24.904  28.732  1.00  0.00    -0.205 F 
ATOM     55  C   UNL A   1      42.191  25.440  25.394  1.00  0.00     0.022 A 
BRANCH  53  56
ATOM     56  S   UNL A   1      41.592  22.987  26.453  1.00  0.00     0.127 S 
ATOM     57  O   UNL A   1      42.296  22.604  27.673  1.00  0.00    -0.237 OA
ATOM     58  O   UNL A   1      40.146  22.759  26.478  1.00  0.00    -0.237 OA
ATOM     59  O   UNL A   1      42.237  22.606  25.204  1.00  0.00    -0.744 OA
ENDBRANCH  53  56
ENDBRANCH  25  49
BRANCH  37  60
ATOM     60  C   UNL A   1      44.389  27.633  34.037  1.00  0.00     0.023 A 
ATOM     61  C   UNL A   1      45.639  28.275  33.974  1.00  0.00     0.012 A 
ATOM     62  C   UNL A   1      44.246  26.446  34.782  1.00  0.00     0.148 A 
ATOM     63  C   UNL A   1      46.743  27.726  34.621  1.00  0.00     0.002 A 
ATOM     64  C   UNL A   1      45.335  25.939  35.473  1.00  0.00     0.091 A 
ATOM     65  F   UNL A   1      43.046  25.847  34.807  1.00  0.00    -0.205 F 
ATOM     66  C   UNL A   1      46.587  26.569  35.382  1.00  0.00     0.022 A 
BRANCH  64  67
ATOM     67  S   UNL A   1      45.196  24.525  36.568  1.00  0.00     0.127 S 
ATOM     68  O   UNL A   1      44.269  25.025  37.582  1.00  0.00    -0.237 OA
ATOM     69  O   UNL A   1      44.641  23.502  35.682  1.00  0.00    -0.237 OA
ATOM     70  O   UNL A   1      46.547  24.247  37.040  1.00  0.00    -0.744 OA
ENDBRANCH  64  67
ENDBRANCH  37  60
ENDBRANCH  11  12
ENDBRANCH   4   6
ENDBRANCH   3   4
ENDBRANCH   2   3
ENDBRANCH   1   2
BRANCH   1  71
ATOM     71  O   UNL A   1      32.407  30.159  25.630  1.00  0.00    -0.374 OA
BRANCH  71  72
ATOM     72  C   UNL A   1      31.441  29.349  24.957  1.00  0.00     0.202 C 
BRANCH  72  73
ATOM     73  C   UNL A   1      31.619  27.886  25.359  1.00  0.00     0.261 C 
BRANCH  73  74
ATOM     74  O   UNL A   1      31.520  27.118  24.156  1.00  0.00    -0.459 OA
BRANCH  74  75
ATOM     75  C   UNL A   1      30.812  25.959  24.299  1.00  0.00     0.366 C 
ATOM     76  O   UNL A   1      29.731  25.849  24.870  1.00  0.00    -0.245 OA
BRANCH  75  77
ATOM     77  C   UNL A   1      31.570  24.806  23.673  1.00  0.00     0.313 C 
ATOM     78  C   UNL A   1      32.601  24.359  24.705  1.00  0.00     0.199 C 
ATOM     79  N   UNL A   1      32.251  25.206  22.397  1.00  0.00    -0.332 N 
ATOM     80  N   UNL A   1      33.423  23.275  24.172  1.00  0.00    -0.312 N 
ATOM     81  C   UNL A   1      32.981  24.051  21.854  1.00  0.00     0.283 C 
ATOM     82  H   UNL A   1      32.905  25.966  22.583  1.00  0.00     0.347 HD
ATOM     83  H   UNL A   1      31.554  25.519  21.721  1.00  0.00     0.347 HD
ATOM     84  C   UNL A   1      34.013  23.470  22.847  1.00  0.00     0.183 C 
BRANCH  80  85
ATOM     85  C   UNL A   1      33.133  22.040  24.607  1.00  0.00     0.324 A 
ATOM     86  N   UNL A   1      33.681  20.904  24.258  1.00  0.00    -0.171 NA
ATOM     87  O   UNL A   1      32.008  21.891  25.363  1.00  0.00    -0.315 OA
ATOM     88  C   UNL A   1      32.820  19.990  24.799  1.00  0.00     0.204 A 
ATOM     89  N   UNL A   1      31.782  20.518  25.465  1.00  0.00    -0.055 NA
BRANCH  88  90
ATOM     90  C   UNL A   1      33.039  18.566  24.691  1.00  0.00     0.023 A 
ATOM     91  C   UNL A   1      32.584  17.701  25.692  1.00  0.00     0.012 A 
ATOM     92  C   UNL A   1      33.761  18.058  23.604  1.00  0.00     0.012 A 
ATOM     93  C   UNL A   1      32.889  16.342  25.629  1.00  0.00     0.001 A 
ATOM     94  C   UNL A   1      34.078  16.702  23.552  1.00  0.00     0.001 A 
ATOM     95  C   UNL A   1      33.652  15.847  24.569  1.00  0.00     0.000 A 
ENDBRANCH  88  90
ENDBRANCH  80  85
ENDBRANCH  75  77
ENDBRANCH  74  75
ENDBRANCH  73  74
ENDBRANCH  72  73
ENDBRANCH  71  72
ENDBRANCH   1  71
TORSDOF 19
ENDMDL
