MODEL 1
REMARK VINA RESULT:     -13.1      0.000      0.000
REMARK SMILES Cc1c(C(=O)OCCOCCOC(=O)c2ccc(-c3c4nc(c(-c5cccc(S(=O)(=O)[O-])c5F)c5ccc([nH]5)c(-c5cccc(S(=O)(=O)[O-])c5F)c5nc(c(-c6cccc(S(=O)(=O)[O-])c6F)c6ccc3[nH]6)C=C5)C=C4)cc2)oc2c1/C(=N/NC(=O)C(c1ccccc1)c1ccccc1)CCC2
REMARK SMILES IDX 9 1 8 2 7 3 6 4 4 5 5 6 3 7 1 8 2 9 80 10 78 11 79 12 81 13
REMARK SMILES IDX 101 14 82 15 99 16 100 17 83 18 84 19 85 21 86 22 87 23
REMARK SMILES IDX 88 24 92 25 89 26 91 27 90 28 93 29 94 30 98 31 95 32 97 33
REMARK SMILES IDX 96 34 10 35 11 36 12 37 13 38 14 39 15 40 16 41 77 42 17 43
REMARK SMILES IDX 76 44 18 45 19 46 20 47 70 48 21 49 75 50 69 51 71 52 22 53
REMARK SMILES IDX 74 54 68 55 67 56 23 58 55 59 35 60 54 61 36 62 39 63 53 64
REMARK SMILES IDX 72 65 37 66 38 67 52 69 73 70 40 71 24 72 25 73 33 74 26 75
REMARK SMILES IDX 28 76 34 77 27 78 29 79 30 80 31 81 32 82 56 83 57 84 65 85
REMARK SMILES IDX 58 86 60 87 66 88 59 89 61 90 62 91 63 92 64 93 41 94 42 95
REMARK SMILES IDX 50 96 43 97 45 98 51 99 44 100 46 101 47 102 48 103 49 104
REMARK H PARENT 83 20 71 57 39 68
REMARK Flexibility Score: inf
ROOT
ATOM      1  O   UNL A   1      32.203  29.810  26.136  1.00  0.00    -0.374 OA
ENDROOT
BRANCH   1   2
ATOM      2  C   UNL A   1      31.406  30.822  25.512  1.00  0.00     0.202 C 
BRANCH   2   3
ATOM      3  C   UNL A   1      30.531  30.334  24.355  1.00  0.00     0.261 C 
BRANCH   3   4
ATOM      4  O   UNL A   1      31.226  29.363  23.574  1.00  0.00    -0.457 OA
BRANCH   4   5
ATOM      5  C   UNL A   1      30.467  28.486  22.839  1.00  0.00     0.374 C 
ATOM      6  O   UNL A   1      29.791  28.765  21.883  1.00  0.00    -0.242 OA
BRANCH   5   7
ATOM      7  C   UNL A   1      30.751  27.158  23.357  1.00  0.00     0.215 A 
ATOM      8  C   UNL A   1      32.074  25.914  21.525  1.00  0.00     0.049 C 
ATOM      9  C   UNL A   1      31.398  26.029  22.841  1.00  0.00     0.012 A 
ATOM     10  C   UNL A   1      31.265  25.031  23.854  1.00  0.00     0.043 A 
ATOM     11  O   UNL A   1      30.434  26.959  24.665  1.00  0.00    -0.453 OA
ATOM     12  C   UNL A   1      30.780  25.711  24.962  1.00  0.00     0.114 A 
ATOM     13  C   UNL A   1      31.416  23.577  23.961  1.00  0.00     0.072 C 
ATOM     14  C   UNL A   1      30.456  25.243  26.327  1.00  0.00     0.076 C 
ATOM     15  N   UNL A   1      31.952  22.876  23.010  1.00  0.00    -0.177 NA
ATOM     16  C   UNL A   1      30.718  23.090  25.180  1.00  0.00     0.059 C 
ATOM     17  C   UNL A   1      30.990  23.835  26.470  1.00  0.00     0.014 C 
BRANCH  15  18
ATOM     18  N   UNL A   1      32.074  21.504  22.832  1.00  0.00    -0.246 N 
ATOM     19  C   UNL A   1      32.468  20.324  23.436  1.00  0.00     0.252 C 
ATOM     20  H   UNL A   1      31.756  21.288  21.926  1.00  0.00     0.193 HD
ATOM     21  O   UNL A   1      32.234  19.300  22.762  1.00  0.00    -0.272 OA
BRANCH  19  22
ATOM     22  C   UNL A   1      33.147  20.108  24.840  1.00  0.00     0.140 C 
BRANCH  22  23
ATOM     23  C   UNL A   1      33.480  18.575  24.985  1.00  0.00    -0.031 A 
ATOM     24  C   UNL A   1      34.502  17.907  24.290  1.00  0.00     0.005 A 
ATOM     25  C   UNL A   1      32.608  17.751  25.746  1.00  0.00     0.005 A 
ATOM     26  C   UNL A   1      34.495  16.502  24.176  1.00  0.00     0.000 A 
ATOM     27  C   UNL A   1      32.595  16.359  25.625  1.00  0.00     0.000 A 
ATOM     28  C   UNL A   1      33.518  15.734  24.805  1.00  0.00     0.000 A 
ENDBRANCH  22  23
BRANCH  22  29
ATOM     29  C   UNL A   1      34.169  21.288  25.040  1.00  0.00    -0.031 A 
ATOM     30  C   UNL A   1      34.133  21.986  26.275  1.00  0.00     0.005 A 
ATOM     31  C   UNL A   1      35.037  21.813  24.069  1.00  0.00     0.005 A 
ATOM     32  C   UNL A   1      34.665  23.270  26.421  1.00  0.00     0.000 A 
ATOM     33  C   UNL A   1      35.597  23.099  24.224  1.00  0.00     0.000 A 
ATOM     34  C   UNL A   1      35.356  23.851  25.371  1.00  0.00     0.000 A 
ENDBRANCH  22  29
ENDBRANCH  19  22
ENDBRANCH  15  18
ENDBRANCH   5   7
ENDBRANCH   4   5
ENDBRANCH   3   4
ENDBRANCH   2   3
ENDBRANCH   1   2
BRANCH   1  35
ATOM     35  C   UNL A   1      33.500  30.193  26.595  1.00  0.00     0.202 C 
BRANCH  35  36
ATOM     36  C   UNL A   1      33.560  31.170  27.752  1.00  0.00     0.261 C 
BRANCH  36  37
ATOM     37  O   UNL A   1      34.849  31.761  27.805  1.00  0.00    -0.460 OA
BRANCH  37  38
ATOM     38  C   UNL A   1      35.526  31.558  28.953  1.00  0.00     0.338 C 
ATOM     39  O   UNL A   1      35.135  31.748  30.091  1.00  0.00    -0.246 OA
BRANCH  38  40
ATOM     40  C   UNL A   1      36.909  31.255  28.582  1.00  0.00     0.060 A 
ATOM     41  C   UNL A   1      37.076  30.072  27.865  1.00  0.00     0.016 A 
ATOM     42  C   UNL A   1      37.974  31.908  29.228  1.00  0.00     0.016 A 
ATOM     43  C   UNL A   1      38.258  29.399  28.025  1.00  0.00     0.010 A 
ATOM     44  C   UNL A   1      39.151  31.226  29.397  1.00  0.00     0.010 A 
ATOM     45  C   UNL A   1      39.232  29.943  28.872  1.00  0.00    -0.014 A 
BRANCH  45  46
ATOM     46  C   UNL A   1      40.402  29.141  29.108  1.00  0.00     0.031 A 
ATOM     47  C   UNL A   1      40.571  28.824  30.536  1.00  0.00     0.074 A 
ATOM     48  C   UNL A   1      41.210  28.723  28.121  1.00  0.00     0.049 A 
ATOM     49  N   UNL A   1      41.430  29.343  31.347  1.00  0.00    -0.248 NA
ATOM     50  C   UNL A   1      39.527  28.017  31.183  1.00  0.00     0.031 C 
ATOM     51  C   UNL A   1      40.975  28.743  26.677  1.00  0.00     0.029 A 
ATOM     52  N   UNL A   1      42.381  28.047  28.238  1.00  0.00    -0.354 N 
ATOM     53  C   UNL A   1      41.186  28.724  32.564  1.00  0.00     0.074 A 
ATOM     54  C   UNL A   1      39.883  28.121  32.463  1.00  0.00     0.031 C 
ATOM     55  C   UNL A   1      41.833  27.877  26.086  1.00  0.00     0.029 A 
ATOM     56  C   UNL A   1      42.740  27.352  27.093  1.00  0.00     0.049 A 
ATOM     57  H   UNL A   1      42.924  28.050  29.059  1.00  0.00     0.167 HD
ATOM     58  C   UNL A   1      42.196  28.502  33.445  1.00  0.00     0.034 A 
ATOM     59  C   UNL A   1      43.636  26.335  27.040  1.00  0.00     0.034 A 
ATOM     60  C   UNL A   1      43.348  29.318  33.150  1.00  0.00     0.049 A 
ATOM     61  C   UNL A   1      44.500  26.440  28.245  1.00  0.00     0.074 A 
ATOM     62  C   UNL A   1      43.561  30.676  33.009  1.00  0.00     0.029 A 
ATOM     63  N   UNL A   1      44.414  28.702  32.537  1.00  0.00    -0.354 N 
ATOM     64  N   UNL A   1      45.332  27.425  28.446  1.00  0.00    -0.248 NA
ATOM     65  C   UNL A   1      44.099  25.709  29.439  1.00  0.00     0.031 C 
ATOM     66  C   UNL A   1      44.464  30.793  31.913  1.00  0.00     0.029 A 
ATOM     67  C   UNL A   1      44.804  29.504  31.497  1.00  0.00     0.049 A 
ATOM     68  H   UNL A   1      44.820  27.845  32.797  1.00  0.00     0.167 HD
ATOM     69  C   UNL A   1      45.191  27.729  29.795  1.00  0.00     0.074 A 
ATOM     70  C   UNL A   1      44.503  26.575  30.375  1.00  0.00     0.031 C 
ATOM     71  C   UNL A   1      45.365  29.002  30.260  1.00  0.00     0.034 A 
BRANCH  58  72
ATOM     72  C   UNL A   1      42.283  27.281  34.320  1.00  0.00     0.023 A 
ATOM     73  C   UNL A   1      41.794  27.393  35.638  1.00  0.00     0.012 A 
ATOM     74  C   UNL A   1      43.049  26.131  34.014  1.00  0.00     0.148 A 
ATOM     75  C   UNL A   1      42.090  26.432  36.609  1.00  0.00     0.002 A 
ATOM     76  C   UNL A   1      43.261  25.134  34.956  1.00  0.00     0.091 A 
ATOM     77  F   UNL A   1      43.711  26.049  32.857  1.00  0.00    -0.205 F 
ATOM     78  C   UNL A   1      42.813  25.294  36.266  1.00  0.00     0.022 A 
BRANCH  76  79
ATOM     79  S   UNL A   1      44.138  23.625  34.531  1.00  0.00     0.127 S 
ATOM     80  O   UNL A   1      44.196  22.947  35.822  1.00  0.00    -0.237 OA
ATOM     81  O   UNL A   1      43.236  23.022  33.550  1.00  0.00    -0.237 OA
ATOM     82  O   UNL A   1      45.414  24.059  33.974  1.00  0.00    -0.744 OA
ENDBRANCH  76  79
ENDBRANCH  58  72
BRANCH  59  83
ATOM     83  C   UNL A   1      43.591  25.116  26.199  1.00  0.00     0.023 A 
ATOM     84  C   UNL A   1      44.558  24.923  25.194  1.00  0.00     0.012 A 
ATOM     85  C   UNL A   1      42.769  24.018  26.549  1.00  0.00     0.148 A 
ATOM     86  C   UNL A   1      44.713  23.676  24.572  1.00  0.00     0.002 A 
ATOM     87  C   UNL A   1      42.916  22.787  25.918  1.00  0.00     0.091 A 
ATOM     88  F   UNL A   1      41.908  24.151  27.566  1.00  0.00    -0.205 F 
ATOM     89  C   UNL A   1      43.896  22.609  24.937  1.00  0.00     0.022 A 
BRANCH  87  90
ATOM     90  S   UNL A   1      41.900  21.368  26.356  1.00  0.00     0.127 S 
ATOM     91  O   UNL A   1      40.561  21.828  25.986  1.00  0.00    -0.237 OA
ATOM     92  O   UNL A   1      42.450  20.325  25.496  1.00  0.00    -0.237 OA
ATOM     93  O   UNL A   1      42.086  21.169  27.788  1.00  0.00    -0.744 OA
ENDBRANCH  87  90
ENDBRANCH  59  83
BRANCH  71  94
ATOM     94  C   UNL A   1      45.938  30.038  29.324  1.00  0.00     0.023 A 
ATOM     95  C   UNL A   1      47.326  30.174  29.106  1.00  0.00     0.012 A 
ATOM     96  C   UNL A   1      45.053  30.757  28.503  1.00  0.00     0.148 A 
ATOM     97  C   UNL A   1      47.818  31.022  28.110  1.00  0.00     0.002 A 
ATOM     98  C   UNL A   1      45.543  31.562  27.481  1.00  0.00     0.091 A 
ATOM     99  F   UNL A   1      43.735  30.617  28.716  1.00  0.00    -0.205 F 
ATOM    100  C   UNL A   1      46.925  31.705  27.287  1.00  0.00     0.022 A 
BRANCH  98 101
ATOM    101  S   UNL A   1      44.443  32.356  26.309  1.00  0.00     0.127 S 
ATOM    102  O   UNL A   1      43.540  31.265  25.950  1.00  0.00    -0.237 OA
ATOM    103  O   UNL A   1      43.831  33.415  27.115  1.00  0.00    -0.237 OA
ATOM    104  O   UNL A   1      45.294  32.849  25.233  1.00  0.00    -0.744 OA
ENDBRANCH  98 101
ENDBRANCH  71  94
ENDBRANCH  45  46
ENDBRANCH  38  40
ENDBRANCH  37  38
ENDBRANCH  36  37
ENDBRANCH  35  36
ENDBRANCH   1  35
TORSDOF 21
ENDMDL
MODEL 2
REMARK VINA RESULT:     -12.3      1.648      2.923
REMARK SMILES Cc1c(C(=O)OCCOCCOC(=O)c2ccc(-c3c4nc(c(-c5cccc(S(=O)(=O)[O-])c5F)c5ccc([nH]5)c(-c5cccc(S(=O)(=O)[O-])c5F)c5nc(c(-c6cccc(S(=O)(=O)[O-])c6F)c6ccc3[nH]6)C=C5)C=C4)cc2)oc2c1/C(=N/NC(=O)C(c1ccccc1)c1ccccc1)CCC2
REMARK SMILES IDX 9 1 8 2 7 3 6 4 4 5 5 6 3 7 1 8 2 9 80 10 78 11 79 12 81 13
REMARK SMILES IDX 101 14 82 15 99 16 100 17 83 18 84 19 85 21 86 22 87 23
REMARK SMILES IDX 88 24 92 25 89 26 91 27 90 28 93 29 94 30 98 31 95 32 97 33
REMARK SMILES IDX 96 34 10 35 11 36 12 37 13 38 14 39 15 40 16 41 77 42 17 43
REMARK SMILES IDX 76 44 18 45 19 46 20 47 70 48 21 49 75 50 69 51 71 52 22 53
REMARK SMILES IDX 74 54 68 55 67 56 23 58 55 59 35 60 54 61 36 62 39 63 53 64
REMARK SMILES IDX 72 65 37 66 38 67 52 69 73 70 40 71 24 72 25 73 33 74 26 75
REMARK SMILES IDX 28 76 34 77 27 78 29 79 30 80 31 81 32 82 56 83 57 84 65 85
REMARK SMILES IDX 58 86 60 87 66 88 59 89 61 90 62 91 63 92 64 93 41 94 42 95
REMARK SMILES IDX 50 96 43 97 45 98 51 99 44 100 46 101 47 102 48 103 49 104
REMARK H PARENT 83 20 71 57 39 68
REMARK Flexibility Score: inf
ROOT
ATOM      1  O   UNL A   1      32.139  28.752  25.980  1.00  0.00    -0.374 OA
ENDROOT
BRANCH   1   2
ATOM      2  C   UNL A   1      32.119  29.471  24.742  1.00  0.00     0.202 C 
BRANCH   2   3
ATOM      3  C   UNL A   1      30.734  29.945  24.294  1.00  0.00     0.261 C 
BRANCH   3   4
ATOM      4  O   UNL A   1      30.467  29.524  22.957  1.00  0.00    -0.457 OA
BRANCH   4   5
ATOM      5  C   UNL A   1      29.537  28.529  22.784  1.00  0.00     0.374 C 
ATOM      6  O   UNL A   1      28.387  28.683  22.464  1.00  0.00    -0.242 OA
BRANCH   5   7
ATOM      7  C   UNL A   1      30.247  27.269  22.928  1.00  0.00     0.215 A 
ATOM      8  C   UNL A   1      29.065  25.958  24.806  1.00  0.00     0.049 C 
ATOM      9  C   UNL A   1      30.112  26.165  23.776  1.00  0.00     0.012 A 
ATOM     10  C   UNL A   1      31.189  25.294  23.426  1.00  0.00     0.043 A 
ATOM     11  O   UNL A   1      31.191  27.018  21.980  1.00  0.00    -0.453 OA
ATOM     12  C   UNL A   1      31.714  25.828  22.259  1.00  0.00     0.114 A 
ATOM     13  C   UNL A   1      31.868  24.133  24.007  1.00  0.00     0.072 C 
ATOM     14  C   UNL A   1      32.825  25.377  21.394  1.00  0.00     0.076 C 
ATOM     15  N   UNL A   1      31.390  23.511  25.042  1.00  0.00    -0.177 NA
ATOM     16  C   UNL A   1      33.191  23.949  23.355  1.00  0.00     0.059 C 
ATOM     17  C   UNL A   1      33.221  23.987  21.842  1.00  0.00     0.014 C 
BRANCH  15  18
ATOM     18  N   UNL A   1      31.916  22.497  25.831  1.00  0.00    -0.246 N 
ATOM     19  C   UNL A   1      32.900  21.528  25.906  1.00  0.00     0.252 C 
ATOM     20  H   UNL A   1      31.382  22.449  26.657  1.00  0.00     0.193 HD
ATOM     21  O   UNL A   1      32.944  20.927  26.999  1.00  0.00    -0.272 OA
BRANCH  19  22
ATOM     22  C   UNL A   1      33.957  21.104  24.821  1.00  0.00     0.140 C 
BRANCH  22  23
ATOM     23  C   UNL A   1      35.364  21.648  25.277  1.00  0.00    -0.031 A 
ATOM     24  C   UNL A   1      35.593  22.923  25.821  1.00  0.00     0.005 A 
ATOM     25  C   UNL A   1      36.525  20.880  24.990  1.00  0.00     0.005 A 
ATOM     26  C   UNL A   1      36.891  23.472  25.845  1.00  0.00     0.000 A 
ATOM     27  C   UNL A   1      37.809  21.428  25.004  1.00  0.00     0.000 A 
ATOM     28  C   UNL A   1      37.989  22.744  25.395  1.00  0.00     0.000 A 
ENDBRANCH  22  23
BRANCH  22  29
ATOM     29  C   UNL A   1      33.638  19.613  24.428  1.00  0.00    -0.031 A 
ATOM     30  C   UNL A   1      34.645  18.642  24.665  1.00  0.00     0.005 A 
ATOM     31  C   UNL A   1      32.501  19.157  23.744  1.00  0.00     0.005 A 
ATOM     32  C   UNL A   1      34.663  17.411  24.004  1.00  0.00     0.000 A 
ATOM     33  C   UNL A   1      32.505  17.904  23.094  1.00  0.00     0.000 A 
ATOM     34  C   UNL A   1      33.612  17.062  23.172  1.00  0.00     0.000 A 
ENDBRANCH  22  29
ENDBRANCH  19  22
ENDBRANCH  15  18
ENDBRANCH   5   7
ENDBRANCH   4   5
ENDBRANCH   3   4
ENDBRANCH   2   3
ENDBRANCH   1   2
BRANCH   1  35
ATOM     35  C   UNL A   1      32.516  29.480  27.149  1.00  0.00     0.202 C 
BRANCH  35  36
ATOM     36  C   UNL A   1      33.580  30.547  26.982  1.00  0.00     0.261 C 
BRANCH  36  37
ATOM     37  O   UNL A   1      34.633  30.313  27.903  1.00  0.00    -0.460 OA
BRANCH  37  38
ATOM     38  C   UNL A   1      35.116  31.414  28.514  1.00  0.00     0.338 C 
ATOM     39  O   UNL A   1      34.770  32.570  28.347  1.00  0.00    -0.246 OA
BRANCH  38  40
ATOM     40  C   UNL A   1      36.289  30.993  29.282  1.00  0.00     0.060 A 
ATOM     41  C   UNL A   1      37.406  31.813  29.139  1.00  0.00     0.016 A 
ATOM     42  C   UNL A   1      36.367  29.685  29.794  1.00  0.00     0.016 A 
ATOM     43  C   UNL A   1      38.639  31.226  29.252  1.00  0.00     0.010 A 
ATOM     44  C   UNL A   1      37.601  29.097  29.894  1.00  0.00     0.010 A 
ATOM     45  C   UNL A   1      38.706  29.854  29.527  1.00  0.00    -0.014 A 
BRANCH  45  46
ATOM     46  C   UNL A   1      40.014  29.257  29.512  1.00  0.00     0.031 A 
ATOM     47  C   UNL A   1      40.602  29.188  30.860  1.00  0.00     0.074 A 
ATOM     48  C   UNL A   1      40.594  28.801  28.390  1.00  0.00     0.049 A 
ATOM     49  N   UNL A   1      41.544  29.932  31.332  1.00  0.00    -0.248 NA
ATOM     50  C   UNL A   1      39.915  28.361  31.861  1.00  0.00     0.031 C 
ATOM     51  C   UNL A   1      39.989  28.569  27.078  1.00  0.00     0.029 A 
ATOM     52  N   UNL A   1      41.850  28.310  28.246  1.00  0.00    -0.354 N 
ATOM     53  C   UNL A   1      41.735  29.481  32.630  1.00  0.00     0.074 A 
ATOM     54  C   UNL A   1      40.571  28.704  32.969  1.00  0.00     0.031 C 
ATOM     55  C   UNL A   1      40.795  27.743  26.370  1.00  0.00     0.029 A 
ATOM     56  C   UNL A   1      42.009  27.500  27.132  1.00  0.00     0.049 A 
ATOM     57  H   UNL A   1      42.581  28.510  28.875  1.00  0.00     0.167 HD
ATOM     58  C   UNL A   1      42.962  29.531  33.209  1.00  0.00     0.034 A 
ATOM     59  C   UNL A   1      43.017  26.613  26.941  1.00  0.00     0.034 A 
ATOM     60  C   UNL A   1      43.843  30.434  32.512  1.00  0.00     0.049 A 
ATOM     61  C   UNL A   1      44.136  27.014  27.834  1.00  0.00     0.074 A 
ATOM     62  C   UNL A   1      43.781  31.771  32.166  1.00  0.00     0.029 A 
ATOM     63  N   UNL A   1      44.799  29.876  31.695  1.00  0.00    -0.354 N 
ATOM     64  N   UNL A   1      44.814  28.118  27.681  1.00  0.00    -0.248 NA
ATOM     65  C   UNL A   1      44.190  26.429  29.167  1.00  0.00     0.031 C 
ATOM     66  C   UNL A   1      44.333  31.835  30.853  1.00  0.00     0.029 A 
ATOM     67  C   UNL A   1      44.763  30.553  30.505  1.00  0.00     0.049 A 
ATOM     68  H   UNL A   1      45.397  29.129  31.924  1.00  0.00     0.167 HD
ATOM     69  C   UNL A   1      44.982  28.604  28.973  1.00  0.00     0.074 A 
ATOM     70  C   UNL A   1      44.674  27.473  29.847  1.00  0.00     0.031 C 
ATOM     71  C   UNL A   1      45.056  29.945  29.224  1.00  0.00     0.034 A 
BRANCH  58  72
ATOM     72  C   UNL A   1      43.479  28.479  34.155  1.00  0.00     0.023 A 
ATOM     73  C   UNL A   1      44.103  28.924  35.338  1.00  0.00     0.012 A 
ATOM     74  C   UNL A   1      43.625  27.111  33.826  1.00  0.00     0.148 A 
ATOM     75  C   UNL A   1      44.868  28.060  36.127  1.00  0.00     0.002 A 
ATOM     76  C   UNL A   1      44.306  26.237  34.662  1.00  0.00     0.091 A 
ATOM     77  F   UNL A   1      43.238  26.658  32.630  1.00  0.00    -0.205 F 
ATOM     78  C   UNL A   1      44.959  26.712  35.797  1.00  0.00     0.022 A 
BRANCH  76  79
ATOM     79  S   UNL A   1      44.393  24.480  34.298  1.00  0.00     0.127 S 
ATOM     80  O   UNL A   1      44.910  24.488  32.934  1.00  0.00    -0.237 OA
ATOM     81  O   UNL A   1      45.332  24.011  35.318  1.00  0.00    -0.237 OA
ATOM     82  O   UNL A   1      43.034  23.979  34.469  1.00  0.00    -0.744 OA
ENDBRANCH  76  79
ENDBRANCH  58  72
BRANCH  59  83
ATOM     83  C   UNL A   1      42.958  25.284  26.289  1.00  0.00     0.023 A 
ATOM     84  C   UNL A   1      43.670  25.058  25.096  1.00  0.00     0.012 A 
ATOM     85  C   UNL A   1      42.426  24.162  26.966  1.00  0.00     0.148 A 
ATOM     86  C   UNL A   1      43.861  23.759  24.604  1.00  0.00     0.002 A 
ATOM     87  C   UNL A   1      42.603  22.876  26.467  1.00  0.00     0.091 A 
ATOM     88  F   UNL A   1      41.827  24.343  28.151  1.00  0.00    -0.205 F 
ATOM     89  C   UNL A   1      43.332  22.669  25.291  1.00  0.00     0.022 A 
BRANCH  87  90
ATOM     90  S   UNL A   1      41.956  21.428  27.316  1.00  0.00     0.127 S 
ATOM     91  O   UNL A   1      42.353  20.345  26.416  1.00  0.00    -0.237 OA
ATOM     92  O   UNL A   1      42.680  21.471  28.583  1.00  0.00    -0.237 OA
ATOM     93  O   UNL A   1      40.514  21.629  27.407  1.00  0.00    -0.744 OA
ENDBRANCH  87  90
ENDBRANCH  59  83
BRANCH  71  94
ATOM     94  C   UNL A   1      45.183  30.891  28.055  1.00  0.00     0.023 A 
ATOM     95  C   UNL A   1      44.063  31.349  27.328  1.00  0.00     0.012 A 
ATOM     96  C   UNL A   1      46.434  31.481  27.807  1.00  0.00     0.148 A 
ATOM     97  C   UNL A   1      44.192  32.352  26.365  1.00  0.00     0.002 A 
ATOM     98  C   UNL A   1      46.551  32.512  26.883  1.00  0.00     0.091 A 
ATOM     99  F   UNL A   1      47.492  31.040  28.507  1.00  0.00    -0.205 F 
ATOM    100  C   UNL A   1      45.435  32.945  26.152  1.00  0.00     0.022 A 
BRANCH  98 101
ATOM    101  S   UNL A   1      48.094  33.401  26.666  1.00  0.00     0.127 S 
ATOM    102  O   UNL A   1      48.281  34.013  27.980  1.00  0.00    -0.237 OA
ATOM    103  O   UNL A   1      49.038  32.326  26.353  1.00  0.00    -0.237 OA
ATOM    104  O   UNL A   1      47.869  34.330  25.565  1.00  0.00    -0.744 OA
ENDBRANCH  98 101
ENDBRANCH  71  94
ENDBRANCH  45  46
ENDBRANCH  38  40
ENDBRANCH  37  38
ENDBRANCH  36  37
ENDBRANCH  35  36
ENDBRANCH   1  35
TORSDOF 21
ENDMDL
MODEL 3
REMARK VINA RESULT:     -12.1      0.973      2.457
REMARK SMILES Cc1c(C(=O)OCCOCCOC(=O)c2ccc(-c3c4nc(c(-c5cccc(S(=O)(=O)[O-])c5F)c5ccc([nH]5)c(-c5cccc(S(=O)(=O)[O-])c5F)c5nc(c(-c6cccc(S(=O)(=O)[O-])c6F)c6ccc3[nH]6)C=C5)C=C4)cc2)oc2c1/C(=N/NC(=O)C(c1ccccc1)c1ccccc1)CCC2
REMARK SMILES IDX 9 1 8 2 7 3 6 4 4 5 5 6 3 7 1 8 2 9 80 10 78 11 79 12 81 13
REMARK SMILES IDX 101 14 82 15 99 16 100 17 83 18 84 19 85 21 86 22 87 23
REMARK SMILES IDX 88 24 92 25 89 26 91 27 90 28 93 29 94 30 98 31 95 32 97 33
REMARK SMILES IDX 96 34 10 35 11 36 12 37 13 38 14 39 15 40 16 41 77 42 17 43
REMARK SMILES IDX 76 44 18 45 19 46 20 47 70 48 21 49 75 50 69 51 71 52 22 53
REMARK SMILES IDX 74 54 68 55 67 56 23 58 55 59 35 60 54 61 36 62 39 63 53 64
REMARK SMILES IDX 72 65 37 66 38 67 52 69 73 70 40 71 24 72 25 73 33 74 26 75
REMARK SMILES IDX 28 76 34 77 27 78 29 79 30 80 31 81 32 82 56 83 57 84 65 85
REMARK SMILES IDX 58 86 60 87 66 88 59 89 61 90 62 91 63 92 64 93 41 94 42 95
REMARK SMILES IDX 50 96 43 97 45 98 51 99 44 100 46 101 47 102 48 103 49 104
REMARK H PARENT 83 20 71 57 39 68
REMARK Flexibility Score: inf
ROOT
ATOM      1  O   UNL A   1      34.395  30.867  27.205  1.00  0.00    -0.374 OA
ENDROOT
BRANCH   1   2
ATOM      2  C   UNL A   1      32.976  30.724  27.077  1.00  0.00     0.202 C 
BRANCH   2   3
ATOM      3  C   UNL A   1      32.497  29.309  26.741  1.00  0.00     0.261 C 
BRANCH   3   4
ATOM      4  O   UNL A   1      32.898  28.942  25.422  1.00  0.00    -0.457 OA
BRANCH   4   5
ATOM      5  C   UNL A   1      31.919  28.502  24.566  1.00  0.00     0.374 C 
ATOM      6  O   UNL A   1      31.383  29.156  23.710  1.00  0.00    -0.242 OA
BRANCH   5   7
ATOM      7  C   UNL A   1      31.768  27.077  24.807  1.00  0.00     0.215 A 
ATOM      8  C   UNL A   1      33.525  25.884  23.345  1.00  0.00     0.049 C 
ATOM      9  C   UNL A   1      32.394  25.931  24.305  1.00  0.00     0.012 A 
ATOM     10  C   UNL A   1      31.712  24.836  24.919  1.00  0.00     0.043 A 
ATOM     11  O   UNL A   1      30.917  26.742  25.815  1.00  0.00    -0.453 OA
ATOM     12  C   UNL A   1      30.922  25.415  25.901  1.00  0.00     0.114 A 
ATOM     13  C   UNL A   1      31.589  23.391  24.712  1.00  0.00     0.072 C 
ATOM     14  C   UNL A   1      30.002  24.815  26.891  1.00  0.00     0.076 C 
ATOM     15  N   UNL A   1      32.359  22.753  23.883  1.00  0.00    -0.177 NA
ATOM     16  C   UNL A   1      30.390  22.883  25.428  1.00  0.00     0.059 C 
ATOM     17  C   UNL A   1      30.216  23.317  26.869  1.00  0.00     0.014 C 
BRANCH  15  18
ATOM     18  N   UNL A   1      32.338  21.441  23.431  1.00  0.00    -0.246 N 
ATOM     19  C   UNL A   1      32.905  20.189  23.589  1.00  0.00     0.252 C 
ATOM     20  H   UNL A   1      31.656  21.376  22.724  1.00  0.00     0.193 HD
ATOM     21  O   UNL A   1      32.365  19.292  22.909  1.00  0.00    -0.272 OA
BRANCH  19  22
ATOM     22  C   UNL A   1      34.108  19.755  24.506  1.00  0.00     0.140 C 
BRANCH  22  23
ATOM     23  C   UNL A   1      34.427  20.950  25.482  1.00  0.00    -0.031 A 
ATOM     24  C   UNL A   1      33.754  21.202  26.690  1.00  0.00     0.005 A 
ATOM     25  C   UNL A   1      35.349  21.949  25.068  1.00  0.00     0.005 A 
ATOM     26  C   UNL A   1      33.826  22.469  27.303  1.00  0.00     0.000 A 
ATOM     27  C   UNL A   1      35.412  23.208  25.669  1.00  0.00     0.000 A 
ATOM     28  C   UNL A   1      34.616  23.483  26.769  1.00  0.00     0.000 A 
ENDBRANCH  22  23
BRANCH  22  29
ATOM     29  C   UNL A   1      33.838  18.267  24.943  1.00  0.00    -0.031 A 
ATOM     30  C   UNL A   1      34.707  17.266  24.436  1.00  0.00     0.005 A 
ATOM     31  C   UNL A   1      32.741  17.802  25.685  1.00  0.00     0.005 A 
ATOM     32  C   UNL A   1      34.347  15.917  24.396  1.00  0.00     0.000 A 
ATOM     33  C   UNL A   1      32.387  16.436  25.668  1.00  0.00     0.000 A 
ATOM     34  C   UNL A   1      33.155  15.507  24.970  1.00  0.00     0.000 A 
ENDBRANCH  22  29
ENDBRANCH  19  22
ENDBRANCH  15  18
ENDBRANCH   5   7
ENDBRANCH   4   5
ENDBRANCH   3   4
ENDBRANCH   2   3
ENDBRANCH   1   2
BRANCH   1  35
ATOM     35  C   UNL A   1      34.878  32.098  27.744  1.00  0.00     0.202 C 
BRANCH  35  36
ATOM     36  C   UNL A   1      34.442  32.451  29.152  1.00  0.00     0.261 C 
BRANCH  36  37
ATOM     37  O   UNL A   1      35.114  31.613  30.079  1.00  0.00    -0.460 OA
BRANCH  37  38
ATOM     38  C   UNL A   1      36.236  32.134  30.615  1.00  0.00     0.338 C 
ATOM     39  O   UNL A   1      36.324  33.040  31.423  1.00  0.00    -0.246 OA
BRANCH  38  40
ATOM     40  C   UNL A   1      37.364  31.544  29.891  1.00  0.00     0.060 A 
ATOM     41  C   UNL A   1      37.210  30.199  29.564  1.00  0.00     0.016 A 
ATOM     42  C   UNL A   1      38.614  32.189  29.882  1.00  0.00     0.016 A 
ATOM     43  C   UNL A   1      38.343  29.432  29.495  1.00  0.00     0.010 A 
ATOM     44  C   UNL A   1      39.745  31.418  29.825  1.00  0.00     0.010 A 
ATOM     45  C   UNL A   1      39.582  30.043  29.729  1.00  0.00    -0.014 A 
BRANCH  45  46
ATOM     46  C   UNL A   1      40.730  29.177  29.771  1.00  0.00     0.031 A 
ATOM     47  C   UNL A   1      41.110  28.837  31.153  1.00  0.00     0.074 A 
ATOM     48  C   UNL A   1      41.344  28.726  28.666  1.00  0.00     0.049 A 
ATOM     49  N   UNL A   1      42.116  29.301  31.814  1.00  0.00    -0.248 NA
ATOM     50  C   UNL A   1      40.143  28.081  31.959  1.00  0.00     0.031 C 
ATOM     51  C   UNL A   1      40.880  28.774  27.279  1.00  0.00     0.029 A 
ATOM     52  N   UNL A   1      42.479  27.988  28.590  1.00  0.00    -0.354 N 
ATOM     53  C   UNL A   1      42.039  28.683  33.054  1.00  0.00     0.074 A 
ATOM     54  C   UNL A   1      40.706  28.151  33.165  1.00  0.00     0.031 C 
ATOM     55  C   UNL A   1      41.582  27.870  26.556  1.00  0.00     0.029 A 
ATOM     56  C   UNL A   1      42.610  27.286  27.402  1.00  0.00     0.049 A 
ATOM     57  H   UNL A   1      43.147  27.954  29.312  1.00  0.00     0.167 HD
ATOM     58  C   UNL A   1      43.165  28.399  33.760  1.00  0.00     0.034 A 
ATOM     59  C   UNL A   1      43.430  26.224  27.202  1.00  0.00     0.034 A 
ATOM     60  C   UNL A   1      44.296  29.155  33.282  1.00  0.00     0.049 A 
ATOM     61  C   UNL A   1      44.482  26.271  28.252  1.00  0.00     0.074 A 
ATOM     62  C   UNL A   1      44.557  30.501  33.111  1.00  0.00     0.029 A 
ATOM     63  N   UNL A   1      45.214  28.490  32.504  1.00  0.00    -0.354 N 
ATOM     64  N   UNL A   1      45.387  27.207  28.317  1.00  0.00    -0.248 NA
ATOM     65  C   UNL A   1      44.240  25.550  29.494  1.00  0.00     0.031 C 
ATOM     66  C   UNL A   1      45.276  30.581  31.883  1.00  0.00     0.029 A 
ATOM     67  C   UNL A   1      45.474  29.280  31.415  1.00  0.00     0.049 A 
ATOM     68  H   UNL A   1      45.610  27.609  32.693  1.00  0.00     0.167 HD
ATOM     69  C   UNL A   1      45.483  27.505  29.671  1.00  0.00     0.074 A 
ATOM     70  C   UNL A   1      44.836  26.383  30.353  1.00  0.00     0.031 C 
ATOM     71  C   UNL A   1      45.799  28.762  30.104  1.00  0.00     0.034 A 
BRANCH  58  72
ATOM     72  C   UNL A   1      43.325  27.166  34.607  1.00  0.00     0.023 A 
ATOM     73  C   UNL A   1      43.338  27.339  36.006  1.00  0.00     0.012 A 
ATOM     74  C   UNL A   1      43.729  25.903  34.112  1.00  0.00     0.148 A 
ATOM     75  C   UNL A   1      43.770  26.323  36.862  1.00  0.00     0.002 A 
ATOM     76  C   UNL A   1      44.067  24.867  34.971  1.00  0.00     0.091 A 
ATOM     77  F   UNL A   1      43.936  25.724  32.805  1.00  0.00    -0.205 F 
ATOM     78  C   UNL A   1      44.123  25.080  36.347  1.00  0.00     0.022 A 
BRANCH  76  79
ATOM     79  S   UNL A   1      44.470  23.232  34.343  1.00  0.00     0.127 S 
ATOM     80  O   UNL A   1      45.788  23.459  33.760  1.00  0.00    -0.237 OA
ATOM     81  O   UNL A   1      44.459  22.431  35.567  1.00  0.00    -0.237 OA
ATOM     82  O   UNL A   1      43.401  22.900  33.408  1.00  0.00    -0.744 OA
ENDBRANCH  76  79
ENDBRANCH  58  72
BRANCH  59  83
ATOM     83  C   UNL A   1      43.183  25.017  26.378  1.00  0.00     0.023 A 
ATOM     84  C   UNL A   1      44.090  24.668  25.359  1.00  0.00     0.012 A 
ATOM     85  C   UNL A   1      42.210  24.062  26.756  1.00  0.00     0.148 A 
ATOM     86  C   UNL A   1      44.041  23.406  24.751  1.00  0.00     0.002 A 
ATOM     87  C   UNL A   1      42.155  22.817  26.139  1.00  0.00     0.091 A 
ATOM     88  F   UNL A   1      41.398  24.335  27.786  1.00  0.00    -0.205 F 
ATOM     89  C   UNL A   1      43.077  22.480  25.143  1.00  0.00     0.022 A 
BRANCH  87  90
ATOM     90  S   UNL A   1      40.942  21.575  26.612  1.00  0.00     0.127 S 
ATOM     91  O   UNL A   1      39.684  22.217  26.229  1.00  0.00    -0.237 OA
ATOM     92  O   UNL A   1      41.330  20.440  25.780  1.00  0.00    -0.237 OA
ATOM     93  O   UNL A   1      41.101  21.387  28.049  1.00  0.00    -0.744 OA
ENDBRANCH  87  90
ENDBRANCH  59  83
BRANCH  71  94
ATOM     94  C   UNL A   1      46.269  29.775  29.088  1.00  0.00     0.023 A 
ATOM     95  C   UNL A   1      47.605  29.831  28.639  1.00  0.00     0.012 A 
ATOM     96  C   UNL A   1      45.304  30.558  28.432  1.00  0.00     0.148 A 
ATOM     97  C   UNL A   1      47.973  30.662  27.578  1.00  0.00     0.002 A 
ATOM     98  C   UNL A   1      45.663  31.347  27.346  1.00  0.00     0.091 A 
ATOM     99  F   UNL A   1      44.035  30.494  28.866  1.00  0.00    -0.205 F 
ATOM    100  C   UNL A   1      46.998  31.410  26.921  1.00  0.00     0.022 A 
BRANCH  98 101
ATOM    101  S   UNL A   1      44.431  32.224  26.381  1.00  0.00     0.127 S 
ATOM    102  O   UNL A   1      43.464  31.168  26.089  1.00  0.00    -0.237 OA
ATOM    103  O   UNL A   1      43.957  33.242  27.321  1.00  0.00    -0.237 OA
ATOM    104  O   UNL A   1      45.139  32.766  25.228  1.00  0.00    -0.744 OA
ENDBRANCH  98 101
ENDBRANCH  71  94
ENDBRANCH  45  46
ENDBRANCH  38  40
ENDBRANCH  37  38
ENDBRANCH  36  37
ENDBRANCH  35  36
ENDBRANCH   1  35
TORSDOF 21
ENDMDL
