MODEL 1
REMARK VINA RESULT:     -10.5      0.000      0.000
REMARK SMILES NC(=O)COc1ccc(/C=C2\SC(=S)N(CCC(=O)OCCOCCOC(=O)c3ccc(-c4c5nc(c(-c6cccc(S(=O)(=O)[O-])c6F)c6ccc([nH]6)c(-c6cccc(S(=O)(=O)[O-])c6F)c6nc(c(-c7cccc(S(=O)(=O)[O-])c7F)c7ccc4[nH]7)C=C6)C=C5)cc3)C2=O)cc1
REMARK SMILES IDX 21 1 20 2 18 3 19 4 17 5 16 6 15 7 10 8 11 9 12 10 92 11
REMARK SMILES IDX 13 12 93 13 14 14 9 15 6 16 7 17 95 18 8 19 94 20 5 21 4 22
REMARK SMILES IDX 2 23 1 24 3 27 22 28 23 29 24 30 25 31 26 32 27 33 28 34
REMARK SMILES IDX 29 35 30 36 91 37 31 38 90 39 32 40 33 41 34 42 84 43 35 44
REMARK SMILES IDX 89 45 83 46 85 47 36 48 88 49 82 50 81 51 37 53 69 54 49 55
REMARK SMILES IDX 68 56 50 57 53 58 67 59 86 60 51 61 52 62 66 64 87 65 54 66
REMARK SMILES IDX 38 67 39 68 47 69 40 70 42 71 48 72 41 73 43 74 44 75 45 76
REMARK SMILES IDX 46 77 70 78 71 79 79 80 72 81 74 82 80 83 73 84 75 85 76 86
REMARK SMILES IDX 77 87 78 88 55 89 56 90 64 91 57 92 59 93 65 94 58 95 60 96
REMARK SMILES IDX 61 97 62 98 63 99
REMARK H PARENT 1 25 1 26 85 52 53 63
REMARK Flexibility Score: inf
ROOT
ATOM      1  C   UNL A   1      33.340  27.639  24.186  1.00  0.00     0.261 C 
ENDROOT
BRANCH   1   2
ATOM      2  O   UNL A   1      32.960  27.243  22.849  1.00  0.00    -0.463 OA
BRANCH   2   3
ATOM      3  C   UNL A   1      31.690  26.811  22.659  1.00  0.00     0.307 C 
ATOM      4  O   UNL A   1      30.968  27.129  21.723  1.00  0.00    -0.252 OA
BRANCH   3   5
ATOM      5  C   UNL A   1      31.236  25.887  23.770  1.00  0.00     0.144 C 
BRANCH   5   6
ATOM      6  C   UNL A   1      31.486  24.395  23.523  1.00  0.00     0.139 C 
BRANCH   6   7
ATOM      7  N   UNL A   1      32.592  23.853  24.321  1.00  0.00    -0.292 N 
ATOM      8  C   UNL A   1      36.146  23.629  24.497  1.00  0.00     0.029 C 
ATOM      9  C   UNL A   1      34.855  23.437  24.764  1.00  0.00     0.081 C 
ATOM     10  S   UNL A   1      34.086  22.769  26.133  1.00  0.00    -0.054 SA
ATOM     11  C   UNL A   1      33.850  23.840  23.773  1.00  0.00     0.266 C 
ATOM     12  C   UNL A   1      32.487  23.250  25.559  1.00  0.00     0.148 C 
ATOM     13  O   UNL A   1      34.122  24.040  22.599  1.00  0.00    -0.268 OA
ATOM     14  S   UNL A   1      31.102  22.962  26.441  1.00  0.00    -0.052 S 
BRANCH   8  15
ATOM     15  C   UNL A   1      37.257  23.151  25.299  1.00  0.00    -0.024 A 
ATOM     16  C   UNL A   1      39.601  22.262  26.535  1.00  0.00     0.120 A 
ATOM     17  C   UNL A   1      39.120  23.553  26.753  1.00  0.00     0.047 A 
ATOM     18  C   UNL A   1      38.853  21.391  25.749  1.00  0.00     0.047 A 
ATOM     19  C   UNL A   1      37.974  24.017  26.112  1.00  0.00     0.012 A 
ATOM     20  C   UNL A   1      37.670  21.825  25.159  1.00  0.00     0.012 A 
BRANCH  16  21
ATOM     21  O   UNL A   1      40.771  21.946  27.167  1.00  0.00    -0.484 OA
BRANCH  21  22
ATOM     22  C   UNL A   1      41.081  20.556  27.271  1.00  0.00     0.329 C 
BRANCH  22  23
ATOM     23  C   UNL A   1      42.115  20.093  26.247  1.00  0.00     0.255 C 
ATOM     24  N   UNL A   1      43.360  20.638  26.396  1.00  0.00    -0.367 N 
ATOM     25  H   UNL A   1      44.084  20.391  25.776  1.00  0.00     0.159 HD
ATOM     26  H   UNL A   1      43.533  21.279  27.124  1.00  0.00     0.159 HD
ATOM     27  O   UNL A   1      41.899  19.263  25.372  1.00  0.00    -0.271 OA
ENDBRANCH  22  23
ENDBRANCH  21  22
ENDBRANCH  16  21
ENDBRANCH   8  15
ENDBRANCH   6   7
ENDBRANCH   5   6
ENDBRANCH   3   5
ENDBRANCH   2   3
ENDBRANCH   1   2
BRANCH   1  28
ATOM     28  C   UNL A   1      33.161  29.142  24.458  1.00  0.00     0.202 C 
BRANCH  28  29
ATOM     29  O   UNL A   1      31.911  29.512  25.049  1.00  0.00    -0.374 OA
BRANCH  29  30
ATOM     30  C   UNL A   1      32.006  30.299  26.235  1.00  0.00     0.202 C 
BRANCH  30  31
ATOM     31  C   UNL A   1      33.426  30.691  26.674  1.00  0.00     0.261 C 
BRANCH  31  32
ATOM     32  O   UNL A   1      33.437  31.583  27.803  1.00  0.00    -0.460 OA
BRANCH  32  33
ATOM     33  C   UNL A   1      34.469  32.462  27.832  1.00  0.00     0.338 C 
ATOM     34  O   UNL A   1      34.419  33.647  27.570  1.00  0.00    -0.246 OA
BRANCH  33  35
ATOM     35  C   UNL A   1      35.684  31.815  28.389  1.00  0.00     0.060 A 
ATOM     36  C   UNL A   1      35.534  30.547  28.966  1.00  0.00     0.016 A 
ATOM     37  C   UNL A   1      36.931  32.435  28.402  1.00  0.00     0.016 A 
ATOM     38  C   UNL A   1      36.613  29.911  29.595  1.00  0.00     0.010 A 
ATOM     39  C   UNL A   1      38.007  31.793  29.034  1.00  0.00     0.010 A 
ATOM     40  C   UNL A   1      37.864  30.536  29.660  1.00  0.00    -0.014 A 
BRANCH  40  41
ATOM     41  C   UNL A   1      38.982  29.965  30.482  1.00  0.00     0.031 A 
ATOM     42  C   UNL A   1      39.263  30.567  31.844  1.00  0.00     0.074 A 
ATOM     43  C   UNL A   1      39.768  28.955  30.045  1.00  0.00     0.049 A 
ATOM     44  N   UNL A   1      40.230  30.304  32.687  1.00  0.00    -0.248 NA
ATOM     45  C   UNL A   1      38.332  31.609  32.316  1.00  0.00     0.031 C 
ATOM     46  C   UNL A   1      39.635  28.250  28.769  1.00  0.00     0.029 A 
ATOM     47  N   UNL A   1      40.891  28.388  30.612  1.00  0.00    -0.354 N 
ATOM     48  C   UNL A   1      40.027  31.149  33.776  1.00  0.00     0.074 A 
ATOM     49  C   UNL A   1      38.892  31.983  33.455  1.00  0.00     0.031 C 
ATOM     50  C   UNL A   1      40.683  27.420  28.609  1.00  0.00     0.029 A 
ATOM     51  C   UNL A   1      41.572  27.540  29.763  1.00  0.00     0.049 A 
ATOM     52  H   UNL A   1      41.179  28.570  31.536  1.00  0.00     0.167 HD
ATOM     53  C   UNL A   1      40.679  31.193  34.963  1.00  0.00     0.034 A 
ATOM     54  C   UNL A   1      42.789  26.962  29.877  1.00  0.00     0.034 A 
ATOM     55  C   UNL A   1      41.785  30.344  35.307  1.00  0.00     0.049 A 
ATOM     56  C   UNL A   1      43.566  27.113  31.153  1.00  0.00     0.074 A 
ATOM     57  C   UNL A   1      42.443  30.236  36.521  1.00  0.00     0.029 A 
ATOM     58  N   UNL A   1      42.411  29.472  34.435  1.00  0.00    -0.354 N 
ATOM     59  N   UNL A   1      43.270  27.806  32.225  1.00  0.00    -0.248 NA
ATOM     60  C   UNL A   1      44.810  26.337  31.262  1.00  0.00     0.031 C 
ATOM     61  C   UNL A   1      43.497  29.331  36.368  1.00  0.00     0.029 A 
ATOM     62  C   UNL A   1      43.469  28.845  35.071  1.00  0.00     0.049 A 
ATOM     63  H   UNL A   1      42.145  29.320  33.500  1.00  0.00     0.167 HD
ATOM     64  C   UNL A   1      44.241  27.478  33.164  1.00  0.00     0.074 A 
ATOM     65  C   UNL A   1      45.153  26.555  32.524  1.00  0.00     0.031 C 
ATOM     66  C   UNL A   1      44.347  27.889  34.451  1.00  0.00     0.034 A 
BRANCH  53  67
ATOM     67  C   UNL A   1      40.162  32.147  36.012  1.00  0.00     0.023 A 
ATOM     68  C   UNL A   1      40.759  33.419  36.145  1.00  0.00     0.012 A 
ATOM     69  C   UNL A   1      39.052  31.821  36.817  1.00  0.00     0.148 A 
ATOM     70  C   UNL A   1      40.294  34.331  37.089  1.00  0.00     0.002 A 
ATOM     71  C   UNL A   1      38.563  32.754  37.724  1.00  0.00     0.091 A 
ATOM     72  F   UNL A   1      38.497  30.608  36.681  1.00  0.00    -0.205 F 
ATOM     73  C   UNL A   1      39.191  34.002  37.872  1.00  0.00     0.022 A 
BRANCH  71  74
ATOM     74  S   UNL A   1      37.093  32.469  38.718  1.00  0.00     0.127 S 
ATOM     75  O   UNL A   1      37.398  33.240  39.924  1.00  0.00    -0.237 OA
ATOM     76  O   UNL A   1      36.042  33.046  37.879  1.00  0.00    -0.237 OA
ATOM     77  O   UNL A   1      37.002  31.029  38.903  1.00  0.00    -0.744 OA
ENDBRANCH  71  74
ENDBRANCH  53  67
BRANCH  54  78
ATOM     78  C   UNL A   1      43.354  26.140  28.768  1.00  0.00     0.023 A 
ATOM     79  C   UNL A   1      42.992  24.788  28.637  1.00  0.00     0.012 A 
ATOM     80  C   UNL A   1      44.284  26.681  27.862  1.00  0.00     0.148 A 
ATOM     81  C   UNL A   1      43.535  24.002  27.616  1.00  0.00     0.002 A 
ATOM     82  C   UNL A   1      44.739  25.927  26.788  1.00  0.00     0.091 A 
ATOM     83  F   UNL A   1      44.780  27.899  28.110  1.00  0.00    -0.205 F 
ATOM     84  C   UNL A   1      44.383  24.579  26.672  1.00  0.00     0.022 A 
BRANCH  82  85
ATOM     85  S   UNL A   1      45.681  26.667  25.448  1.00  0.00     0.127 S 
ATOM     86  O   UNL A   1      45.895  25.529  24.560  1.00  0.00    -0.237 OA
ATOM     87  O   UNL A   1      44.750  27.678  24.945  1.00  0.00    -0.237 OA
ATOM     88  O   UNL A   1      46.870  27.222  26.083  1.00  0.00    -0.744 OA
ENDBRANCH  82  85
ENDBRANCH  54  78
BRANCH  66  89
ATOM     89  C   UNL A   1      45.440  27.289  35.297  1.00  0.00     0.023 A 
ATOM     90  C   UNL A   1      46.733  27.845  35.292  1.00  0.00     0.012 A 
ATOM     91  C   UNL A   1      45.154  26.208  36.157  1.00  0.00     0.148 A 
ATOM     92  C   UNL A   1      47.734  27.314  36.106  1.00  0.00     0.002 A 
ATOM     93  C   UNL A   1      46.141  25.720  37.004  1.00  0.00     0.091 A 
ATOM     94  F   UNL A   1      43.923  25.679  36.132  1.00  0.00    -0.205 F 
ATOM     95  C   UNL A   1      47.435  26.263  36.970  1.00  0.00     0.022 A 
BRANCH  93  96
ATOM     96  S   UNL A   1      45.821  24.438  38.221  1.00  0.00     0.127 S 
ATOM     97  O   UNL A   1      45.404  23.322  37.375  1.00  0.00    -0.237 OA
ATOM     98  O   UNL A   1      47.132  24.273  38.848  1.00  0.00    -0.237 OA
ATOM     99  O   UNL A   1      44.791  24.968  39.105  1.00  0.00    -0.744 OA
ENDBRANCH  93  96
ENDBRANCH  66  89
ENDBRANCH  40  41
ENDBRANCH  33  35
ENDBRANCH  32  33
ENDBRANCH  31  32
ENDBRANCH  30  31
ENDBRANCH  29  30
ENDBRANCH  28  29
ENDBRANCH   1  28
TORSDOF 23
ENDMDL
MODEL 2
REMARK VINA RESULT:     -10.2      1.967      2.413
REMARK SMILES NC(=O)COc1ccc(/C=C2\SC(=S)N(CCC(=O)OCCOCCOC(=O)c3ccc(-c4c5nc(c(-c6cccc(S(=O)(=O)[O-])c6F)c6ccc([nH]6)c(-c6cccc(S(=O)(=O)[O-])c6F)c6nc(c(-c7cccc(S(=O)(=O)[O-])c7F)c7ccc4[nH]7)C=C6)C=C5)cc3)C2=O)cc1
REMARK SMILES IDX 21 1 20 2 18 3 19 4 17 5 16 6 15 7 10 8 11 9 12 10 92 11
REMARK SMILES IDX 13 12 93 13 14 14 9 15 6 16 7 17 95 18 8 19 94 20 5 21 4 22
REMARK SMILES IDX 2 23 1 24 3 27 22 28 23 29 24 30 25 31 26 32 27 33 28 34
REMARK SMILES IDX 29 35 30 36 91 37 31 38 90 39 32 40 33 41 34 42 84 43 35 44
REMARK SMILES IDX 89 45 83 46 85 47 36 48 88 49 82 50 81 51 37 53 69 54 49 55
REMARK SMILES IDX 68 56 50 57 53 58 67 59 86 60 51 61 52 62 66 64 87 65 54 66
REMARK SMILES IDX 38 67 39 68 47 69 40 70 42 71 48 72 41 73 43 74 44 75 45 76
REMARK SMILES IDX 46 77 70 78 71 79 79 80 72 81 74 82 80 83 73 84 75 85 76 86
REMARK SMILES IDX 77 87 78 88 55 89 56 90 64 91 57 92 59 93 65 94 58 95 60 96
REMARK SMILES IDX 61 97 62 98 63 99
REMARK H PARENT 1 25 1 26 85 52 53 63
REMARK Flexibility Score: inf
ROOT
ATOM      1  C   UNL A   1      31.330  28.877  24.734  1.00  0.00     0.261 C 
ENDROOT
BRANCH   1   2
ATOM      2  O   UNL A   1      31.359  27.463  24.436  1.00  0.00    -0.463 OA
BRANCH   2   3
ATOM      3  C   UNL A   1      30.447  26.988  23.554  1.00  0.00     0.307 C 
ATOM      4  O   UNL A   1      29.316  27.431  23.397  1.00  0.00    -0.252 OA
BRANCH   3   5
ATOM      5  C   UNL A   1      30.979  25.802  22.776  1.00  0.00     0.144 C 
BRANCH   5   6
ATOM      6  C   UNL A   1      30.712  24.432  23.409  1.00  0.00     0.139 C 
BRANCH   6   7
ATOM      7  N   UNL A   1      31.889  23.863  24.075  1.00  0.00    -0.292 N 
ATOM      8  C   UNL A   1      35.393  23.307  23.707  1.00  0.00     0.029 C 
ATOM      9  C   UNL A   1      34.153  23.270  24.196  1.00  0.00     0.081 C 
ATOM     10  S   UNL A   1      33.575  22.817  25.736  1.00  0.00    -0.054 SA
ATOM     11  C   UNL A   1      33.032  23.673  23.339  1.00  0.00     0.266 C 
ATOM     12  C   UNL A   1      31.947  23.396  25.374  1.00  0.00     0.148 C 
ATOM     13  O   UNL A   1      33.117  23.731  22.122  1.00  0.00    -0.268 OA
ATOM     14  S   UNL A   1      30.711  23.332  26.492  1.00  0.00    -0.052 S 
BRANCH   8  15
ATOM     15  C   UNL A   1      36.580  22.802  24.370  1.00  0.00    -0.024 A 
ATOM     16  C   UNL A   1      38.656  21.801  25.951  1.00  0.00     0.120 A 
ATOM     17  C   UNL A   1      38.010  20.991  25.017  1.00  0.00     0.047 A 
ATOM     18  C   UNL A   1      38.302  23.144  26.033  1.00  0.00     0.047 A 
ATOM     19  C   UNL A   1      36.951  21.470  24.252  1.00  0.00     0.012 A 
ATOM     20  C   UNL A   1      37.290  23.649  25.223  1.00  0.00     0.012 A 
BRANCH  16  21
ATOM     21  O   UNL A   1      39.636  21.197  26.690  1.00  0.00    -0.484 OA
BRANCH  21  22
ATOM     22  C   UNL A   1      40.321  20.109  26.068  1.00  0.00     0.329 C 
BRANCH  22  23
ATOM     23  C   UNL A   1      41.491  19.583  26.897  1.00  0.00     0.255 C 
ATOM     24  N   UNL A   1      42.094  18.463  26.398  1.00  0.00    -0.367 N 
ATOM     25  H   UNL A   1      42.857  18.061  26.874  1.00  0.00     0.159 HD
ATOM     26  H   UNL A   1      41.767  18.058  25.562  1.00  0.00     0.159 HD
ATOM     27  O   UNL A   1      41.915  20.121  27.913  1.00  0.00    -0.271 OA
ENDBRANCH  22  23
ENDBRANCH  21  22
ENDBRANCH  16  21
ENDBRANCH   8  15
ENDBRANCH   6   7
ENDBRANCH   5   6
ENDBRANCH   3   5
ENDBRANCH   2   3
ENDBRANCH   1   2
BRANCH   1  28
ATOM     28  C   UNL A   1      32.702  29.454  25.117  1.00  0.00     0.202 C 
BRANCH  28  29
ATOM     29  O   UNL A   1      32.680  30.469  26.127  1.00  0.00    -0.374 OA
BRANCH  29  30
ATOM     30  C   UNL A   1      31.445  31.168  26.261  1.00  0.00     0.202 C 
BRANCH  30  31
ATOM     31  C   UNL A   1      31.521  32.559  26.910  1.00  0.00     0.261 C 
BRANCH  31  32
ATOM     32  O   UNL A   1      32.806  33.185  26.745  1.00  0.00    -0.460 OA
BRANCH  32  33
ATOM     33  C   UNL A   1      33.325  33.741  27.868  1.00  0.00     0.338 C 
ATOM     34  O   UNL A   1      32.816  34.606  28.550  1.00  0.00    -0.246 OA
BRANCH  33  35
ATOM     35  C   UNL A   1      34.568  33.033  28.267  1.00  0.00     0.060 A 
ATOM     36  C   UNL A   1      34.441  31.720  28.742  1.00  0.00     0.016 A 
ATOM     37  C   UNL A   1      35.823  33.635  28.234  1.00  0.00     0.016 A 
ATOM     38  C   UNL A   1      35.555  31.020  29.225  1.00  0.00     0.010 A 
ATOM     39  C   UNL A   1      36.934  32.928  28.720  1.00  0.00     0.010 A 
ATOM     40  C   UNL A   1      36.818  31.622  29.244  1.00  0.00    -0.014 A 
BRANCH  40  41
ATOM     41  C   UNL A   1      37.987  30.969  29.921  1.00  0.00     0.031 A 
ATOM     42  C   UNL A   1      38.360  31.417  31.319  1.00  0.00     0.074 A 
ATOM     43  C   UNL A   1      38.739  30.017  29.323  1.00  0.00     0.049 A 
ATOM     44  N   UNL A   1      39.380  31.066  32.062  1.00  0.00    -0.248 NA
ATOM     45  C   UNL A   1      37.465  32.395  31.966  1.00  0.00     0.031 C 
ATOM     46  C   UNL A   1      38.519  29.458  27.988  1.00  0.00     0.029 A 
ATOM     47  N   UNL A   1      39.895  29.395  29.747  1.00  0.00    -0.354 N 
ATOM     48  C   UNL A   1      39.253  31.783  33.249  1.00  0.00     0.074 A 
ATOM     49  C   UNL A   1      38.101  32.643  33.099  1.00  0.00     0.031 C 
ATOM     50  C   UNL A   1      39.552  28.655  27.668  1.00  0.00     0.029 A 
ATOM     51  C   UNL A   1      40.516  28.650  28.766  1.00  0.00     0.049 A 
ATOM     52  H   UNL A   1      40.245  29.475  30.664  1.00  0.00     0.167 HD
ATOM     53  C   UNL A   1      39.983  31.698  34.387  1.00  0.00     0.034 A 
ATOM     54  C   UNL A   1      41.736  28.069  28.733  1.00  0.00     0.034 A 
ATOM     55  C   UNL A   1      41.107  30.822  34.561  1.00  0.00     0.049 A 
ATOM     56  C   UNL A   1      42.597  28.081  29.964  1.00  0.00     0.074 A 
ATOM     57  C   UNL A   1      41.843  30.582  35.708  1.00  0.00     0.029 A 
ATOM     58  N   UNL A   1      41.670  30.054  33.557  1.00  0.00    -0.354 N 
ATOM     59  N   UNL A   1      42.375  28.648  31.123  1.00  0.00    -0.248 NA
ATOM     60  C   UNL A   1      43.843  27.302  29.903  1.00  0.00     0.031 C 
ATOM     61  C   UNL A   1      42.882  29.704  35.386  1.00  0.00     0.029 A 
ATOM     62  C   UNL A   1      42.766  29.365  34.048  1.00  0.00     0.049 A 
ATOM     63  H   UNL A   1      41.342  30.006  32.631  1.00  0.00     0.167 HD
ATOM     64  C   UNL A   1      43.405  28.223  31.954  1.00  0.00     0.074 A 
ATOM     65  C   UNL A   1      44.270  27.381  31.155  1.00  0.00     0.031 C 
ATOM     66  C   UNL A   1      43.598  28.488  33.268  1.00  0.00     0.034 A 
BRANCH  53  67
ATOM     67  C   UNL A   1      39.539  32.527  35.569  1.00  0.00     0.023 A 
ATOM     68  C   UNL A   1      38.723  31.939  36.559  1.00  0.00     0.012 A 
ATOM     69  C   UNL A   1      39.977  33.856  35.738  1.00  0.00     0.148 A 
ATOM     70  C   UNL A   1      38.312  32.669  37.672  1.00  0.00     0.002 A 
ATOM     71  C   UNL A   1      39.602  34.563  36.875  1.00  0.00     0.091 A 
ATOM     72  F   UNL A   1      40.749  34.402  34.789  1.00  0.00    -0.205 F 
ATOM     73  C   UNL A   1      38.759  33.976  37.834  1.00  0.00     0.022 A 
BRANCH  71  74
ATOM     74  S   UNL A   1      40.193  36.222  37.229  1.00  0.00     0.127 S 
ATOM     75  O   UNL A   1      39.952  36.900  35.955  1.00  0.00    -0.237 OA
ATOM     76  O   UNL A   1      39.304  36.637  38.315  1.00  0.00    -0.237 OA
ATOM     77  O   UNL A   1      41.591  36.083  37.608  1.00  0.00    -0.744 OA
ENDBRANCH  71  74
ENDBRANCH  53  67
BRANCH  54  78
ATOM     78  C   UNL A   1      42.223  27.377  27.505  1.00  0.00     0.023 A 
ATOM     79  C   UNL A   1      42.644  28.127  26.393  1.00  0.00     0.012 A 
ATOM     80  C   UNL A   1      42.236  25.974  27.417  1.00  0.00     0.148 A 
ATOM     81  C   UNL A   1      43.080  27.489  25.228  1.00  0.00     0.002 A 
ATOM     82  C   UNL A   1      42.769  25.345  26.299  1.00  0.00     0.091 A 
ATOM     83  F   UNL A   1      41.648  25.269  28.391  1.00  0.00    -0.205 F 
ATOM     84  C   UNL A   1      43.173  26.099  25.192  1.00  0.00     0.022 A 
BRANCH  82  85
ATOM     85  S   UNL A   1      43.082  23.575  26.272  1.00  0.00     0.127 S 
ATOM     86  O   UNL A   1      42.807  23.236  24.879  1.00  0.00    -0.237 OA
ATOM     87  O   UNL A   1      44.493  23.512  26.656  1.00  0.00    -0.237 OA
ATOM     88  O   UNL A   1      42.173  23.014  27.263  1.00  0.00    -0.744 OA
ENDBRANCH  82  85
ENDBRANCH  54  78
BRANCH  66  89
ATOM     89  C   UNL A   1      44.743  27.803  33.967  1.00  0.00     0.023 A 
ATOM     90  C   UNL A   1      46.015  28.406  34.015  1.00  0.00     0.012 A 
ATOM     91  C   UNL A   1      44.530  26.583  34.643  1.00  0.00     0.148 A 
ATOM     92  C   UNL A   1      47.064  27.790  34.697  1.00  0.00     0.002 A 
ATOM     93  C   UNL A   1      45.565  26.004  35.366  1.00  0.00     0.091 A 
ATOM     94  F   UNL A   1      43.318  26.014  34.569  1.00  0.00    -0.205 F 
ATOM     95  C   UNL A   1      46.837  26.598  35.382  1.00  0.00     0.022 A 
BRANCH  93  96
ATOM     96  S   UNL A   1      45.338  24.526  36.361  1.00  0.00     0.127 S 
ATOM     97  O   UNL A   1      44.935  23.547  35.353  1.00  0.00    -0.237 OA
ATOM     98  O   UNL A   1      46.676  24.317  36.914  1.00  0.00    -0.237 OA
ATOM     99  O   UNL A   1      44.320  24.857  37.349  1.00  0.00    -0.744 OA
ENDBRANCH  93  96
ENDBRANCH  66  89
ENDBRANCH  40  41
ENDBRANCH  33  35
ENDBRANCH  32  33
ENDBRANCH  31  32
ENDBRANCH  30  31
ENDBRANCH  29  30
ENDBRANCH  28  29
ENDBRANCH   1  28
TORSDOF 23
ENDMDL
MODEL 3
REMARK VINA RESULT:      -9.7      1.592      2.068
REMARK SMILES NC(=O)COc1ccc(/C=C2\SC(=S)N(CCC(=O)OCCOCCOC(=O)c3ccc(-c4c5nc(c(-c6cccc(S(=O)(=O)[O-])c6F)c6ccc([nH]6)c(-c6cccc(S(=O)(=O)[O-])c6F)c6nc(c(-c7cccc(S(=O)(=O)[O-])c7F)c7ccc4[nH]7)C=C6)C=C5)cc3)C2=O)cc1
REMARK SMILES IDX 21 1 20 2 18 3 19 4 17 5 16 6 15 7 10 8 11 9 12 10 92 11
REMARK SMILES IDX 13 12 93 13 14 14 9 15 6 16 7 17 95 18 8 19 94 20 5 21 4 22
REMARK SMILES IDX 2 23 1 24 3 27 22 28 23 29 24 30 25 31 26 32 27 33 28 34
REMARK SMILES IDX 29 35 30 36 91 37 31 38 90 39 32 40 33 41 34 42 84 43 35 44
REMARK SMILES IDX 89 45 83 46 85 47 36 48 88 49 82 50 81 51 37 53 69 54 49 55
REMARK SMILES IDX 68 56 50 57 53 58 67 59 86 60 51 61 52 62 66 64 87 65 54 66
REMARK SMILES IDX 38 67 39 68 47 69 40 70 42 71 48 72 41 73 43 74 44 75 45 76
REMARK SMILES IDX 46 77 70 78 71 79 79 80 72 81 74 82 80 83 73 84 75 85 76 86
REMARK SMILES IDX 77 87 78 88 55 89 56 90 64 91 57 92 59 93 65 94 58 95 60 96
REMARK SMILES IDX 61 97 62 98 63 99
REMARK H PARENT 1 25 1 26 85 52 53 63
REMARK Flexibility Score: inf
ROOT
ATOM      1  C   UNL A   1      31.621  29.801  25.618  1.00  0.00     0.261 C 
ENDROOT
BRANCH   1   2
ATOM      2  O   UNL A   1      31.633  28.529  24.932  1.00  0.00    -0.463 OA
BRANCH   2   3
ATOM      3  C   UNL A   1      31.286  28.518  23.622  1.00  0.00     0.307 C 
ATOM      4  O   UNL A   1      30.495  29.288  23.093  1.00  0.00    -0.252 OA
BRANCH   3   5
ATOM      5  C   UNL A   1      31.980  27.404  22.864  1.00  0.00     0.144 C 
BRANCH   5   6
ATOM      6  C   UNL A   1      31.449  25.995  23.141  1.00  0.00     0.139 C 
BRANCH   6   7
ATOM      7  N   UNL A   1      32.380  25.166  23.916  1.00  0.00    -0.292 N 
ATOM      8  C   UNL A   1      35.680  23.814  23.920  1.00  0.00     0.029 C 
ATOM      9  C   UNL A   1      34.418  24.064  24.269  1.00  0.00     0.081 C 
ATOM     10  S   UNL A   1      33.580  23.754  25.722  1.00  0.00    -0.054 SA
ATOM     11  C   UNL A   1      33.524  24.718  23.305  1.00  0.00     0.266 C 
ATOM     12  C   UNL A   1      32.180  24.696  25.200  1.00  0.00     0.148 C 
ATOM     13  O   UNL A   1      33.759  24.758  22.107  1.00  0.00    -0.268 OA
ATOM     14  S   UNL A   1      30.844  24.918  26.172  1.00  0.00    -0.052 S 
BRANCH   8  15
ATOM     15  C   UNL A   1      36.636  23.046  24.695  1.00  0.00    -0.024 A 
ATOM     16  C   UNL A   1      38.697  21.584  25.889  1.00  0.00     0.120 A 
ATOM     17  C   UNL A   1      38.474  22.919  26.227  1.00  0.00     0.047 A 
ATOM     18  C   UNL A   1      37.826  20.963  24.999  1.00  0.00     0.047 A 
ATOM     19  C   UNL A   1      37.474  23.665  25.611  1.00  0.00     0.012 A 
ATOM     20  C   UNL A   1      36.781  21.683  24.429  1.00  0.00     0.012 A 
BRANCH  16  21
ATOM     21  O   UNL A   1      39.752  20.978  26.513  1.00  0.00    -0.484 OA
BRANCH  21  22
ATOM     22  C   UNL A   1      40.901  21.791  26.752  1.00  0.00     0.329 C 
BRANCH  22  23
ATOM     23  C   UNL A   1      42.198  21.162  26.247  1.00  0.00     0.255 C 
ATOM     24  N   UNL A   1      42.679  20.138  27.014  1.00  0.00    -0.367 N 
ATOM     25  H   UNL A   1      43.511  19.678  26.757  1.00  0.00     0.159 HD
ATOM     26  H   UNL A   1      42.194  19.859  27.824  1.00  0.00     0.159 HD
ATOM     27  O   UNL A   1      42.770  21.490  25.215  1.00  0.00    -0.271 OA
ENDBRANCH  22  23
ENDBRANCH  21  22
ENDBRANCH  16  21
ENDBRANCH   8  15
ENDBRANCH   6   7
ENDBRANCH   5   6
ENDBRANCH   3   5
ENDBRANCH   2   3
ENDBRANCH   1   2
BRANCH   1  28
ATOM     28  C   UNL A   1      32.794  29.988  26.593  1.00  0.00     0.202 C 
BRANCH  28  29
ATOM     29  O   UNL A   1      32.891  31.283  27.195  1.00  0.00    -0.374 OA
BRANCH  29  30
ATOM     30  C   UNL A   1      31.850  32.194  26.851  1.00  0.00     0.202 C 
BRANCH  30  31
ATOM     31  C   UNL A   1      32.001  33.627  27.385  1.00  0.00     0.261 C 
BRANCH  31  32
ATOM     32  O   UNL A   1      33.364  33.973  27.685  1.00  0.00    -0.460 OA
BRANCH  32  33
ATOM     33  C   UNL A   1      33.627  34.198  28.997  1.00  0.00     0.338 C 
ATOM     34  O   UNL A   1      32.914  34.779  29.789  1.00  0.00    -0.246 OA
BRANCH  33  35
ATOM     35  C   UNL A   1      34.869  33.494  29.403  1.00  0.00     0.060 A 
ATOM     36  C   UNL A   1      34.729  32.312  30.144  1.00  0.00     0.016 A 
ATOM     37  C   UNL A   1      36.142  33.984  29.122  1.00  0.00     0.016 A 
ATOM     38  C   UNL A   1      35.853  31.640  30.644  1.00  0.00     0.010 A 
ATOM     39  C   UNL A   1      37.262  33.306  29.627  1.00  0.00     0.010 A 
ATOM     40  C   UNL A   1      37.140  32.140  30.413  1.00  0.00    -0.014 A 
BRANCH  40  41
ATOM     41  C   UNL A   1      38.342  31.549  31.087  1.00  0.00     0.031 A 
ATOM     42  C   UNL A   1      38.642  31.946  32.518  1.00  0.00     0.074 A 
ATOM     43  C   UNL A   1      39.186  30.698  30.460  1.00  0.00     0.049 A 
ATOM     44  N   UNL A   1      39.670  31.639  33.270  1.00  0.00    -0.248 NA
ATOM     45  C   UNL A   1      37.653  32.809  33.190  1.00  0.00     0.031 C 
ATOM     46  C   UNL A   1      39.047  30.200  29.091  1.00  0.00     0.029 A 
ATOM     47  N   UNL A   1      40.381  30.151  30.883  1.00  0.00    -0.354 N 
ATOM     48  C   UNL A   1      39.454  32.275  34.489  1.00  0.00     0.074 A 
ATOM     49  C   UNL A   1      38.238  33.043  34.354  1.00  0.00     0.031 C 
ATOM     50  C   UNL A   1      40.151  29.504  28.757  1.00  0.00     0.029 A 
ATOM     51  C   UNL A   1      41.085  29.517  29.880  1.00  0.00     0.049 A 
ATOM     52  H   UNL A   1      40.700  30.207  31.812  1.00  0.00     0.167 HD
ATOM     53  C   UNL A   1      40.161  32.186  35.642  1.00  0.00     0.034 A 
ATOM     54  C   UNL A   1      42.350  29.041  29.851  1.00  0.00     0.034 A 
ATOM     55  C   UNL A   1      41.351  31.397  35.800  1.00  0.00     0.049 A 
ATOM     56  C   UNL A   1      43.177  29.055  31.105  1.00  0.00     0.074 A 
ATOM     57  C   UNL A   1      42.077  31.155  36.953  1.00  0.00     0.029 A 
ATOM     58  N   UNL A   1      42.001  30.737  34.772  1.00  0.00    -0.354 N 
ATOM     59  N   UNL A   1      42.880  29.535  32.287  1.00  0.00    -0.248 NA
ATOM     60  C   UNL A   1      44.486  28.387  31.037  1.00  0.00     0.031 C 
ATOM     61  C   UNL A   1      43.193  30.385  36.613  1.00  0.00     0.029 A 
ATOM     62  C   UNL A   1      43.139  30.115  35.256  1.00  0.00     0.049 A 
ATOM     63  H   UNL A   1      41.700  30.715  33.835  1.00  0.00     0.167 HD
ATOM     64  C   UNL A   1      43.923  29.150  33.122  1.00  0.00     0.074 A 
ATOM     65  C   UNL A   1      44.874  28.429  32.304  1.00  0.00     0.031 C 
ATOM     66  C   UNL A   1      44.061  29.355  34.454  1.00  0.00     0.034 A 
BRANCH  53  67
ATOM     67  C   UNL A   1      39.621  32.907  36.854  1.00  0.00     0.023 A 
ATOM     68  C   UNL A   1      40.060  34.220  37.129  1.00  0.00     0.012 A 
ATOM     69  C   UNL A   1      38.638  32.323  37.677  1.00  0.00     0.148 A 
ATOM     70  C   UNL A   1      39.567  34.921  38.227  1.00  0.00     0.002 A 
ATOM     71  C   UNL A   1      38.116  33.047  38.743  1.00  0.00     0.091 A 
ATOM     72  F   UNL A   1      38.233  31.075  37.404  1.00  0.00    -0.205 F 
ATOM     73  C   UNL A   1      38.590  34.339  39.028  1.00  0.00     0.022 A 
BRANCH  71  74
ATOM     74  S   UNL A   1      36.789  32.428  39.784  1.00  0.00     0.127 S 
ATOM     75  O   UNL A   1      36.758  33.430  40.850  1.00  0.00    -0.237 OA
ATOM     76  O   UNL A   1      35.642  32.473  38.876  1.00  0.00    -0.237 OA
ATOM     77  O   UNL A   1      37.186  31.090  40.195  1.00  0.00    -0.744 OA
ENDBRANCH  71  74
ENDBRANCH  53  67
BRANCH  54  78
ATOM     78  C   UNL A   1      42.924  28.464  28.601  1.00  0.00     0.023 A 
ATOM     79  C   UNL A   1      43.583  29.294  27.678  1.00  0.00     0.012 A 
ATOM     80  C   UNL A   1      42.786  27.096  28.302  1.00  0.00     0.148 A 
ATOM     81  C   UNL A   1      44.103  28.766  26.492  1.00  0.00     0.002 A 
ATOM     82  C   UNL A   1      43.395  26.559  27.175  1.00  0.00     0.091 A 
ATOM     83  F   UNL A   1      41.987  26.352  29.076  1.00  0.00    -0.205 F 
ATOM     84  C   UNL A   1      44.038  27.395  26.256  1.00  0.00     0.022 A 
BRANCH  82  85
ATOM     85  S   UNL A   1      43.501  24.784  26.917  1.00  0.00     0.127 S 
ATOM     86  O   UNL A   1      42.576  24.580  25.806  1.00  0.00    -0.237 OA
ATOM     87  O   UNL A   1      44.915  24.610  26.583  1.00  0.00    -0.237 OA
ATOM     88  O   UNL A   1      43.116  24.192  28.192  1.00  0.00    -0.744 OA
ENDBRANCH  82  85
ENDBRANCH  54  78
BRANCH  66  89
ATOM     89  C   UNL A   1      45.242  28.729  35.147  1.00  0.00     0.023 A 
ATOM     90  C   UNL A   1      46.437  29.454  35.318  1.00  0.00     0.012 A 
ATOM     91  C   UNL A   1      45.134  27.433  35.696  1.00  0.00     0.148 A 
ATOM     92  C   UNL A   1      47.517  28.887  35.996  1.00  0.00     0.002 A 
ATOM     93  C   UNL A   1      46.194  26.898  36.417  1.00  0.00     0.091 A 
ATOM     94  F   UNL A   1      43.996  26.751  35.505  1.00  0.00    -0.205 F 
ATOM     95  C   UNL A   1      47.391  27.617  36.555  1.00  0.00     0.022 A 
BRANCH  93  96
ATOM     96  S   UNL A   1      46.086  25.314  37.258  1.00  0.00     0.127 S 
ATOM     97  O   UNL A   1      47.419  25.199  37.848  1.00  0.00    -0.237 OA
ATOM     98  O   UNL A   1      45.011  25.548  38.220  1.00  0.00    -0.237 OA
ATOM     99  O   UNL A   1      45.774  24.332  36.229  1.00  0.00    -0.744 OA
ENDBRANCH  93  96
ENDBRANCH  66  89
ENDBRANCH  40  41
ENDBRANCH  33  35
ENDBRANCH  32  33
ENDBRANCH  31  32
ENDBRANCH  30  31
ENDBRANCH  29  30
ENDBRANCH  28  29
ENDBRANCH   1  28
TORSDOF 23
ENDMDL
