MODEL 1
REMARK VINA RESULT:     -11.7      0.000      0.000
REMARK SMILES COc1ccc(C(=O)c2ccccc2)cc1[C@@H](C)C(=O)OCCOCCOC(=O)c1ccc(-c2c3nc(c(-c4cccc(S(=O)(=O)[O-])c4F)c4ccc([nH]4)c(-c4cccc(S(=O)(=O)[O-])c4F)c4nc(c(-c5cccc(S(=O)(=O)[O-])c5F)c5ccc2[nH]5)C=C4)C=C3)cc1
REMARK SMILES IDX 24 1 23 2 22 3 21 4 19 5 20 6 17 7 18 8 16 9 3 10 4 11 5 12
REMARK SMILES IDX 15 13 6 14 2 15 1 16 7 17 8 18 9 19 10 20 14 21 11 22 13 23
REMARK SMILES IDX 12 24 25 25 26 26 27 27 28 28 29 29 30 30 31 31 92 32 32 33
REMARK SMILES IDX 91 34 33 35 34 36 35 37 85 38 36 39 90 40 84 41 86 42 37 43
REMARK SMILES IDX 89 44 83 45 82 46 38 48 70 49 50 50 69 51 51 52 54 53 68 54
REMARK SMILES IDX 87 55 52 56 53 57 67 59 88 60 55 61 39 62 40 63 48 64 41 65
REMARK SMILES IDX 43 66 49 67 42 68 44 69 45 70 46 71 47 72 71 73 72 74 80 75
REMARK SMILES IDX 73 76 75 77 81 78 74 79 76 80 77 81 78 82 79 83 56 84 57 85
REMARK SMILES IDX 65 86 58 87 60 88 66 89 59 90 61 91 62 92 63 93 64 94
REMARK H PARENT 86 47 54 58
REMARK Flexibility Score: inf
ROOT
ATOM      1  O   UNL A   1      35.495  21.199  25.799  1.00  0.00    -0.374 OA
ENDROOT
BRANCH   1   2
ATOM      2  C   UNL A   1      34.780  22.371  25.398  1.00  0.00     0.202 C 
BRANCH   2   3
ATOM      3  C   UNL A   1      34.719  23.482  26.448  1.00  0.00     0.261 C 
BRANCH   3   4
ATOM      4  O   UNL A   1      33.440  24.145  26.420  1.00  0.00    -0.463 OA
BRANCH   4   5
ATOM      5  C   UNL A   1      32.407  23.521  27.045  1.00  0.00     0.313 C 
ATOM      6  O   UNL A   1      32.533  22.614  27.861  1.00  0.00    -0.252 OA
BRANCH   5   7
ATOM      7  C   UNL A   1      31.043  24.035  26.604  1.00  0.00     0.130 C 
ATOM      8  C   UNL A   1      30.006  22.918  26.700  1.00  0.00     0.025 C 
BRANCH   7   9
ATOM      9  C   UNL A   1      30.981  24.744  25.253  1.00  0.00     0.009 A 
ATOM     10  C   UNL A   1      31.149  24.045  24.047  1.00  0.00     0.122 A 
ATOM     11  C   UNL A   1      31.243  24.721  22.828  1.00  0.00     0.047 A 
ATOM     12  C   UNL A   1      31.187  26.116  22.795  1.00  0.00     0.016 A 
ATOM     13  C   UNL A   1      30.863  26.149  25.184  1.00  0.00     0.020 A 
ATOM     14  C   UNL A   1      31.024  26.847  23.978  1.00  0.00     0.023 A 
BRANCH  10  15
ATOM     15  O   UNL A   1      31.360  22.692  24.017  1.00  0.00    -0.496 OA
ATOM     16  C   UNL A   1      32.211  22.305  22.938  1.00  0.00     0.278 C 
ENDBRANCH  10  15
BRANCH  14  17
ATOM     17  C   UNL A   1      31.035  28.340  23.886  1.00  0.00     0.193 C 
ATOM     18  O   UNL A   1      32.118  28.919  23.987  1.00  0.00    -0.289 OA
BRANCH  17  19
ATOM     19  C   UNL A   1      29.813  29.159  23.637  1.00  0.00     0.022 A 
ATOM     20  C   UNL A   1      29.861  30.515  23.980  1.00  0.00     0.012 A 
ATOM     21  C   UNL A   1      28.635  28.644  23.087  1.00  0.00     0.012 A 
ATOM     22  C   UNL A   1      28.806  31.370  23.655  1.00  0.00     0.001 A 
ATOM     23  C   UNL A   1      27.581  29.501  22.754  1.00  0.00     0.001 A 
ATOM     24  C   UNL A   1      27.677  30.867  23.016  1.00  0.00     0.000 A 
ENDBRANCH  17  19
ENDBRANCH  14  17
ENDBRANCH   7   9
ENDBRANCH   5   7
ENDBRANCH   4   5
ENDBRANCH   3   4
ENDBRANCH   2   3
ENDBRANCH   1   2
BRANCH   1  25
ATOM     25  C   UNL A   1      36.261  20.549  24.785  1.00  0.00     0.202 C 
BRANCH  25  26
ATOM     26  C   UNL A   1      37.772  20.476  25.022  1.00  0.00     0.261 C 
BRANCH  26  27
ATOM     27  O   UNL A   1      38.290  21.686  25.593  1.00  0.00    -0.460 OA
BRANCH  27  28
ATOM     28  C   UNL A   1      39.479  21.544  26.224  1.00  0.00     0.338 C 
ATOM     29  O   UNL A   1      40.251  20.595  26.136  1.00  0.00    -0.246 OA
BRANCH  28  30
ATOM     30  C   UNL A   1      39.829  22.783  26.941  1.00  0.00     0.060 A 
ATOM     31  C   UNL A   1      39.090  23.937  26.647  1.00  0.00     0.016 A 
ATOM     32  C   UNL A   1      40.905  22.840  27.826  1.00  0.00     0.016 A 
ATOM     33  C   UNL A   1      39.465  25.168  27.188  1.00  0.00     0.010 A 
ATOM     34  C   UNL A   1      41.278  24.079  28.358  1.00  0.00     0.010 A 
ATOM     35  C   UNL A   1      40.589  25.257  28.017  1.00  0.00    -0.014 A 
BRANCH  35  36
ATOM     36  C   UNL A   1      41.149  26.586  28.382  1.00  0.00     0.031 A 
ATOM     37  C   UNL A   1      42.587  26.889  28.041  1.00  0.00     0.074 A 
ATOM     38  C   UNL A   1      40.403  27.514  29.014  1.00  0.00     0.049 A 
ATOM     39  N   UNL A   1      43.281  27.976  28.260  1.00  0.00    -0.248 NA
ATOM     40  C   UNL A   1      43.352  25.814  27.385  1.00  0.00     0.031 C 
ATOM     41  C   UNL A   1      39.017  27.342  29.448  1.00  0.00     0.029 A 
ATOM     42  N   UNL A   1      40.722  28.789  29.416  1.00  0.00    -0.354 N 
ATOM     43  C   UNL A   1      44.568  27.701  27.808  1.00  0.00     0.074 A 
ATOM     44  C   UNL A   1      44.570  26.332  27.345  1.00  0.00     0.031 C 
ATOM     45  C   UNL A   1      38.608  28.466  30.064  1.00  0.00     0.029 A 
ATOM     46  C   UNL A   1      39.701  29.436  30.071  1.00  0.00     0.049 A 
ATOM     47  H   UNL A   1      41.601  29.200  29.250  1.00  0.00     0.167 HD
ATOM     48  C   UNL A   1      45.643  28.521  27.736  1.00  0.00     0.034 A 
ATOM     49  C   UNL A   1      39.653  30.673  30.606  1.00  0.00     0.034 A 
ATOM     50  C   UNL A   1      45.628  29.903  28.127  1.00  0.00     0.049 A 
ATOM     51  C   UNL A   1      40.844  31.588  30.464  1.00  0.00     0.074 A 
ATOM     52  C   UNL A   1      46.640  30.839  28.018  1.00  0.00     0.029 A 
ATOM     53  N   UNL A   1      44.542  30.549  28.692  1.00  0.00    -0.354 N 
ATOM     54  N   UNL A   1      42.000  31.358  29.891  1.00  0.00    -0.248 NA
ATOM     55  C   UNL A   1      40.702  32.954  30.995  1.00  0.00     0.031 C 
ATOM     56  C   UNL A   1      46.165  32.055  28.525  1.00  0.00     0.029 A 
ATOM     57  C   UNL A   1      44.853  31.876  28.933  1.00  0.00     0.049 A 
ATOM     58  H   UNL A   1      43.675  30.127  28.895  1.00  0.00     0.167 HD
ATOM     59  C   UNL A   1      42.700  32.560  29.945  1.00  0.00     0.074 A 
ATOM     60  C   UNL A   1      41.833  33.519  30.594  1.00  0.00     0.031 C 
ATOM     61  C   UNL A   1      43.952  32.841  29.507  1.00  0.00     0.034 A 
BRANCH  48  62
ATOM     62  C   UNL A   1      46.909  27.952  27.149  1.00  0.00     0.023 A 
ATOM     63  C   UNL A   1      47.949  27.543  28.008  1.00  0.00     0.012 A 
ATOM     64  C   UNL A   1      47.060  27.797  25.757  1.00  0.00     0.148 A 
ATOM     65  C   UNL A   1      49.139  27.033  27.492  1.00  0.00     0.002 A 
ATOM     66  C   UNL A   1      48.231  27.240  25.253  1.00  0.00     0.091 A 
ATOM     67  F   UNL A   1      46.070  28.209  24.955  1.00  0.00    -0.205 F 
ATOM     68  C   UNL A   1      49.276  26.873  26.117  1.00  0.00     0.022 A 
BRANCH  66  69
ATOM     69  S   UNL A   1      48.471  26.916  23.503  1.00  0.00     0.127 S 
ATOM     70  O   UNL A   1      49.924  27.015  23.381  1.00  0.00    -0.237 OA
ATOM     71  O   UNL A   1      47.939  25.559  23.365  1.00  0.00    -0.237 OA
ATOM     72  O   UNL A   1      47.710  27.938  22.798  1.00  0.00    -0.744 OA
ENDBRANCH  66  69
ENDBRANCH  48  62
BRANCH  49  73
ATOM     73  C   UNL A   1      38.401  31.161  31.255  1.00  0.00     0.023 A 
ATOM     74  C   UNL A   1      38.252  31.037  32.650  1.00  0.00     0.012 A 
ATOM     75  C   UNL A   1      37.362  31.741  30.503  1.00  0.00     0.148 A 
ATOM     76  C   UNL A   1      37.075  31.444  33.281  1.00  0.00     0.002 A 
ATOM     77  C   UNL A   1      36.213  32.192  31.144  1.00  0.00     0.091 A 
ATOM     78  F   UNL A   1      37.517  31.841  29.175  1.00  0.00    -0.205 F 
ATOM     79  C   UNL A   1      36.059  32.027  32.530  1.00  0.00     0.022 A 
BRANCH  77  80
ATOM     80  S   UNL A   1      34.908  33.069  30.274  1.00  0.00     0.127 S 
ATOM     81  O   UNL A   1      34.020  33.448  31.369  1.00  0.00    -0.237 OA
ATOM     82  O   UNL A   1      35.644  34.178  29.664  1.00  0.00    -0.237 OA
ATOM     83  O   UNL A   1      34.369  32.114  29.317  1.00  0.00    -0.744 OA
ENDBRANCH  77  80
ENDBRANCH  49  73
BRANCH  61  84
ATOM     84  C   UNL A   1      44.449  34.256  29.649  1.00  0.00     0.023 A 
ATOM     85  C   UNL A   1      45.074  34.667  30.844  1.00  0.00     0.012 A 
ATOM     86  C   UNL A   1      44.367  35.156  28.568  1.00  0.00     0.148 A 
ATOM     87  C   UNL A   1      45.575  35.963  30.971  1.00  0.00     0.002 A 
ATOM     88  C   UNL A   1      44.912  36.430  28.686  1.00  0.00     0.091 A 
ATOM     89  F   UNL A   1      43.751  34.758  27.446  1.00  0.00    -0.205 F 
ATOM     90  C   UNL A   1      45.506  36.839  29.890  1.00  0.00     0.022 A 
BRANCH  88  91
ATOM     91  S   UNL A   1      44.952  37.581  27.306  1.00  0.00     0.127 S 
ATOM     92  O   UNL A   1      45.566  38.759  27.916  1.00  0.00    -0.237 OA
ATOM     93  O   UNL A   1      45.801  36.884  26.339  1.00  0.00    -0.237 OA
ATOM     94  O   UNL A   1      43.566  37.737  26.883  1.00  0.00    -0.744 OA
ENDBRANCH  88  91
ENDBRANCH  61  84
ENDBRANCH  35  36
ENDBRANCH  28  30
ENDBRANCH  27  28
ENDBRANCH  26  27
ENDBRANCH  25  26
ENDBRANCH   1  25
TORSDOF 21
ENDMDL
MODEL 2
REMARK VINA RESULT:     -11.1      4.475      9.989
REMARK SMILES COc1ccc(C(=O)c2ccccc2)cc1[C@@H](C)C(=O)OCCOCCOC(=O)c1ccc(-c2c3nc(c(-c4cccc(S(=O)(=O)[O-])c4F)c4ccc([nH]4)c(-c4cccc(S(=O)(=O)[O-])c4F)c4nc(c(-c5cccc(S(=O)(=O)[O-])c5F)c5ccc2[nH]5)C=C4)C=C3)cc1
REMARK SMILES IDX 24 1 23 2 22 3 21 4 19 5 20 6 17 7 18 8 16 9 3 10 4 11 5 12
REMARK SMILES IDX 15 13 6 14 2 15 1 16 7 17 8 18 9 19 10 20 14 21 11 22 13 23
REMARK SMILES IDX 12 24 25 25 26 26 27 27 28 28 29 29 30 30 31 31 92 32 32 33
REMARK SMILES IDX 91 34 33 35 34 36 35 37 85 38 36 39 90 40 84 41 86 42 37 43
REMARK SMILES IDX 89 44 83 45 82 46 38 48 70 49 50 50 69 51 51 52 54 53 68 54
REMARK SMILES IDX 87 55 52 56 53 57 67 59 88 60 55 61 39 62 40 63 48 64 41 65
REMARK SMILES IDX 43 66 49 67 42 68 44 69 45 70 46 71 47 72 71 73 72 74 80 75
REMARK SMILES IDX 73 76 75 77 81 78 74 79 76 80 77 81 78 82 79 83 56 84 57 85
REMARK SMILES IDX 65 86 58 87 60 88 66 89 59 90 61 91 62 92 63 93 64 94
REMARK H PARENT 86 47 54 58
REMARK Flexibility Score: inf
ROOT
ATOM      1  O   UNL A   1      31.726  28.929  27.713  1.00  0.00    -0.374 OA
ENDROOT
BRANCH   1   2
ATOM      2  C   UNL A   1      32.072  27.597  27.324  1.00  0.00     0.202 C 
BRANCH   2   3
ATOM      3  C   UNL A   1      31.596  27.186  25.928  1.00  0.00     0.261 C 
BRANCH   3   4
ATOM      4  O   UNL A   1      30.653  26.099  26.007  1.00  0.00    -0.463 OA
BRANCH   4   5
ATOM      5  C   UNL A   1      31.165  24.846  26.124  1.00  0.00     0.313 C 
ATOM      6  O   UNL A   1      31.160  24.185  27.157  1.00  0.00    -0.252 OA
BRANCH   5   7
ATOM      7  C   UNL A   1      31.793  24.335  24.834  1.00  0.00     0.130 C 
ATOM      8  C   UNL A   1      30.714  24.119  23.775  1.00  0.00     0.025 C 
BRANCH   7   9
ATOM      9  C   UNL A   1      32.713  23.123  24.953  1.00  0.00     0.009 A 
ATOM     10  C   UNL A   1      34.043  23.248  25.386  1.00  0.00     0.122 A 
ATOM     11  C   UNL A   1      34.921  22.162  25.347  1.00  0.00     0.047 A 
ATOM     12  C   UNL A   1      34.487  20.929  24.856  1.00  0.00     0.016 A 
ATOM     13  C   UNL A   1      32.283  21.849  24.523  1.00  0.00     0.020 A 
ATOM     14  C   UNL A   1      33.168  20.766  24.412  1.00  0.00     0.023 A 
BRANCH  10  15
ATOM     15  O   UNL A   1      34.579  24.458  25.738  1.00  0.00    -0.496 OA
ATOM     16  C   UNL A   1      36.006  24.448  25.692  1.00  0.00     0.278 C 
ENDBRANCH  10  15
BRANCH  14  17
ATOM     17  C   UNL A   1      32.780  19.440  23.839  1.00  0.00     0.193 C 
ATOM     18  O   UNL A   1      32.063  19.430  22.838  1.00  0.00    -0.289 OA
BRANCH  17  19
ATOM     19  C   UNL A   1      33.248  18.135  24.391  1.00  0.00     0.022 A 
ATOM     20  C   UNL A   1      32.400  17.466  25.280  1.00  0.00     0.012 A 
ATOM     21  C   UNL A   1      34.480  17.556  24.069  1.00  0.00     0.012 A 
ATOM     22  C   UNL A   1      32.711  16.182  25.731  1.00  0.00     0.001 A 
ATOM     23  C   UNL A   1      34.789  16.267  24.515  1.00  0.00     0.001 A 
ATOM     24  C   UNL A   1      33.893  15.572  25.326  1.00  0.00     0.000 A 
ENDBRANCH  17  19
ENDBRANCH  14  17
ENDBRANCH   7   9
ENDBRANCH   5   7
ENDBRANCH   4   5
ENDBRANCH   3   4
ENDBRANCH   2   3
ENDBRANCH   1   2
BRANCH   1  25
ATOM     25  C   UNL A   1      31.725  29.909  26.677  1.00  0.00     0.202 C 
BRANCH  25  26
ATOM     26  C   UNL A   1      32.565  31.164  26.932  1.00  0.00     0.261 C 
BRANCH  26  27
ATOM     27  O   UNL A   1      33.973  30.883  26.929  1.00  0.00    -0.460 OA
BRANCH  27  28
ATOM     28  C   UNL A   1      34.633  31.309  28.031  1.00  0.00     0.338 C 
ATOM     29  O   UNL A   1      34.259  32.163  28.829  1.00  0.00    -0.246 OA
BRANCH  28  30
ATOM     30  C   UNL A   1      35.834  30.486  28.259  1.00  0.00     0.060 A 
ATOM     31  C   UNL A   1      35.840  29.637  29.374  1.00  0.00     0.016 A 
ATOM     32  C   UNL A   1      36.963  30.594  27.448  1.00  0.00     0.016 A 
ATOM     33  C   UNL A   1      37.000  28.942  29.721  1.00  0.00     0.010 A 
ATOM     34  C   UNL A   1      38.122  29.898  27.806  1.00  0.00     0.010 A 
ATOM     35  C   UNL A   1      38.165  29.098  28.962  1.00  0.00    -0.014 A 
BRANCH  35  36
ATOM     36  C   UNL A   1      39.464  28.577  29.465  1.00  0.00     0.031 A 
ATOM     37  C   UNL A   1      40.099  29.236  30.664  1.00  0.00     0.074 A 
ATOM     38  C   UNL A   1      40.083  27.538  28.869  1.00  0.00     0.049 A 
ATOM     39  N   UNL A   1      41.220  28.949  31.273  1.00  0.00    -0.248 NA
ATOM     40  C   UNL A   1      39.385  30.389  31.240  1.00  0.00     0.031 C 
ATOM     41  C   UNL A   1      39.611  26.835  27.676  1.00  0.00     0.029 A 
ATOM     42  N   UNL A   1      41.260  26.903  29.185  1.00  0.00    -0.354 N 
ATOM     43  C   UNL A   1      41.364  29.906  32.272  1.00  0.00     0.074 A 
ATOM     44  C   UNL A   1      40.241  30.808  32.159  1.00  0.00     0.031 C 
ATOM     45  C   UNL A   1      40.496  25.873  27.356  1.00  0.00     0.029 A 
ATOM     46  C   UNL A   1      41.596  25.891  28.317  1.00  0.00     0.049 A 
ATOM     47  H   UNL A   1      41.812  27.151  29.961  1.00  0.00     0.167 HD
ATOM     48  C   UNL A   1      42.315  30.005  33.231  1.00  0.00     0.034 A 
ATOM     49  C   UNL A   1      42.665  25.069  28.305  1.00  0.00     0.034 A 
ATOM     50  C   UNL A   1      43.394  29.071  33.394  1.00  0.00     0.049 A 
ATOM     51  C   UNL A   1      43.682  25.162  29.417  1.00  0.00     0.074 A 
ATOM     52  C   UNL A   1      44.361  29.037  34.382  1.00  0.00     0.029 A 
ATOM     53  N   UNL A   1      43.641  27.999  32.554  1.00  0.00    -0.354 N 
ATOM     54  N   UNL A   1      43.714  25.976  30.443  1.00  0.00    -0.248 NA
ATOM     55  C   UNL A   1      44.782  24.183  29.396  1.00  0.00     0.031 C 
ATOM     56  C   UNL A   1      45.200  27.944  34.134  1.00  0.00     0.029 A 
ATOM     57  C   UNL A   1      44.741  27.290  33.001  1.00  0.00     0.049 A 
ATOM     58  H   UNL A   1      43.112  27.775  31.753  1.00  0.00     0.167 HD
ATOM     59  C   UNL A   1      44.801  25.576  31.216  1.00  0.00     0.074 A 
ATOM     60  C   UNL A   1      45.393  24.439  30.545  1.00  0.00     0.031 C 
ATOM     61  C   UNL A   1      45.272  26.110  32.369  1.00  0.00     0.034 A 
BRANCH  48  62
ATOM     62  C   UNL A   1      42.185  31.135  34.220  1.00  0.00     0.023 A 
ATOM     63  C   UNL A   1      41.506  30.916  35.436  1.00  0.00     0.012 A 
ATOM     64  C   UNL A   1      42.753  32.397  33.963  1.00  0.00     0.148 A 
ATOM     65  C   UNL A   1      41.352  31.948  36.361  1.00  0.00     0.002 A 
ATOM     66  C   UNL A   1      42.638  33.408  34.911  1.00  0.00     0.091 A 
ATOM     67  F   UNL A   1      43.376  32.593  32.793  1.00  0.00    -0.205 F 
ATOM     68  C   UNL A   1      41.925  33.189  36.102  1.00  0.00     0.022 A 
BRANCH  66  69
ATOM     69  S   UNL A   1      43.411  35.016  34.710  1.00  0.00     0.127 S 
ATOM     70  O   UNL A   1      42.834  35.763  35.827  1.00  0.00    -0.237 OA
ATOM     71  O   UNL A   1      44.832  34.695  34.862  1.00  0.00    -0.237 OA
ATOM     72  O   UNL A   1      43.034  35.478  33.383  1.00  0.00    -0.744 OA
ENDBRANCH  66  69
ENDBRANCH  48  62
BRANCH  49  73
ATOM     73  C   UNL A   1      42.793  24.020  27.253  1.00  0.00     0.023 A 
ATOM     74  C   UNL A   1      43.592  24.271  26.120  1.00  0.00     0.012 A 
ATOM     75  C   UNL A   1      42.131  22.783  27.364  1.00  0.00     0.148 A 
ATOM     76  C   UNL A   1      43.696  23.326  25.098  1.00  0.00     0.002 A 
ATOM     77  C   UNL A   1      42.281  21.825  26.367  1.00  0.00     0.091 A 
ATOM     78  F   UNL A   1      41.367  22.565  28.444  1.00  0.00    -0.205 F 
ATOM     79  C   UNL A   1      43.047  22.102  25.223  1.00  0.00     0.022 A 
BRANCH  77  80
ATOM     80  S   UNL A   1      41.584  20.175  26.505  1.00  0.00     0.127 S 
ATOM     81  O   UNL A   1      40.152  20.446  26.427  1.00  0.00    -0.237 OA
ATOM     82  O   UNL A   1      42.152  19.508  25.333  1.00  0.00    -0.237 OA
ATOM     83  O   UNL A   1      42.066  19.655  27.778  1.00  0.00    -0.744 OA
ENDBRANCH  77  80
ENDBRANCH  49  73
BRANCH  61  84
ATOM     84  C   UNL A   1      46.450  25.440  33.028  1.00  0.00     0.023 A 
ATOM     85  C   UNL A   1      46.241  24.476  34.034  1.00  0.00     0.012 A 
ATOM     86  C   UNL A   1      47.763  25.711  32.593  1.00  0.00     0.148 A 
ATOM     87  C   UNL A   1      47.322  23.819  34.621  1.00  0.00     0.002 A 
ATOM     88  C   UNL A   1      48.832  25.017  33.149  1.00  0.00     0.091 A 
ATOM     89  F   UNL A   1      47.948  26.647  31.650  1.00  0.00    -0.205 F 
ATOM     90  C   UNL A   1      48.615  24.079  34.171  1.00  0.00     0.022 A 
BRANCH  88  91
ATOM     91  S   UNL A   1      50.515  25.224  32.554  1.00  0.00     0.127 S 
ATOM     92  O   UNL A   1      50.807  26.599  32.953  1.00  0.00    -0.237 OA
ATOM     93  O   UNL A   1      51.244  24.202  33.307  1.00  0.00    -0.237 OA
ATOM     94  O   UNL A   1      50.458  24.981  31.118  1.00  0.00    -0.744 OA
ENDBRANCH  88  91
ENDBRANCH  61  84
ENDBRANCH  35  36
ENDBRANCH  28  30
ENDBRANCH  27  28
ENDBRANCH  26  27
ENDBRANCH  25  26
ENDBRANCH   1  25
TORSDOF 21
ENDMDL
MODEL 3
REMARK VINA RESULT:     -11.0      4.786     10.214
REMARK SMILES COc1ccc(C(=O)c2ccccc2)cc1[C@@H](C)C(=O)OCCOCCOC(=O)c1ccc(-c2c3nc(c(-c4cccc(S(=O)(=O)[O-])c4F)c4ccc([nH]4)c(-c4cccc(S(=O)(=O)[O-])c4F)c4nc(c(-c5cccc(S(=O)(=O)[O-])c5F)c5ccc2[nH]5)C=C4)C=C3)cc1
REMARK SMILES IDX 24 1 23 2 22 3 21 4 19 5 20 6 17 7 18 8 16 9 3 10 4 11 5 12
REMARK SMILES IDX 15 13 6 14 2 15 1 16 7 17 8 18 9 19 10 20 14 21 11 22 13 23
REMARK SMILES IDX 12 24 25 25 26 26 27 27 28 28 29 29 30 30 31 31 92 32 32 33
REMARK SMILES IDX 91 34 33 35 34 36 35 37 85 38 36 39 90 40 84 41 86 42 37 43
REMARK SMILES IDX 89 44 83 45 82 46 38 48 70 49 50 50 69 51 51 52 54 53 68 54
REMARK SMILES IDX 87 55 52 56 53 57 67 59 88 60 55 61 39 62 40 63 48 64 41 65
REMARK SMILES IDX 43 66 49 67 42 68 44 69 45 70 46 71 47 72 71 73 72 74 80 75
REMARK SMILES IDX 73 76 75 77 81 78 74 79 76 80 77 81 78 82 79 83 56 84 57 85
REMARK SMILES IDX 65 86 58 87 60 88 66 89 59 90 61 91 62 92 63 93 64 94
REMARK H PARENT 86 47 54 58
REMARK Flexibility Score: inf
ROOT
ATOM      1  O   UNL A   1      33.012  28.980  26.541  1.00  0.00    -0.374 OA
ENDROOT
BRANCH   1   2
ATOM      2  C   UNL A   1      33.751  27.977  25.839  1.00  0.00     0.202 C 
BRANCH   2   3
ATOM      3  C   UNL A   1      33.273  27.701  24.412  1.00  0.00     0.261 C 
BRANCH   3   4
ATOM      4  O   UNL A   1      33.514  26.329  24.046  1.00  0.00    -0.463 OA
BRANCH   4   5
ATOM      5  C   UNL A   1      33.574  26.044  22.719  1.00  0.00     0.313 C 
ATOM      6  O   UNL A   1      34.299  26.622  21.915  1.00  0.00    -0.252 OA
BRANCH   5   7
ATOM      7  C   UNL A   1      32.611  24.942  22.300  1.00  0.00     0.130 C 
ATOM      8  C   UNL A   1      31.457  25.533  21.492  1.00  0.00     0.025 C 
BRANCH   7   9
ATOM      9  C   UNL A   1      32.106  24.016  23.404  1.00  0.00     0.009 A 
ATOM     10  C   UNL A   1      31.027  24.373  24.228  1.00  0.00     0.122 A 
ATOM     11  C   UNL A   1      30.671  23.591  25.329  1.00  0.00     0.047 A 
ATOM     12  C   UNL A   1      31.401  22.441  25.638  1.00  0.00     0.016 A 
ATOM     13  C   UNL A   1      32.786  22.814  23.700  1.00  0.00     0.020 A 
ATOM     14  C   UNL A   1      32.486  22.055  24.841  1.00  0.00     0.023 A 
BRANCH  10  15
ATOM     15  O   UNL A   1      30.361  25.560  24.076  1.00  0.00    -0.496 OA
ATOM     16  C   UNL A   1      30.052  26.167  25.331  1.00  0.00     0.278 C 
ENDBRANCH  10  15
BRANCH  14  17
ATOM     17  C   UNL A   1      33.268  20.850  25.257  1.00  0.00     0.193 C 
ATOM     18  O   UNL A   1      33.825  20.872  26.356  1.00  0.00    -0.289 OA
BRANCH  17  19
ATOM     19  C   UNL A   1      33.374  19.611  24.432  1.00  0.00     0.022 A 
ATOM     20  C   UNL A   1      34.480  18.783  24.647  1.00  0.00     0.012 A 
ATOM     21  C   UNL A   1      32.433  19.242  23.465  1.00  0.00     0.012 A 
ATOM     22  C   UNL A   1      34.578  17.544  24.010  1.00  0.00     0.001 A 
ATOM     23  C   UNL A   1      32.526  17.999  22.832  1.00  0.00     0.001 A 
ATOM     24  C   UNL A   1      33.585  17.141  23.123  1.00  0.00     0.000 A 
ENDBRANCH  17  19
ENDBRANCH  14  17
ENDBRANCH   7   9
ENDBRANCH   5   7
ENDBRANCH   4   5
ENDBRANCH   3   4
ENDBRANCH   2   3
ENDBRANCH   1   2
BRANCH   1  25
ATOM     25  C   UNL A   1      32.408  29.995  25.741  1.00  0.00     0.202 C 
BRANCH  25  26
ATOM     26  C   UNL A   1      32.017  31.286  26.467  1.00  0.00     0.261 C 
BRANCH  26  27
ATOM     27  O   UNL A   1      32.675  31.414  27.736  1.00  0.00    -0.460 OA
BRANCH  27  28
ATOM     28  C   UNL A   1      33.599  32.402  27.792  1.00  0.00     0.338 C 
ATOM     29  O   UNL A   1      33.387  33.610  27.758  1.00  0.00    -0.246 OA
BRANCH  28  30
ATOM     30  C   UNL A   1      34.933  31.841  28.065  1.00  0.00     0.060 A 
ATOM     31  C   UNL A   1      35.016  30.476  28.371  1.00  0.00     0.016 A 
ATOM     32  C   UNL A   1      36.074  32.642  28.099  1.00  0.00     0.016 A 
ATOM     33  C   UNL A   1      36.230  29.919  28.776  1.00  0.00     0.010 A 
ATOM     34  C   UNL A   1      37.285  32.077  28.512  1.00  0.00     0.010 A 
ATOM     35  C   UNL A   1      37.368  30.725  28.890  1.00  0.00    -0.014 A 
BRANCH  35  36
ATOM     36  C   UNL A   1      38.589  30.209  29.565  1.00  0.00     0.031 A 
ATOM     37  C   UNL A   1      38.894  30.666  30.970  1.00  0.00     0.074 A 
ATOM     38  C   UNL A   1      39.426  29.352  28.946  1.00  0.00     0.049 A 
ATOM     39  N   UNL A   1      39.895  30.347  31.749  1.00  0.00    -0.248 NA
ATOM     40  C   UNL A   1      37.956  31.632  31.569  1.00  0.00     0.031 C 
ATOM     41  C   UNL A   1      39.283  28.862  27.575  1.00  0.00     0.029 A 
ATOM     42  N   UNL A   1      40.578  28.753  29.395  1.00  0.00    -0.354 N 
ATOM     43  C   UNL A   1      39.729  31.099  32.907  1.00  0.00     0.074 A 
ATOM     44  C   UNL A   1      38.559  31.925  32.711  1.00  0.00     0.031 C 
ATOM     45  C   UNL A   1      40.314  28.046  27.292  1.00  0.00     0.029 A 
ATOM     46  C   UNL A   1      41.190  27.955  28.458  1.00  0.00     0.049 A 
ATOM     47  H   UNL A   1      40.932  28.884  30.304  1.00  0.00     0.167 HD
ATOM     48  C   UNL A   1      40.451  31.078  34.052  1.00  0.00     0.034 A 
ATOM     49  C   UNL A   1      42.324  27.228  28.536  1.00  0.00     0.034 A 
ATOM     50  C   UNL A   1      41.571  30.208  34.280  1.00  0.00     0.049 A 
ATOM     51  C   UNL A   1      43.081  27.175  29.841  1.00  0.00     0.074 A 
ATOM     52  C   UNL A   1      42.319  30.052  35.434  1.00  0.00     0.029 A 
ATOM     53  N   UNL A   1      42.099  29.340  33.340  1.00  0.00    -0.354 N 
ATOM     54  N   UNL A   1      42.816  27.776  30.975  1.00  0.00    -0.248 NA
ATOM     55  C   UNL A   1      44.263  26.300  29.890  1.00  0.00     0.031 C 
ATOM     56  C   UNL A   1      43.305  29.090  35.187  1.00  0.00     0.029 A 
ATOM     57  C   UNL A   1      43.158  28.638  33.885  1.00  0.00     0.049 A 
ATOM     58  H   UNL A   1      41.769  29.238  32.417  1.00  0.00     0.167 HD
ATOM     59  C   UNL A   1      43.763  27.311  31.884  1.00  0.00     0.074 A 
ATOM     60  C   UNL A   1      44.599  26.370  31.171  1.00  0.00     0.031 C 
ATOM     61  C   UNL A   1      43.932  27.643  33.188  1.00  0.00     0.034 A 
BRANCH  48  62
ATOM     62  C   UNL A   1      40.002  31.982  35.170  1.00  0.00     0.023 A 
ATOM     63  C   UNL A   1      40.471  33.311  35.219  1.00  0.00     0.012 A 
ATOM     64  C   UNL A   1      39.099  31.532  36.153  1.00  0.00     0.148 A 
ATOM     65  C   UNL A   1      40.088  34.164  36.253  1.00  0.00     0.002 A 
ATOM     66  C   UNL A   1      38.683  32.403  37.154  1.00  0.00     0.091 A 
ATOM     67  F   UNL A   1      38.679  30.260  36.103  1.00  0.00    -0.205 F 
ATOM     68  C   UNL A   1      39.189  33.713  37.213  1.00  0.00     0.022 A 
BRANCH  66  69
ATOM     69  S   UNL A   1      37.463  31.945  38.389  1.00  0.00     0.127 S 
ATOM     70  O   UNL A   1      36.411  32.931  38.146  1.00  0.00    -0.237 OA
ATOM     71  O   UNL A   1      37.121  30.578  37.992  1.00  0.00    -0.237 OA
ATOM     72  O   UNL A   1      38.137  32.051  39.675  1.00  0.00    -0.744 OA
ENDBRANCH  66  69
ENDBRANCH  48  62
BRANCH  49  73
ATOM     73  C   UNL A   1      42.775  26.414  27.370  1.00  0.00     0.023 A 
ATOM     74  C   UNL A   1      43.626  26.996  26.409  1.00  0.00     0.012 A 
ATOM     75  C   UNL A   1      42.368  25.078  27.205  1.00  0.00     0.148 A 
ATOM     76  C   UNL A   1      44.030  26.274  25.285  1.00  0.00     0.002 A 
ATOM     77  C   UNL A   1      42.816  24.347  26.110  1.00  0.00     0.091 A 
ATOM     78  F   UNL A   1      41.550  24.544  28.124  1.00  0.00    -0.205 F 
ATOM     79  C   UNL A   1      43.631  24.949  25.138  1.00  0.00     0.022 A 
BRANCH  77  80
ATOM     80  S   UNL A   1      42.455  22.599  25.906  1.00  0.00     0.127 S 
ATOM     81  O   UNL A   1      43.057  22.317  24.607  1.00  0.00    -0.237 OA
ATOM     82  O   UNL A   1      43.154  22.011  27.050  1.00  0.00    -0.237 OA
ATOM     83  O   UNL A   1      41.005  22.491  25.975  1.00  0.00    -0.744 OA
ENDBRANCH  77  80
ENDBRANCH  49  73
BRANCH  61  84
ATOM     84  C   UNL A   1      45.020  26.943  33.960  1.00  0.00     0.023 A 
ATOM     85  C   UNL A   1      44.740  25.742  34.641  1.00  0.00     0.012 A 
ATOM     86  C   UNL A   1      46.340  27.437  33.944  1.00  0.00     0.148 A 
ATOM     87  C   UNL A   1      45.749  25.063  35.324  1.00  0.00     0.002 A 
ATOM     88  C   UNL A   1      47.350  26.729  34.587  1.00  0.00     0.091 A 
ATOM     89  F   UNL A   1      46.586  28.592  33.310  1.00  0.00    -0.205 F 
ATOM     90  C   UNL A   1      47.055  25.549  35.287  1.00  0.00     0.022 A 
BRANCH  88  91
ATOM     91  S   UNL A   1      49.072  27.236  34.500  1.00  0.00     0.127 S 
ATOM     92  O   UNL A   1      49.742  26.139  35.195  1.00  0.00    -0.237 OA
ATOM     93  O   UNL A   1      49.314  27.282  33.057  1.00  0.00    -0.237 OA
ATOM     94  O   UNL A   1      49.135  28.534  35.159  1.00  0.00    -0.744 OA
ENDBRANCH  88  91
ENDBRANCH  61  84
ENDBRANCH  35  36
ENDBRANCH  28  30
ENDBRANCH  27  28
ENDBRANCH  26  27
ENDBRANCH  25  26
ENDBRANCH   1  25
TORSDOF 21
ENDMDL
