MODEL 1
REMARK VINA RESULT:     -10.7      0.000      0.000
REMARK SMILES O=C(OCCOCCOC(=O)c1cc(NC(=S)NC(=O)c2ccccc2F)ccc1Cl)c1ccc(-c2c3nc(c(-c4cccc(S(=O)(=O)[O-])c4F)c4ccc([nH]4)c(-c4cccc(S(=O)(=O)[O-])c4F)c4nc(c(-c5cccc(S(=O)(=O)[O-])c5F)c5ccc2[nH]5)C=C4)C=C3)cc1
REMARK SMILES IDX 7 1 6 2 5 3 4 4 3 5 2 6 1 7 32 8 33 9 94 10 34 11 93 12
REMARK SMILES IDX 35 13 36 14 37 15 87 16 38 17 92 18 86 19 88 20 39 21 91 22
REMARK SMILES IDX 85 23 84 24 40 26 72 27 52 28 71 29 53 30 56 31 70 32 89 33
REMARK SMILES IDX 54 34 55 35 69 37 90 38 57 39 41 40 42 41 50 42 43 43 45 44
REMARK SMILES IDX 51 45 44 46 46 47 47 48 48 49 49 50 73 51 74 52 82 53 75 54
REMARK SMILES IDX 77 55 83 56 76 57 78 58 79 59 80 60 81 61 58 62 59 63 67 64
REMARK SMILES IDX 60 65 62 66 68 67 61 68 63 69 64 70 65 71 66 72 8 73 9 74
REMARK SMILES IDX 10 75 11 76 12 77 13 78 30 79 14 80 29 81 31 82 28 83 15 84
REMARK SMILES IDX 16 86 17 87 18 88 19 89 20 91 21 92 22 93 26 94 23 95 25 96
REMARK SMILES IDX 27 97 24 98
REMARK H PARENT 88 25 56 36 15 85 18 90
REMARK Flexibility Score: inf
ROOT
ATOM      1  C   UNL A   1      37.975  21.419  25.414  1.00  0.00     0.202 C 
ENDROOT
BRANCH   1   2
ATOM      2  O   UNL A   1      39.034  22.339  25.696  1.00  0.00    -0.374 OA
BRANCH   2   3
ATOM      3  C   UNL A   1      39.918  21.986  26.748  1.00  0.00     0.202 C 
BRANCH   3   4
ATOM      4  C   UNL A   1      40.639  20.631  26.868  1.00  0.00     0.261 C 
BRANCH   4   5
ATOM      5  O   UNL A   1      41.439  20.325  25.701  1.00  0.00    -0.460 OA
BRANCH   5   6
ATOM      6  C   UNL A   1      42.807  20.354  25.658  1.00  0.00     0.338 C 
ATOM      7  O   UNL A   1      43.465  19.330  25.543  1.00  0.00    -0.246 OA
BRANCH   6   8
ATOM      8  C   UNL A   1      43.451  21.681  25.700  1.00  0.00     0.060 A 
ATOM      9  C   UNL A   1      44.141  22.029  26.830  1.00  0.00     0.016 A 
ATOM     10  C   UNL A   1      43.354  22.632  24.706  1.00  0.00     0.016 A 
ATOM     11  C   UNL A   1      44.082  23.295  27.301  1.00  0.00     0.010 A 
ATOM     12  C   UNL A   1      43.824  23.918  24.998  1.00  0.00     0.010 A 
ATOM     13  C   UNL A   1      44.126  24.259  26.332  1.00  0.00    -0.014 A 
BRANCH  13  14
ATOM     14  C   UNL A   1      44.506  25.586  26.818  1.00  0.00     0.031 A 
ATOM     15  C   UNL A   1      43.465  26.383  27.507  1.00  0.00     0.074 A 
ATOM     16  C   UNL A   1      45.801  25.969  26.759  1.00  0.00     0.049 A 
ATOM     17  N   UNL A   1      43.524  27.617  27.904  1.00  0.00    -0.248 NA
ATOM     18  C   UNL A   1      42.183  25.709  27.781  1.00  0.00     0.031 C 
ATOM     19  C   UNL A   1      46.921  25.152  26.255  1.00  0.00     0.029 A 
ATOM     20  N   UNL A   1      46.412  27.125  27.158  1.00  0.00    -0.354 N 
ATOM     21  C   UNL A   1      42.258  27.900  28.379  1.00  0.00     0.074 A 
ATOM     22  C   UNL A   1      41.455  26.709  28.247  1.00  0.00     0.031 C 
ATOM     23  C   UNL A   1      48.071  25.815  26.415  1.00  0.00     0.029 A 
ATOM     24  C   UNL A   1      47.760  27.150  26.885  1.00  0.00     0.049 A 
ATOM     25  H   UNL A   1      45.935  27.865  27.599  1.00  0.00     0.167 HD
ATOM     26  C   UNL A   1      41.821  29.079  28.861  1.00  0.00     0.034 A 
ATOM     27  C   UNL A   1      48.635  28.169  26.935  1.00  0.00     0.034 A 
ATOM     28  C   UNL A   1      42.674  30.223  28.982  1.00  0.00     0.049 A 
ATOM     29  C   UNL A   1      48.102  29.492  27.387  1.00  0.00     0.074 A 
ATOM     30  C   UNL A   1      42.352  31.487  29.427  1.00  0.00     0.029 A 
ATOM     31  N   UNL A   1      44.022  30.239  28.640  1.00  0.00    -0.354 N 
ATOM     32  N   UNL A   1      46.889  29.783  27.793  1.00  0.00    -0.248 NA
ATOM     33  C   UNL A   1      49.035  30.620  27.400  1.00  0.00     0.031 C 
ATOM     34  C   UNL A   1      43.488  32.286  29.291  1.00  0.00     0.029 A 
ATOM     35  C   UNL A   1      44.543  31.500  28.839  1.00  0.00     0.049 A 
ATOM     36  H   UNL A   1      44.530  29.465  28.304  1.00  0.00     0.167 HD
ATOM     37  C   UNL A   1      46.915  31.122  28.143  1.00  0.00     0.074 A 
ATOM     38  C   UNL A   1      48.271  31.583  27.902  1.00  0.00     0.031 C 
ATOM     39  C   UNL A   1      45.913  31.898  28.621  1.00  0.00     0.034 A 
BRANCH  26  40
ATOM     40  C   UNL A   1      40.363  29.185  29.183  1.00  0.00     0.023 A 
ATOM     41  C   UNL A   1      39.410  29.420  28.172  1.00  0.00     0.012 A 
ATOM     42  C   UNL A   1      39.945  29.073  30.522  1.00  0.00     0.148 A 
ATOM     43  C   UNL A   1      38.064  29.578  28.497  1.00  0.00     0.002 A 
ATOM     44  C   UNL A   1      38.597  29.165  30.828  1.00  0.00     0.091 A 
ATOM     45  F   UNL A   1      40.877  28.905  31.470  1.00  0.00    -0.205 F 
ATOM     46  C   UNL A   1      37.657  29.435  29.822  1.00  0.00     0.022 A 
BRANCH  44  47
ATOM     47  S   UNL A   1      37.973  28.907  32.489  1.00  0.00     0.127 S 
ATOM     48  O   UNL A   1      38.831  29.798  33.270  1.00  0.00    -0.237 OA
ATOM     49  O   UNL A   1      36.585  29.353  32.361  1.00  0.00    -0.237 OA
ATOM     50  O   UNL A   1      38.135  27.488  32.770  1.00  0.00    -0.744 OA
ENDBRANCH  44  47
ENDBRANCH  26  40
BRANCH  27  51
ATOM     51  C   UNL A   1      50.048  27.954  26.517  1.00  0.00     0.023 A 
ATOM     52  C   UNL A   1      50.410  28.135  25.170  1.00  0.00     0.012 A 
ATOM     53  C   UNL A   1      51.056  27.671  27.465  1.00  0.00     0.148 A 
ATOM     54  C   UNL A   1      51.746  28.028  24.773  1.00  0.00     0.002 A 
ATOM     55  C   UNL A   1      52.388  27.622  27.074  1.00  0.00     0.091 A 
ATOM     56  F   UNL A   1      50.691  27.503  28.745  1.00  0.00    -0.205 F 
ATOM     57  C   UNL A   1      52.734  27.786  25.725  1.00  0.00     0.022 A 
BRANCH  55  58
ATOM     58  S   UNL A   1      53.740  27.443  28.245  1.00  0.00     0.127 S 
ATOM     59  O   UNL A   1      53.260  26.352  29.090  1.00  0.00    -0.237 OA
ATOM     60  O   UNL A   1      54.854  27.095  27.364  1.00  0.00    -0.237 OA
ATOM     61  O   UNL A   1      53.870  28.734  28.907  1.00  0.00    -0.744 OA
ENDBRANCH  55  58
ENDBRANCH  27  51
BRANCH  39  62
ATOM     62  C   UNL A   1      46.242  33.319  28.976  1.00  0.00     0.023 A 
ATOM     63  C   UNL A   1      46.838  33.616  30.214  1.00  0.00     0.012 A 
ATOM     64  C   UNL A   1      46.123  34.318  27.991  1.00  0.00     0.148 A 
ATOM     65  C   UNL A   1      47.316  34.900  30.466  1.00  0.00     0.002 A 
ATOM     66  C   UNL A   1      46.659  35.573  28.226  1.00  0.00     0.091 A 
ATOM     67  F   UNL A   1      45.536  34.001  26.828  1.00  0.00    -0.205 F 
ATOM     68  C   UNL A   1      47.247  35.870  29.466  1.00  0.00     0.022 A 
BRANCH  66  69
ATOM     69  S   UNL A   1      46.735  36.836  26.953  1.00  0.00     0.127 S 
ATOM     70  O   UNL A   1      45.320  37.156  26.769  1.00  0.00    -0.237 OA
ATOM     71  O   UNL A   1      47.519  37.883  27.607  1.00  0.00    -0.237 OA
ATOM     72  O   UNL A   1      47.383  36.219  25.803  1.00  0.00    -0.744 OA
ENDBRANCH  66  69
ENDBRANCH  39  62
ENDBRANCH  13  14
ENDBRANCH   6   8
ENDBRANCH   5   6
ENDBRANCH   4   5
ENDBRANCH   3   4
ENDBRANCH   2   3
ENDBRANCH   1   2
BRANCH   1  73
ATOM     73  C   UNL A   1      36.610  22.055  25.618  1.00  0.00     0.261 C 
BRANCH  73  74
ATOM     74  O   UNL A   1      35.764  21.818  24.470  1.00  0.00    -0.460 OA
BRANCH  74  75
ATOM     75  C   UNL A   1      34.654  21.099  24.761  1.00  0.00     0.339 C 
ATOM     76  O   UNL A   1      34.604  19.892  24.945  1.00  0.00    -0.246 OA
BRANCH  75  77
ATOM     77  C   UNL A   1      33.392  21.939  24.651  1.00  0.00     0.080 A 
ATOM     78  C   UNL A   1      32.353  22.898  23.214  1.00  0.00     0.043 A 
ATOM     79  C   UNL A   1      33.086  22.531  26.337  1.00  0.00     0.055 A 
ATOM     80  C   UNL A   1      31.399  24.251  23.483  1.00  0.00     0.041 A 
ATOM     81  C   UNL A   1      31.955  23.902  26.542  1.00  0.00     0.023 A 
ATOM     82  Cl  UNL A   1      33.806  21.820  27.726  1.00  0.00    -0.083 Cl
ATOM     83  C   UNL A   1      31.161  24.733  25.150  1.00  0.00     0.028 A 
BRANCH  80  84
ATOM     84  N   UNL A   1      31.286  24.969  22.273  1.00  0.00    -0.332 N 
ATOM     85  H   UNL A   1      30.430  24.845  21.802  1.00  0.00     0.169 HD
BRANCH  84  86
ATOM     86  C   UNL A   1      32.183  25.819  21.632  1.00  0.00     0.177 C 
ATOM     87  S   UNL A   1      32.554  25.430  20.037  1.00  0.00    -0.040 S 
BRANCH  86  88
ATOM     88  N   UNL A   1      32.838  27.000  22.135  1.00  0.00    -0.299 N 
ATOM     89  C   UNL A   1      33.152  28.021  23.178  1.00  0.00     0.260 C 
ATOM     90  H   UNL A   1      33.377  27.297  21.367  1.00  0.00     0.172 HD
ATOM     91  O   UNL A   1      33.964  28.913  22.946  1.00  0.00    -0.269 OA
BRANCH  89  92
ATOM     92  C   UNL A   1      32.519  27.950  24.544  1.00  0.00     0.075 A 
ATOM     93  C   UNL A   1      33.821  27.472  25.605  1.00  0.00     0.017 A 
ATOM     94  C   UNL A   1      31.445  29.377  24.856  1.00  0.00     0.135 A 
ATOM     95  C   UNL A   1      34.255  28.589  26.910  1.00  0.00     0.001 A 
ATOM     96  C   UNL A   1      31.749  30.567  26.130  1.00  0.00     0.040 A 
ATOM     97  F   UNL A   1      30.734  29.844  23.812  1.00  0.00    -0.206 F 
ATOM     98  C   UNL A   1      33.200  30.299  27.170  1.00  0.00     0.003 A 
ENDBRANCH  89  92
ENDBRANCH  86  88
ENDBRANCH  84  86
ENDBRANCH  80  84
ENDBRANCH  75  77
ENDBRANCH  74  75
ENDBRANCH  73  74
ENDBRANCH   1  73
TORSDOF 21
ENDMDL
MODEL 2
REMARK VINA RESULT:      -9.8      3.176      8.397
REMARK SMILES O=C(OCCOCCOC(=O)c1cc(NC(=S)NC(=O)c2ccccc2F)ccc1Cl)c1ccc(-c2c3nc(c(-c4cccc(S(=O)(=O)[O-])c4F)c4ccc([nH]4)c(-c4cccc(S(=O)(=O)[O-])c4F)c4nc(c(-c5cccc(S(=O)(=O)[O-])c5F)c5ccc2[nH]5)C=C4)C=C3)cc1
REMARK SMILES IDX 7 1 6 2 5 3 4 4 3 5 2 6 1 7 32 8 33 9 94 10 34 11 93 12
REMARK SMILES IDX 35 13 36 14 37 15 87 16 38 17 92 18 86 19 88 20 39 21 91 22
REMARK SMILES IDX 85 23 84 24 40 26 72 27 52 28 71 29 53 30 56 31 70 32 89 33
REMARK SMILES IDX 54 34 55 35 69 37 90 38 57 39 41 40 42 41 50 42 43 43 45 44
REMARK SMILES IDX 51 45 44 46 46 47 47 48 48 49 49 50 73 51 74 52 82 53 75 54
REMARK SMILES IDX 77 55 83 56 76 57 78 58 79 59 80 60 81 61 58 62 59 63 67 64
REMARK SMILES IDX 60 65 62 66 68 67 61 68 63 69 64 70 65 71 66 72 8 73 9 74
REMARK SMILES IDX 10 75 11 76 12 77 13 78 30 79 14 80 29 81 31 82 28 83 15 84
REMARK SMILES IDX 16 86 17 87 18 88 19 89 20 91 21 92 22 93 26 94 23 95 25 96
REMARK SMILES IDX 27 97 24 98
REMARK H PARENT 88 25 56 36 15 85 18 90
REMARK Flexibility Score: inf
ROOT
ATOM      1  C   UNL A   1      38.092  24.049  26.353  1.00  0.00     0.202 C 
ENDROOT
BRANCH   1   2
ATOM      2  O   UNL A   1      39.521  23.992  26.356  1.00  0.00    -0.374 OA
BRANCH   2   3
ATOM      3  C   UNL A   1      40.111  22.923  27.079  1.00  0.00     0.202 C 
BRANCH   3   4
ATOM      4  C   UNL A   1      41.061  21.874  26.473  1.00  0.00     0.261 C 
BRANCH   4   5
ATOM      5  O   UNL A   1      42.438  22.323  26.454  1.00  0.00    -0.460 OA
BRANCH   5   6
ATOM      6  C   UNL A   1      43.008  23.066  25.456  1.00  0.00     0.338 C 
ATOM      7  O   UNL A   1      43.278  22.577  24.368  1.00  0.00    -0.246 OA
BRANCH   6   8
ATOM      8  C   UNL A   1      43.230  24.499  25.731  1.00  0.00     0.060 A 
ATOM      9  C   UNL A   1      43.979  24.839  26.826  1.00  0.00     0.016 A 
ATOM     10  C   UNL A   1      42.680  25.532  25.002  1.00  0.00     0.016 A 
ATOM     11  C   UNL A   1      43.636  25.907  27.580  1.00  0.00     0.010 A 
ATOM     12  C   UNL A   1      42.796  26.824  25.528  1.00  0.00     0.010 A 
ATOM     13  C   UNL A   1      43.220  26.993  26.862  1.00  0.00    -0.014 A 
BRANCH  13  14
ATOM     14  C   UNL A   1      43.274  28.258  27.596  1.00  0.00     0.031 A 
ATOM     15  C   UNL A   1      44.561  28.993  27.594  1.00  0.00     0.074 A 
ATOM     16  C   UNL A   1      42.137  28.777  28.110  1.00  0.00     0.049 A 
ATOM     17  N   UNL A   1      44.885  30.052  28.268  1.00  0.00    -0.248 NA
ATOM     18  C   UNL A   1      45.627  28.464  26.724  1.00  0.00     0.031 C 
ATOM     19  C   UNL A   1      40.788  28.191  27.988  1.00  0.00     0.029 A 
ATOM     20  N   UNL A   1      41.913  29.933  28.804  1.00  0.00    -0.354 N 
ATOM     21  C   UNL A   1      46.223  30.257  27.987  1.00  0.00     0.074 A 
ATOM     22  C   UNL A   1      46.647  29.232  27.065  1.00  0.00     0.031 C 
ATOM     23  C   UNL A   1      39.889  29.006  28.548  1.00  0.00     0.029 A 
ATOM     24  C   UNL A   1      40.604  30.088  29.197  1.00  0.00     0.049 A 
ATOM     25  H   UNL A   1      42.619  30.590  29.002  1.00  0.00     0.167 HD
ATOM     26  C   UNL A   1      47.016  31.221  28.493  1.00  0.00     0.034 A 
ATOM     27  C   UNL A   1      40.054  30.965  30.054  1.00  0.00     0.034 A 
ATOM     28  C   UNL A   1      46.529  32.222  29.394  1.00  0.00     0.049 A 
ATOM     29  C   UNL A   1      40.976  31.968  30.672  1.00  0.00     0.074 A 
ATOM     30  C   UNL A   1      47.232  33.238  30.004  1.00  0.00     0.029 A 
ATOM     31  N   UNL A   1      45.211  32.319  29.825  1.00  0.00    -0.354 N 
ATOM     32  N   UNL A   1      42.258  32.139  30.450  1.00  0.00    -0.248 NA
ATOM     33  C   UNL A   1      40.397  32.898  31.644  1.00  0.00     0.031 C 
ATOM     34  C   UNL A   1      46.353  33.909  30.855  1.00  0.00     0.029 A 
ATOM     35  C   UNL A   1      45.082  33.364  30.714  1.00  0.00     0.049 A 
ATOM     36  H   UNL A   1      44.477  31.727  29.537  1.00  0.00     0.167 HD
ATOM     37  C   UNL A   1      42.639  33.219  31.228  1.00  0.00     0.074 A 
ATOM     38  C   UNL A   1      41.446  33.662  31.927  1.00  0.00     0.031 C 
ATOM     39  C   UNL A   1      43.860  33.791  31.353  1.00  0.00     0.034 A 
BRANCH  26  40
ATOM     40  C   UNL A   1      48.472  31.154  28.150  1.00  0.00     0.023 A 
ATOM     41  C   UNL A   1      49.000  31.896  27.075  1.00  0.00     0.012 A 
ATOM     42  C   UNL A   1      49.317  30.316  28.901  1.00  0.00     0.148 A 
ATOM     43  C   UNL A   1      50.345  31.775  26.731  1.00  0.00     0.002 A 
ATOM     44  C   UNL A   1      50.667  30.253  28.593  1.00  0.00     0.091 A 
ATOM     45  F   UNL A   1      48.779  29.580  29.883  1.00  0.00    -0.205 F 
ATOM     46  C   UNL A   1      51.180  30.966  27.500  1.00  0.00     0.022 A 
BRANCH  44  47
ATOM     47  S   UNL A   1      51.830  29.309  29.579  1.00  0.00     0.127 S 
ATOM     48  O   UNL A   1      51.031  28.138  29.939  1.00  0.00    -0.237 OA
ATOM     49  O   UNL A   1      52.898  29.048  28.614  1.00  0.00    -0.237 OA
ATOM     50  O   UNL A   1      52.209  30.166  30.693  1.00  0.00    -0.744 OA
ENDBRANCH  44  47
ENDBRANCH  26  40
BRANCH  27  51
ATOM     51  C   UNL A   1      38.601  30.882  30.371  1.00  0.00     0.023 A 
ATOM     52  C   UNL A   1      38.161  30.027  31.397  1.00  0.00     0.012 A 
ATOM     53  C   UNL A   1      37.665  31.722  29.728  1.00  0.00     0.148 A 
ATOM     54  C   UNL A   1      36.815  30.003  31.771  1.00  0.00     0.002 A 
ATOM     55  C   UNL A   1      36.339  31.733  30.143  1.00  0.00     0.091 A 
ATOM     56  F   UNL A   1      38.104  32.529  28.752  1.00  0.00    -0.205 F 
ATOM     57  C   UNL A   1      35.909  30.863  31.155  1.00  0.00     0.022 A 
BRANCH  55  58
ATOM     58  S   UNL A   1      35.128  32.895  29.499  1.00  0.00     0.127 S 
ATOM     59  O   UNL A   1      34.870  32.350  28.168  1.00  0.00    -0.237 OA
ATOM     60  O   UNL A   1      34.029  32.739  30.452  1.00  0.00    -0.237 OA
ATOM     61  O   UNL A   1      35.773  34.200  29.524  1.00  0.00    -0.744 OA
ENDBRANCH  55  58
ENDBRANCH  27  51
BRANCH  39  62
ATOM     62  C   UNL A   1      43.975  35.001  32.234  1.00  0.00     0.023 A 
ATOM     63  C   UNL A   1      43.829  36.287  31.687  1.00  0.00     0.012 A 
ATOM     64  C   UNL A   1      44.042  34.831  33.630  1.00  0.00     0.148 A 
ATOM     65  C   UNL A   1      43.745  37.396  32.525  1.00  0.00     0.002 A 
ATOM     66  C   UNL A   1      43.892  35.931  34.458  1.00  0.00     0.091 A 
ATOM     67  F   UNL A   1      44.196  33.590  34.115  1.00  0.00    -0.205 F 
ATOM     68  C   UNL A   1      43.754  37.215  33.909  1.00  0.00     0.022 A 
BRANCH  66  69
ATOM     69  S   UNL A   1      43.758  35.776  36.241  1.00  0.00     0.127 S 
ATOM     70  O   UNL A   1      43.584  37.170  36.646  1.00  0.00    -0.237 OA
ATOM     71  O   UNL A   1      42.565  34.942  36.386  1.00  0.00    -0.237 OA
ATOM     72  O   UNL A   1      44.995  35.152  36.692  1.00  0.00    -0.744 OA
ENDBRANCH  66  69
ENDBRANCH  39  62
ENDBRANCH  13  14
ENDBRANCH   6   8
ENDBRANCH   5   6
ENDBRANCH   4   5
ENDBRANCH   3   4
ENDBRANCH   2   3
ENDBRANCH   1   2
BRANCH   1  73
ATOM     73  C   UNL A   1      37.487  22.919  25.535  1.00  0.00     0.261 C 
BRANCH  73  74
ATOM     74  O   UNL A   1      36.071  23.137  25.341  1.00  0.00    -0.460 OA
BRANCH  74  75
ATOM     75  C   UNL A   1      35.413  22.034  24.909  1.00  0.00     0.339 C 
ATOM     76  O   UNL A   1      35.921  20.969  24.594  1.00  0.00    -0.246 OA
BRANCH  75  77
ATOM     77  C   UNL A   1      33.940  22.316  24.664  1.00  0.00     0.080 A 
ATOM     78  C   UNL A   1      32.797  23.184  23.248  1.00  0.00     0.043 A 
ATOM     79  C   UNL A   1      33.173  22.210  26.304  1.00  0.00     0.055 A 
ATOM     80  C   UNL A   1      31.318  23.918  23.548  1.00  0.00     0.041 A 
ATOM     81  C   UNL A   1      31.539  22.910  26.502  1.00  0.00     0.023 A 
ATOM     82  Cl  UNL A   1      33.931  21.450  27.646  1.00  0.00    -0.083 Cl
ATOM     83  C   UNL A   1      30.663  23.748  25.163  1.00  0.00     0.028 A 
BRANCH  80  84
ATOM     84  N   UNL A   1      31.072  24.864  22.530  1.00  0.00    -0.332 N 
ATOM     85  H   UNL A   1      30.715  24.483  21.695  1.00  0.00     0.169 HD
BRANCH  84  86
ATOM     86  C   UNL A   1      31.253  26.244  22.506  1.00  0.00     0.177 C 
ATOM     87  S   UNL A   1      29.910  27.170  22.921  1.00  0.00    -0.040 S 
BRANCH  86  88
ATOM     88  N   UNL A   1      32.435  27.004  22.184  1.00  0.00    -0.299 N 
ATOM     89  C   UNL A   1      33.635  27.826  22.517  1.00  0.00     0.260 C 
ATOM     90  H   UNL A   1      32.471  26.951  21.202  1.00  0.00     0.172 HD
ATOM     91  O   UNL A   1      34.394  28.203  21.628  1.00  0.00    -0.269 OA
BRANCH  89  92
ATOM     92  C   UNL A   1      33.966  28.166  23.948  1.00  0.00     0.075 A 
ATOM     93  C   UNL A   1      32.939  29.527  24.324  1.00  0.00     0.017 A 
ATOM     94  C   UNL A   1      34.074  26.678  24.978  1.00  0.00     0.135 A 
ATOM     95  C   UNL A   1      31.771  29.322  25.641  1.00  0.00     0.001 A 
ATOM     96  C   UNL A   1      32.983  26.347  26.332  1.00  0.00     0.040 A 
ATOM     97  F   UNL A   1      34.609  25.581  24.410  1.00  0.00    -0.206 F 
ATOM     98  C   UNL A   1      31.725  27.591  26.692  1.00  0.00     0.003 A 
ENDBRANCH  89  92
ENDBRANCH  86  88
ENDBRANCH  84  86
ENDBRANCH  80  84
ENDBRANCH  75  77
ENDBRANCH  74  75
ENDBRANCH  73  74
ENDBRANCH   1  73
TORSDOF 21
ENDMDL
MODEL 3
REMARK VINA RESULT:      -9.8      2.874      8.329
REMARK SMILES O=C(OCCOCCOC(=O)c1cc(NC(=S)NC(=O)c2ccccc2F)ccc1Cl)c1ccc(-c2c3nc(c(-c4cccc(S(=O)(=O)[O-])c4F)c4ccc([nH]4)c(-c4cccc(S(=O)(=O)[O-])c4F)c4nc(c(-c5cccc(S(=O)(=O)[O-])c5F)c5ccc2[nH]5)C=C4)C=C3)cc1
REMARK SMILES IDX 7 1 6 2 5 3 4 4 3 5 2 6 1 7 32 8 33 9 94 10 34 11 93 12
REMARK SMILES IDX 35 13 36 14 37 15 87 16 38 17 92 18 86 19 88 20 39 21 91 22
REMARK SMILES IDX 85 23 84 24 40 26 72 27 52 28 71 29 53 30 56 31 70 32 89 33
REMARK SMILES IDX 54 34 55 35 69 37 90 38 57 39 41 40 42 41 50 42 43 43 45 44
REMARK SMILES IDX 51 45 44 46 46 47 47 48 48 49 49 50 73 51 74 52 82 53 75 54
REMARK SMILES IDX 77 55 83 56 76 57 78 58 79 59 80 60 81 61 58 62 59 63 67 64
REMARK SMILES IDX 60 65 62 66 68 67 61 68 63 69 64 70 65 71 66 72 8 73 9 74
REMARK SMILES IDX 10 75 11 76 12 77 13 78 30 79 14 80 29 81 31 82 28 83 15 84
REMARK SMILES IDX 16 86 17 87 18 88 19 89 20 91 21 92 22 93 26 94 23 95 25 96
REMARK SMILES IDX 27 97 24 98
REMARK H PARENT 88 25 56 36 15 85 18 90
REMARK Flexibility Score: inf
ROOT
ATOM      1  C   UNL A   1      38.160  23.761  26.390  1.00  0.00     0.202 C 
ENDROOT
BRANCH   1   2
ATOM      2  O   UNL A   1      39.576  23.943  26.485  1.00  0.00    -0.374 OA
BRANCH   2   3
ATOM      3  C   UNL A   1      40.293  22.964  27.220  1.00  0.00     0.202 C 
BRANCH   3   4
ATOM      4  C   UNL A   1      41.324  21.995  26.614  1.00  0.00     0.261 C 
BRANCH   4   5
ATOM      5  O   UNL A   1      42.646  22.581  26.526  1.00  0.00    -0.460 OA
BRANCH   5   6
ATOM      6  C   UNL A   1      43.088  23.370  25.500  1.00  0.00     0.338 C 
ATOM      7  O   UNL A   1      43.273  22.918  24.379  1.00  0.00    -0.246 OA
BRANCH   6   8
ATOM      8  C   UNL A   1      43.277  24.804  25.790  1.00  0.00     0.060 A 
ATOM      9  C   UNL A   1      44.060  25.149  26.859  1.00  0.00     0.016 A 
ATOM     10  C   UNL A   1      42.665  25.831  25.103  1.00  0.00     0.016 A 
ATOM     11  C   UNL A   1      43.716  26.194  27.646  1.00  0.00     0.010 A 
ATOM     12  C   UNL A   1      42.763  27.117  25.647  1.00  0.00     0.010 A 
ATOM     13  C   UNL A   1      43.237  27.278  26.966  1.00  0.00    -0.014 A 
BRANCH  13  14
ATOM     14  C   UNL A   1      43.283  28.532  27.719  1.00  0.00     0.031 A 
ATOM     15  C   UNL A   1      44.535  29.320  27.655  1.00  0.00     0.074 A 
ATOM     16  C   UNL A   1      42.158  28.993  28.309  1.00  0.00     0.049 A 
ATOM     17  N   UNL A   1      44.856  30.381  28.329  1.00  0.00    -0.248 NA
ATOM     18  C   UNL A   1      45.569  28.851  26.714  1.00  0.00     0.031 C 
ATOM     19  C   UNL A   1      40.830  28.353  28.257  1.00  0.00     0.029 A 
ATOM     20  N   UNL A   1      41.929  30.127  29.038  1.00  0.00    -0.354 N 
ATOM     21  C   UNL A   1      46.165  30.647  27.974  1.00  0.00     0.074 A 
ATOM     22  C   UNL A   1      46.575  29.657  27.008  1.00  0.00     0.031 C 
ATOM     23  C   UNL A   1      39.933  29.119  28.885  1.00  0.00     0.029 A 
ATOM     24  C   UNL A   1      40.640  30.219  29.510  1.00  0.00     0.049 A 
ATOM     25  H   UNL A   1      42.618  30.810  29.207  1.00  0.00     0.167 HD
ATOM     26  C   UNL A   1      46.946  31.635  28.450  1.00  0.00     0.034 A 
ATOM     27  C   UNL A   1      40.107  31.058  30.415  1.00  0.00     0.034 A 
ATOM     28  C   UNL A   1      46.473  32.599  29.398  1.00  0.00     0.049 A 
ATOM     29  C   UNL A   1      41.022  32.089  30.997  1.00  0.00     0.074 A 
ATOM     30  C   UNL A   1      47.169  33.633  29.984  1.00  0.00     0.029 A 
ATOM     31  N   UNL A   1      45.180  32.633  29.907  1.00  0.00    -0.354 N 
ATOM     32  N   UNL A   1      42.280  32.318  30.703  1.00  0.00    -0.248 NA
ATOM     33  C   UNL A   1      40.465  32.977  32.019  1.00  0.00     0.031 C 
ATOM     34  C   UNL A   1      46.316  34.253  30.898  1.00  0.00     0.029 A 
ATOM     35  C   UNL A   1      45.062  33.656  30.823  1.00  0.00     0.049 A 
ATOM     36  H   UNL A   1      44.455  32.016  29.652  1.00  0.00     0.167 HD
ATOM     37  C   UNL A   1      42.662  33.399  31.478  1.00  0.00     0.074 A 
ATOM     38  C   UNL A   1      41.496  33.780  32.255  1.00  0.00     0.031 C 
ATOM     39  C   UNL A   1      43.864  34.020  31.541  1.00  0.00     0.034 A 
BRANCH  26  40
ATOM     40  C   UNL A   1      48.380  31.636  28.021  1.00  0.00     0.023 A 
ATOM     41  C   UNL A   1      48.813  32.422  26.934  1.00  0.00     0.012 A 
ATOM     42  C   UNL A   1      49.302  30.817  28.700  1.00  0.00     0.148 A 
ATOM     43  C   UNL A   1      50.139  32.364  26.509  1.00  0.00     0.002 A 
ATOM     44  C   UNL A   1      50.632  30.816  28.312  1.00  0.00     0.091 A 
ATOM     45  F   UNL A   1      48.853  30.038  29.693  1.00  0.00    -0.205 F 
ATOM     46  C   UNL A   1      51.050  31.574  27.207  1.00  0.00     0.022 A 
BRANCH  44  47
ATOM     47  S   UNL A   1      51.889  29.900  29.204  1.00  0.00     0.127 S 
ATOM     48  O   UNL A   1      51.631  28.532  28.758  1.00  0.00    -0.237 OA
ATOM     49  O   UNL A   1      53.120  30.493  28.681  1.00  0.00    -0.237 OA
ATOM     50  O   UNL A   1      51.645  30.147  30.618  1.00  0.00    -0.744 OA
ENDBRANCH  44  47
ENDBRANCH  26  40
BRANCH  27  51
ATOM     51  C   UNL A   1      38.681  30.908  30.816  1.00  0.00     0.023 A 
ATOM     52  C   UNL A   1      38.343  30.053  31.881  1.00  0.00     0.012 A 
ATOM     53  C   UNL A   1      37.668  31.686  30.214  1.00  0.00     0.148 A 
ATOM     54  C   UNL A   1      37.023  29.968  32.331  1.00  0.00     0.002 A 
ATOM     55  C   UNL A   1      36.368  31.639  30.703  1.00  0.00     0.091 A 
ATOM     56  F   UNL A   1      38.009  32.495  29.200  1.00  0.00    -0.205 F 
ATOM     57  C   UNL A   1      36.041  30.769  31.753  1.00  0.00     0.022 A 
BRANCH  55  58
ATOM     58  S   UNL A   1      35.064  32.724  30.109  1.00  0.00     0.127 S 
ATOM     59  O   UNL A   1      34.482  31.929  29.031  1.00  0.00    -0.237 OA
ATOM     60  O   UNL A   1      34.224  32.860  31.298  1.00  0.00    -0.237 OA
ATOM     61  O   UNL A   1      35.726  33.953  29.690  1.00  0.00    -0.744 OA
ENDBRANCH  55  58
ENDBRANCH  27  51
BRANCH  39  62
ATOM     62  C   UNL A   1      43.982  35.219  32.436  1.00  0.00     0.023 A 
ATOM     63  C   UNL A   1      44.518  35.085  33.728  1.00  0.00     0.012 A 
ATOM     64  C   UNL A   1      43.728  36.500  31.906  1.00  0.00     0.148 A 
ATOM     65  C   UNL A   1      44.804  36.218  34.486  1.00  0.00     0.002 A 
ATOM     66  C   UNL A   1      44.076  37.621  32.640  1.00  0.00     0.091 A 
ATOM     67  F   UNL A   1      43.203  36.588  30.676  1.00  0.00    -0.205 F 
ATOM     68  C   UNL A   1      44.605  37.484  33.934  1.00  0.00     0.022 A 
BRANCH  66  69
ATOM     69  S   UNL A   1      43.980  39.279  31.960  1.00  0.00     0.127 S 
ATOM     70  O   UNL A   1      42.897  39.861  32.750  1.00  0.00    -0.237 OA
ATOM     71  O   UNL A   1      45.310  39.810  32.258  1.00  0.00    -0.237 OA
ATOM     72  O   UNL A   1      43.692  39.122  30.540  1.00  0.00    -0.744 OA
ENDBRANCH  66  69
ENDBRANCH  39  62
ENDBRANCH  13  14
ENDBRANCH   6   8
ENDBRANCH   5   6
ENDBRANCH   4   5
ENDBRANCH   3   4
ENDBRANCH   2   3
ENDBRANCH   1   2
BRANCH   1  73
ATOM     73  C   UNL A   1      37.807  22.435  25.735  1.00  0.00     0.261 C 
BRANCH  73  74
ATOM     74  O   UNL A   1      36.444  22.065  26.042  1.00  0.00    -0.460 OA
BRANCH  74  75
ATOM     75  C   UNL A   1      35.899  21.221  25.135  1.00  0.00     0.339 C 
ATOM     76  O   UNL A   1      36.275  20.084  24.892  1.00  0.00    -0.246 OA
BRANCH  75  77
ATOM     77  C   UNL A   1      34.850  21.911  24.280  1.00  0.00     0.080 A 
ATOM     78  C   UNL A   1      34.721  23.532  23.087  1.00  0.00     0.043 A 
ATOM     79  C   UNL A   1      33.265  21.308  24.920  1.00  0.00     0.055 A 
ATOM     80  C   UNL A   1      33.307  24.392  22.814  1.00  0.00     0.041 A 
ATOM     81  C   UNL A   1      31.790  22.218  24.476  1.00  0.00     0.023 A 
ATOM     82  Cl  UNL A   1      33.122  19.902  25.898  1.00  0.00    -0.083 Cl
ATOM     83  C   UNL A   1      31.830  23.717  23.470  1.00  0.00     0.028 A 
BRANCH  80  84
ATOM     84  N   UNL A   1      33.649  25.707  22.430  1.00  0.00    -0.332 N 
ATOM     85  H   UNL A   1      33.978  25.790  21.506  1.00  0.00     0.169 HD
BRANCH  84  86
ATOM     86  C   UNL A   1      33.602  26.904  23.138  1.00  0.00     0.177 C 
ATOM     87  S   UNL A   1      33.505  28.306  22.211  1.00  0.00    -0.040 S 
BRANCH  86  88
ATOM     88  N   UNL A   1      33.613  27.121  24.564  1.00  0.00    -0.299 N 
ATOM     89  C   UNL A   1      32.993  27.480  25.873  1.00  0.00     0.260 C 
ATOM     90  H   UNL A   1      34.546  26.924  24.809  1.00  0.00     0.172 HD
ATOM     91  O   UNL A   1      33.653  27.423  26.907  1.00  0.00    -0.269 OA
BRANCH  89  92
ATOM     92  C   UNL A   1      31.539  27.868  25.958  1.00  0.00     0.075 A 
ATOM     93  C   UNL A   1      31.444  29.400  25.127  1.00  0.00     0.017 A 
ATOM     94  C   UNL A   1      30.452  26.462  25.596  1.00  0.00     0.135 A 
ATOM     95  C   UNL A   1      30.399  29.483  23.697  1.00  0.00     0.001 A 
ATOM     96  C   UNL A   1      29.351  26.411  24.212  1.00  0.00     0.040 A 
ATOM     97  F   UNL A   1      30.851  25.255  26.039  1.00  0.00    -0.206 F 
ATOM     98  C   UNL A   1      29.316  27.864  23.140  1.00  0.00     0.003 A 
ENDBRANCH  89  92
ENDBRANCH  86  88
ENDBRANCH  84  86
ENDBRANCH  80  84
ENDBRANCH  75  77
ENDBRANCH  74  75
ENDBRANCH  73  74
ENDBRANCH   1  73
TORSDOF 21
ENDMDL
