MODEL 1
REMARK VINA RESULT:     -11.3      0.000      0.000
REMARK SMILES C[C@H]1[C@H](C(=O)OCCOCCOC(=O)c2ccc(-c3c4nc(c(-c5cccc(S(=O)(=O)[O-])c5F)c5ccc([nH]5)c(-c5cccc(S(=O)(=O)[O-])c5F)c5nc(c(-c6cccc(S(=O)(=O)[O-])c6F)c6ccc3[nH]6)C=C5)C=C4)cc2)CCN1S(=O)(=O)C(F)(F)F
REMARK SMILES IDX 10 1 9 2 8 3 7 4 6 5 4 6 5 7 3 8 1 9 2 10 80 11 78 12 79 13
REMARK SMILES IDX 81 14 82 15 83 16 84 17 85 18 86 19 87 20 11 21 12 22 13 23
REMARK SMILES IDX 14 24 15 25 16 26 77 27 17 28 76 29 18 30 19 31 20 32 70 33
REMARK SMILES IDX 21 34 75 35 69 36 71 37 22 38 74 39 68 40 67 41 23 43 55 44
REMARK SMILES IDX 35 45 54 46 36 47 39 48 53 49 72 50 37 51 38 52 52 54 73 55
REMARK SMILES IDX 40 56 24 57 25 58 33 59 26 60 28 61 34 62 27 63 29 64 30 65
REMARK SMILES IDX 31 66 32 67 56 68 57 69 65 70 58 71 60 72 66 73 59 74 61 75
REMARK SMILES IDX 62 76 63 77 64 78 41 79 42 80 50 81 43 82 45 83 51 84 44 85
REMARK SMILES IDX 46 86 47 87 48 88 49 89
REMARK H PARENT 71 42 39 53
REMARK Flexibility Score: inf
ROOT
ATOM      1  C   UNL A   1      32.437  29.149  25.415  1.00  0.00     0.202 C 
ENDROOT
BRANCH   1   2
ATOM      2  O   UNL A   1      32.951  29.194  24.086  1.00  0.00    -0.374 OA
BRANCH   2   3
ATOM      3  C   UNL A   1      32.035  28.919  23.022  1.00  0.00     0.202 C 
BRANCH   3   4
ATOM      4  C   UNL A   1      32.038  27.479  22.500  1.00  0.00     0.261 C 
BRANCH   4   5
ATOM      5  O   UNL A   1      33.381  26.969  22.398  1.00  0.00    -0.463 OA
BRANCH   5   6
ATOM      6  C   UNL A   1      33.522  25.681  22.003  1.00  0.00     0.310 C 
ATOM      7  O   UNL A   1      33.266  25.253  20.884  1.00  0.00    -0.252 OA
BRANCH   6   8
ATOM      8  C   UNL A   1      34.016  24.779  23.111  1.00  0.00     0.118 C 
ATOM      9  C   UNL A   1      34.020  25.556  25.530  1.00  0.00     0.027 C 
ATOM     10  C   UNL A   1      33.230  24.833  24.435  1.00  0.00     0.084 C 
ATOM     11  N   UNL A   1      33.061  23.403  24.877  1.00  0.00    -0.190 NA
ATOM     12  C   UNL A   1      33.950  23.328  22.670  1.00  0.00     0.034 C 
ATOM     13  C   UNL A   1      33.910  22.570  23.980  1.00  0.00     0.104 C 
BRANCH  11  14
ATOM     14  S   UNL A   1      31.417  22.850  24.989  1.00  0.00     0.314 S 
ATOM     15  O   UNL A   1      30.776  23.324  23.776  1.00  0.00    -0.203 OA
ATOM     16  O   UNL A   1      31.511  21.422  25.246  1.00  0.00    -0.203 OA
BRANCH  14  17
ATOM     17  C   UNL A   1      30.736  23.723  26.494  1.00  0.00     0.511 C 
ATOM     18  F   UNL A   1      29.873  22.932  27.196  1.00  0.00    -0.155 F 
ATOM     19  F   UNL A   1      31.722  24.080  27.370  1.00  0.00    -0.155 F 
ATOM     20  F   UNL A   1      30.064  24.864  26.178  1.00  0.00    -0.155 F 
ENDBRANCH  14  17
ENDBRANCH  11  14
ENDBRANCH   6   8
ENDBRANCH   5   6
ENDBRANCH   4   5
ENDBRANCH   3   4
ENDBRANCH   2   3
ENDBRANCH   1   2
BRANCH   1  21
ATOM     21  C   UNL A   1      31.979  30.482  26.017  1.00  0.00     0.261 C 
BRANCH  21  22
ATOM     22  O   UNL A   1      32.451  30.660  27.363  1.00  0.00    -0.460 OA
BRANCH  22  23
ATOM     23  C   UNL A   1      33.210  31.768  27.542  1.00  0.00     0.338 C 
ATOM     24  O   UNL A   1      32.809  32.923  27.621  1.00  0.00    -0.246 OA
BRANCH  23  25
ATOM     25  C   UNL A   1      34.619  31.415  27.797  1.00  0.00     0.060 A 
ATOM     26  C   UNL A   1      34.910  30.054  27.949  1.00  0.00     0.016 A 
ATOM     27  C   UNL A   1      35.609  32.379  28.002  1.00  0.00     0.016 A 
ATOM     28  C   UNL A   1      36.167  29.656  28.392  1.00  0.00     0.010 A 
ATOM     29  C   UNL A   1      36.876  31.975  28.446  1.00  0.00     0.010 A 
ATOM     30  C   UNL A   1      37.141  30.617  28.698  1.00  0.00    -0.014 A 
BRANCH  30  31
ATOM     31  C   UNL A   1      38.348  30.187  29.446  1.00  0.00     0.031 A 
ATOM     32  C   UNL A   1      38.547  30.675  30.858  1.00  0.00     0.074 A 
ATOM     33  C   UNL A   1      39.219  29.313  28.909  1.00  0.00     0.049 A 
ATOM     34  N   UNL A   1      39.467  30.345  31.727  1.00  0.00    -0.248 NA
ATOM     35  C   UNL A   1      37.580  31.667  31.358  1.00  0.00     0.031 C 
ATOM     36  C   UNL A   1      39.143  28.771  27.553  1.00  0.00     0.029 A 
ATOM     37  N   UNL A   1      40.342  28.733  29.442  1.00  0.00    -0.354 N 
ATOM     38  C   UNL A   1      39.202  31.096  32.866  1.00  0.00     0.074 A 
ATOM     39  C   UNL A   1      38.048  31.918  32.571  1.00  0.00     0.031 C 
ATOM     40  C   UNL A   1      40.184  27.943  27.357  1.00  0.00     0.029 A 
ATOM     41  C   UNL A   1      41.001  27.901  28.569  1.00  0.00     0.049 A 
ATOM     42  H   UNL A   1      40.648  28.898  30.363  1.00  0.00     0.167 HD
ATOM     43  C   UNL A   1      39.840  31.085  34.060  1.00  0.00     0.034 A 
ATOM     44  C   UNL A   1      42.131  27.185  28.731  1.00  0.00     0.034 A 
ATOM     45  C   UNL A   1      40.969  30.248  34.367  1.00  0.00     0.049 A 
ATOM     46  C   UNL A   1      42.820  27.186  30.071  1.00  0.00     0.074 A 
ATOM     47  C   UNL A   1      41.655  30.133  35.562  1.00  0.00     0.029 A 
ATOM     48  N   UNL A   1      41.580  29.387  33.470  1.00  0.00    -0.354 N 
ATOM     49  N   UNL A   1      42.473  27.796  31.179  1.00  0.00    -0.248 NA
ATOM     50  C   UNL A   1      44.033  26.364  30.195  1.00  0.00     0.031 C 
ATOM     51  C   UNL A   1      42.694  29.212  35.383  1.00  0.00     0.029 A 
ATOM     52  C   UNL A   1      42.640  28.741  34.081  1.00  0.00     0.049 A 
ATOM     53  H   UNL A   1      41.302  29.255  32.535  1.00  0.00     0.167 HD
ATOM     54  C   UNL A   1      43.402  27.405  32.138  1.00  0.00     0.074 A 
ATOM     55  C   UNL A   1      44.313  26.486  31.486  1.00  0.00     0.031 C 
ATOM     56  C   UNL A   1      43.503  27.784  33.436  1.00  0.00     0.034 A 
BRANCH  43  57
ATOM     57  C   UNL A   1      39.302  31.981  35.145  1.00  0.00     0.023 A 
ATOM     58  C   UNL A   1      38.287  31.502  35.999  1.00  0.00     0.012 A 
ATOM     59  C   UNL A   1      39.829  33.270  35.352  1.00  0.00     0.148 A 
ATOM     60  C   UNL A   1      37.785  32.302  37.024  1.00  0.00     0.002 A 
ATOM     61  C   UNL A   1      39.350  34.048  36.401  1.00  0.00     0.091 A 
ATOM     62  F   UNL A   1      40.775  33.718  34.514  1.00  0.00    -0.205 F 
ATOM     63  C   UNL A   1      38.323  33.570  37.230  1.00  0.00     0.022 A 
BRANCH  61  64
ATOM     64  S   UNL A   1      40.028  35.665  36.791  1.00  0.00     0.127 S 
ATOM     65  O   UNL A   1      41.457  35.368  36.896  1.00  0.00    -0.237 OA
ATOM     66  O   UNL A   1      39.655  36.451  35.614  1.00  0.00    -0.237 OA
ATOM     67  O   UNL A   1      39.381  36.081  38.027  1.00  0.00    -0.744 OA
ENDBRANCH  61  64
ENDBRANCH  43  57
BRANCH  44  68
ATOM     68  C   UNL A   1      42.650  26.353  27.609  1.00  0.00     0.023 A 
ATOM     69  C   UNL A   1      43.606  26.892  26.726  1.00  0.00     0.012 A 
ATOM     70  C   UNL A   1      42.215  25.027  27.422  1.00  0.00     0.148 A 
ATOM     71  C   UNL A   1      44.098  26.136  25.661  1.00  0.00     0.002 A 
ATOM     72  C   UNL A   1      42.749  24.261  26.392  1.00  0.00     0.091 A 
ATOM     73  F   UNL A   1      41.288  24.538  28.259  1.00  0.00    -0.205 F 
ATOM     74  C   UNL A   1      43.678  24.818  25.501  1.00  0.00     0.022 A 
BRANCH  72  75
ATOM     75  S   UNL A   1      42.357  22.520  26.188  1.00  0.00     0.127 S 
ATOM     76  O   UNL A   1      43.074  22.192  24.959  1.00  0.00    -0.237 OA
ATOM     77  O   UNL A   1      42.923  21.938  27.406  1.00  0.00    -0.237 OA
ATOM     78  O   UNL A   1      40.904  22.453  26.114  1.00  0.00    -0.744 OA
ENDBRANCH  72  75
ENDBRANCH  44  68
BRANCH  56  79
ATOM     79  C   UNL A   1      44.620  27.188  34.255  1.00  0.00     0.023 A 
ATOM     80  C   UNL A   1      45.839  27.882  34.383  1.00  0.00     0.012 A 
ATOM     81  C   UNL A   1      44.440  25.977  34.951  1.00  0.00     0.148 A 
ATOM     82  C   UNL A   1      46.874  27.364  35.160  1.00  0.00     0.002 A 
ATOM     83  C   UNL A   1      45.460  25.488  35.761  1.00  0.00     0.091 A 
ATOM     84  F   UNL A   1      43.282  25.316  34.803  1.00  0.00    -0.205 F 
ATOM     85  C   UNL A   1      46.681  26.174  35.858  1.00  0.00     0.022 A 
BRANCH  83  86
ATOM     86  S   UNL A   1      45.254  24.011  36.764  1.00  0.00     0.127 S 
ATOM     87  O   UNL A   1      46.633  23.707  37.136  1.00  0.00    -0.237 OA
ATOM     88  O   UNL A   1      44.418  24.492  37.866  1.00  0.00    -0.237 OA
ATOM     89  O   UNL A   1      44.601  23.037  35.899  1.00  0.00    -0.744 OA
ENDBRANCH  83  86
ENDBRANCH  56  79
ENDBRANCH  30  31
ENDBRANCH  23  25
ENDBRANCH  22  23
ENDBRANCH  21  22
ENDBRANCH   1  21
TORSDOF 19
ENDMDL
MODEL 2
REMARK VINA RESULT:     -10.9      4.813     10.191
REMARK SMILES C[C@H]1[C@H](C(=O)OCCOCCOC(=O)c2ccc(-c3c4nc(c(-c5cccc(S(=O)(=O)[O-])c5F)c5ccc([nH]5)c(-c5cccc(S(=O)(=O)[O-])c5F)c5nc(c(-c6cccc(S(=O)(=O)[O-])c6F)c6ccc3[nH]6)C=C5)C=C4)cc2)CCN1S(=O)(=O)C(F)(F)F
REMARK SMILES IDX 10 1 9 2 8 3 7 4 6 5 4 6 5 7 3 8 1 9 2 10 80 11 78 12 79 13
REMARK SMILES IDX 81 14 82 15 83 16 84 17 85 18 86 19 87 20 11 21 12 22 13 23
REMARK SMILES IDX 14 24 15 25 16 26 77 27 17 28 76 29 18 30 19 31 20 32 70 33
REMARK SMILES IDX 21 34 75 35 69 36 71 37 22 38 74 39 68 40 67 41 23 43 55 44
REMARK SMILES IDX 35 45 54 46 36 47 39 48 53 49 72 50 37 51 38 52 52 54 73 55
REMARK SMILES IDX 40 56 24 57 25 58 33 59 26 60 28 61 34 62 27 63 29 64 30 65
REMARK SMILES IDX 31 66 32 67 56 68 57 69 65 70 58 71 60 72 66 73 59 74 61 75
REMARK SMILES IDX 62 76 63 77 64 78 41 79 42 80 50 81 43 82 45 83 51 84 44 85
REMARK SMILES IDX 46 86 47 87 48 88 49 89
REMARK H PARENT 71 42 39 53
REMARK Flexibility Score: inf
ROOT
ATOM      1  C   UNL A   1      36.314  20.007  24.657  1.00  0.00     0.202 C 
ENDROOT
BRANCH   1   2
ATOM      2  O   UNL A   1      35.581  20.966  25.415  1.00  0.00    -0.374 OA
BRANCH   2   3
ATOM      3  C   UNL A   1      34.156  20.937  25.302  1.00  0.00     0.202 C 
BRANCH   3   4
ATOM      4  C   UNL A   1      33.392  21.778  26.329  1.00  0.00     0.261 C 
BRANCH   4   5
ATOM      5  O   UNL A   1      32.138  22.237  25.791  1.00  0.00    -0.463 OA
BRANCH   5   6
ATOM      6  C   UNL A   1      31.656  23.410  26.269  1.00  0.00     0.310 C 
ATOM      7  O   UNL A   1      31.658  23.748  27.446  1.00  0.00    -0.252 OA
BRANCH   6   8
ATOM      8  C   UNL A   1      31.070  24.287  25.185  1.00  0.00     0.118 C 
ATOM      9  C   UNL A   1      30.597  26.748  25.603  1.00  0.00     0.027 C 
ATOM     10  C   UNL A   1      31.619  25.723  25.101  1.00  0.00     0.084 C 
ATOM     11  N   UNL A   1      31.843  25.998  23.636  1.00  0.00    -0.190 NA
ATOM     12  C   UNL A   1      31.340  23.678  23.820  1.00  0.00     0.034 C 
ATOM     13  C   UNL A   1      31.233  24.865  22.886  1.00  0.00     0.104 C 
BRANCH  11  14
ATOM     14  S   UNL A   1      33.490  26.324  23.186  1.00  0.00     0.314 S 
ATOM     15  O   UNL A   1      34.295  25.709  24.226  1.00  0.00    -0.203 OA
ATOM     16  O   UNL A   1      33.609  25.862  21.812  1.00  0.00    -0.203 OA
BRANCH  14  17
ATOM     17  C   UNL A   1      33.627  28.187  23.244  1.00  0.00     0.511 C 
ATOM     18  F   UNL A   1      32.641  28.793  22.521  1.00  0.00    -0.155 F 
ATOM     19  F   UNL A   1      33.515  28.669  24.517  1.00  0.00    -0.155 F 
ATOM     20  F   UNL A   1      34.814  28.639  22.758  1.00  0.00    -0.155 F 
ENDBRANCH  14  17
ENDBRANCH  11  14
ENDBRANCH   6   8
ENDBRANCH   5   6
ENDBRANCH   4   5
ENDBRANCH   3   4
ENDBRANCH   2   3
ENDBRANCH   1   2
BRANCH   1  21
ATOM     21  C   UNL A   1      37.804  19.865  24.989  1.00  0.00     0.261 C 
BRANCH  21  22
ATOM     22  O   UNL A   1      38.395  21.117  25.375  1.00  0.00    -0.460 OA
BRANCH  22  23
ATOM     23  C   UNL A   1      39.554  20.993  26.064  1.00  0.00     0.338 C 
ATOM     24  O   UNL A   1      40.349  20.062  25.996  1.00  0.00    -0.246 OA
BRANCH  23  25
ATOM     25  C   UNL A   1      39.857  22.218  26.827  1.00  0.00     0.060 A 
ATOM     26  C   UNL A   1      39.259  23.403  26.380  1.00  0.00     0.016 A 
ATOM     27  C   UNL A   1      40.783  22.242  27.872  1.00  0.00     0.016 A 
ATOM     28  C   UNL A   1      39.651  24.626  26.914  1.00  0.00     0.010 A 
ATOM     29  C   UNL A   1      41.174  23.476  28.411  1.00  0.00     0.010 A 
ATOM     30  C   UNL A   1      40.652  24.675  27.894  1.00  0.00    -0.014 A 
BRANCH  30  31
ATOM     31  C   UNL A   1      41.257  25.990  28.221  1.00  0.00     0.031 A 
ATOM     32  C   UNL A   1      42.641  26.306  27.716  1.00  0.00     0.074 A 
ATOM     33  C   UNL A   1      40.558  26.924  28.893  1.00  0.00     0.049 A 
ATOM     34  N   UNL A   1      43.315  27.424  27.792  1.00  0.00    -0.248 NA
ATOM     35  C   UNL A   1      43.360  25.218  27.033  1.00  0.00     0.031 C 
ATOM     36  C   UNL A   1      39.214  26.742  29.439  1.00  0.00     0.029 A 
ATOM     37  N   UNL A   1      40.888  28.212  29.232  1.00  0.00    -0.354 N 
ATOM     38  C   UNL A   1      44.540  27.172  27.185  1.00  0.00     0.074 A 
ATOM     39  C   UNL A   1      44.526  25.786  26.765  1.00  0.00     0.031 C 
ATOM     40  C   UNL A   1      38.838  27.875  30.056  1.00  0.00     0.029 A 
ATOM     41  C   UNL A   1      39.915  28.860  29.952  1.00  0.00     0.049 A 
ATOM     42  H   UNL A   1      41.743  28.631  28.982  1.00  0.00     0.167 HD
ATOM     43  C   UNL A   1      45.574  28.018  26.968  1.00  0.00     0.034 A 
ATOM     44  C   UNL A   1      39.892  30.105  30.466  1.00  0.00     0.034 A 
ATOM     45  C   UNL A   1      45.580  29.403  27.357  1.00  0.00     0.049 A 
ATOM     46  C   UNL A   1      41.053  31.031  30.207  1.00  0.00     0.074 A 
ATOM     47  C   UNL A   1      46.561  30.354  27.142  1.00  0.00     0.029 A 
ATOM     48  N   UNL A   1      44.556  30.034  28.046  1.00  0.00    -0.354 N 
ATOM     49  N   UNL A   1      42.144  30.816  29.510  1.00  0.00    -0.248 NA
ATOM     50  C   UNL A   1      40.960  32.387  30.769  1.00  0.00     0.031 C 
ATOM     51  C   UNL A   1      46.138  31.558  27.716  1.00  0.00     0.029 A 
ATOM     52  C   UNL A   1      44.884  31.360  28.272  1.00  0.00     0.049 A 
ATOM     53  H   UNL A   1      43.720  29.603  28.335  1.00  0.00     0.167 HD
ATOM     54  C   UNL A   1      42.847  32.016  29.520  1.00  0.00     0.074 A 
ATOM     55  C   UNL A   1      42.048  32.962  30.273  1.00  0.00     0.031 C 
ATOM     56  C   UNL A   1      44.053  32.306  28.972  1.00  0.00     0.034 A 
BRANCH  43  57
ATOM     57  C   UNL A   1      46.775  27.479  26.237  1.00  0.00     0.023 A 
ATOM     58  C   UNL A   1      46.890  27.687  24.846  1.00  0.00     0.012 A 
ATOM     59  C   UNL A   1      47.808  26.815  26.925  1.00  0.00     0.148 A 
ATOM     60  C   UNL A   1      48.000  27.216  24.147  1.00  0.00     0.002 A 
ATOM     61  C   UNL A   1      48.930  26.383  26.227  1.00  0.00     0.091 A 
ATOM     62  F   UNL A   1      47.669  26.604  28.241  1.00  0.00    -0.205 F 
ATOM     63  C   UNL A   1      49.023  26.574  24.839  1.00  0.00     0.022 A 
BRANCH  61  64
ATOM     64  S   UNL A   1      50.332  25.608  27.040  1.00  0.00     0.127 S 
ATOM     65  O   UNL A   1      51.261  25.432  25.923  1.00  0.00    -0.237 OA
ATOM     66  O   UNL A   1      50.733  26.628  28.010  1.00  0.00    -0.237 OA
ATOM     67  O   UNL A   1      49.822  24.379  27.631  1.00  0.00    -0.744 OA
ENDBRANCH  61  64
ENDBRANCH  43  57
BRANCH  44  68
ATOM     68  C   UNL A   1      38.699  30.575  31.226  1.00  0.00     0.023 A 
ATOM     69  C   UNL A   1      38.655  30.408  32.624  1.00  0.00     0.012 A 
ATOM     70  C   UNL A   1      37.619  31.200  30.575  1.00  0.00     0.148 A 
ATOM     71  C   UNL A   1      37.543  30.828  33.355  1.00  0.00     0.002 A 
ATOM     72  C   UNL A   1      36.539  31.666  31.316  1.00  0.00     0.091 A 
ATOM     73  F   UNL A   1      37.670  31.330  29.241  1.00  0.00    -0.205 F 
ATOM     74  C   UNL A   1      36.492  31.467  32.704  1.00  0.00     0.022 A 
BRANCH  72  75
ATOM     75  S   UNL A   1      35.201  32.607  30.574  1.00  0.00     0.127 S 
ATOM     76  O   UNL A   1      34.848  31.774  29.427  1.00  0.00    -0.237 OA
ATOM     77  O   UNL A   1      34.210  32.625  31.651  1.00  0.00    -0.237 OA
ATOM     78  O   UNL A   1      35.768  33.912  30.262  1.00  0.00    -0.744 OA
ENDBRANCH  72  75
ENDBRANCH  44  68
BRANCH  56  79
ATOM     79  C   UNL A   1      44.578  33.709  29.136  1.00  0.00     0.023 A 
ATOM     80  C   UNL A   1      45.548  33.981  30.121  1.00  0.00     0.012 A 
ATOM     81  C   UNL A   1      44.162  34.743  28.274  1.00  0.00     0.148 A 
ATOM     82  C   UNL A   1      46.070  35.265  30.269  1.00  0.00     0.002 A 
ATOM     83  C   UNL A   1      44.720  36.011  28.397  1.00  0.00     0.091 A 
ATOM     84  F   UNL A   1      43.222  34.475  27.355  1.00  0.00    -0.205 F 
ATOM     85  C   UNL A   1      45.665  36.277  29.401  1.00  0.00     0.022 A 
BRANCH  83  86
ATOM     86  S   UNL A   1      44.319  37.342  27.259  1.00  0.00     0.127 S 
ATOM     87  O   UNL A   1      44.046  38.448  28.173  1.00  0.00    -0.237 OA
ATOM     88  O   UNL A   1      45.557  37.482  26.488  1.00  0.00    -0.237 OA
ATOM     89  O   UNL A   1      43.182  36.866  26.481  1.00  0.00    -0.744 OA
ENDBRANCH  83  86
ENDBRANCH  56  79
ENDBRANCH  30  31
ENDBRANCH  23  25
ENDBRANCH  22  23
ENDBRANCH  21  22
ENDBRANCH   1  21
TORSDOF 19
ENDMDL
MODEL 3
REMARK VINA RESULT:     -10.8      1.382      1.866
REMARK SMILES C[C@H]1[C@H](C(=O)OCCOCCOC(=O)c2ccc(-c3c4nc(c(-c5cccc(S(=O)(=O)[O-])c5F)c5ccc([nH]5)c(-c5cccc(S(=O)(=O)[O-])c5F)c5nc(c(-c6cccc(S(=O)(=O)[O-])c6F)c6ccc3[nH]6)C=C5)C=C4)cc2)CCN1S(=O)(=O)C(F)(F)F
REMARK SMILES IDX 10 1 9 2 8 3 7 4 6 5 4 6 5 7 3 8 1 9 2 10 80 11 78 12 79 13
REMARK SMILES IDX 81 14 82 15 83 16 84 17 85 18 86 19 87 20 11 21 12 22 13 23
REMARK SMILES IDX 14 24 15 25 16 26 77 27 17 28 76 29 18 30 19 31 20 32 70 33
REMARK SMILES IDX 21 34 75 35 69 36 71 37 22 38 74 39 68 40 67 41 23 43 55 44
REMARK SMILES IDX 35 45 54 46 36 47 39 48 53 49 72 50 37 51 38 52 52 54 73 55
REMARK SMILES IDX 40 56 24 57 25 58 33 59 26 60 28 61 34 62 27 63 29 64 30 65
REMARK SMILES IDX 31 66 32 67 56 68 57 69 65 70 58 71 60 72 66 73 59 74 61 75
REMARK SMILES IDX 62 76 63 77 64 78 41 79 42 80 50 81 43 82 45 83 51 84 44 85
REMARK SMILES IDX 46 86 47 87 48 88 49 89
REMARK H PARENT 71 42 39 53
REMARK Flexibility Score: inf
ROOT
ATOM      1  C   UNL A   1      32.017  29.727  25.217  1.00  0.00     0.202 C 
ENDROOT
BRANCH   1   2
ATOM      2  O   UNL A   1      31.177  28.576  25.271  1.00  0.00    -0.374 OA
BRANCH   2   3
ATOM      3  C   UNL A   1      30.936  27.885  24.043  1.00  0.00     0.202 C 
BRANCH   3   4
ATOM      4  C   UNL A   1      30.700  26.377  24.165  1.00  0.00     0.261 C 
BRANCH   4   5
ATOM      5  O   UNL A   1      31.865  25.713  24.688  1.00  0.00    -0.463 OA
BRANCH   5   6
ATOM      6  C   UNL A   1      31.744  25.121  25.901  1.00  0.00     0.310 C 
ATOM      7  O   UNL A   1      30.718  25.082  26.569  1.00  0.00    -0.252 OA
BRANCH   6   8
ATOM      8  C   UNL A   1      33.041  24.514  26.389  1.00  0.00     0.118 C 
ATOM      9  C   UNL A   1      33.045  22.466  27.891  1.00  0.00     0.027 C 
ATOM     10  C   UNL A   1      33.091  22.976  26.447  1.00  0.00     0.084 C 
ATOM     11  N   UNL A   1      34.429  22.581  25.878  1.00  0.00    -0.190 NA
ATOM     12  C   UNL A   1      34.180  24.913  25.468  1.00  0.00     0.034 C 
ATOM     13  C   UNL A   1      35.215  23.836  25.713  1.00  0.00     0.104 C 
BRANCH  11  14
ATOM     14  S   UNL A   1      34.366  21.607  24.440  1.00  0.00     0.314 S 
ATOM     15  O   UNL A   1      34.934  22.439  23.395  1.00  0.00    -0.203 OA
ATOM     16  O   UNL A   1      35.012  20.354  24.798  1.00  0.00    -0.203 OA
BRANCH  14  17
ATOM     17  C   UNL A   1      32.541  21.322  24.153  1.00  0.00     0.511 C 
ATOM     18  F   UNL A   1      31.873  22.489  23.921  1.00  0.00    -0.155 F 
ATOM     19  F   UNL A   1      32.312  20.531  23.063  1.00  0.00    -0.155 F 
ATOM     20  F   UNL A   1      31.934  20.716  25.209  1.00  0.00    -0.155 F 
ENDBRANCH  14  17
ENDBRANCH  11  14
ENDBRANCH   6   8
ENDBRANCH   5   6
ENDBRANCH   4   5
ENDBRANCH   3   4
ENDBRANCH   2   3
ENDBRANCH   1   2
BRANCH   1  21
ATOM     21  C   UNL A   1      31.706  30.849  26.214  1.00  0.00     0.261 C 
BRANCH  21  22
ATOM     22  O   UNL A   1      32.589  30.827  27.348  1.00  0.00    -0.460 OA
BRANCH  22  23
ATOM     23  C   UNL A   1      33.323  31.955  27.500  1.00  0.00     0.338 C 
ATOM     24  O   UNL A   1      32.898  33.104  27.543  1.00  0.00    -0.246 OA
BRANCH  23  25
ATOM     25  C   UNL A   1      34.737  31.640  27.774  1.00  0.00     0.060 A 
ATOM     26  C   UNL A   1      35.094  30.286  27.767  1.00  0.00     0.016 A 
ATOM     27  C   UNL A   1      35.666  32.615  28.144  1.00  0.00     0.016 A 
ATOM     28  C   UNL A   1      36.351  29.894  28.214  1.00  0.00     0.010 A 
ATOM     29  C   UNL A   1      36.933  32.218  28.592  1.00  0.00     0.010 A 
ATOM     30  C   UNL A   1      37.259  30.853  28.683  1.00  0.00    -0.014 A 
BRANCH  30  31
ATOM     31  C   UNL A   1      38.456  30.388  29.427  1.00  0.00     0.031 A 
ATOM     32  C   UNL A   1      38.674  30.868  30.839  1.00  0.00     0.074 A 
ATOM     33  C   UNL A   1      39.301  29.492  28.885  1.00  0.00     0.049 A 
ATOM     34  N   UNL A   1      39.587  30.510  31.704  1.00  0.00    -0.248 NA
ATOM     35  C   UNL A   1      37.736  31.885  31.344  1.00  0.00     0.031 C 
ATOM     36  C   UNL A   1      39.206  28.954  27.529  1.00  0.00     0.029 A 
ATOM     37  N   UNL A   1      40.410  28.879  29.414  1.00  0.00    -0.354 N 
ATOM     38  C   UNL A   1      39.346  31.266  32.846  1.00  0.00     0.074 A 
ATOM     39  C   UNL A   1      38.214  32.121  32.556  1.00  0.00     0.031 C 
ATOM     40  C   UNL A   1      40.223  28.098  27.328  1.00  0.00     0.029 A 
ATOM     41  C   UNL A   1      41.042  28.031  28.537  1.00  0.00     0.049 A 
ATOM     42  H   UNL A   1      40.723  29.034  30.334  1.00  0.00     0.167 HD
ATOM     43  C   UNL A   1      39.987  31.236  34.038  1.00  0.00     0.034 A 
ATOM     44  C   UNL A   1      42.152  27.284  28.694  1.00  0.00     0.034 A 
ATOM     45  C   UNL A   1      41.094  30.368  34.339  1.00  0.00     0.049 A 
ATOM     46  C   UNL A   1      42.846  27.263  30.032  1.00  0.00     0.074 A 
ATOM     47  C   UNL A   1      41.780  30.231  35.532  1.00  0.00     0.029 A 
ATOM     48  N   UNL A   1      41.677  29.491  33.439  1.00  0.00    -0.354 N 
ATOM     49  N   UNL A   1      42.519  27.880  31.142  1.00  0.00    -0.248 NA
ATOM     50  C   UNL A   1      44.036  26.407  30.151  1.00  0.00     0.031 C 
ATOM     51  C   UNL A   1      42.792  29.282  35.348  1.00  0.00     0.029 A 
ATOM     52  C   UNL A   1      42.722  28.815  34.045  1.00  0.00     0.049 A 
ATOM     53  H   UNL A   1      41.393  29.368  32.504  1.00  0.00     0.167 HD
ATOM     54  C   UNL A   1      43.440  27.462  32.098  1.00  0.00     0.074 A 
ATOM     55  C   UNL A   1      44.323  26.519  31.441  1.00  0.00     0.031 C 
ATOM     56  C   UNL A   1      43.556  27.836  33.396  1.00  0.00     0.034 A 
BRANCH  43  57
ATOM     57  C   UNL A   1      39.478  32.145  35.126  1.00  0.00     0.023 A 
ATOM     58  C   UNL A   1      38.540  31.652  36.057  1.00  0.00     0.012 A 
ATOM     59  C   UNL A   1      39.960  33.460  35.259  1.00  0.00     0.148 A 
ATOM     60  C   UNL A   1      38.066  32.464  37.086  1.00  0.00     0.002 A 
ATOM     61  C   UNL A   1      39.512  34.252  36.311  1.00  0.00     0.091 A 
ATOM     62  F   UNL A   1      40.831  33.919  34.350  1.00  0.00    -0.205 F 
ATOM     63  C   UNL A   1      38.560  33.759  37.218  1.00  0.00     0.022 A 
BRANCH  61  64
ATOM     64  S   UNL A   1      40.140  35.909  36.607  1.00  0.00     0.127 S 
ATOM     65  O   UNL A   1      39.360  36.316  37.776  1.00  0.00    -0.237 OA
ATOM     66  O   UNL A   1      41.557  35.661  36.878  1.00  0.00    -0.237 OA
ATOM     67  O   UNL A   1      39.880  36.659  35.387  1.00  0.00    -0.744 OA
ENDBRANCH  61  64
ENDBRANCH  43  57
BRANCH  44  68
ATOM     68  C   UNL A   1      42.644  26.439  27.569  1.00  0.00     0.023 A 
ATOM     69  C   UNL A   1      43.551  26.981  26.637  1.00  0.00     0.012 A 
ATOM     70  C   UNL A   1      42.233  25.100  27.427  1.00  0.00     0.148 A 
ATOM     71  C   UNL A   1      44.016  26.214  25.568  1.00  0.00     0.002 A 
ATOM     72  C   UNL A   1      42.742  24.324  26.392  1.00  0.00     0.091 A 
ATOM     73  F   UNL A   1      41.353  24.609  28.311  1.00  0.00    -0.205 F 
ATOM     74  C   UNL A   1      43.622  24.884  25.452  1.00  0.00     0.022 A 
BRANCH  72  75
ATOM     75  S   UNL A   1      42.383  22.572  26.241  1.00  0.00     0.127 S 
ATOM     76  O   UNL A   1      40.926  22.571  26.151  1.00  0.00    -0.237 OA
ATOM     77  O   UNL A   1      43.077  22.226  24.999  1.00  0.00    -0.237 OA
ATOM     78  O   UNL A   1      42.948  21.953  27.432  1.00  0.00    -0.744 OA
ENDBRANCH  72  75
ENDBRANCH  44  68
BRANCH  56  79
ATOM     79  C   UNL A   1      44.658  27.207  34.210  1.00  0.00     0.023 A 
ATOM     80  C   UNL A   1      45.941  27.790  34.215  1.00  0.00     0.012 A 
ATOM     81  C   UNL A   1      44.408  26.082  35.021  1.00  0.00     0.148 A 
ATOM     82  C   UNL A   1      46.966  27.243  34.985  1.00  0.00     0.002 A 
ATOM     83  C   UNL A   1      45.423  25.569  35.821  1.00  0.00     0.091 A 
ATOM     84  F   UNL A   1      43.188  25.526  34.989  1.00  0.00    -0.205 F 
ATOM     85  C   UNL A   1      46.705  26.140  35.796  1.00  0.00     0.022 A 
BRANCH  83  86
ATOM     86  S   UNL A   1      45.141  24.210  36.962  1.00  0.00     0.127 S 
ATOM     87  O   UNL A   1      46.432  24.112  37.638  1.00  0.00    -0.237 OA
ATOM     88  O   UNL A   1      44.052  24.720  37.798  1.00  0.00    -0.237 OA
ATOM     89  O   UNL A   1      44.772  23.070  36.132  1.00  0.00    -0.744 OA
ENDBRANCH  83  86
ENDBRANCH  56  79
ENDBRANCH  30  31
ENDBRANCH  23  25
ENDBRANCH  22  23
ENDBRANCH  21  22
ENDBRANCH   1  21
TORSDOF 19
ENDMDL
