MODEL 1
REMARK VINA RESULT:     -10.1      0.000      0.000
REMARK SMILES C[NH2+][C@]1(C(=O)OCCOCCOC(=O)c2ccc(-c3c4nc(c(-c5cccc(S(=O)(=O)[O-])c5F)c5ccc([nH]5)c(-c5cccc(S(=O)(=O)[O-])c5F)c5nc(c(-c6cccc(S(=O)(=O)[O-])c6F)c6ccc3[nH]6)C=C5)C=C4)cc2)CCC[C@@H]1CC[N@H+]1CCC[C@H]([NH+](C)C)C1
REMARK SMILES IDX 8 1 7 2 6 3 4 4 5 5 3 6 78 7 81 8 79 9 80 10 2 11 1 12 82 15
REMARK SMILES IDX 83 16 84 17 85 18 92 19 86 21 88 22 87 23 89 24 90 25 91 26
REMARK SMILES IDX 9 28 10 29 11 30 12 31 13 32 14 33 15 34 16 35 77 36 17 37
REMARK SMILES IDX 76 38 18 39 19 40 20 41 70 42 21 43 75 44 69 45 71 46 22 47
REMARK SMILES IDX 74 48 68 49 67 50 23 52 55 53 35 54 54 55 36 56 39 57 53 58
REMARK SMILES IDX 72 59 37 60 38 61 52 63 73 64 40 65 24 66 25 67 33 68 26 69
REMARK SMILES IDX 28 70 34 71 27 72 29 73 30 74 31 75 32 76 56 77 57 78 65 79
REMARK SMILES IDX 58 80 60 81 66 82 59 83 61 84 62 85 63 86 64 87 41 88 42 89
REMARK SMILES IDX 50 90 43 91 45 92 51 93 44 94 46 95 47 96 48 97 49 98
REMARK H PARENT 2 13 2 14 84 20 89 27 71 51 39 62
REMARK Flexibility Score: inf
ROOT
ATOM      1  C   UNL A   1      37.163  23.255  24.730  1.00  0.00     0.202 C 
ENDROOT
BRANCH   1   2
ATOM      2  C   UNL A   1      35.923  23.338  23.840  1.00  0.00     0.261 C 
BRANCH   2   3
ATOM      3  O   UNL A   1      35.141  24.519  24.065  1.00  0.00    -0.459 OA
BRANCH   3   4
ATOM      4  C   UNL A   1      34.006  24.617  23.319  1.00  0.00     0.368 C 
ATOM      5  O   UNL A   1      33.991  24.785  22.101  1.00  0.00    -0.245 OA
BRANCH   4   6
ATOM      6  C   UNL A   1      32.716  24.558  24.175  1.00  0.00     0.197 C 
ATOM      7  C   UNL A   1      31.507  25.354  23.652  1.00  0.00     0.081 C 
ATOM      8  C   UNL A   1      32.138  23.112  24.076  1.00  0.00     0.068 C 
ATOM      9  C   UNL A   1      30.294  24.699  24.318  1.00  0.00     0.008 C 
ATOM     10  C   UNL A   1      30.705  23.252  24.615  1.00  0.00     0.011 C 
BRANCH   6  11
ATOM     11  N   UNL A   1      33.006  24.916  25.603  1.00  0.00    -0.334 N 
ATOM     12  C   UNL A   1      33.149  26.349  25.844  1.00  0.00     0.331 C 
ATOM     13  H   UNL A   1      32.243  24.569  26.183  1.00  0.00     0.347 HD
ATOM     14  H   UNL A   1      33.903  24.489  25.836  1.00  0.00     0.347 HD
ENDBRANCH   6  11
BRANCH   8  15
ATOM     15  C   UNL A   1      32.986  22.041  24.789  1.00  0.00     0.072 C 
BRANCH  15  16
ATOM     16  C   UNL A   1      32.241  20.782  25.257  1.00  0.00     0.262 C 
BRANCH  16  17
ATOM     17  N   UNL A   1      32.579  19.495  24.632  1.00  0.00    -0.330 N 
ATOM     18  C   UNL A   1      32.167  19.316  23.241  1.00  0.00     0.262 C 
ATOM     19  C   UNL A   1      34.034  19.258  24.727  1.00  0.00     0.327 C 
ATOM     20  H   UNL A   1      32.035  18.814  25.163  1.00  0.00     0.348 HD
ATOM     21  C   UNL A   1      32.408  17.883  22.769  1.00  0.00     0.068 C 
ATOM     22  C   UNL A   1      34.468  17.825  24.313  1.00  0.00     0.239 C 
ATOM     23  C   UNL A   1      33.858  17.448  22.945  1.00  0.00     0.077 C 
BRANCH  22  24
ATOM     24  N   UNL A   1      34.326  16.771  25.336  1.00  0.00    -0.333 N 
ATOM     25  C   UNL A   1      33.039  16.080  25.260  1.00  0.00     0.332 C 
ATOM     26  C   UNL A   1      35.405  15.790  25.407  1.00  0.00     0.332 C 
ATOM     27  H   UNL A   1      34.382  17.305  26.203  1.00  0.00     0.348 HD
ENDBRANCH  22  24
ENDBRANCH  16  17
ENDBRANCH  15  16
ENDBRANCH   8  15
ENDBRANCH   4   6
ENDBRANCH   3   4
ENDBRANCH   2   3
ENDBRANCH   1   2
BRANCH   1  28
ATOM     28  O   UNL A   1      37.912  22.042  24.725  1.00  0.00    -0.374 OA
BRANCH  28  29
ATOM     29  C   UNL A   1      38.723  21.745  25.860  1.00  0.00     0.202 C 
BRANCH  29  30
ATOM     30  C   UNL A   1      39.240  20.313  26.040  1.00  0.00     0.261 C 
BRANCH  30  31
ATOM     31  O   UNL A   1      40.324  20.205  26.976  1.00  0.00    -0.460 OA
BRANCH  31  32
ATOM     32  C   UNL A   1      41.537  20.025  26.399  1.00  0.00     0.338 C 
ATOM     33  O   UNL A   1      41.887  19.081  25.700  1.00  0.00    -0.246 OA
BRANCH  32  34
ATOM     34  C   UNL A   1      42.377  21.222  26.569  1.00  0.00     0.060 A 
ATOM     35  C   UNL A   1      42.650  21.637  27.879  1.00  0.00     0.016 A 
ATOM     36  C   UNL A   1      42.798  21.986  25.479  1.00  0.00     0.016 A 
ATOM     37  C   UNL A   1      43.290  22.851  28.107  1.00  0.00     0.010 A 
ATOM     38  C   UNL A   1      43.430  23.212  25.710  1.00  0.00     0.010 A 
ATOM     39  C   UNL A   1      43.638  23.668  27.025  1.00  0.00    -0.014 A 
BRANCH  39  40
ATOM     40  C   UNL A   1      44.060  25.065  27.281  1.00  0.00     0.031 A 
ATOM     41  C   UNL A   1      43.033  26.057  27.757  1.00  0.00     0.074 A 
ATOM     42  C   UNL A   1      45.340  25.438  27.112  1.00  0.00     0.049 A 
ATOM     43  N   UNL A   1      43.180  27.321  28.053  1.00  0.00    -0.248 NA
ATOM     44  C   UNL A   1      41.658  25.556  27.921  1.00  0.00     0.031 C 
ATOM     45  C   UNL A   1      46.421  24.565  26.658  1.00  0.00     0.029 A 
ATOM     46  N   UNL A   1      45.941  26.659  27.284  1.00  0.00    -0.354 N 
ATOM     47  C   UNL A   1      41.917  27.775  28.416  1.00  0.00     0.074 A 
ATOM     48  C   UNL A   1      41.013  26.653  28.293  1.00  0.00     0.031 C 
ATOM     49  C   UNL A   1      47.551  25.287  26.560  1.00  0.00     0.029 A 
ATOM     50  C   UNL A   1      47.268  26.673  26.930  1.00  0.00     0.049 A 
ATOM     51  H   UNL A   1      45.466  27.450  27.630  1.00  0.00     0.167 HD
ATOM     52  C   UNL A   1      41.547  29.007  28.835  1.00  0.00     0.034 A 
ATOM     53  C   UNL A   1      48.149  27.693  26.896  1.00  0.00     0.034 A 
ATOM     54  C   UNL A   1      42.452  30.115  28.977  1.00  0.00     0.049 A 
ATOM     55  C   UNL A   1      47.708  29.060  27.351  1.00  0.00     0.074 A 
ATOM     56  C   UNL A   1      42.184  31.393  29.436  1.00  0.00     0.029 A 
ATOM     57  N   UNL A   1      43.800  30.080  28.651  1.00  0.00    -0.354 N 
ATOM     58  N   UNL A   1      46.542  29.440  27.815  1.00  0.00    -0.248 NA
ATOM     59  C   UNL A   1      48.715  30.131  27.312  1.00  0.00     0.031 C 
ATOM     60  C   UNL A   1      43.367  32.136  29.371  1.00  0.00     0.029 A 
ATOM     61  C   UNL A   1      44.376  31.317  28.889  1.00  0.00     0.049 A 
ATOM     62  H   UNL A   1      44.276  29.292  28.304  1.00  0.00     0.167 HD
ATOM     63  C   UNL A   1      46.682  30.783  28.151  1.00  0.00     0.074 A 
ATOM     64  C   UNL A   1      48.054  31.144  27.857  1.00  0.00     0.031 C 
ATOM     65  C   UNL A   1      45.757  31.644  28.643  1.00  0.00     0.034 A 
BRANCH  52  66
ATOM     66  C   UNL A   1      40.102  29.214  29.204  1.00  0.00     0.023 A 
ATOM     67  C   UNL A   1      39.144  29.377  28.183  1.00  0.00     0.012 A 
ATOM     68  C   UNL A   1      39.687  29.199  30.549  1.00  0.00     0.148 A 
ATOM     69  C   UNL A   1      37.796  29.548  28.498  1.00  0.00     0.002 A 
ATOM     70  C   UNL A   1      38.337  29.333  30.853  1.00  0.00     0.091 A 
ATOM     71  F   UNL A   1      40.618  29.071  31.506  1.00  0.00    -0.205 F 
ATOM     72  C   UNL A   1      37.392  29.516  29.830  1.00  0.00     0.022 A 
BRANCH  70  73
ATOM     73  S   UNL A   1      37.712  29.237  32.534  1.00  0.00     0.127 S 
ATOM     74  O   UNL A   1      38.630  30.129  33.241  1.00  0.00    -0.237 OA
ATOM     75  O   UNL A   1      36.351  29.755  32.390  1.00  0.00    -0.237 OA
ATOM     76  O   UNL A   1      37.788  27.832  32.909  1.00  0.00    -0.744 OA
ENDBRANCH  70  73
ENDBRANCH  52  66
BRANCH  53  77
ATOM     77  C   UNL A   1      49.550  27.448  26.453  1.00  0.00     0.023 A 
ATOM     78  C   UNL A   1      49.836  27.343  25.079  1.00  0.00     0.012 A 
ATOM     79  C   UNL A   1      50.602  27.340  27.384  1.00  0.00     0.148 A 
ATOM     80  C   UNL A   1      51.140  27.112  24.640  1.00  0.00     0.002 A 
ATOM     81  C   UNL A   1      51.906  27.158  26.937  1.00  0.00     0.091 A 
ATOM     82  F   UNL A   1      50.308  27.418  28.689  1.00  0.00    -0.205 F 
ATOM     83  C   UNL A   1      52.176  27.032  25.567  1.00  0.00     0.022 A 
BRANCH  81  84
ATOM     84  S   UNL A   1      53.305  27.153  28.065  1.00  0.00     0.127 S 
ATOM     85  O   UNL A   1      54.407  26.798  27.174  1.00  0.00    -0.237 OA
ATOM     86  O   UNL A   1      53.325  28.537  28.542  1.00  0.00    -0.237 OA
ATOM     87  O   UNL A   1      52.972  26.173  29.089  1.00  0.00    -0.744 OA
ENDBRANCH  81  84
ENDBRANCH  53  77
BRANCH  65  88
ATOM     88  C   UNL A   1      46.193  33.058  28.922  1.00  0.00     0.023 A 
ATOM     89  C   UNL A   1      46.846  33.357  30.134  1.00  0.00     0.012 A 
ATOM     90  C   UNL A   1      46.036  34.068  27.953  1.00  0.00     0.148 A 
ATOM     91  C   UNL A   1      47.312  34.647  30.389  1.00  0.00     0.002 A 
ATOM     92  C   UNL A   1      46.541  35.340  28.195  1.00  0.00     0.091 A 
ATOM     93  F   UNL A   1      45.395  33.768  26.814  1.00  0.00    -0.205 F 
ATOM     94  C   UNL A   1      47.170  35.634  29.415  1.00  0.00     0.022 A 
BRANCH  92  95
ATOM     95  S   UNL A   1      46.487  36.645  26.961  1.00  0.00     0.127 S 
ATOM     96  O   UNL A   1      45.051  36.889  26.846  1.00  0.00    -0.237 OA
ATOM     97  O   UNL A   1      47.238  37.721  27.609  1.00  0.00    -0.237 OA
ATOM     98  O   UNL A   1      47.129  36.096  25.774  1.00  0.00    -0.744 OA
ENDBRANCH  92  95
ENDBRANCH  65  88
ENDBRANCH  39  40
ENDBRANCH  32  34
ENDBRANCH  31  32
ENDBRANCH  30  31
ENDBRANCH  29  30
ENDBRANCH  28  29
ENDBRANCH   1  28
TORSDOF 22
ENDMDL
MODEL 2
REMARK VINA RESULT:     -10.0      2.241      4.402
REMARK SMILES C[NH2+][C@]1(C(=O)OCCOCCOC(=O)c2ccc(-c3c4nc(c(-c5cccc(S(=O)(=O)[O-])c5F)c5ccc([nH]5)c(-c5cccc(S(=O)(=O)[O-])c5F)c5nc(c(-c6cccc(S(=O)(=O)[O-])c6F)c6ccc3[nH]6)C=C5)C=C4)cc2)CCC[C@@H]1CC[N@H+]1CCC[C@H]([NH+](C)C)C1
REMARK SMILES IDX 8 1 7 2 6 3 4 4 5 5 3 6 78 7 81 8 79 9 80 10 2 11 1 12 82 15
REMARK SMILES IDX 83 16 84 17 85 18 92 19 86 21 88 22 87 23 89 24 90 25 91 26
REMARK SMILES IDX 9 28 10 29 11 30 12 31 13 32 14 33 15 34 16 35 77 36 17 37
REMARK SMILES IDX 76 38 18 39 19 40 20 41 70 42 21 43 75 44 69 45 71 46 22 47
REMARK SMILES IDX 74 48 68 49 67 50 23 52 55 53 35 54 54 55 36 56 39 57 53 58
REMARK SMILES IDX 72 59 37 60 38 61 52 63 73 64 40 65 24 66 25 67 33 68 26 69
REMARK SMILES IDX 28 70 34 71 27 72 29 73 30 74 31 75 32 76 56 77 57 78 65 79
REMARK SMILES IDX 58 80 60 81 66 82 59 83 61 84 62 85 63 86 64 87 41 88 42 89
REMARK SMILES IDX 50 90 43 91 45 92 51 93 44 94 46 95 47 96 48 97 49 98
REMARK H PARENT 2 13 2 14 84 20 89 27 71 51 39 62
REMARK Flexibility Score: inf
ROOT
ATOM      1  C   UNL A   1      36.952  22.927  24.390  1.00  0.00     0.202 C 
ENDROOT
BRANCH   1   2
ATOM      2  C   UNL A   1      35.885  23.112  23.310  1.00  0.00     0.261 C 
BRANCH   2   3
ATOM      3  O   UNL A   1      34.665  23.678  23.810  1.00  0.00    -0.459 OA
BRANCH   3   4
ATOM      4  C   UNL A   1      33.561  22.891  23.680  1.00  0.00     0.368 C 
ATOM      5  O   UNL A   1      33.105  22.513  22.603  1.00  0.00    -0.245 OA
BRANCH   4   6
ATOM      6  C   UNL A   1      32.892  22.564  25.038  1.00  0.00     0.197 C 
ATOM      7  C   UNL A   1      33.835  22.199  26.199  1.00  0.00     0.081 C 
ATOM      8  C   UNL A   1      32.280  23.882  25.605  1.00  0.00     0.068 C 
ATOM      9  C   UNL A   1      33.019  22.477  27.464  1.00  0.00     0.008 C 
ATOM     10  C   UNL A   1      31.994  23.551  27.079  1.00  0.00     0.011 C 
BRANCH   6  11
ATOM     11  N   UNL A   1      31.830  21.516  24.871  1.00  0.00    -0.334 N 
ATOM     12  C   UNL A   1      32.343  20.150  24.806  1.00  0.00     0.331 C 
ATOM     13  H   UNL A   1      31.189  21.579  25.661  1.00  0.00     0.347 HD
ATOM     14  H   UNL A   1      31.374  21.701  23.977  1.00  0.00     0.347 HD
ENDBRANCH   6  11
BRANCH   8  15
ATOM     15  C   UNL A   1      31.060  24.402  24.819  1.00  0.00     0.072 C 
BRANCH  15  16
ATOM     16  C   UNL A   1      30.230  25.502  25.499  1.00  0.00     0.262 C 
BRANCH  16  17
ATOM     17  N   UNL A   1      30.713  26.889  25.429  1.00  0.00    -0.330 N 
ATOM     18  C   UNL A   1      31.469  27.376  26.581  1.00  0.00     0.262 C 
ATOM     19  C   UNL A   1      31.534  27.073  24.215  1.00  0.00     0.327 C 
ATOM     20  H   UNL A   1      29.858  27.446  25.412  1.00  0.00     0.348 HD
ATOM     21  C   UNL A   1      31.752  28.874  26.468  1.00  0.00     0.068 C 
ATOM     22  C   UNL A   1      31.897  28.554  23.918  1.00  0.00     0.239 C 
ATOM     23  C   UNL A   1      32.477  29.233  25.177  1.00  0.00     0.077 C 
BRANCH  22  24
ATOM     24  N   UNL A   1      30.870  29.359  23.229  1.00  0.00    -0.333 N 
ATOM     25  C   UNL A   1      29.895  28.537  22.512  1.00  0.00     0.332 C 
ATOM     26  C   UNL A   1      30.170  30.348  24.043  1.00  0.00     0.332 C 
ATOM     27  H   UNL A   1      31.427  29.894  22.564  1.00  0.00     0.348 HD
ENDBRANCH  22  24
ENDBRANCH  16  17
ENDBRANCH  15  16
ENDBRANCH   8  15
ENDBRANCH   4   6
ENDBRANCH   3   4
ENDBRANCH   2   3
ENDBRANCH   1   2
BRANCH   1  28
ATOM     28  O   UNL A   1      37.510  21.627  24.564  1.00  0.00    -0.374 OA
BRANCH  28  29
ATOM     29  C   UNL A   1      38.524  21.456  25.552  1.00  0.00     0.202 C 
BRANCH  29  30
ATOM     30  C   UNL A   1      39.179  20.078  25.702  1.00  0.00     0.261 C 
BRANCH  30  31
ATOM     31  O   UNL A   1      40.139  20.009  26.768  1.00  0.00    -0.460 OA
BRANCH  31  32
ATOM     32  C   UNL A   1      41.397  19.711  26.362  1.00  0.00     0.338 C 
ATOM     33  O   UNL A   1      41.767  18.682  25.809  1.00  0.00    -0.246 OA
BRANCH  32  34
ATOM     34  C   UNL A   1      42.283  20.877  26.511  1.00  0.00     0.060 A 
ATOM     35  C   UNL A   1      42.548  21.322  27.813  1.00  0.00     0.016 A 
ATOM     36  C   UNL A   1      42.755  21.587  25.406  1.00  0.00     0.016 A 
ATOM     37  C   UNL A   1      43.233  22.516  28.016  1.00  0.00     0.010 A 
ATOM     38  C   UNL A   1      43.433  22.794  25.611  1.00  0.00     0.010 A 
ATOM     39  C   UNL A   1      43.635  23.283  26.915  1.00  0.00    -0.014 A 
BRANCH  39  40
ATOM     40  C   UNL A   1      44.110  24.669  27.136  1.00  0.00     0.031 A 
ATOM     41  C   UNL A   1      43.133  25.699  27.634  1.00  0.00     0.074 A 
ATOM     42  C   UNL A   1      45.394  24.999  26.915  1.00  0.00     0.049 A 
ATOM     43  N   UNL A   1      43.329  26.963  27.906  1.00  0.00    -0.248 NA
ATOM     44  C   UNL A   1      41.749  25.245  27.855  1.00  0.00     0.031 C 
ATOM     45  C   UNL A   1      46.430  24.086  26.435  1.00  0.00     0.029 A 
ATOM     46  N   UNL A   1      46.038  26.203  27.048  1.00  0.00    -0.354 N 
ATOM     47  C   UNL A   1      42.096  27.461  28.308  1.00  0.00     0.074 A 
ATOM     48  C   UNL A   1      41.153  26.367  28.234  1.00  0.00     0.031 C 
ATOM     49  C   UNL A   1      47.577  24.771  26.286  1.00  0.00     0.029 A 
ATOM     50  C   UNL A   1      47.351  26.169  26.645  1.00  0.00     0.049 A 
ATOM     51  H   UNL A   1      45.602  27.013  27.399  1.00  0.00     0.167 HD
ATOM     52  C   UNL A   1      41.780  28.710  28.722  1.00  0.00     0.034 A 
ATOM     53  C   UNL A   1      48.262  27.161  26.565  1.00  0.00     0.034 A 
ATOM     54  C   UNL A   1      42.723  29.790  28.815  1.00  0.00     0.049 A 
ATOM     55  C   UNL A   1      47.881  28.547  27.016  1.00  0.00     0.074 A 
ATOM     56  C   UNL A   1      42.512  31.082  29.265  1.00  0.00     0.029 A 
ATOM     57  N   UNL A   1      44.057  29.708  28.441  1.00  0.00    -0.354 N 
ATOM     58  N   UNL A   1      46.745  28.970  27.516  1.00  0.00    -0.248 NA
ATOM     59  C   UNL A   1      48.919  29.585  26.925  1.00  0.00     0.031 C 
ATOM     60  C   UNL A   1      43.716  31.786  29.146  1.00  0.00     0.029 A 
ATOM     61  C   UNL A   1      44.679  30.928  28.640  1.00  0.00     0.049 A 
ATOM     62  H   UNL A   1      44.495  28.901  28.089  1.00  0.00     0.167 HD
ATOM     63  C   UNL A   1      46.939  30.312  27.828  1.00  0.00     0.074 A 
ATOM     64  C   UNL A   1      48.310  30.625  27.479  1.00  0.00     0.031 C 
ATOM     65  C   UNL A   1      46.060  31.208  28.339  1.00  0.00     0.034 A 
BRANCH  52  66
ATOM     66  C   UNL A   1      40.357  28.968  29.140  1.00  0.00     0.023 A 
ATOM     67  C   UNL A   1      39.392  29.274  28.159  1.00  0.00     0.012 A 
ATOM     68  C   UNL A   1      39.964  28.859  30.488  1.00  0.00     0.148 A 
ATOM     69  C   UNL A   1      38.063  29.495  28.517  1.00  0.00     0.002 A 
ATOM     70  C   UNL A   1      38.630  29.045  30.832  1.00  0.00     0.091 A 
ATOM     71  F   UNL A   1      40.902  28.594  31.408  1.00  0.00    -0.205 F 
ATOM     72  C   UNL A   1      37.681  29.371  29.851  1.00  0.00     0.022 A 
BRANCH  70  73
ATOM     73  S   UNL A   1      38.030  28.838  32.512  1.00  0.00     0.127 S 
ATOM     74  O   UNL A   1      38.199  27.398  32.710  1.00  0.00    -0.237 OA
ATOM     75  O   UNL A   1      38.958  29.670  33.279  1.00  0.00    -0.237 OA
ATOM     76  O   UNL A   1      36.653  29.313  32.507  1.00  0.00    -0.744 OA
ENDBRANCH  70  73
ENDBRANCH  52  66
BRANCH  53  77
ATOM     77  C   UNL A   1      49.638  26.865  26.075  1.00  0.00     0.023 A 
ATOM     78  C   UNL A   1      50.562  26.240  26.934  1.00  0.00     0.012 A 
ATOM     79  C   UNL A   1      50.027  27.182  24.759  1.00  0.00     0.148 A 
ATOM     80  C   UNL A   1      51.856  25.956  26.498  1.00  0.00     0.002 A 
ATOM     81  C   UNL A   1      51.304  26.852  24.316  1.00  0.00     0.091 A 
ATOM     82  F   UNL A   1      49.143  27.799  23.964  1.00  0.00    -0.205 F 
ATOM     83  C   UNL A   1      52.223  26.250  25.187  1.00  0.00     0.022 A 
BRANCH  81  84
ATOM     84  S   UNL A   1      51.812  27.101  22.611  1.00  0.00     0.127 S 
ATOM     85  O   UNL A   1      52.148  28.523  22.604  1.00  0.00    -0.237 OA
ATOM     86  O   UNL A   1      52.959  26.200  22.493  1.00  0.00    -0.237 OA
ATOM     87  O   UNL A   1      50.662  26.713  21.805  1.00  0.00    -0.744 OA
ENDBRANCH  81  84
ENDBRANCH  53  77
BRANCH  65  88
ATOM     88  C   UNL A   1      46.551  32.611  28.582  1.00  0.00     0.023 A 
ATOM     89  C   UNL A   1      46.404  33.584  27.574  1.00  0.00     0.012 A 
ATOM     90  C   UNL A   1      47.074  32.987  29.835  1.00  0.00     0.148 A 
ATOM     91  C   UNL A   1      46.796  34.903  27.799  1.00  0.00     0.002 A 
ATOM     92  C   UNL A   1      47.423  34.313  30.067  1.00  0.00     0.091 A 
ATOM     93  F   UNL A   1      47.224  32.044  30.775  1.00  0.00    -0.205 F 
ATOM     94  C   UNL A   1      47.294  35.269  29.048  1.00  0.00     0.022 A 
BRANCH  92  95
ATOM     95  S   UNL A   1      47.983  34.891  31.673  1.00  0.00     0.127 S 
ATOM     96  O   UNL A   1      48.163  36.320  31.431  1.00  0.00    -0.237 OA
ATOM     97  O   UNL A   1      46.851  34.557  32.539  1.00  0.00    -0.237 OA
ATOM     98  O   UNL A   1      49.200  34.143  31.962  1.00  0.00    -0.744 OA
ENDBRANCH  92  95
ENDBRANCH  65  88
ENDBRANCH  39  40
ENDBRANCH  32  34
ENDBRANCH  31  32
ENDBRANCH  30  31
ENDBRANCH  29  30
ENDBRANCH  28  29
ENDBRANCH   1  28
TORSDOF 22
ENDMDL
MODEL 3
REMARK VINA RESULT:      -9.1      3.251      8.218
REMARK SMILES C[NH2+][C@]1(C(=O)OCCOCCOC(=O)c2ccc(-c3c4nc(c(-c5cccc(S(=O)(=O)[O-])c5F)c5ccc([nH]5)c(-c5cccc(S(=O)(=O)[O-])c5F)c5nc(c(-c6cccc(S(=O)(=O)[O-])c6F)c6ccc3[nH]6)C=C5)C=C4)cc2)CCC[C@@H]1CC[N@H+]1CCC[C@H]([NH+](C)C)C1
REMARK SMILES IDX 8 1 7 2 6 3 4 4 5 5 3 6 78 7 81 8 79 9 80 10 2 11 1 12 82 15
REMARK SMILES IDX 83 16 84 17 85 18 92 19 86 21 88 22 87 23 89 24 90 25 91 26
REMARK SMILES IDX 9 28 10 29 11 30 12 31 13 32 14 33 15 34 16 35 77 36 17 37
REMARK SMILES IDX 76 38 18 39 19 40 20 41 70 42 21 43 75 44 69 45 71 46 22 47
REMARK SMILES IDX 74 48 68 49 67 50 23 52 55 53 35 54 54 55 36 56 39 57 53 58
REMARK SMILES IDX 72 59 37 60 38 61 52 63 73 64 40 65 24 66 25 67 33 68 26 69
REMARK SMILES IDX 28 70 34 71 27 72 29 73 30 74 31 75 32 76 56 77 57 78 65 79
REMARK SMILES IDX 58 80 60 81 66 82 59 83 61 84 62 85 63 86 64 87 41 88 42 89
REMARK SMILES IDX 50 90 43 91 45 92 51 93 44 94 46 95 47 96 48 97 49 98
REMARK H PARENT 2 13 2 14 84 20 89 27 71 51 39 62
REMARK Flexibility Score: inf
ROOT
ATOM      1  C   UNL A   1      34.278  31.369  27.744  1.00  0.00     0.202 C 
ENDROOT
BRANCH   1   2
ATOM      2  C   UNL A   1      33.404  30.221  27.237  1.00  0.00     0.261 C 
BRANCH   2   3
ATOM      3  O   UNL A   1      33.221  30.232  25.814  1.00  0.00    -0.459 OA
BRANCH   3   4
ATOM      4  C   UNL A   1      33.189  29.007  25.221  1.00  0.00     0.368 C 
ATOM      5  O   UNL A   1      34.146  28.236  25.176  1.00  0.00    -0.245 OA
BRANCH   4   6
ATOM      6  C   UNL A   1      31.830  28.700  24.545  1.00  0.00     0.197 C 
ATOM      7  C   UNL A   1      30.779  29.825  24.572  1.00  0.00     0.081 C 
ATOM      8  C   UNL A   1      32.068  28.604  23.006  1.00  0.00     0.068 C 
ATOM      9  C   UNL A   1      29.829  29.496  23.418  1.00  0.00     0.008 C 
ATOM     10  C   UNL A   1      30.653  28.685  22.410  1.00  0.00     0.011 C 
BRANCH   6  11
ATOM     11  N   UNL A   1      31.248  27.421  25.073  1.00  0.00    -0.334 N 
ATOM     12  C   UNL A   1      31.162  27.358  26.529  1.00  0.00     0.331 C 
ATOM     13  H   UNL A   1      30.308  27.315  24.692  1.00  0.00     0.347 HD
ATOM     14  H   UNL A   1      31.878  26.672  24.783  1.00  0.00     0.347 HD
ENDBRANCH   6  11
BRANCH   8  15
ATOM     15  C   UNL A   1      32.875  27.366  22.566  1.00  0.00     0.072 C 
BRANCH  15  16
ATOM     16  C   UNL A   1      32.058  26.126  22.170  1.00  0.00     0.262 C 
BRANCH  16  17
ATOM     17  N   UNL A   1      32.419  24.831  22.764  1.00  0.00    -0.330 N 
ATOM     18  C   UNL A   1      32.977  23.829  21.857  1.00  0.00     0.262 C 
ATOM     19  C   UNL A   1      33.366  25.036  23.879  1.00  0.00     0.327 C 
ATOM     20  H   UNL A   1      31.527  24.445  23.074  1.00  0.00     0.348 HD
ATOM     21  C   UNL A   1      33.135  22.477  22.550  1.00  0.00     0.068 C 
ATOM     22  C   UNL A   1      33.628  23.761  24.727  1.00  0.00     0.239 C 
ATOM     23  C   UNL A   1      33.982  22.567  23.815  1.00  0.00     0.077 C 
BRANCH  22  24
ATOM     24  N   UNL A   1      32.627  23.440  25.763  1.00  0.00    -0.333 N 
ATOM     25  C   UNL A   1      31.262  23.757  25.345  1.00  0.00     0.332 C 
ATOM     26  C   UNL A   1      32.671  22.087  26.307  1.00  0.00     0.332 C 
ATOM     27  H   UNL A   1      32.906  24.054  26.528  1.00  0.00     0.348 HD
ENDBRANCH  22  24
ENDBRANCH  16  17
ENDBRANCH  15  16
ENDBRANCH   8  15
ENDBRANCH   4   6
ENDBRANCH   3   4
ENDBRANCH   2   3
ENDBRANCH   1   2
BRANCH   1  28
ATOM     28  O   UNL A   1      33.636  32.463  28.393  1.00  0.00    -0.374 OA
BRANCH  28  29
ATOM     29  C   UNL A   1      34.452  33.430  29.050  1.00  0.00     0.202 C 
BRANCH  29  30
ATOM     30  C   UNL A   1      34.681  33.296  30.560  1.00  0.00     0.261 C 
BRANCH  30  31
ATOM     31  O   UNL A   1      34.988  31.957  30.980  1.00  0.00    -0.460 OA
BRANCH  31  32
ATOM     32  C   UNL A   1      35.888  31.886  31.990  1.00  0.00     0.338 C 
ATOM     33  O   UNL A   1      35.646  31.797  33.187  1.00  0.00    -0.246 OA
BRANCH  32  34
ATOM     34  C   UNL A   1      37.256  31.750  31.460  1.00  0.00     0.060 A 
ATOM     35  C   UNL A   1      37.459  32.074  30.112  1.00  0.00     0.016 A 
ATOM     36  C   UNL A   1      38.291  31.215  32.228  1.00  0.00     0.016 A 
ATOM     37  C   UNL A   1      38.683  31.804  29.507  1.00  0.00     0.010 A 
ATOM     38  C   UNL A   1      39.518  30.934  31.615  1.00  0.00     0.010 A 
ATOM     39  C   UNL A   1      39.702  31.187  30.243  1.00  0.00    -0.014 A 
BRANCH  39  40
ATOM     40  C   UNL A   1      40.887  30.656  29.531  1.00  0.00     0.031 A 
ATOM     41  C   UNL A   1      40.806  29.289  28.907  1.00  0.00     0.074 A 
ATOM     42  C   UNL A   1      42.009  31.388  29.423  1.00  0.00     0.049 A 
ATOM     43  N   UNL A   1      41.712  28.633  28.230  1.00  0.00    -0.248 NA
ATOM     44  C   UNL A   1      39.534  28.563  29.069  1.00  0.00     0.031 C 
ATOM     45  C   UNL A   1      42.202  32.724  29.983  1.00  0.00     0.029 A 
ATOM     46  N   UNL A   1      43.206  31.096  28.821  1.00  0.00    -0.354 N 
ATOM     47  C   UNL A   1      41.132  27.413  27.904  1.00  0.00     0.074 A 
ATOM     48  C   UNL A   1      39.800  27.413  28.467  1.00  0.00     0.031 C 
ATOM     49  C   UNL A   1      43.458  33.127  29.723  1.00  0.00     0.029 A 
ATOM     50  C   UNL A   1      44.158  32.073  28.992  1.00  0.00     0.049 A 
ATOM     51  H   UNL A   1      43.369  30.268  28.314  1.00  0.00     0.167 HD
ATOM     52  C   UNL A   1      41.653  26.393  27.183  1.00  0.00     0.034 A 
ATOM     53  C   UNL A   1      45.452  32.103  28.610  1.00  0.00     0.034 A 
ATOM     54  C   UNL A   1      42.969  26.404  26.606  1.00  0.00     0.049 A 
ATOM     55  C   UNL A   1      46.013  30.947  27.824  1.00  0.00     0.074 A 
ATOM     56  C   UNL A   1      43.575  25.438  25.821  1.00  0.00     0.029 A 
ATOM     57  N   UNL A   1      43.890  27.430  26.762  1.00  0.00    -0.354 N 
ATOM     58  N   UNL A   1      45.411  29.858  27.412  1.00  0.00    -0.248 NA
ATOM     59  C   UNL A   1      47.423  31.042  27.417  1.00  0.00     0.031 C 
ATOM     60  C   UNL A   1      44.869  25.873  25.516  1.00  0.00     0.029 A 
ATOM     61  C   UNL A   1      45.064  27.116  26.096  1.00  0.00     0.049 A 
ATOM     62  H   UNL A   1      43.733  28.258  27.269  1.00  0.00     0.167 HD
ATOM     63  C   UNL A   1      46.356  29.153  26.674  1.00  0.00     0.074 A 
ATOM     64  C   UNL A   1      47.565  29.950  26.678  1.00  0.00     0.031 C 
ATOM     65  C   UNL A   1      46.240  27.947  26.063  1.00  0.00     0.034 A 
BRANCH  52  66
ATOM     66  C   UNL A   1      40.781  25.189  26.947  1.00  0.00     0.023 A 
ATOM     67  C   UNL A   1      39.499  25.361  26.386  1.00  0.00     0.012 A 
ATOM     68  C   UNL A   1      41.244  23.890  27.232  1.00  0.00     0.148 A 
ATOM     69  C   UNL A   1      38.681  24.260  26.137  1.00  0.00     0.002 A 
ATOM     70  C   UNL A   1      40.437  22.794  26.946  1.00  0.00     0.091 A 
ATOM     71  F   UNL A   1      42.455  23.750  27.790  1.00  0.00    -0.205 F 
ATOM     72  C   UNL A   1      39.153  22.978  26.407  1.00  0.00     0.022 A 
BRANCH  70  73
ATOM     73  S   UNL A   1      40.984  21.102  27.196  1.00  0.00     0.127 S 
ATOM     74  O   UNL A   1      42.255  21.093  26.471  1.00  0.00    -0.237 OA
ATOM     75  O   UNL A   1      41.112  21.028  28.651  1.00  0.00    -0.237 OA
ATOM     76  O   UNL A   1      39.938  20.257  26.636  1.00  0.00    -0.744 OA
ENDBRANCH  70  73
ENDBRANCH  52  66
BRANCH  53  77
ATOM     77  C   UNL A   1      46.292  33.290  28.933  1.00  0.00     0.023 A 
ATOM     78  C   UNL A   1      47.073  33.290  30.104  1.00  0.00     0.012 A 
ATOM     79  C   UNL A   1      46.336  34.408  28.077  1.00  0.00     0.148 A 
ATOM     80  C   UNL A   1      47.867  34.391  30.428  1.00  0.00     0.002 A 
ATOM     81  C   UNL A   1      47.165  35.482  28.382  1.00  0.00     0.091 A 
ATOM     82  F   UNL A   1      45.566  34.401  26.980  1.00  0.00    -0.205 F 
ATOM     83  C   UNL A   1      47.922  35.481  29.562  1.00  0.00     0.022 A 
BRANCH  81  84
ATOM     84  S   UNL A   1      47.371  36.872  27.262  1.00  0.00     0.127 S 
ATOM     85  O   UNL A   1      46.066  37.522  27.349  1.00  0.00    -0.237 OA
ATOM     86  O   UNL A   1      48.468  37.613  27.885  1.00  0.00    -0.237 OA
ATOM     87  O   UNL A   1      47.705  36.281  25.972  1.00  0.00    -0.744 OA
ENDBRANCH  81  84
ENDBRANCH  53  77
BRANCH  65  88
ATOM     88  C   UNL A   1      47.440  27.419  25.322  1.00  0.00     0.023 A 
ATOM     89  C   UNL A   1      48.290  26.487  25.949  1.00  0.00     0.012 A 
ATOM     90  C   UNL A   1      47.674  27.777  23.979  1.00  0.00     0.148 A 
ATOM     91  C   UNL A   1      49.372  25.940  25.260  1.00  0.00     0.002 A 
ATOM     92  C   UNL A   1      48.729  27.194  23.285  1.00  0.00     0.091 A 
ATOM     93  F   UNL A   1      46.866  28.679  23.406  1.00  0.00    -0.205 F 
ATOM     94  C   UNL A   1      49.584  26.284  23.927  1.00  0.00     0.022 A 
BRANCH  92  95
ATOM     95  S   UNL A   1      49.018  27.507  21.540  1.00  0.00     0.127 S 
ATOM     96  O   UNL A   1      47.747  27.098  20.947  1.00  0.00    -0.237 OA
ATOM     97  O   UNL A   1      49.266  28.950  21.518  1.00  0.00    -0.237 OA
ATOM     98  O   UNL A   1      50.173  26.695  21.177  1.00  0.00    -0.744 OA
ENDBRANCH  92  95
ENDBRANCH  65  88
ENDBRANCH  39  40
ENDBRANCH  32  34
ENDBRANCH  31  32
ENDBRANCH  30  31
ENDBRANCH  29  30
ENDBRANCH  28  29
ENDBRANCH   1  28
TORSDOF 22
ENDMDL
