MODEL 1
REMARK VINA RESULT:     -11.6      0.000      0.000
REMARK SMILES C/C(=N\NC(N)=O)c1nnn(-c2ccc(C(=O)OCCOCCOC(=O)c3ccc(-c4c5nc(c(-c6cccc(S(=O)(=O)[O-])c6F)c6ccc([nH]6)c(-c6cccc(S(=O)(=O)[O-])c6F)c6nc(c(-c7cccc(S(=O)(=O)[O-])c7F)c7ccc4[nH]7)C=C6)C=C5)cc3)cc2)c1C
REMARK SMILES IDX 21 1 20 2 19 3 18 4 16 5 17 6 15 7 12 8 13 9 91 10 14 11
REMARK SMILES IDX 90 12 11 13 8 14 9 15 92 16 10 17 93 18 2 19 1 20 3 21 4 22
REMARK SMILES IDX 5 23 6 25 7 26 22 29 23 30 24 31 25 32 26 33 27 34 28 35
REMARK SMILES IDX 89 36 29 37 88 38 30 39 31 40 32 41 82 42 33 43 87 44 81 45
REMARK SMILES IDX 83 46 34 47 86 48 80 49 79 50 35 52 67 53 47 54 66 55 48 56
REMARK SMILES IDX 51 57 65 58 84 59 49 60 50 61 64 63 85 64 52 65 36 66 37 67
REMARK SMILES IDX 45 68 38 69 40 70 46 71 39 72 41 73 42 74 43 75 44 76 68 77
REMARK SMILES IDX 69 78 77 79 70 80 72 81 78 82 71 83 73 84 74 85 75 86 76 87
REMARK SMILES IDX 53 88 54 89 62 90 55 91 57 92 63 93 56 94 58 95 59 96 60 97
REMARK SMILES IDX 61 98
REMARK H PARENT 4 24 6 27 6 28 83 51 51 62
REMARK Flexibility Score: inf
ROOT
ATOM      1  O   UNL A   1      31.588  29.604  26.950  1.00  0.00    -0.374 OA
ENDROOT
BRANCH   1   2
ATOM      2  C   UNL A   1      31.706  28.300  26.381  1.00  0.00     0.202 C 
BRANCH   2   3
ATOM      3  C   UNL A   1      31.054  28.023  25.026  1.00  0.00     0.261 C 
BRANCH   3   4
ATOM      4  O   UNL A   1      31.595  26.862  24.382  1.00  0.00    -0.460 OA
BRANCH   4   5
ATOM      5  C   UNL A   1      32.876  26.997  23.964  1.00  0.00     0.338 C 
ATOM      6  O   UNL A   1      33.407  28.004  23.526  1.00  0.00    -0.246 OA
BRANCH   5   7
ATOM      7  C   UNL A   1      33.633  25.754  24.224  1.00  0.00     0.060 A 
ATOM      8  C   UNL A   1      34.598  23.191  24.586  1.00  0.00     0.067 A 
ATOM      9  C   UNL A   1      34.585  23.723  23.296  1.00  0.00     0.029 A 
ATOM     10  C   UNL A   1      34.298  23.986  25.702  1.00  0.00     0.029 A 
ATOM     11  C   UNL A   1      34.070  25.006  23.117  1.00  0.00     0.018 A 
ATOM     12  C   UNL A   1      33.819  25.280  25.523  1.00  0.00     0.018 A 
BRANCH   8  13
ATOM     13  N   UNL A   1      34.635  21.791  24.746  1.00  0.00    -0.217 N 
ATOM     14  C   UNL A   1      34.123  19.675  24.665  1.00  0.00     0.132 A 
ATOM     15  N   UNL A   1      35.462  19.800  24.939  1.00  0.00    -0.128 NA
ATOM     16  C   UNL A   1      33.585  20.929  24.460  1.00  0.00     0.071 A 
ATOM     17  N   UNL A   1      35.781  21.088  24.867  1.00  0.00    -0.061 NA
ATOM     18  C   UNL A   1      32.273  21.361  23.916  1.00  0.00     0.069 C 
BRANCH  14  19
ATOM     19  C   UNL A   1      33.470  18.393  24.445  1.00  0.00     0.087 C 
ATOM     20  C   UNL A   1      33.364  17.934  23.015  1.00  0.00     0.071 C 
ATOM     21  N   UNL A   1      33.070  17.783  25.519  1.00  0.00    -0.174 NA
BRANCH  21  22
ATOM     22  N   UNL A   1      32.377  16.606  25.518  1.00  0.00    -0.229 N 
ATOM     23  C   UNL A   1      32.875  15.326  25.424  1.00  0.00     0.332 C 
ATOM     24  H   UNL A   1      31.398  16.683  25.592  1.00  0.00     0.195 HD
ATOM     25  N   UNL A   1      31.887  14.385  25.408  1.00  0.00    -0.350 N 
ATOM     26  O   UNL A   1      34.044  14.969  25.372  1.00  0.00    -0.247 OA
ATOM     27  H   UNL A   1      30.944  14.661  25.448  1.00  0.00     0.161 HD
ATOM     28  H   UNL A   1      32.119  13.429  25.357  1.00  0.00     0.161 HD
ENDBRANCH  21  22
ENDBRANCH  14  19
ENDBRANCH   8  13
ENDBRANCH   5   7
ENDBRANCH   4   5
ENDBRANCH   3   4
ENDBRANCH   2   3
ENDBRANCH   1   2
BRANCH   1  29
ATOM     29  C   UNL A   1      32.572  30.602  26.687  1.00  0.00     0.202 C 
BRANCH  29  30
ATOM     30  C   UNL A   1      34.039  30.283  26.937  1.00  0.00     0.261 C 
BRANCH  30  31
ATOM     31  O   UNL A   1      34.443  30.652  28.242  1.00  0.00    -0.460 OA
BRANCH  31  32
ATOM     32  C   UNL A   1      35.480  31.522  28.262  1.00  0.00     0.338 C 
ATOM     33  O   UNL A   1      35.615  32.525  27.590  1.00  0.00    -0.246 OA
BRANCH  32  34
ATOM     34  C   UNL A   1      36.512  30.980  29.152  1.00  0.00     0.060 A 
ATOM     35  C   UNL A   1      37.590  31.830  29.401  1.00  0.00     0.016 A 
ATOM     36  C   UNL A   1      36.570  29.595  29.372  1.00  0.00     0.016 A 
ATOM     37  C   UNL A   1      38.821  31.254  29.574  1.00  0.00     0.010 A 
ATOM     38  C   UNL A   1      37.802  29.023  29.536  1.00  0.00     0.010 A 
ATOM     39  C   UNL A   1      38.911  29.859  29.513  1.00  0.00    -0.014 A 
BRANCH  39  40
ATOM     40  C   UNL A   1      40.226  29.273  29.477  1.00  0.00     0.031 A 
ATOM     41  C   UNL A   1      40.803  29.159  30.830  1.00  0.00     0.074 A 
ATOM     42  C   UNL A   1      40.773  28.833  28.328  1.00  0.00     0.049 A 
ATOM     43  N   UNL A   1      41.742  29.881  31.342  1.00  0.00    -0.248 NA
ATOM     44  C   UNL A   1      40.084  28.322  31.804  1.00  0.00     0.031 C 
ATOM     45  C   UNL A   1      40.132  28.669  27.018  1.00  0.00     0.029 A 
ATOM     46  N   UNL A   1      42.002  28.297  28.131  1.00  0.00    -0.354 N 
ATOM     47  C   UNL A   1      41.902  29.388  32.631  1.00  0.00     0.074 A 
ATOM     48  C   UNL A   1      40.708  28.648  32.935  1.00  0.00     0.031 C 
ATOM     49  C   UNL A   1      40.882  27.830  26.265  1.00  0.00     0.029 A 
ATOM     50  C   UNL A   1      42.101  27.513  26.989  1.00  0.00     0.049 A 
ATOM     51  H   UNL A   1      42.757  28.451  28.744  1.00  0.00     0.167 HD
ATOM     52  C   UNL A   1      43.129  29.353  33.215  1.00  0.00     0.034 A 
ATOM     53  C   UNL A   1      43.068  26.592  26.738  1.00  0.00     0.034 A 
ATOM     54  C   UNL A   1      44.064  30.195  32.511  1.00  0.00     0.049 A 
ATOM     55  C   UNL A   1      44.210  26.902  27.635  1.00  0.00     0.074 A 
ATOM     56  C   UNL A   1      44.136  31.541  32.217  1.00  0.00     0.029 A 
ATOM     57  N   UNL A   1      44.915  29.562  31.637  1.00  0.00    -0.354 N 
ATOM     58  N   UNL A   1      44.914  27.995  27.540  1.00  0.00    -0.248 NA
ATOM     59  C   UNL A   1      44.252  26.240  28.930  1.00  0.00     0.031 C 
ATOM     60  C   UNL A   1      44.669  31.599  30.896  1.00  0.00     0.029 A 
ATOM     61  C   UNL A   1      44.960  30.297  30.483  1.00  0.00     0.049 A 
ATOM     62  H   UNL A   1      45.406  28.726  31.810  1.00  0.00     0.167 HD
ATOM     63  C   UNL A   1      45.094  28.403  28.857  1.00  0.00     0.074 A 
ATOM     64  C   UNL A   1      44.754  27.234  29.669  1.00  0.00     0.031 C 
ATOM     65  C   UNL A   1      45.196  29.727  29.174  1.00  0.00     0.034 A 
BRANCH  52  66
ATOM     66  C   UNL A   1      43.599  28.260  34.142  1.00  0.00     0.023 A 
ATOM     67  C   UNL A   1      44.183  28.665  35.360  1.00  0.00     0.012 A 
ATOM     68  C   UNL A   1      43.762  26.903  33.772  1.00  0.00     0.148 A 
ATOM     69  C   UNL A   1      44.940  27.784  36.138  1.00  0.00     0.002 A 
ATOM     70  C   UNL A   1      44.448  26.012  34.585  1.00  0.00     0.091 A 
ATOM     71  F   UNL A   1      43.381  26.480  32.565  1.00  0.00    -0.205 F 
ATOM     72  C   UNL A   1      45.068  26.455  35.754  1.00  0.00     0.022 A 
BRANCH  70  73
ATOM     73  S   UNL A   1      44.610  24.276  34.150  1.00  0.00     0.127 S 
ATOM     74  O   UNL A   1      45.447  24.352  32.956  1.00  0.00    -0.237 OA
ATOM     75  O   UNL A   1      45.269  23.732  35.338  1.00  0.00    -0.237 OA
ATOM     76  O   UNL A   1      43.250  23.790  33.949  1.00  0.00    -0.744 OA
ENDBRANCH  70  73
ENDBRANCH  52  66
BRANCH  53  77
ATOM     77  C   UNL A   1      42.933  25.277  26.065  1.00  0.00     0.023 A 
ATOM     78  C   UNL A   1      43.869  24.880  25.089  1.00  0.00     0.012 A 
ATOM     79  C   UNL A   1      42.051  24.296  26.575  1.00  0.00     0.148 A 
ATOM     80  C   UNL A   1      43.933  23.550  24.647  1.00  0.00     0.002 A 
ATOM     81  C   UNL A   1      42.112  22.980  26.128  1.00  0.00     0.091 A 
ATOM     82  F   UNL A   1      41.215  24.637  27.565  1.00  0.00    -0.205 F 
ATOM     83  C   UNL A   1      43.058  22.600  25.170  1.00  0.00     0.022 A 
BRANCH  81  84
ATOM     84  S   UNL A   1      41.034  21.697  26.780  1.00  0.00     0.127 S 
ATOM     85  O   UNL A   1      39.752  22.043  26.166  1.00  0.00    -0.237 OA
ATOM     86  O   UNL A   1      41.656  20.484  26.256  1.00  0.00    -0.237 OA
ATOM     87  O   UNL A   1      41.066  21.844  28.229  1.00  0.00    -0.744 OA
ENDBRANCH  81  84
ENDBRANCH  53  77
BRANCH  65  88
ATOM     88  C   UNL A   1      45.344  30.715  28.045  1.00  0.00     0.023 A 
ATOM     89  C   UNL A   1      44.244  31.201  27.305  1.00  0.00     0.012 A 
ATOM     90  C   UNL A   1      46.601  31.313  27.866  1.00  0.00     0.148 A 
ATOM     91  C   UNL A   1      44.401  32.255  26.398  1.00  0.00     0.002 A 
ATOM     92  C   UNL A   1      46.743  32.390  27.001  1.00  0.00     0.091 A 
ATOM     93  F   UNL A   1      47.631  30.840  28.583  1.00  0.00    -0.205 F 
ATOM     94  C   UNL A   1      45.648  32.858  26.257  1.00  0.00     0.022 A 
BRANCH  92  95
ATOM     95  S   UNL A   1      48.288  33.293  26.883  1.00  0.00     0.127 S 
ATOM     96  O   UNL A   1      47.923  34.408  26.011  1.00  0.00    -0.237 OA
ATOM     97  O   UNL A   1      48.540  33.662  28.277  1.00  0.00    -0.237 OA
ATOM     98  O   UNL A   1      49.260  32.358  26.330  1.00  0.00    -0.744 OA
ENDBRANCH  92  95
ENDBRANCH  65  88
ENDBRANCH  39  40
ENDBRANCH  32  34
ENDBRANCH  31  32
ENDBRANCH  30  31
ENDBRANCH  29  30
ENDBRANCH   1  29
TORSDOF 20
ENDMDL
MODEL 2
REMARK VINA RESULT:     -11.2      3.318      7.253
REMARK SMILES C/C(=N\NC(N)=O)c1nnn(-c2ccc(C(=O)OCCOCCOC(=O)c3ccc(-c4c5nc(c(-c6cccc(S(=O)(=O)[O-])c6F)c6ccc([nH]6)c(-c6cccc(S(=O)(=O)[O-])c6F)c6nc(c(-c7cccc(S(=O)(=O)[O-])c7F)c7ccc4[nH]7)C=C6)C=C5)cc3)cc2)c1C
REMARK SMILES IDX 21 1 20 2 19 3 18 4 16 5 17 6 15 7 12 8 13 9 91 10 14 11
REMARK SMILES IDX 90 12 11 13 8 14 9 15 92 16 10 17 93 18 2 19 1 20 3 21 4 22
REMARK SMILES IDX 5 23 6 25 7 26 22 29 23 30 24 31 25 32 26 33 27 34 28 35
REMARK SMILES IDX 89 36 29 37 88 38 30 39 31 40 32 41 82 42 33 43 87 44 81 45
REMARK SMILES IDX 83 46 34 47 86 48 80 49 79 50 35 52 67 53 47 54 66 55 48 56
REMARK SMILES IDX 51 57 65 58 84 59 49 60 50 61 64 63 85 64 52 65 36 66 37 67
REMARK SMILES IDX 45 68 38 69 40 70 46 71 39 72 41 73 42 74 43 75 44 76 68 77
REMARK SMILES IDX 69 78 77 79 70 80 72 81 78 82 71 83 73 84 74 85 75 86 76 87
REMARK SMILES IDX 53 88 54 89 62 90 55 91 57 92 63 93 56 94 58 95 59 96 60 97
REMARK SMILES IDX 61 98
REMARK H PARENT 4 24 6 27 6 28 83 51 51 62
REMARK Flexibility Score: inf
ROOT
ATOM      1  O   UNL A   1      33.226  29.028  26.285  1.00  0.00    -0.374 OA
ENDROOT
BRANCH   1   2
ATOM      2  C   UNL A   1      31.856  29.072  25.884  1.00  0.00     0.202 C 
BRANCH   2   3
ATOM      3  C   UNL A   1      31.518  29.486  24.452  1.00  0.00     0.261 C 
BRANCH   3   4
ATOM      4  O   UNL A   1      30.220  29.039  24.040  1.00  0.00    -0.460 OA
BRANCH   4   5
ATOM      5  C   UNL A   1      30.197  28.402  22.845  1.00  0.00     0.338 C 
ATOM      6  O   UNL A   1      29.948  28.889  21.756  1.00  0.00    -0.246 OA
BRANCH   5   7
ATOM      7  C   UNL A   1      30.649  27.004  23.002  1.00  0.00     0.060 A 
ATOM      8  C   UNL A   1      31.677  24.553  23.756  1.00  0.00     0.067 A 
ATOM      9  C   UNL A   1      30.410  24.915  24.216  1.00  0.00     0.029 A 
ATOM     10  C   UNL A   1      32.348  25.323  22.794  1.00  0.00     0.029 A 
ATOM     11  C   UNL A   1      29.910  26.165  23.854  1.00  0.00     0.018 A 
ATOM     12  C   UNL A   1      31.829  26.554  22.407  1.00  0.00     0.018 A 
BRANCH   8  13
ATOM     13  N   UNL A   1      32.405  23.573  24.462  1.00  0.00    -0.217 N 
ATOM     14  C   UNL A   1      33.457  21.737  24.982  1.00  0.00     0.132 A 
ATOM     15  N   UNL A   1      33.818  22.724  25.864  1.00  0.00    -0.128 NA
ATOM     16  C   UNL A   1      32.615  22.271  24.027  1.00  0.00     0.071 A 
ATOM     17  N   UNL A   1      33.262  23.863  25.463  1.00  0.00    -0.061 NA
ATOM     18  C   UNL A   1      32.123  21.730  22.736  1.00  0.00     0.069 C 
BRANCH  14  19
ATOM     19  C   UNL A   1      34.051  20.409  24.983  1.00  0.00     0.087 C 
ATOM     20  C   UNL A   1      35.555  20.349  24.931  1.00  0.00     0.071 C 
ATOM     21  N   UNL A   1      33.207  19.424  25.051  1.00  0.00    -0.174 NA
BRANCH  21  22
ATOM     22  N   UNL A   1      33.562  18.107  24.995  1.00  0.00    -0.229 N 
ATOM     23  C   UNL A   1      33.549  17.268  23.905  1.00  0.00     0.332 C 
ATOM     24  H   UNL A   1      33.866  17.708  25.843  1.00  0.00     0.195 HD
ATOM     25  N   UNL A   1      33.928  15.997  24.223  1.00  0.00    -0.350 N 
ATOM     26  O   UNL A   1      33.264  17.535  22.745  1.00  0.00    -0.247 OA
ATOM     27  H   UNL A   1      34.158  15.770  25.152  1.00  0.00     0.161 HD
ATOM     28  H   UNL A   1      33.970  15.305  23.523  1.00  0.00     0.161 HD
ENDBRANCH  21  22
ENDBRANCH  14  19
ENDBRANCH   8  13
ENDBRANCH   5   7
ENDBRANCH   4   5
ENDBRANCH   3   4
ENDBRANCH   2   3
ENDBRANCH   1   2
BRANCH   1  29
ATOM     29  C   UNL A   1      33.809  30.120  26.991  1.00  0.00     0.202 C 
BRANCH  29  30
ATOM     30  C   UNL A   1      32.922  31.270  27.448  1.00  0.00     0.261 C 
BRANCH  30  31
ATOM     31  O   UNL A   1      33.502  32.528  27.163  1.00  0.00    -0.460 OA
BRANCH  31  32
ATOM     32  C   UNL A   1      33.276  33.459  28.120  1.00  0.00     0.338 C 
ATOM     33  O   UNL A   1      32.301  34.174  28.237  1.00  0.00    -0.246 OA
BRANCH  32  34
ATOM     34  C   UNL A   1      34.485  33.570  28.941  1.00  0.00     0.060 A 
ATOM     35  C   UNL A   1      35.551  34.244  28.345  1.00  0.00     0.016 A 
ATOM     36  C   UNL A   1      34.648  32.716  30.043  1.00  0.00     0.016 A 
ATOM     37  C   UNL A   1      36.818  33.820  28.653  1.00  0.00     0.010 A 
ATOM     38  C   UNL A   1      35.913  32.288  30.342  1.00  0.00     0.010 A 
ATOM     39  C   UNL A   1      36.957  32.762  29.558  1.00  0.00    -0.014 A 
BRANCH  39  40
ATOM     40  C   UNL A   1      38.265  32.180  29.711  1.00  0.00     0.031 A 
ATOM     41  C   UNL A   1      38.304  30.799  29.196  1.00  0.00     0.074 A 
ATOM     42  C   UNL A   1      39.301  32.887  30.201  1.00  0.00     0.049 A 
ATOM     43  N   UNL A   1      38.345  29.709  29.885  1.00  0.00    -0.248 NA
ATOM     44  C   UNL A   1      38.010  30.601  27.767  1.00  0.00     0.031 C 
ATOM     45  C   UNL A   1      39.378  34.330  30.459  1.00  0.00     0.029 A 
ATOM     46  N   UNL A   1      40.569  32.471  30.436  1.00  0.00    -0.354 N 
ATOM     47  C   UNL A   1      38.350  28.692  28.937  1.00  0.00     0.074 A 
ATOM     48  C   UNL A   1      37.877  29.276  27.713  1.00  0.00     0.031 C 
ATOM     49  C   UNL A   1      40.681  34.692  30.540  1.00  0.00     0.029 A 
ATOM     50  C   UNL A   1      41.505  33.497  30.470  1.00  0.00     0.049 A 
ATOM     51  H   UNL A   1      40.806  31.525  30.571  1.00  0.00     0.167 HD
ATOM     52  C   UNL A   1      39.047  27.546  29.152  1.00  0.00     0.034 A 
ATOM     53  C   UNL A   1      42.848  33.353  30.331  1.00  0.00     0.034 A 
ATOM     54  C   UNL A   1      39.403  27.405  30.542  1.00  0.00     0.049 A 
ATOM     55  C   UNL A   1      43.167  31.930  30.607  1.00  0.00     0.074 A 
ATOM     56  C   UNL A   1      38.700  27.312  31.725  1.00  0.00     0.029 A 
ATOM     57  N   UNL A   1      40.686  27.764  30.881  1.00  0.00    -0.354 N 
ATOM     58  N   UNL A   1      43.004  31.378  31.777  1.00  0.00    -0.248 NA
ATOM     59  C   UNL A   1      43.194  31.011  29.479  1.00  0.00     0.031 C 
ATOM     60  C   UNL A   1      39.467  28.058  32.666  1.00  0.00     0.029 A 
ATOM     61  C   UNL A   1      40.628  28.505  32.030  1.00  0.00     0.049 A 
ATOM     62  H   UNL A   1      41.503  27.529  30.385  1.00  0.00     0.167 HD
ATOM     63  C   UNL A   1      42.445  30.136  31.496  1.00  0.00     0.074 A 
ATOM     64  C   UNL A   1      42.680  29.926  30.067  1.00  0.00     0.031 C 
ATOM     65  C   UNL A   1      41.579  29.542  32.368  1.00  0.00     0.034 A 
BRANCH  52  66
ATOM     66  C   UNL A   1      39.767  26.774  28.074  1.00  0.00     0.023 A 
ATOM     67  C   UNL A   1      39.522  25.386  28.012  1.00  0.00     0.012 A 
ATOM     68  C   UNL A   1      40.862  27.266  27.325  1.00  0.00     0.148 A 
ATOM     69  C   UNL A   1      40.357  24.527  27.293  1.00  0.00     0.002 A 
ATOM     70  C   UNL A   1      41.642  26.421  26.548  1.00  0.00     0.091 A 
ATOM     71  F   UNL A   1      41.257  28.534  27.456  1.00  0.00    -0.205 F 
ATOM     72  C   UNL A   1      41.415  25.044  26.556  1.00  0.00     0.022 A 
BRANCH  70  73
ATOM     73  S   UNL A   1      42.999  27.047  25.549  1.00  0.00     0.127 S 
ATOM     74  O   UNL A   1      43.477  25.825  24.909  1.00  0.00    -0.237 OA
ATOM     75  O   UNL A   1      42.308  27.984  24.664  1.00  0.00    -0.237 OA
ATOM     76  O   UNL A   1      43.919  27.681  26.486  1.00  0.00    -0.744 OA
ENDBRANCH  70  73
ENDBRANCH  52  66
BRANCH  53  77
ATOM     77  C   UNL A   1      43.802  34.249  29.630  1.00  0.00     0.023 A 
ATOM     78  C   UNL A   1      44.651  35.098  30.368  1.00  0.00     0.012 A 
ATOM     79  C   UNL A   1      44.074  34.072  28.254  1.00  0.00     0.148 A 
ATOM     80  C   UNL A   1      45.741  35.737  29.759  1.00  0.00     0.002 A 
ATOM     81  C   UNL A   1      45.151  34.714  27.652  1.00  0.00     0.091 A 
ATOM     82  F   UNL A   1      43.330  33.201  27.559  1.00  0.00    -0.205 F 
ATOM     83  C   UNL A   1      45.994  35.540  28.403  1.00  0.00     0.022 A 
BRANCH  81  84
ATOM     84  S   UNL A   1      45.553  34.484  25.914  1.00  0.00     0.127 S 
ATOM     85  O   UNL A   1      46.299  33.226  25.944  1.00  0.00    -0.237 OA
ATOM     86  O   UNL A   1      44.228  34.397  25.306  1.00  0.00    -0.237 OA
ATOM     87  O   UNL A   1      46.346  35.645  25.529  1.00  0.00    -0.744 OA
ENDBRANCH  81  84
ENDBRANCH  53  77
BRANCH  65  88
ATOM     88  C   UNL A   1      41.426  30.152  33.739  1.00  0.00     0.023 A 
ATOM     89  C   UNL A   1      42.359  29.940  34.777  1.00  0.00     0.012 A 
ATOM     90  C   UNL A   1      40.424  31.119  33.911  1.00  0.00     0.148 A 
ATOM     91  C   UNL A   1      42.283  30.673  35.967  1.00  0.00     0.002 A 
ATOM     92  C   UNL A   1      40.381  31.877  35.073  1.00  0.00     0.091 A 
ATOM     93  F   UNL A   1      39.552  31.308  32.910  1.00  0.00    -0.205 F 
ATOM     94  C   UNL A   1      41.302  31.652  36.108  1.00  0.00     0.022 A 
BRANCH  92  95
ATOM     95  S   UNL A   1      39.231  33.242  35.253  1.00  0.00     0.127 S 
ATOM     96  O   UNL A   1      39.520  34.043  34.066  1.00  0.00    -0.237 OA
ATOM     97  O   UNL A   1      37.936  32.561  35.233  1.00  0.00    -0.237 OA
ATOM     98  O   UNL A   1      39.552  33.873  36.528  1.00  0.00    -0.744 OA
ENDBRANCH  92  95
ENDBRANCH  65  88
ENDBRANCH  39  40
ENDBRANCH  32  34
ENDBRANCH  31  32
ENDBRANCH  30  31
ENDBRANCH  29  30
ENDBRANCH   1  29
TORSDOF 20
ENDMDL
MODEL 3
REMARK VINA RESULT:     -11.1      2.165      2.822
REMARK SMILES C/C(=N\NC(N)=O)c1nnn(-c2ccc(C(=O)OCCOCCOC(=O)c3ccc(-c4c5nc(c(-c6cccc(S(=O)(=O)[O-])c6F)c6ccc([nH]6)c(-c6cccc(S(=O)(=O)[O-])c6F)c6nc(c(-c7cccc(S(=O)(=O)[O-])c7F)c7ccc4[nH]7)C=C6)C=C5)cc3)cc2)c1C
REMARK SMILES IDX 21 1 20 2 19 3 18 4 16 5 17 6 15 7 12 8 13 9 91 10 14 11
REMARK SMILES IDX 90 12 11 13 8 14 9 15 92 16 10 17 93 18 2 19 1 20 3 21 4 22
REMARK SMILES IDX 5 23 6 25 7 26 22 29 23 30 24 31 25 32 26 33 27 34 28 35
REMARK SMILES IDX 89 36 29 37 88 38 30 39 31 40 32 41 82 42 33 43 87 44 81 45
REMARK SMILES IDX 83 46 34 47 86 48 80 49 79 50 35 52 67 53 47 54 66 55 48 56
REMARK SMILES IDX 51 57 65 58 84 59 49 60 50 61 64 63 85 64 52 65 36 66 37 67
REMARK SMILES IDX 45 68 38 69 40 70 46 71 39 72 41 73 42 74 43 75 44 76 68 77
REMARK SMILES IDX 69 78 77 79 70 80 72 81 78 82 71 83 73 84 74 85 75 86 76 87
REMARK SMILES IDX 53 88 54 89 62 90 55 91 57 92 63 93 56 94 58 95 59 96 60 97
REMARK SMILES IDX 61 98
REMARK H PARENT 4 24 6 27 6 28 83 51 51 62
REMARK Flexibility Score: inf
ROOT
ATOM      1  O   UNL A   1      33.071  29.957  27.263  1.00  0.00    -0.374 OA
ENDROOT
BRANCH   1   2
ATOM      2  C   UNL A   1      33.491  29.191  26.133  1.00  0.00     0.202 C 
BRANCH   2   3
ATOM      3  C   UNL A   1      32.844  29.463  24.775  1.00  0.00     0.261 C 
BRANCH   3   4
ATOM      4  O   UNL A   1      31.432  29.691  24.873  1.00  0.00    -0.460 OA
BRANCH   4   5
ATOM      5  C   UNL A   1      30.706  29.173  23.854  1.00  0.00     0.338 C 
ATOM      6  O   UNL A   1      30.248  29.774  22.896  1.00  0.00    -0.246 OA
BRANCH   5   7
ATOM      7  C   UNL A   1      30.630  27.702  23.974  1.00  0.00     0.060 A 
ATOM      8  C   UNL A   1      30.957  24.997  24.427  1.00  0.00     0.067 A 
ATOM      9  C   UNL A   1      30.463  25.792  25.463  1.00  0.00     0.029 A 
ATOM     10  C   UNL A   1      31.120  25.510  23.132  1.00  0.00     0.029 A 
ATOM     11  C   UNL A   1      30.328  27.161  25.236  1.00  0.00     0.018 A 
ATOM     12  C   UNL A   1      30.949  26.871  22.900  1.00  0.00     0.018 A 
BRANCH   8  13
ATOM     13  N   UNL A   1      31.558  23.761  24.744  1.00  0.00    -0.217 N 
ATOM     14  C   UNL A   1      32.993  22.248  25.374  1.00  0.00     0.132 A 
ATOM     15  N   UNL A   1      31.731  21.712  25.418  1.00  0.00    -0.128 NA
ATOM     16  C   UNL A   1      32.906  23.580  25.022  1.00  0.00     0.071 A 
ATOM     17  N   UNL A   1      30.860  22.678  25.147  1.00  0.00    -0.061 NA
ATOM     18  C   UNL A   1      33.909  24.674  25.052  1.00  0.00     0.069 C 
BRANCH  14  19
ATOM     19  C   UNL A   1      34.179  21.537  25.827  1.00  0.00     0.087 C 
ATOM     20  C   UNL A   1      34.468  21.591  27.304  1.00  0.00     0.071 C 
ATOM     21  N   UNL A   1      34.842  20.916  24.898  1.00  0.00    -0.174 NA
BRANCH  21  22
ATOM     22  N   UNL A   1      36.015  20.252  25.110  1.00  0.00    -0.229 N 
ATOM     23  C   UNL A   1      37.298  20.700  24.892  1.00  0.00     0.332 C 
ATOM     24  H   UNL A   1      35.933  19.336  25.463  1.00  0.00     0.195 HD
ATOM     25  N   UNL A   1      38.235  19.749  25.173  1.00  0.00    -0.350 N 
ATOM     26  O   UNL A   1      37.661  21.805  24.511  1.00  0.00    -0.247 OA
ATOM     27  H   UNL A   1      37.955  18.858  25.480  1.00  0.00     0.161 HD
ATOM     28  H   UNL A   1      39.193  19.956  25.069  1.00  0.00     0.161 HD
ENDBRANCH  21  22
ENDBRANCH  14  19
ENDBRANCH   8  13
ENDBRANCH   5   7
ENDBRANCH   4   5
ENDBRANCH   3   4
ENDBRANCH   2   3
ENDBRANCH   1   2
BRANCH   1  29
ATOM     29  C   UNL A   1      33.297  31.363  27.310  1.00  0.00     0.202 C 
BRANCH  29  30
ATOM     30  C   UNL A   1      34.328  31.919  28.282  1.00  0.00     0.261 C 
BRANCH  30  31
ATOM     31  O   UNL A   1      35.623  31.410  28.025  1.00  0.00    -0.460 OA
BRANCH  31  32
ATOM     32  C   UNL A   1      36.619  32.227  28.440  1.00  0.00     0.338 C 
ATOM     33  O   UNL A   1      36.865  33.350  28.046  1.00  0.00    -0.246 OA
BRANCH  32  34
ATOM     34  C   UNL A   1      37.465  31.477  29.374  1.00  0.00     0.060 A 
ATOM     35  C   UNL A   1      38.642  32.118  29.758  1.00  0.00     0.016 A 
ATOM     36  C   UNL A   1      37.272  30.094  29.514  1.00  0.00     0.016 A 
ATOM     37  C   UNL A   1      39.741  31.333  29.992  1.00  0.00     0.010 A 
ATOM     38  C   UNL A   1      38.373  29.313  29.739  1.00  0.00     0.010 A 
ATOM     39  C   UNL A   1      39.603  29.948  29.854  1.00  0.00    -0.014 A 
BRANCH  39  40
ATOM     40  C   UNL A   1      40.801  29.148  29.886  1.00  0.00     0.031 A 
ATOM     41  C   UNL A   1      41.192  28.819  31.269  1.00  0.00     0.074 A 
ATOM     42  C   UNL A   1      41.396  28.722  28.756  1.00  0.00     0.049 A 
ATOM     43  N   UNL A   1      42.172  29.320  31.943  1.00  0.00    -0.248 NA
ATOM     44  C   UNL A   1      40.240  28.038  32.075  1.00  0.00     0.031 C 
ATOM     45  C   UNL A   1      40.891  28.785  27.379  1.00  0.00     0.029 A 
ATOM     46  N   UNL A   1      42.536  28.000  28.625  1.00  0.00    -0.354 N 
ATOM     47  C   UNL A   1      42.101  28.697  33.183  1.00  0.00     0.074 A 
ATOM     48  C   UNL A   1      40.776  28.152  33.289  1.00  0.00     0.031 C 
ATOM     49  C   UNL A   1      41.575  27.897  26.620  1.00  0.00     0.029 A 
ATOM     50  C   UNL A   1      42.636  27.313  27.422  1.00  0.00     0.049 A 
ATOM     51  H   UNL A   1      43.231  27.967  29.321  1.00  0.00     0.167 HD
ATOM     52  C   UNL A   1      43.231  28.400  33.877  1.00  0.00     0.034 A 
ATOM     53  C   UNL A   1      43.462  26.264  27.172  1.00  0.00     0.034 A 
ATOM     54  C   UNL A   1      44.365  29.125  33.360  1.00  0.00     0.049 A 
ATOM     55  C   UNL A   1      44.529  26.292  28.204  1.00  0.00     0.074 A 
ATOM     56  C   UNL A   1      44.689  30.458  33.218  1.00  0.00     0.029 A 
ATOM     57  N   UNL A   1      45.196  28.432  32.512  1.00  0.00    -0.354 N 
ATOM     58  N   UNL A   1      45.408  27.250  28.294  1.00  0.00    -0.248 NA
ATOM     59  C   UNL A   1      44.315  25.522  29.421  1.00  0.00     0.031 C 
ATOM     60  C   UNL A   1      45.371  30.538  31.969  1.00  0.00     0.029 A 
ATOM     61  C   UNL A   1      45.491  29.246  31.452  1.00  0.00     0.049 A 
ATOM     62  H   UNL A   1      45.521  27.512  32.644  1.00  0.00     0.167 HD
ATOM     63  C   UNL A   1      45.500  27.506  29.658  1.00  0.00     0.074 A 
ATOM     64  C   UNL A   1      44.884  26.347  30.305  1.00  0.00     0.031 C 
ATOM     65  C   UNL A   1      45.779  28.759  30.120  1.00  0.00     0.034 A 
BRANCH  52  66
ATOM     66  C   UNL A   1      43.408  27.165  34.726  1.00  0.00     0.023 A 
ATOM     67  C   UNL A   1      43.585  27.365  36.111  1.00  0.00     0.012 A 
ATOM     68  C   UNL A   1      43.692  25.874  34.222  1.00  0.00     0.148 A 
ATOM     69  C   UNL A   1      44.078  26.352  36.939  1.00  0.00     0.002 A 
ATOM     70  C   UNL A   1      44.106  24.848  35.060  1.00  0.00     0.091 A 
ATOM     71  F   UNL A   1      43.705  25.647  32.907  1.00  0.00    -0.205 F 
ATOM     72  C   UNL A   1      44.334  25.091  36.415  1.00  0.00     0.022 A 
BRANCH  70  73
ATOM     73  S   UNL A   1      44.415  23.191  34.437  1.00  0.00     0.127 S 
ATOM     74  O   UNL A   1      45.639  23.392  33.667  1.00  0.00    -0.237 OA
ATOM     75  O   UNL A   1      44.578  22.432  35.677  1.00  0.00    -0.237 OA
ATOM     76  O   UNL A   1      43.228  22.830  33.671  1.00  0.00    -0.744 OA
ENDBRANCH  70  73
ENDBRANCH  52  66
BRANCH  53  77
ATOM     77  C   UNL A   1      43.192  25.055  26.355  1.00  0.00     0.023 A 
ATOM     78  C   UNL A   1      44.015  24.746  25.253  1.00  0.00     0.012 A 
ATOM     79  C   UNL A   1      42.303  24.058  26.819  1.00  0.00     0.148 A 
ATOM     80  C   UNL A   1      43.962  23.484  24.643  1.00  0.00     0.002 A 
ATOM     81  C   UNL A   1      42.248  22.810  26.206  1.00  0.00     0.091 A 
ATOM     82  F   UNL A   1      41.579  24.305  27.919  1.00  0.00    -0.205 F 
ATOM     83  C   UNL A   1      43.083  22.515  25.123  1.00  0.00     0.022 A 
BRANCH  81  84
ATOM     84  S   UNL A   1      41.159  21.504  26.791  1.00  0.00     0.127 S 
ATOM     85  O   UNL A   1      41.292  20.507  25.729  1.00  0.00    -0.237 OA
ATOM     86  O   UNL A   1      41.782  21.136  28.060  1.00  0.00    -0.237 OA
ATOM     87  O   UNL A   1      39.833  22.102  26.892  1.00  0.00    -0.744 OA
ENDBRANCH  81  84
ENDBRANCH  53  77
BRANCH  65  88
ATOM     88  C   UNL A   1      46.215  29.801  29.121  1.00  0.00     0.023 A 
ATOM     89  C   UNL A   1      47.552  29.934  28.689  1.00  0.00     0.012 A 
ATOM     90  C   UNL A   1      45.211  30.525  28.458  1.00  0.00     0.148 A 
ATOM     91  C   UNL A   1      47.879  30.781  27.624  1.00  0.00     0.002 A 
ATOM     92  C   UNL A   1      45.533  31.326  27.372  1.00  0.00     0.091 A 
ATOM     93  F   UNL A   1      43.947  30.378  28.881  1.00  0.00    -0.205 F 
ATOM     94  C   UNL A   1      46.867  31.466  26.956  1.00  0.00     0.022 A 
BRANCH  92  95
ATOM     95  S   UNL A   1      44.259  32.121  26.390  1.00  0.00     0.127 S 
ATOM     96  O   UNL A   1      43.347  31.012  26.119  1.00  0.00    -0.237 OA
ATOM     97  O   UNL A   1      43.740  33.131  27.313  1.00  0.00    -0.237 OA
ATOM     98  O   UNL A   1      44.936  32.673  25.223  1.00  0.00    -0.744 OA
ENDBRANCH  92  95
ENDBRANCH  65  88
ENDBRANCH  39  40
ENDBRANCH  32  34
ENDBRANCH  31  32
ENDBRANCH  30  31
ENDBRANCH  29  30
ENDBRANCH   1  29
TORSDOF 20
ENDMDL
