MODEL 1
REMARK VINA RESULT:     -11.6      0.000      0.000
REMARK SMILES O=C(OCCOCCOC(=O)[C@@H]1CC=CC[C@H]1C(=O)N1CC[NH+](Cc2ccc3c(c2)OCO3)CC1)c1ccc(-c2c3nc(c(-c4cccc(S(=O)(=O)[O-])c4F)c4ccc([nH]4)c(-c4cccc(S(=O)(=O)[O-])c4F)c4nc(c(-c5cccc(S(=O)(=O)[O-])c5F)c5ccc2[nH]5)C=C4)C=C3)cc1
REMARK SMILES IDX 6 1 5 2 4 3 3 4 2 5 1 6 36 7 37 8 98 9 38 10 97 11 39 12
REMARK SMILES IDX 40 13 41 14 91 15 42 16 96 17 90 18 92 19 43 20 95 21 89 22
REMARK SMILES IDX 88 23 44 25 76 26 56 27 75 28 57 29 60 30 74 31 93 32 58 33
REMARK SMILES IDX 59 34 73 36 94 37 61 38 45 39 46 40 54 41 47 42 49 43 55 44
REMARK SMILES IDX 48 45 50 46 51 47 52 48 53 49 77 50 78 51 86 52 79 53 81 54
REMARK SMILES IDX 87 55 80 56 82 57 83 58 84 59 85 60 62 61 63 62 71 63 64 64
REMARK SMILES IDX 66 65 72 66 65 67 67 68 68 69 69 70 70 71 7 72 8 73 9 74
REMARK SMILES IDX 10 75 11 76 12 77 13 78 17 79 14 80 16 81 15 82 18 83 19 84
REMARK SMILES IDX 20 85 21 86 35 87 22 88 34 89 23 90 24 92 25 93 26 94 30 95
REMARK SMILES IDX 27 96 29 97 28 98 31 99 33 100 32 101
REMARK H PARENT 92 24 60 35 23 91
REMARK Flexibility Score: inf
ROOT
ATOM      1  O   UNL A   1      32.392  29.822  26.626  1.00  0.00    -0.374 OA
ENDROOT
BRANCH   1   2
ATOM      2  C   UNL A   1      33.057  30.981  27.129  1.00  0.00     0.202 C 
BRANCH   2   3
ATOM      3  C   UNL A   1      32.194  32.236  27.276  1.00  0.00     0.261 C 
BRANCH   3   4
ATOM      4  O   UNL A   1      33.028  33.404  27.348  1.00  0.00    -0.460 OA
BRANCH   4   5
ATOM      5  C   UNL A   1      33.457  34.052  28.458  1.00  0.00     0.338 C 
ATOM      6  O   UNL A   1      32.871  35.075  28.806  1.00  0.00    -0.246 OA
BRANCH   5   7
ATOM      7  C   UNL A   1      34.596  33.569  29.292  1.00  0.00     0.060 A 
ATOM      8  C   UNL A   1      35.929  33.936  29.100  1.00  0.00     0.016 A 
ATOM      9  C   UNL A   1      34.289  32.744  30.385  1.00  0.00     0.016 A 
ATOM     10  C   UNL A   1      36.944  33.425  29.885  1.00  0.00     0.010 A 
ATOM     11  C   UNL A   1      35.303  32.261  31.218  1.00  0.00     0.010 A 
ATOM     12  C   UNL A   1      36.636  32.577  30.940  1.00  0.00    -0.014 A 
BRANCH  12  13
ATOM     13  C   UNL A   1      37.767  31.938  31.623  1.00  0.00     0.031 A 
ATOM     14  C   UNL A   1      38.530  30.887  30.882  1.00  0.00     0.074 A 
ATOM     15  C   UNL A   1      38.183  32.429  32.805  1.00  0.00     0.049 A 
ATOM     16  N   UNL A   1      39.581  30.213  31.256  1.00  0.00    -0.248 NA
ATOM     17  C   UNL A   1      38.056  30.564  29.524  1.00  0.00     0.031 C 
ATOM     18  C   UNL A   1      37.556  33.546  33.519  1.00  0.00     0.029 A 
ATOM     19  N   UNL A   1      39.244  32.082  33.593  1.00  0.00    -0.354 N 
ATOM     20  C   UNL A   1      39.856  29.343  30.210  1.00  0.00     0.074 A 
ATOM     21  C   UNL A   1      38.882  29.592  29.172  1.00  0.00     0.031 C 
ATOM     22  C   UNL A   1      38.258  33.802  34.634  1.00  0.00     0.029 A 
ATOM     23  C   UNL A   1      39.341  32.832  34.740  1.00  0.00     0.049 A 
ATOM     24  H   UNL A   1      39.876  31.364  33.360  1.00  0.00     0.167 HD
ATOM     25  C   UNL A   1      40.831  28.412  30.137  1.00  0.00     0.034 A 
ATOM     26  C   UNL A   1      40.201  32.718  35.769  1.00  0.00     0.034 A 
ATOM     27  C   UNL A   1      41.791  28.205  31.185  1.00  0.00     0.049 A 
ATOM     28  C   UNL A   1      41.251  31.643  35.680  1.00  0.00     0.074 A 
ATOM     29  C   UNL A   1      42.800  27.266  31.262  1.00  0.00     0.029 A 
ATOM     30  N   UNL A   1      41.848  28.959  32.349  1.00  0.00    -0.354 N 
ATOM     31  N   UNL A   1      41.503  30.819  34.690  1.00  0.00    -0.248 NA
ATOM     32  C   UNL A   1      42.140  31.488  36.836  1.00  0.00     0.031 C 
ATOM     33  C   UNL A   1      43.452  27.437  32.488  1.00  0.00     0.029 A 
ATOM     34  C   UNL A   1      42.872  28.506  33.158  1.00  0.00     0.049 A 
ATOM     35  H   UNL A   1      41.247  29.708  32.567  1.00  0.00     0.167 HD
ATOM     36  C   UNL A   1      42.600  30.067  35.089  1.00  0.00     0.074 A 
ATOM     37  C   UNL A   1      42.972  30.550  36.405  1.00  0.00     0.031 C 
ATOM     38  C   UNL A   1      43.235  29.059  34.439  1.00  0.00     0.034 A 
BRANCH  25  39
ATOM     39  C   UNL A   1      40.846  27.531  28.919  1.00  0.00     0.023 A 
ATOM     40  C   UNL A   1      39.924  26.471  28.791  1.00  0.00     0.012 A 
ATOM     41  C   UNL A   1      41.816  27.728  27.917  1.00  0.00     0.148 A 
ATOM     42  C   UNL A   1      39.995  25.597  27.706  1.00  0.00     0.002 A 
ATOM     43  C   UNL A   1      41.855  26.878  26.820  1.00  0.00     0.091 A 
ATOM     44  F   UNL A   1      42.706  28.717  28.076  1.00  0.00    -0.205 F 
ATOM     45  C   UNL A   1      40.956  25.804  26.718  1.00  0.00     0.022 A 
BRANCH  43  46
ATOM     46  S   UNL A   1      43.024  27.097  25.474  1.00  0.00     0.127 S 
ATOM     47  O   UNL A   1      44.236  27.483  26.196  1.00  0.00    -0.237 OA
ATOM     48  O   UNL A   1      43.067  25.759  24.883  1.00  0.00    -0.237 OA
ATOM     49  O   UNL A   1      42.454  28.121  24.611  1.00  0.00    -0.744 OA
ENDBRANCH  43  46
ENDBRANCH  25  39
BRANCH  26  50
ATOM     50  C   UNL A   1      40.111  33.641  36.937  1.00  0.00     0.023 A 
ATOM     51  C   UNL A   1      39.091  33.464  37.891  1.00  0.00     0.012 A 
ATOM     52  C   UNL A   1      41.050  34.675  37.126  1.00  0.00     0.148 A 
ATOM     53  C   UNL A   1      38.993  34.313  38.994  1.00  0.00     0.002 A 
ATOM     54  C   UNL A   1      40.979  35.483  38.255  1.00  0.00     0.091 A 
ATOM     55  F   UNL A   1      42.005  34.845  36.199  1.00  0.00    -0.205 F 
ATOM     56  C   UNL A   1      39.942  35.314  39.183  1.00  0.00     0.022 A 
BRANCH  54  57
ATOM     57  S   UNL A   1      42.230  36.717  38.635  1.00  0.00     0.127 S 
ATOM     58  O   UNL A   1      41.537  37.554  39.610  1.00  0.00    -0.237 OA
ATOM     59  O   UNL A   1      43.309  35.895  39.185  1.00  0.00    -0.237 OA
ATOM     60  O   UNL A   1      42.550  37.354  37.366  1.00  0.00    -0.744 OA
ENDBRANCH  54  57
ENDBRANCH  26  50
BRANCH  38  61
ATOM     61  C   UNL A   1      44.425  28.450  35.124  1.00  0.00     0.023 A 
ATOM     62  C   UNL A   1      45.727  28.803  34.721  1.00  0.00     0.012 A 
ATOM     63  C   UNL A   1      44.244  27.596  36.229  1.00  0.00     0.148 A 
ATOM     64  C   UNL A   1      46.835  28.291  35.392  1.00  0.00     0.002 A 
ATOM     65  C   UNL A   1      45.350  27.134  36.926  1.00  0.00     0.091 A 
ATOM     66  F   UNL A   1      42.994  27.256  36.578  1.00  0.00    -0.205 F 
ATOM     67  C   UNL A   1      46.647  27.470  36.502  1.00  0.00     0.022 A 
BRANCH  65  68
ATOM     68  S   UNL A   1      45.187  26.168  38.430  1.00  0.00     0.127 S 
ATOM     69  O   UNL A   1      46.585  25.951  38.797  1.00  0.00    -0.237 OA
ATOM     70  O   UNL A   1      44.459  27.081  39.312  1.00  0.00    -0.237 OA
ATOM     71  O   UNL A   1      44.441  24.974  38.056  1.00  0.00    -0.744 OA
ENDBRANCH  65  68
ENDBRANCH  38  61
ENDBRANCH  12  13
ENDBRANCH   5   7
ENDBRANCH   4   5
ENDBRANCH   3   4
ENDBRANCH   2   3
ENDBRANCH   1   2
BRANCH   1  72
ATOM     72  C   UNL A   1      31.956  28.866  27.605  1.00  0.00     0.202 C 
BRANCH  72  73
ATOM     73  C   UNL A   1      31.425  27.626  26.888  1.00  0.00     0.261 C 
BRANCH  73  74
ATOM     74  O   UNL A   1      32.574  26.862  26.494  1.00  0.00    -0.463 OA
BRANCH  74  75
ATOM     75  C   UNL A   1      32.302  25.561  26.192  1.00  0.00     0.310 C 
ATOM     76  O   UNL A   1      31.549  24.831  26.823  1.00  0.00    -0.252 OA
BRANCH  75  77
ATOM     77  C   UNL A   1      32.960  25.206  24.873  1.00  0.00     0.115 C 
ATOM     78  C   UNL A   1      32.243  25.952  23.732  1.00  0.00     0.043 C 
ATOM     79  C   UNL A   1      33.023  23.694  24.685  1.00  0.00     0.097 C 
ATOM     80  C   UNL A   1      32.535  25.403  22.371  1.00  0.00    -0.030 C 
ATOM     81  C   UNL A   1      33.449  23.261  23.270  1.00  0.00     0.041 C 
ATOM     82  C   UNL A   1      33.070  24.195  22.167  1.00  0.00    -0.030 C 
BRANCH  79  83
ATOM     83  C   UNL A   1      33.877  22.906  25.694  1.00  0.00     0.227 C 
ATOM     84  O   UNL A   1      33.314  22.263  26.585  1.00  0.00    -0.275 OA
ATOM     85  N   UNL A   1      35.241  22.748  25.447  1.00  0.00    -0.331 N 
ATOM     86  C   UNL A   1      35.798  21.454  25.821  1.00  0.00     0.181 C 
ATOM     87  C   UNL A   1      36.187  23.857  25.572  1.00  0.00     0.181 C 
ATOM     88  C   UNL A   1      37.186  21.187  25.213  1.00  0.00     0.284 C 
ATOM     89  C   UNL A   1      37.586  23.566  24.985  1.00  0.00     0.284 C 
ATOM     90  N   UNL A   1      38.175  22.266  25.323  1.00  0.00    -0.328 N 
ATOM     91  H   UNL A   1      38.872  22.077  24.603  1.00  0.00     0.348 HD
BRANCH  90  92
ATOM     92  C   UNL A   1      39.039  22.238  26.507  1.00  0.00     0.299 C 
BRANCH  92  93
ATOM     93  C   UNL A   1      40.426  21.667  26.331  1.00  0.00     0.010 A 
ATOM     94  C   UNL A   1      41.533  22.518  26.113  1.00  0.00     0.013 A 
ATOM     95  C   UNL A   1      40.621  20.275  26.328  1.00  0.00     0.060 A 
ATOM     96  C   UNL A   1      42.792  22.002  25.791  1.00  0.00     0.051 A 
ATOM     97  C   UNL A   1      41.876  19.795  26.019  1.00  0.00     0.166 A 
ATOM     98  C   UNL A   1      42.926  20.634  25.741  1.00  0.00     0.165 A 
ATOM     99  O   UNL A   1      42.215  18.484  25.916  1.00  0.00    -0.454 OA
ATOM    100  O   UNL A   1      44.057  19.956  25.413  1.00  0.00    -0.454 OA
ATOM    101  C   UNL A   1      43.592  18.591  25.502  1.00  0.00     0.468 C 
ENDBRANCH  92  93
ENDBRANCH  90  92
ENDBRANCH  79  83
ENDBRANCH  75  77
ENDBRANCH  74  75
ENDBRANCH  73  74
ENDBRANCH  72  73
ENDBRANCH   1  72
TORSDOF 20
ENDMDL
MODEL 2
REMARK VINA RESULT:     -11.5      2.870      8.317
REMARK SMILES O=C(OCCOCCOC(=O)[C@@H]1CC=CC[C@H]1C(=O)N1CC[NH+](Cc2ccc3c(c2)OCO3)CC1)c1ccc(-c2c3nc(c(-c4cccc(S(=O)(=O)[O-])c4F)c4ccc([nH]4)c(-c4cccc(S(=O)(=O)[O-])c4F)c4nc(c(-c5cccc(S(=O)(=O)[O-])c5F)c5ccc2[nH]5)C=C4)C=C3)cc1
REMARK SMILES IDX 6 1 5 2 4 3 3 4 2 5 1 6 36 7 37 8 98 9 38 10 97 11 39 12
REMARK SMILES IDX 40 13 41 14 91 15 42 16 96 17 90 18 92 19 43 20 95 21 89 22
REMARK SMILES IDX 88 23 44 25 76 26 56 27 75 28 57 29 60 30 74 31 93 32 58 33
REMARK SMILES IDX 59 34 73 36 94 37 61 38 45 39 46 40 54 41 47 42 49 43 55 44
REMARK SMILES IDX 48 45 50 46 51 47 52 48 53 49 77 50 78 51 86 52 79 53 81 54
REMARK SMILES IDX 87 55 80 56 82 57 83 58 84 59 85 60 62 61 63 62 71 63 64 64
REMARK SMILES IDX 66 65 72 66 65 67 67 68 68 69 69 70 70 71 7 72 8 73 9 74
REMARK SMILES IDX 10 75 11 76 12 77 13 78 17 79 14 80 16 81 15 82 18 83 19 84
REMARK SMILES IDX 20 85 21 86 35 87 22 88 34 89 23 90 24 92 25 93 26 94 30 95
REMARK SMILES IDX 27 96 29 97 28 98 31 99 33 100 32 101
REMARK H PARENT 92 24 60 35 23 91
REMARK Flexibility Score: inf
ROOT
ATOM      1  O   UNL A   1      31.749  30.074  27.326  1.00  0.00    -0.374 OA
ENDROOT
BRANCH   1   2
ATOM      2  C   UNL A   1      32.576  31.164  26.920  1.00  0.00     0.202 C 
BRANCH   2   3
ATOM      3  C   UNL A   1      31.894  32.532  26.854  1.00  0.00     0.261 C 
BRANCH   3   4
ATOM      4  O   UNL A   1      32.395  33.385  27.896  1.00  0.00    -0.460 OA
BRANCH   4   5
ATOM      5  C   UNL A   1      33.601  34.000  27.960  1.00  0.00     0.338 C 
ATOM      6  O   UNL A   1      33.741  35.082  27.392  1.00  0.00    -0.246 OA
BRANCH   5   7
ATOM      7  C   UNL A   1      34.762  33.436  28.708  1.00  0.00     0.060 A 
ATOM      8  C   UNL A   1      36.061  33.944  28.652  1.00  0.00     0.016 A 
ATOM      9  C   UNL A   1      34.509  32.364  29.577  1.00  0.00     0.016 A 
ATOM     10  C   UNL A   1      37.103  33.354  29.341  1.00  0.00     0.010 A 
ATOM     11  C   UNL A   1      35.545  31.790  30.319  1.00  0.00     0.010 A 
ATOM     12  C   UNL A   1      36.851  32.268  30.169  1.00  0.00    -0.014 A 
BRANCH  12  13
ATOM     13  C   UNL A   1      38.021  31.586  30.735  1.00  0.00     0.031 A 
ATOM     14  C   UNL A   1      38.335  31.816  32.179  1.00  0.00     0.074 A 
ATOM     15  C   UNL A   1      38.661  30.660  29.999  1.00  0.00     0.049 A 
ATOM     16  N   UNL A   1      39.284  31.301  32.909  1.00  0.00    -0.248 NA
ATOM     17  C   UNL A   1      37.444  32.738  32.908  1.00  0.00     0.031 C 
ATOM     18  C   UNL A   1      38.317  30.296  28.621  1.00  0.00     0.029 A 
ATOM     19  N   UNL A   1      39.703  29.834  30.313  1.00  0.00    -0.354 N 
ATOM     20  C   UNL A   1      39.146  31.882  34.162  1.00  0.00     0.074 A 
ATOM     21  C   UNL A   1      38.005  32.766  34.107  1.00  0.00     0.031 C 
ATOM     22  C   UNL A   1      39.126  29.304  28.215  1.00  0.00     0.029 A 
ATOM     23  C   UNL A   1      40.078  29.010  29.279  1.00  0.00     0.049 A 
ATOM     24  H   UNL A   1      40.143  29.831  31.194  1.00  0.00     0.167 HD
ATOM     25  C   UNL A   1      39.918  31.696  35.254  1.00  0.00     0.034 A 
ATOM     26  C   UNL A   1      41.099  28.136  29.205  1.00  0.00     0.034 A 
ATOM     27  C   UNL A   1      41.035  30.795  35.275  1.00  0.00     0.049 A 
ATOM     28  C   UNL A   1      41.969  27.981  30.424  1.00  0.00     0.074 A 
ATOM     29  C   UNL A   1      41.929  30.547  36.297  1.00  0.00     0.029 A 
ATOM     30  N   UNL A   1      41.410  29.994  34.204  1.00  0.00    -0.354 N 
ATOM     31  N   UNL A   1      41.837  28.538  31.605  1.00  0.00    -0.248 NA
ATOM     32  C   UNL A   1      43.116  27.075  30.308  1.00  0.00     0.031 C 
ATOM     33  C   UNL A   1      42.862  29.613  35.834  1.00  0.00     0.029 A 
ATOM     34  C   UNL A   1      42.528  29.253  34.535  1.00  0.00     0.049 A 
ATOM     35  H   UNL A   1      40.948  29.959  33.335  1.00  0.00     0.167 HD
ATOM     36  C   UNL A   1      42.865  28.027  32.385  1.00  0.00     0.074 A 
ATOM     37  C   UNL A   1      43.599  27.101  31.543  1.00  0.00     0.031 C 
ATOM     38  C   UNL A   1      43.188  28.303  33.674  1.00  0.00     0.034 A 
BRANCH  25  39
ATOM     39  C   UNL A   1      39.601  32.530  36.465  1.00  0.00     0.023 A 
ATOM     40  C   UNL A   1      40.321  33.714  36.726  1.00  0.00     0.012 A 
ATOM     41  C   UNL A   1      38.615  32.105  37.375  1.00  0.00     0.148 A 
ATOM     42  C   UNL A   1      40.092  34.439  37.896  1.00  0.00     0.002 A 
ATOM     43  C   UNL A   1      38.364  32.854  38.518  1.00  0.00     0.091 A 
ATOM     44  F   UNL A   1      37.968  30.958  37.128  1.00  0.00    -0.205 F 
ATOM     45  C   UNL A   1      39.110  34.013  38.788  1.00  0.00     0.022 A 
BRANCH  43  46
ATOM     46  S   UNL A   1      37.085  32.411  39.699  1.00  0.00     0.127 S 
ATOM     47  O   UNL A   1      37.561  31.113  40.176  1.00  0.00    -0.237 OA
ATOM     48  O   UNL A   1      37.183  33.494  40.678  1.00  0.00    -0.237 OA
ATOM     49  O   UNL A   1      35.839  32.384  38.947  1.00  0.00    -0.744 OA
ENDBRANCH  43  46
ENDBRANCH  25  39
BRANCH  26  50
ATOM     50  C   UNL A   1      41.335  27.350  27.960  1.00  0.00     0.023 A 
ATOM     51  C   UNL A   1      41.851  27.988  26.817  1.00  0.00     0.012 A 
ATOM     52  C   UNL A   1      41.078  25.964  27.911  1.00  0.00     0.148 A 
ATOM     53  C   UNL A   1      42.084  27.269  25.644  1.00  0.00     0.002 A 
ATOM     54  C   UNL A   1      41.364  25.244  26.757  1.00  0.00     0.091 A 
ATOM     55  F   UNL A   1      40.568  25.373  29.001  1.00  0.00    -0.205 F 
ATOM     56  C   UNL A   1      41.851  25.896  25.617  1.00  0.00     0.022 A 
BRANCH  54  57
ATOM     57  S   UNL A   1      41.207  23.455  26.677  1.00  0.00     0.127 S 
ATOM     58  O   UNL A   1      39.764  23.287  26.532  1.00  0.00    -0.237 OA
ATOM     59  O   UNL A   1      41.988  23.135  25.481  1.00  0.00    -0.237 OA
ATOM     60  O   UNL A   1      41.781  22.954  27.918  1.00  0.00    -0.744 OA
ENDBRANCH  54  57
ENDBRANCH  26  50
BRANCH  38  61
ATOM     61  C   UNL A   1      44.354  27.558  34.260  1.00  0.00     0.023 A 
ATOM     62  C   UNL A   1      45.630  28.152  34.280  1.00  0.00     0.012 A 
ATOM     63  C   UNL A   1      44.156  26.306  34.873  1.00  0.00     0.148 A 
ATOM     64  C   UNL A   1      46.702  27.495  34.879  1.00  0.00     0.002 A 
ATOM     65  C   UNL A   1      45.216  25.682  35.514  1.00  0.00     0.091 A 
ATOM     66  F   UNL A   1      42.936  25.751  34.818  1.00  0.00    -0.205 F 
ATOM     67  C   UNL A   1      46.493  26.269  35.508  1.00  0.00     0.022 A 
BRANCH  65  68
ATOM     68  S   UNL A   1      45.000  24.162  36.443  1.00  0.00     0.127 S 
ATOM     69  O   UNL A   1      46.358  23.621  36.448  1.00  0.00    -0.237 OA
ATOM     70  O   UNL A   1      44.533  24.651  37.740  1.00  0.00    -0.237 OA
ATOM     71  O   UNL A   1      44.014  23.383  35.705  1.00  0.00    -0.744 OA
ENDBRANCH  65  68
ENDBRANCH  38  61
ENDBRANCH  12  13
ENDBRANCH   5   7
ENDBRANCH   4   5
ENDBRANCH   3   4
ENDBRANCH   2   3
ENDBRANCH   1   2
BRANCH   1  72
ATOM     72  C   UNL A   1      31.959  28.829  26.641  1.00  0.00     0.202 C 
BRANCH  72  73
ATOM     73  C   UNL A   1      33.136  28.981  25.679  1.00  0.00     0.261 C 
BRANCH  73  74
ATOM     74  O   UNL A   1      32.849  28.144  24.550  1.00  0.00    -0.463 OA
BRANCH  74  75
ATOM     75  C   UNL A   1      32.830  28.803  23.357  1.00  0.00     0.310 C 
ATOM     76  O   UNL A   1      33.819  29.160  22.730  1.00  0.00    -0.252 OA
BRANCH  75  77
ATOM     77  C   UNL A   1      31.401  28.893  22.859  1.00  0.00     0.115 C 
ATOM     78  C   UNL A   1      30.715  30.112  23.504  1.00  0.00     0.043 C 
ATOM     79  C   UNL A   1      30.662  27.577  23.080  1.00  0.00     0.097 C 
ATOM     80  C   UNL A   1      29.223  30.093  23.404  1.00  0.00    -0.030 C 
ATOM     81  C   UNL A   1      29.146  27.665  22.830  1.00  0.00     0.041 C 
ATOM     82  C   UNL A   1      28.523  28.994  23.108  1.00  0.00    -0.030 C 
BRANCH  79  83
ATOM     83  C   UNL A   1      31.193  26.351  22.317  1.00  0.00     0.227 C 
ATOM     84  O   UNL A   1      31.467  26.461  21.118  1.00  0.00    -0.275 OA
ATOM     85  N   UNL A   1      31.569  25.216  23.037  1.00  0.00    -0.331 N 
ATOM     86  C   UNL A   1      32.740  24.513  22.528  1.00  0.00     0.181 C 
ATOM     87  C   UNL A   1      30.588  24.342  23.679  1.00  0.00     0.181 C 
ATOM     88  C   UNL A   1      33.333  23.507  23.531  1.00  0.00     0.284 C 
ATOM     89  C   UNL A   1      31.198  23.317  24.660  1.00  0.00     0.284 C 
ATOM     90  N   UNL A   1      32.389  22.600  24.193  1.00  0.00    -0.328 N 
ATOM     91  H   UNL A   1      32.865  22.269  25.032  1.00  0.00     0.348 HD
BRANCH  90  92
ATOM     92  C   UNL A   1      32.149  21.314  23.531  1.00  0.00     0.299 C 
BRANCH  92  93
ATOM     93  C   UNL A   1      32.959  20.133  24.011  1.00  0.00     0.010 A 
ATOM     94  C   UNL A   1      34.247  20.319  24.563  1.00  0.00     0.013 A 
ATOM     95  C   UNL A   1      32.458  18.828  23.863  1.00  0.00     0.060 A 
ATOM     96  C   UNL A   1      35.070  19.230  24.863  1.00  0.00     0.051 A 
ATOM     97  C   UNL A   1      33.289  17.773  24.179  1.00  0.00     0.166 A 
ATOM     98  C   UNL A   1      34.564  17.969  24.648  1.00  0.00     0.165 A 
ATOM     99  O   UNL A   1      32.982  16.458  24.038  1.00  0.00    -0.454 OA
ATOM    100  O   UNL A   1      35.227  16.799  24.849  1.00  0.00    -0.454 OA
ATOM    101  C   UNL A   1      34.224  15.844  24.436  1.00  0.00     0.468 C 
ENDBRANCH  92  93
ENDBRANCH  90  92
ENDBRANCH  79  83
ENDBRANCH  75  77
ENDBRANCH  74  75
ENDBRANCH  73  74
ENDBRANCH  72  73
ENDBRANCH   1  72
TORSDOF 20
ENDMDL
MODEL 3
REMARK VINA RESULT:     -11.4      5.541     12.174
REMARK SMILES O=C(OCCOCCOC(=O)[C@@H]1CC=CC[C@H]1C(=O)N1CC[NH+](Cc2ccc3c(c2)OCO3)CC1)c1ccc(-c2c3nc(c(-c4cccc(S(=O)(=O)[O-])c4F)c4ccc([nH]4)c(-c4cccc(S(=O)(=O)[O-])c4F)c4nc(c(-c5cccc(S(=O)(=O)[O-])c5F)c5ccc2[nH]5)C=C4)C=C3)cc1
REMARK SMILES IDX 6 1 5 2 4 3 3 4 2 5 1 6 36 7 37 8 98 9 38 10 97 11 39 12
REMARK SMILES IDX 40 13 41 14 91 15 42 16 96 17 90 18 92 19 43 20 95 21 89 22
REMARK SMILES IDX 88 23 44 25 76 26 56 27 75 28 57 29 60 30 74 31 93 32 58 33
REMARK SMILES IDX 59 34 73 36 94 37 61 38 45 39 46 40 54 41 47 42 49 43 55 44
REMARK SMILES IDX 48 45 50 46 51 47 52 48 53 49 77 50 78 51 86 52 79 53 81 54
REMARK SMILES IDX 87 55 80 56 82 57 83 58 84 59 85 60 62 61 63 62 71 63 64 64
REMARK SMILES IDX 66 65 72 66 65 67 67 68 68 69 69 70 70 71 7 72 8 73 9 74
REMARK SMILES IDX 10 75 11 76 12 77 13 78 17 79 14 80 16 81 15 82 18 83 19 84
REMARK SMILES IDX 20 85 21 86 35 87 22 88 34 89 23 90 24 92 25 93 26 94 30 95
REMARK SMILES IDX 27 96 29 97 28 98 31 99 33 100 32 101
REMARK H PARENT 92 24 60 35 23 91
REMARK Flexibility Score: inf
ROOT
ATOM      1  O   UNL A   1      38.840  21.085  25.559  1.00  0.00    -0.374 OA
ENDROOT
BRANCH   1   2
ATOM      2  C   UNL A   1      39.195  19.706  25.656  1.00  0.00     0.202 C 
BRANCH   2   3
ATOM      3  C   UNL A   1      40.450  19.395  26.473  1.00  0.00     0.261 C 
BRANCH   3   4
ATOM      4  O   UNL A   1      41.512  18.969  25.603  1.00  0.00    -0.460 OA
BRANCH   4   5
ATOM      5  C   UNL A   1      42.751  19.503  25.480  1.00  0.00     0.338 C 
ATOM      6  O   UNL A   1      43.670  18.781  25.098  1.00  0.00    -0.246 OA
BRANCH   5   7
ATOM      7  C   UNL A   1      43.050  20.937  25.765  1.00  0.00     0.060 A 
ATOM      8  C   UNL A   1      43.057  21.951  24.806  1.00  0.00     0.016 A 
ATOM      9  C   UNL A   1      43.270  21.294  27.105  1.00  0.00     0.016 A 
ATOM     10  C   UNL A   1      43.377  23.255  25.128  1.00  0.00     0.010 A 
ATOM     11  C   UNL A   1      43.545  22.621  27.451  1.00  0.00     0.010 A 
ATOM     12  C   UNL A   1      43.633  23.593  26.449  1.00  0.00    -0.014 A 
BRANCH  12  13
ATOM     13  C   UNL A   1      44.132  24.951  26.697  1.00  0.00     0.031 A 
ATOM     14  C   UNL A   1      43.210  25.926  27.358  1.00  0.00     0.074 A 
ATOM     15  C   UNL A   1      45.432  25.223  26.484  1.00  0.00     0.049 A 
ATOM     16  N   UNL A   1      43.431  27.160  27.712  1.00  0.00    -0.248 NA
ATOM     17  C   UNL A   1      41.857  25.437  27.683  1.00  0.00     0.031 C 
ATOM     18  C   UNL A   1      46.415  24.269  25.962  1.00  0.00     0.029 A 
ATOM     19  N   UNL A   1      46.156  26.359  26.713  1.00  0.00    -0.354 N 
ATOM     20  C   UNL A   1      42.232  27.615  28.242  1.00  0.00     0.074 A 
ATOM     21  C   UNL A   1      41.292  26.519  28.192  1.00  0.00     0.031 C 
ATOM     22  C   UNL A   1      47.621  24.859  25.927  1.00  0.00     0.029 A 
ATOM     23  C   UNL A   1      47.480  26.242  26.364  1.00  0.00     0.049 A 
ATOM     24  H   UNL A   1      45.766  27.181  27.089  1.00  0.00     0.167 HD
ATOM     25  C   UNL A   1      41.946  28.848  28.715  1.00  0.00     0.034 A 
ATOM     26  C   UNL A   1      48.456  27.169  26.379  1.00  0.00     0.034 A 
ATOM     27  C   UNL A   1      42.913  29.907  28.763  1.00  0.00     0.049 A 
ATOM     28  C   UNL A   1      48.098  28.546  26.871  1.00  0.00     0.074 A 
ATOM     29  C   UNL A   1      42.745  31.215  29.173  1.00  0.00     0.029 A 
ATOM     30  N   UNL A   1      44.240  29.770  28.377  1.00  0.00    -0.354 N 
ATOM     31  N   UNL A   1      46.959  28.972  27.365  1.00  0.00    -0.248 NA
ATOM     32  C   UNL A   1      49.153  29.563  26.819  1.00  0.00     0.031 C 
ATOM     33  C   UNL A   1      43.967  31.876  29.009  1.00  0.00     0.029 A 
ATOM     34  C   UNL A   1      44.905  30.971  28.531  1.00  0.00     0.049 A 
ATOM     35  H   UNL A   1      44.647  28.939  28.042  1.00  0.00     0.167 HD
ATOM     36  C   UNL A   1      47.168  30.300  27.715  1.00  0.00     0.074 A 
ATOM     37  C   UNL A   1      48.550  30.598  27.390  1.00  0.00     0.031 C 
ATOM     38  C   UNL A   1      46.299  31.199  28.242  1.00  0.00     0.034 A 
BRANCH  25  39
ATOM     39  C   UNL A   1      40.528  29.102  29.146  1.00  0.00     0.023 A 
ATOM     40  C   UNL A   1      39.582  29.610  28.231  1.00  0.00     0.012 A 
ATOM     41  C   UNL A   1      40.146  28.883  30.483  1.00  0.00     0.148 A 
ATOM     42  C   UNL A   1      38.292  29.933  28.651  1.00  0.00     0.002 A 
ATOM     43  C   UNL A   1      38.848  29.170  30.886  1.00  0.00     0.091 A 
ATOM     44  F   UNL A   1      41.070  28.435  31.346  1.00  0.00    -0.205 F 
ATOM     45  C   UNL A   1      37.924  29.708  29.976  1.00  0.00     0.022 A 
BRANCH  43  46
ATOM     46  S   UNL A   1      38.269  28.865  32.558  1.00  0.00     0.127 S 
ATOM     47  O   UNL A   1      39.075  29.812  33.327  1.00  0.00    -0.237 OA
ATOM     48  O   UNL A   1      36.851  29.211  32.460  1.00  0.00    -0.237 OA
ATOM     49  O   UNL A   1      38.532  27.457  32.822  1.00  0.00    -0.744 OA
ENDBRANCH  43  46
ENDBRANCH  25  39
BRANCH  26  50
ATOM     50  C   UNL A   1      49.837  26.823  25.934  1.00  0.00     0.023 A 
ATOM     51  C   UNL A   1      50.686  26.098  26.790  1.00  0.00     0.012 A 
ATOM     52  C   UNL A   1      50.303  27.183  24.653  1.00  0.00     0.148 A 
ATOM     53  C   UNL A   1      51.980  25.759  26.391  1.00  0.00     0.002 A 
ATOM     54  C   UNL A   1      51.573  26.795  24.241  1.00  0.00     0.091 A 
ATOM     55  F   UNL A   1      49.491  27.890  23.855  1.00  0.00    -0.205 F 
ATOM     56  C   UNL A   1      52.419  26.097  25.113  1.00  0.00     0.022 A 
BRANCH  54  57
ATOM     57  S   UNL A   1      52.172  27.085  22.571  1.00  0.00     0.127 S 
ATOM     58  O   UNL A   1      52.393  28.528  22.579  1.00  0.00    -0.237 OA
ATOM     59  O   UNL A   1      53.391  26.275  22.541  1.00  0.00    -0.237 OA
ATOM     60  O   UNL A   1      51.116  26.610  21.687  1.00  0.00    -0.744 OA
ENDBRANCH  54  57
ENDBRANCH  26  50
BRANCH  38  61
ATOM     61  C   UNL A   1      46.835  32.570  28.542  1.00  0.00     0.023 A 
ATOM     62  C   UNL A   1      47.354  32.859  29.818  1.00  0.00     0.012 A 
ATOM     63  C   UNL A   1      46.903  33.540  27.524  1.00  0.00     0.148 A 
ATOM     64  C   UNL A   1      47.910  34.108  30.085  1.00  0.00     0.002 A 
ATOM     65  C   UNL A   1      47.506  34.762  27.781  1.00  0.00     0.091 A 
ATOM     66  F   UNL A   1      46.378  33.248  26.324  1.00  0.00    -0.205 F 
ATOM     67  C   UNL A   1      48.000  35.053  29.065  1.00  0.00     0.022 A 
BRANCH  65  68
ATOM     68  S   UNL A   1      47.762  35.984  26.492  1.00  0.00     0.127 S 
ATOM     69  O   UNL A   1      46.389  36.343  26.145  1.00  0.00    -0.237 OA
ATOM     70  O   UNL A   1      48.509  37.028  27.194  1.00  0.00    -0.237 OA
ATOM     71  O   UNL A   1      48.519  35.306  25.447  1.00  0.00    -0.744 OA
ENDBRANCH  65  68
ENDBRANCH  38  61
ENDBRANCH  12  13
ENDBRANCH   5   7
ENDBRANCH   4   5
ENDBRANCH   3   4
ENDBRANCH   2   3
ENDBRANCH   1   2
BRANCH   1  72
ATOM     72  C   UNL A   1      37.758  21.401  24.669  1.00  0.00     0.202 C 
BRANCH  72  73
ATOM     73  C   UNL A   1      36.793  22.352  25.374  1.00  0.00     0.261 C 
BRANCH  73  74
ATOM     74  O   UNL A   1      35.472  21.963  24.973  1.00  0.00    -0.463 OA
BRANCH  74  75
ATOM     75  C   UNL A   1      34.729  21.400  25.968  1.00  0.00     0.310 C 
ATOM     76  O   UNL A   1      34.602  21.853  27.098  1.00  0.00    -0.252 OA
BRANCH  75  77
ATOM     77  C   UNL A   1      33.972  20.210  25.413  1.00  0.00     0.115 C 
ATOM     78  C   UNL A   1      34.977  19.178  24.870  1.00  0.00     0.043 C 
ATOM     79  C   UNL A   1      32.926  20.655  24.396  1.00  0.00     0.097 C 
ATOM     80  C   UNL A   1      34.367  18.156  23.964  1.00  0.00    -0.030 C 
ATOM     81  C   UNL A   1      32.289  19.494  23.610  1.00  0.00     0.041 C 
ATOM     82  C   UNL A   1      33.166  18.303  23.396  1.00  0.00    -0.030 C 
BRANCH  79  83
ATOM     83  C   UNL A   1      31.787  21.546  24.920  1.00  0.00     0.227 C 
ATOM     84  O   UNL A   1      31.094  21.146  25.861  1.00  0.00    -0.275 OA
ATOM     85  N   UNL A   1      31.707  22.870  24.484  1.00  0.00    -0.331 N 
ATOM     86  C   UNL A   1      31.283  23.835  25.490  1.00  0.00     0.181 C 
ATOM     87  C   UNL A   1      31.298  23.216  23.123  1.00  0.00     0.181 C 
ATOM     88  C   UNL A   1      31.555  25.296  25.088  1.00  0.00     0.284 C 
ATOM     89  C   UNL A   1      31.548  24.691  22.742  1.00  0.00     0.284 C 
ATOM     90  N   UNL A   1      31.151  25.695  23.735  1.00  0.00    -0.328 N 
ATOM     91  H   UNL A   1      31.692  26.532  23.520  1.00  0.00     0.348 HD
BRANCH  90  92
ATOM     92  C   UNL A   1      29.797  26.241  23.595  1.00  0.00     0.299 C 
BRANCH  92  93
ATOM     93  C   UNL A   1      29.669  27.744  23.511  1.00  0.00     0.010 A 
ATOM     94  C   UNL A   1      30.734  28.581  23.913  1.00  0.00     0.013 A 
ATOM     95  C   UNL A   1      28.464  28.325  23.079  1.00  0.00     0.060 A 
ATOM     96  C   UNL A   1      30.574  29.968  23.992  1.00  0.00     0.051 A 
ATOM     97  C   UNL A   1      28.340  29.696  23.156  1.00  0.00     0.166 A 
ATOM     98  C   UNL A   1      29.359  30.492  23.616  1.00  0.00     0.165 A 
ATOM     99  O   UNL A   1      27.228  30.407  22.836  1.00  0.00    -0.454 OA
ATOM    100  O   UNL A   1      29.011  31.806  23.658  1.00  0.00    -0.454 OA
ATOM    101  C   UNL A   1      27.648  31.741  23.184  1.00  0.00     0.468 C 
ENDBRANCH  92  93
ENDBRANCH  90  92
ENDBRANCH  79  83
ENDBRANCH  75  77
ENDBRANCH  74  75
ENDBRANCH  73  74
ENDBRANCH  72  73
ENDBRANCH   1  72
TORSDOF 20
ENDMDL
