MODEL 1
REMARK VINA RESULT:     -10.8      0.000      0.000
REMARK SMILES C[C@@H](NC1=[NH+]CCC1)C(=O)OCCOCCOC(=O)c1ccc(-c2c3nc(c(-c4cccc(S(=O)(=O)[O-])c4F)c4ccc([nH]4)c(-c4cccc(S(=O)(=O)[O-])c4F)c4nc(c(-c5cccc(S(=O)(=O)[O-])c5F)c5ccc2[nH]5)C=C4)C=C3)cc1
REMARK SMILES IDX 15 1 14 2 13 3 12 4 11 5 9 6 10 7 2 8 1 9 3 10 4 11 5 13
REMARK SMILES IDX 8 14 6 15 7 17 16 18 17 19 18 20 19 21 20 22 21 23 82 24
REMARK SMILES IDX 22 25 81 26 23 27 24 28 25 29 75 30 26 31 80 32 74 33 76 34
REMARK SMILES IDX 27 35 79 36 73 37 72 38 28 40 60 41 40 42 59 43 41 44 44 45
REMARK SMILES IDX 58 46 77 47 42 48 43 49 57 51 78 52 45 53 29 54 30 55 38 56
REMARK SMILES IDX 31 57 33 58 39 59 32 60 34 61 35 62 36 63 37 64 61 65 62 66
REMARK SMILES IDX 70 67 63 68 65 69 71 70 64 71 66 72 67 73 68 74 69 75 46 76
REMARK SMILES IDX 47 77 55 78 48 79 50 80 56 81 49 82 51 83 52 84 53 85 54 86
REMARK H PARENT 3 12 5 16 76 39 44 50
REMARK Flexibility Score: inf
ROOT
ATOM      1  C   UNL A   1      36.430  20.633  24.902  1.00  0.00     0.202 C 
ENDROOT
BRANCH   1   2
ATOM      2  O   UNL A   1      36.344  22.043  25.102  1.00  0.00    -0.374 OA
BRANCH   2   3
ATOM      3  C   UNL A   1      36.326  22.857  23.929  1.00  0.00     0.202 C 
BRANCH   3   4
ATOM      4  C   UNL A   1      34.986  23.516  23.602  1.00  0.00     0.261 C 
BRANCH   4   5
ATOM      5  O   UNL A   1      34.111  23.578  24.743  1.00  0.00    -0.460 OA
BRANCH   5   6
ATOM      6  C   UNL A   1      32.876  23.019  24.589  1.00  0.00     0.350 C 
ATOM      7  O   UNL A   1      32.216  23.050  23.555  1.00  0.00    -0.247 OA
BRANCH   6   8
ATOM      8  C   UNL A   1      32.377  22.371  25.879  1.00  0.00     0.279 C 
ATOM      9  C   UNL A   1      30.869  22.118  25.809  1.00  0.00     0.071 C 
BRANCH   8  10
ATOM     10  N   UNL A   1      33.050  21.130  26.253  1.00  0.00    -0.265 N 
ATOM     11  C   UNL A   1      32.945  19.897  25.686  1.00  0.00     0.243 C 
ATOM     12  H   UNL A   1      33.662  21.193  27.020  1.00  0.00     0.305 HD
ATOM     13  N   UNL A   1      32.877  18.857  26.463  1.00  0.00    -0.279 N 
ATOM     14  C   UNL A   1      32.990  19.594  24.215  1.00  0.00     0.131 C 
ATOM     15  C   UNL A   1      32.729  17.691  25.568  1.00  0.00     0.234 C 
ATOM     16  H   UNL A   1      32.915  18.848  27.447  1.00  0.00     0.304 HD
ATOM     17  C   UNL A   1      32.279  18.263  24.238  1.00  0.00     0.058 C 
ENDBRANCH   8  10
ENDBRANCH   6   8
ENDBRANCH   5   6
ENDBRANCH   4   5
ENDBRANCH   3   4
ENDBRANCH   2   3
ENDBRANCH   1   2
BRANCH   1  18
ATOM     18  C   UNL A   1      37.785  19.992  25.221  1.00  0.00     0.261 C 
BRANCH  18  19
ATOM     19  O   UNL A   1      38.849  20.961  25.222  1.00  0.00    -0.460 OA
BRANCH  19  20
ATOM     20  C   UNL A   1      39.763  20.796  26.206  1.00  0.00     0.338 C 
ATOM     21  O   UNL A   1      40.385  19.771  26.466  1.00  0.00    -0.246 OA
BRANCH  20  22
ATOM     22  C   UNL A   1      40.068  22.084  26.857  1.00  0.00     0.060 A 
ATOM     23  C   UNL A   1      39.384  23.215  26.393  1.00  0.00     0.016 A 
ATOM     24  C   UNL A   1      41.062  22.208  27.831  1.00  0.00     0.016 A 
ATOM     25  C   UNL A   1      39.741  24.482  26.845  1.00  0.00     0.010 A 
ATOM     26  C   UNL A   1      41.423  23.483  28.280  1.00  0.00     0.010 A 
ATOM     27  C   UNL A   1      40.797  24.628  27.752  1.00  0.00    -0.014 A 
BRANCH  27  28
ATOM     28  C   UNL A   1      41.352  25.979  28.011  1.00  0.00     0.031 A 
ATOM     29  C   UNL A   1      42.738  26.303  27.518  1.00  0.00     0.074 A 
ATOM     30  C   UNL A   1      40.628  26.911  28.653  1.00  0.00     0.049 A 
ATOM     31  N   UNL A   1      43.418  27.413  27.631  1.00  0.00    -0.248 NA
ATOM     32  C   UNL A   1      43.452  25.231  26.804  1.00  0.00     0.031 C 
ATOM     33  C   UNL A   1      39.275  26.719  29.172  1.00  0.00     0.029 A 
ATOM     34  N   UNL A   1      40.941  28.202  28.996  1.00  0.00    -0.354 N 
ATOM     35  C   UNL A   1      44.646  27.169  27.031  1.00  0.00     0.074 A 
ATOM     36  C   UNL A   1      44.625  25.800  26.563  1.00  0.00     0.031 C 
ATOM     37  C   UNL A   1      38.883  27.845  29.793  1.00  0.00     0.029 A 
ATOM     38  C   UNL A   1      39.963  28.828  29.732  1.00  0.00     0.049 A 
ATOM     39  H   UNL A   1      41.786  28.638  28.740  1.00  0.00     0.167 HD
ATOM     40  C   UNL A   1      45.693  28.011  26.864  1.00  0.00     0.034 A 
ATOM     41  C   UNL A   1      39.949  30.049  30.303  1.00  0.00     0.034 A 
ATOM     42  C   UNL A   1      45.705  29.379  27.305  1.00  0.00     0.049 A 
ATOM     43  C   UNL A   1      41.134  30.962  30.119  1.00  0.00     0.074 A 
ATOM     44  C   UNL A   1      46.698  30.329  27.138  1.00  0.00     0.029 A 
ATOM     45  N   UNL A   1      44.679  29.992  28.008  1.00  0.00    -0.354 N 
ATOM     46  N   UNL A   1      42.236  30.758  29.439  1.00  0.00    -0.248 NA
ATOM     47  C   UNL A   1      41.057  32.287  30.751  1.00  0.00     0.031 C 
ATOM     48  C   UNL A   1      46.280  31.510  27.762  1.00  0.00     0.029 A 
ATOM     49  C   UNL A   1      45.019  31.303  28.295  1.00  0.00     0.049 A 
ATOM     50  H   UNL A   1      43.834  29.558  28.266  1.00  0.00     0.167 HD
ATOM     51  C   UNL A   1      42.968  31.937  29.534  1.00  0.00     0.074 A 
ATOM     52  C   UNL A   1      42.173  32.860  30.318  1.00  0.00     0.031 C 
ATOM     53  C   UNL A   1      44.193  32.228  29.029  1.00  0.00     0.034 A 
BRANCH  40  54
ATOM     54  C   UNL A   1      46.907  27.486  26.145  1.00  0.00     0.023 A 
ATOM     55  C   UNL A   1      47.815  26.652  26.828  1.00  0.00     0.012 A 
ATOM     56  C   UNL A   1      47.121  27.771  24.782  1.00  0.00     0.148 A 
ATOM     57  C   UNL A   1      48.932  26.132  26.176  1.00  0.00     0.002 A 
ATOM     58  C   UNL A   1      48.214  27.217  24.127  1.00  0.00     0.091 A 
ATOM     59  F   UNL A   1      46.260  28.587  24.156  1.00  0.00    -0.205 F 
ATOM     60  C   UNL A   1      49.125  26.406  24.823  1.00  0.00     0.022 A 
BRANCH  58  61
ATOM     61  S   UNL A   1      48.510  27.451  22.371  1.00  0.00     0.127 S 
ATOM     62  O   UNL A   1      49.677  28.333  22.384  1.00  0.00    -0.237 OA
ATOM     63  O   UNL A   1      48.782  26.087  21.917  1.00  0.00    -0.237 OA
ATOM     64  O   UNL A   1      47.289  28.036  21.833  1.00  0.00    -0.744 OA
ENDBRANCH  58  61
ENDBRANCH  40  54
BRANCH  41  65
ATOM     65  C   UNL A   1      38.755  30.495  31.074  1.00  0.00     0.023 A 
ATOM     66  C   UNL A   1      38.705  30.278  32.464  1.00  0.00     0.012 A 
ATOM     67  C   UNL A   1      37.680  31.148  30.442  1.00  0.00     0.148 A 
ATOM     68  C   UNL A   1      37.594  30.679  33.207  1.00  0.00     0.002 A 
ATOM     69  C   UNL A   1      36.600  31.594  31.196  1.00  0.00     0.091 A 
ATOM     70  F   UNL A   1      37.737  31.328  29.115  1.00  0.00    -0.205 F 
ATOM     71  C   UNL A   1      36.548  31.347  32.576  1.00  0.00     0.022 A 
BRANCH  69  72
ATOM     72  S   UNL A   1      35.269  32.571  30.488  1.00  0.00     0.127 S 
ATOM     73  O   UNL A   1      34.318  32.628  31.595  1.00  0.00    -0.237 OA
ATOM     74  O   UNL A   1      35.947  33.834  30.192  1.00  0.00    -0.237 OA
ATOM     75  O   UNL A   1      34.828  31.835  29.310  1.00  0.00    -0.744 OA
ENDBRANCH  69  72
ENDBRANCH  41  65
BRANCH  53  76
ATOM     76  C   UNL A   1      44.746  33.607  29.276  1.00  0.00     0.023 A 
ATOM     77  C   UNL A   1      45.436  33.879  30.475  1.00  0.00     0.012 A 
ATOM     78  C   UNL A   1      44.653  34.608  28.289  1.00  0.00     0.148 A 
ATOM     79  C   UNL A   1      45.998  35.136  30.699  1.00  0.00     0.002 A 
ATOM     80  C   UNL A   1      45.257  35.843  28.499  1.00  0.00     0.091 A 
ATOM     81  F   UNL A   1      43.978  34.336  27.163  1.00  0.00    -0.205 F 
ATOM     82  C   UNL A   1      45.919  36.112  29.707  1.00  0.00     0.022 A 
BRANCH  80  83
ATOM     83  S   UNL A   1      45.287  37.124  27.240  1.00  0.00     0.127 S 
ATOM     84  O   UNL A   1      46.045  36.474  26.172  1.00  0.00    -0.237 OA
ATOM     85  O   UNL A   1      43.865  37.312  26.951  1.00  0.00    -0.237 OA
ATOM     86  O   UNL A   1      45.933  38.275  27.858  1.00  0.00    -0.744 OA
ENDBRANCH  80  83
ENDBRANCH  53  76
ENDBRANCH  27  28
ENDBRANCH  20  22
ENDBRANCH  19  20
ENDBRANCH  18  19
ENDBRANCH   1  18
TORSDOF 18
ENDMDL
MODEL 2
REMARK VINA RESULT:     -10.5      0.794      7.856
REMARK SMILES C[C@@H](NC1=[NH+]CCC1)C(=O)OCCOCCOC(=O)c1ccc(-c2c3nc(c(-c4cccc(S(=O)(=O)[O-])c4F)c4ccc([nH]4)c(-c4cccc(S(=O)(=O)[O-])c4F)c4nc(c(-c5cccc(S(=O)(=O)[O-])c5F)c5ccc2[nH]5)C=C4)C=C3)cc1
REMARK SMILES IDX 15 1 14 2 13 3 12 4 11 5 9 6 10 7 2 8 1 9 3 10 4 11 5 13
REMARK SMILES IDX 8 14 6 15 7 17 16 18 17 19 18 20 19 21 20 22 21 23 82 24
REMARK SMILES IDX 22 25 81 26 23 27 24 28 25 29 75 30 26 31 80 32 74 33 76 34
REMARK SMILES IDX 27 35 79 36 73 37 72 38 28 40 60 41 40 42 59 43 41 44 44 45
REMARK SMILES IDX 58 46 77 47 42 48 43 49 57 51 78 52 45 53 29 54 30 55 38 56
REMARK SMILES IDX 31 57 33 58 39 59 32 60 34 61 35 62 36 63 37 64 61 65 62 66
REMARK SMILES IDX 70 67 63 68 65 69 71 70 64 71 66 72 67 73 68 74 69 75 46 76
REMARK SMILES IDX 47 77 55 78 48 79 50 80 56 81 49 82 51 83 52 84 53 85 54 86
REMARK H PARENT 3 12 5 16 76 39 44 50
REMARK Flexibility Score: inf
ROOT
ATOM      1  C   UNL A   1      36.866  20.327  24.996  1.00  0.00     0.202 C 
ENDROOT
BRANCH   1   2
ATOM      2  O   UNL A   1      36.559  21.408  25.876  1.00  0.00    -0.374 OA
BRANCH   2   3
ATOM      3  C   UNL A   1      36.685  22.726  25.341  1.00  0.00     0.202 C 
BRANCH   3   4
ATOM      4  C   UNL A   1      35.377  23.407  24.946  1.00  0.00     0.261 C 
BRANCH   4   5
ATOM      5  O   UNL A   1      34.520  22.547  24.173  1.00  0.00    -0.460 OA
BRANCH   5   6
ATOM      6  C   UNL A   1      33.178  22.719  24.344  1.00  0.00     0.350 C 
ATOM      7  O   UNL A   1      32.427  23.241  23.526  1.00  0.00    -0.247 OA
BRANCH   6   8
ATOM      8  C   UNL A   1      32.706  22.215  25.707  1.00  0.00     0.279 C 
ATOM      9  C   UNL A   1      31.180  22.096  25.741  1.00  0.00     0.071 C 
BRANCH   8  10
ATOM     10  N   UNL A   1      33.289  20.948  26.139  1.00  0.00    -0.265 N 
ATOM     11  C   UNL A   1      33.084  19.698  25.641  1.00  0.00     0.243 C 
ATOM     12  H   UNL A   1      33.917  21.005  26.894  1.00  0.00     0.305 HD
ATOM     13  N   UNL A   1      32.951  18.709  26.473  1.00  0.00    -0.279 N 
ATOM     14  C   UNL A   1      33.083  19.316  24.187  1.00  0.00     0.131 C 
ATOM     15  C   UNL A   1      32.702  17.512  25.644  1.00  0.00     0.234 C 
ATOM     16  H   UNL A   1      33.004  18.749  27.456  1.00  0.00     0.304 HD
ATOM     17  C   UNL A   1      32.275  18.045  24.290  1.00  0.00     0.058 C 
ENDBRANCH   8  10
ENDBRANCH   6   8
ENDBRANCH   5   6
ENDBRANCH   4   5
ENDBRANCH   3   4
ENDBRANCH   2   3
ENDBRANCH   1   2
BRANCH   1  18
ATOM     18  C   UNL A   1      38.325  19.857  24.995  1.00  0.00     0.261 C 
BRANCH  18  19
ATOM     19  O   UNL A   1      38.908  19.920  26.309  1.00  0.00    -0.460 OA
BRANCH  19  20
ATOM     20  C   UNL A   1      40.240  20.160  26.326  1.00  0.00     0.338 C 
ATOM     21  O   UNL A   1      41.118  19.456  25.839  1.00  0.00    -0.246 OA
BRANCH  20  22
ATOM     22  C   UNL A   1      40.523  21.501  26.872  1.00  0.00     0.060 A 
ATOM     23  C   UNL A   1      40.048  22.602  26.148  1.00  0.00     0.016 A 
ATOM     24  C   UNL A   1      41.309  21.688  28.012  1.00  0.00     0.016 A 
ATOM     25  C   UNL A   1      40.420  23.892  26.514  1.00  0.00     0.010 A 
ATOM     26  C   UNL A   1      41.686  22.986  28.375  1.00  0.00     0.010 A 
ATOM     27  C   UNL A   1      41.283  24.088  27.599  1.00  0.00    -0.014 A 
BRANCH  27  28
ATOM     28  C   UNL A   1      41.893  25.424  27.810  1.00  0.00     0.031 A 
ATOM     29  C   UNL A   1      41.070  26.504  28.460  1.00  0.00     0.074 A 
ATOM     30  C   UNL A   1      43.166  25.667  27.451  1.00  0.00     0.049 A 
ATOM     31  N   UNL A   1      41.398  27.738  28.742  1.00  0.00    -0.248 NA
ATOM     32  C   UNL A   1      39.694  26.146  28.844  1.00  0.00     0.031 C 
ATOM     33  C   UNL A   1      44.063  24.701  26.818  1.00  0.00     0.029 A 
ATOM     34  N   UNL A   1      43.915  26.811  27.550  1.00  0.00    -0.354 N 
ATOM     35  C   UNL A   1      40.266  28.312  29.307  1.00  0.00     0.074 A 
ATOM     36  C   UNL A   1      39.236  27.296  29.320  1.00  0.00     0.031 C 
ATOM     37  C   UNL A   1      45.236  25.302  26.560  1.00  0.00     0.029 A 
ATOM     38  C   UNL A   1      45.167  26.698  26.991  1.00  0.00     0.049 A 
ATOM     39  H   UNL A   1      43.589  27.635  27.979  1.00  0.00     0.167 HD
ATOM     40  C   UNL A   1      40.101  29.565  29.791  1.00  0.00     0.034 A 
ATOM     41  C   UNL A   1      46.137  27.621  26.831  1.00  0.00     0.034 A 
ATOM     42  C   UNL A   1      41.131  30.567  29.803  1.00  0.00     0.049 A 
ATOM     43  C   UNL A   1      45.922  29.014  27.362  1.00  0.00     0.074 A 
ATOM     44  C   UNL A   1      41.078  31.851  30.318  1.00  0.00     0.029 A 
ATOM     45  N   UNL A   1      42.399  30.403  29.268  1.00  0.00    -0.354 N 
ATOM     46  N   UNL A   1      44.890  29.503  28.007  1.00  0.00    -0.248 NA
ATOM     47  C   UNL A   1      47.019  29.974  27.174  1.00  0.00     0.031 C 
ATOM     48  C   UNL A   1      42.309  32.470  30.073  1.00  0.00     0.029 A 
ATOM     49  C   UNL A   1      43.135  31.565  29.428  1.00  0.00     0.049 A 
ATOM     50  H   UNL A   1      42.729  29.581  28.838  1.00  0.00     0.167 HD
ATOM     51  C   UNL A   1      45.226  30.814  28.331  1.00  0.00     0.074 A 
ATOM     52  C   UNL A   1      46.567  31.036  27.830  1.00  0.00     0.031 C 
ATOM     53  C   UNL A   1      44.489  31.753  28.973  1.00  0.00     0.034 A 
BRANCH  40  54
ATOM     54  C   UNL A   1      38.760  29.917  30.380  1.00  0.00     0.023 A 
ATOM     55  C   UNL A   1      38.457  29.530  31.701  1.00  0.00     0.012 A 
ATOM     56  C   UNL A   1      37.824  30.674  29.649  1.00  0.00     0.148 A 
ATOM     57  C   UNL A   1      37.232  29.867  32.277  1.00  0.00     0.002 A 
ATOM     58  C   UNL A   1      36.623  31.041  30.242  1.00  0.00     0.091 A 
ATOM     59  F   UNL A   1      38.121  31.010  28.385  1.00  0.00    -0.205 F 
ATOM     60  C   UNL A   1      36.321  30.631  31.551  1.00  0.00     0.022 A 
BRANCH  58  61
ATOM     61  S   UNL A   1      35.415  32.084  29.417  1.00  0.00     0.127 S 
ATOM     62  O   UNL A   1      34.936  31.196  28.357  1.00  0.00    -0.237 OA
ATOM     63  O   UNL A   1      34.446  32.339  30.482  1.00  0.00    -0.237 OA
ATOM     64  O   UNL A   1      36.144  33.261  28.965  1.00  0.00    -0.744 OA
ENDBRANCH  58  61
ENDBRANCH  40  54
BRANCH  41  65
ATOM     65  C   UNL A   1      47.417  27.245  26.169  1.00  0.00     0.023 A 
ATOM     66  C   UNL A   1      48.422  26.599  26.914  1.00  0.00     0.012 A 
ATOM     67  C   UNL A   1      47.636  27.507  24.803  1.00  0.00     0.148 A 
ATOM     68  C   UNL A   1      49.632  26.244  26.318  1.00  0.00     0.002 A 
ATOM     69  C   UNL A   1      48.822  27.102  24.202  1.00  0.00     0.091 A 
ATOM     70  F   UNL A   1      46.675  28.140  24.115  1.00  0.00    -0.205 F 
ATOM     71  C   UNL A   1      49.828  26.486  24.961  1.00  0.00     0.022 A 
BRANCH  69  72
ATOM     72  S   UNL A   1      49.109  27.259  22.436  1.00  0.00     0.127 S 
ATOM     73  O   UNL A   1      50.568  27.222  22.365  1.00  0.00    -0.237 OA
ATOM     74  O   UNL A   1      48.437  26.068  21.914  1.00  0.00    -0.237 OA
ATOM     75  O   UNL A   1      48.487  28.518  22.049  1.00  0.00    -0.744 OA
ENDBRANCH  69  72
ENDBRANCH  41  65
BRANCH  53  76
ATOM     76  C   UNL A   1      45.117  33.103  29.204  1.00  0.00     0.023 A 
ATOM     77  C   UNL A   1      45.863  33.334  30.378  1.00  0.00     0.012 A 
ATOM     78  C   UNL A   1      45.037  34.113  28.225  1.00  0.00     0.148 A 
ATOM     79  C   UNL A   1      46.493  34.562  30.586  1.00  0.00     0.002 A 
ATOM     80  C   UNL A   1      45.707  35.315  28.418  1.00  0.00     0.091 A 
ATOM     81  F   UNL A   1      44.308  33.880  27.124  1.00  0.00    -0.205 F 
ATOM     82  C   UNL A   1      46.426  35.546  29.601  1.00  0.00     0.022 A 
BRANCH  80  83
ATOM     83  S   UNL A   1      45.754  36.601  27.163  1.00  0.00     0.127 S 
ATOM     84  O   UNL A   1      46.646  37.583  27.777  1.00  0.00    -0.237 OA
ATOM     85  O   UNL A   1      46.322  35.895  26.014  1.00  0.00    -0.237 OA
ATOM     86  O   UNL A   1      44.374  37.033  26.983  1.00  0.00    -0.744 OA
ENDBRANCH  80  83
ENDBRANCH  53  76
ENDBRANCH  27  28
ENDBRANCH  20  22
ENDBRANCH  19  20
ENDBRANCH  18  19
ENDBRANCH   1  18
TORSDOF 18
ENDMDL
MODEL 3
REMARK VINA RESULT:     -10.4      2.767      8.588
REMARK SMILES C[C@@H](NC1=[NH+]CCC1)C(=O)OCCOCCOC(=O)c1ccc(-c2c3nc(c(-c4cccc(S(=O)(=O)[O-])c4F)c4ccc([nH]4)c(-c4cccc(S(=O)(=O)[O-])c4F)c4nc(c(-c5cccc(S(=O)(=O)[O-])c5F)c5ccc2[nH]5)C=C4)C=C3)cc1
REMARK SMILES IDX 15 1 14 2 13 3 12 4 11 5 9 6 10 7 2 8 1 9 3 10 4 11 5 13
REMARK SMILES IDX 8 14 6 15 7 17 16 18 17 19 18 20 19 21 20 22 21 23 82 24
REMARK SMILES IDX 22 25 81 26 23 27 24 28 25 29 75 30 26 31 80 32 74 33 76 34
REMARK SMILES IDX 27 35 79 36 73 37 72 38 28 40 60 41 40 42 59 43 41 44 44 45
REMARK SMILES IDX 58 46 77 47 42 48 43 49 57 51 78 52 45 53 29 54 30 55 38 56
REMARK SMILES IDX 31 57 33 58 39 59 32 60 34 61 35 62 36 63 37 64 61 65 62 66
REMARK SMILES IDX 70 67 63 68 65 69 71 70 64 71 66 72 67 73 68 74 69 75 46 76
REMARK SMILES IDX 47 77 55 78 48 79 50 80 56 81 49 82 51 83 52 84 53 85 54 86
REMARK H PARENT 3 12 5 16 76 39 44 50
REMARK Flexibility Score: inf
ROOT
ATOM      1  C   UNL A   1      35.180  22.199  24.872  1.00  0.00     0.202 C 
ENDROOT
BRANCH   1   2
ATOM      2  O   UNL A   1      34.830  22.215  23.489  1.00  0.00    -0.374 OA
BRANCH   2   3
ATOM      3  C   UNL A   1      33.655  22.944  23.134  1.00  0.00     0.202 C 
BRANCH   3   4
ATOM      4  C   UNL A   1      33.386  24.205  23.953  1.00  0.00     0.261 C 
BRANCH   4   5
ATOM      5  O   UNL A   1      34.194  25.318  23.530  1.00  0.00    -0.460 OA
BRANCH   5   6
ATOM      6  C   UNL A   1      33.572  26.262  22.767  1.00  0.00     0.350 C 
ATOM      7  O   UNL A   1      33.658  26.346  21.546  1.00  0.00    -0.247 OA
BRANCH   6   8
ATOM      8  C   UNL A   1      32.771  27.247  23.617  1.00  0.00     0.279 C 
ATOM      9  C   UNL A   1      33.477  27.513  24.948  1.00  0.00     0.071 C 
BRANCH   8  10
ATOM     10  N   UNL A   1      32.472  28.524  22.976  1.00  0.00    -0.265 N 
ATOM     11  C   UNL A   1      31.263  29.119  22.778  1.00  0.00     0.243 C 
ATOM     12  H   UNL A   1      33.250  29.023  22.639  1.00  0.00     0.305 HD
ATOM     13  N   UNL A   1      31.030  29.693  21.635  1.00  0.00    -0.279 N 
ATOM     14  C   UNL A   1      30.173  29.265  23.801  1.00  0.00     0.131 C 
ATOM     15  C   UNL A   1      29.645  30.199  21.712  1.00  0.00     0.234 C 
ATOM     16  H   UNL A   1      31.649  29.773  20.874  1.00  0.00     0.304 HD
ATOM     17  C   UNL A   1      29.006  29.445  22.862  1.00  0.00     0.058 C 
ENDBRANCH   8  10
ENDBRANCH   6   8
ENDBRANCH   5   6
ENDBRANCH   4   5
ENDBRANCH   3   4
ENDBRANCH   2   3
ENDBRANCH   1   2
BRANCH   1  18
ATOM     18  C   UNL A   1      36.264  21.193  25.278  1.00  0.00     0.261 C 
BRANCH  18  19
ATOM     19  O   UNL A   1      37.572  21.617  24.854  1.00  0.00    -0.460 OA
BRANCH  19  20
ATOM     20  C   UNL A   1      38.579  21.255  25.682  1.00  0.00     0.338 C 
ATOM     21  O   UNL A   1      39.096  20.146  25.768  1.00  0.00    -0.246 OA
BRANCH  20  22
ATOM     22  C   UNL A   1      39.126  22.431  26.386  1.00  0.00     0.060 A 
ATOM     23  C   UNL A   1      38.524  23.669  26.128  1.00  0.00     0.016 A 
ATOM     24  C   UNL A   1      40.254  22.348  27.206  1.00  0.00     0.016 A 
ATOM     25  C   UNL A   1      39.091  24.839  26.626  1.00  0.00     0.010 A 
ATOM     26  C   UNL A   1      40.826  23.526  27.700  1.00  0.00     0.010 A 
ATOM     27  C   UNL A   1      40.275  24.778  27.371  1.00  0.00    -0.014 A 
BRANCH  27  28
ATOM     28  C   UNL A   1      41.019  26.029  27.657  1.00  0.00     0.031 A 
ATOM     29  C   UNL A   1      40.318  27.139  28.396  1.00  0.00     0.074 A 
ATOM     30  C   UNL A   1      42.303  26.169  27.286  1.00  0.00     0.049 A 
ATOM     31  N   UNL A   1      40.772  28.312  28.752  1.00  0.00    -0.248 NA
ATOM     32  C   UNL A   1      38.920  26.893  28.786  1.00  0.00     0.031 C 
ATOM     33  C   UNL A   1      43.089  25.166  26.570  1.00  0.00     0.029 A 
ATOM     34  N   UNL A   1      43.165  27.225  27.443  1.00  0.00    -0.354 N 
ATOM     35  C   UNL A   1      39.713  28.955  29.379  1.00  0.00     0.074 A 
ATOM     36  C   UNL A   1      38.587  28.047  29.347  1.00  0.00     0.031 C 
ATOM     37  C   UNL A   1      44.313  25.664  26.326  1.00  0.00     0.029 A 
ATOM     38  C   UNL A   1      44.390  27.027  26.850  1.00  0.00     0.049 A 
ATOM     39  H   UNL A   1      42.930  28.045  27.933  1.00  0.00     0.167 HD
ATOM     40  C   UNL A   1      39.682  30.183  29.949  1.00  0.00     0.034 A 
ATOM     41  C   UNL A   1      45.444  27.858  26.730  1.00  0.00     0.034 A 
ATOM     42  C   UNL A   1      40.807  31.075  30.004  1.00  0.00     0.049 A 
ATOM     43  C   UNL A   1      45.379  29.227  27.357  1.00  0.00     0.074 A 
ATOM     44  C   UNL A   1      40.891  32.319  30.603  1.00  0.00     0.029 A 
ATOM     45  N   UNL A   1      42.044  30.823  29.431  1.00  0.00    -0.354 N 
ATOM     46  N   UNL A   1      44.412  29.770  28.056  1.00  0.00    -0.248 NA
ATOM     47  C   UNL A   1      46.564  30.084  27.208  1.00  0.00     0.031 C 
ATOM     48  C   UNL A   1      42.173  32.829  30.372  1.00  0.00     0.029 A 
ATOM     49  C   UNL A   1      42.895  31.893  29.650  1.00  0.00     0.049 A 
ATOM     50  H   UNL A   1      42.282  30.004  28.939  1.00  0.00     0.167 HD
ATOM     51  C   UNL A   1      44.883  31.016  28.459  1.00  0.00     0.074 A 
ATOM     52  C   UNL A   1      46.231  31.138  27.943  1.00  0.00     0.031 C 
ATOM     53  C   UNL A   1      44.253  31.977  29.178  1.00  0.00     0.034 A 
BRANCH  40  54
ATOM     54  C   UNL A   1      38.393  30.624  30.590  1.00  0.00     0.023 A 
ATOM     55  C   UNL A   1      38.175  30.373  31.959  1.00  0.00     0.012 A 
ATOM     56  C   UNL A   1      37.423  31.332  29.854  1.00  0.00     0.148 A 
ATOM     57  C   UNL A   1      37.000  30.795  32.581  1.00  0.00     0.002 A 
ATOM     58  C   UNL A   1      36.273  31.785  30.489  1.00  0.00     0.091 A 
ATOM     59  F   UNL A   1      37.637  31.538  28.546  1.00  0.00    -0.205 F 
ATOM     60  C   UNL A   1      36.055  31.510  31.848  1.00  0.00     0.022 A 
BRANCH  58  61
ATOM     61  S   UNL A   1      35.032  32.776  29.649  1.00  0.00     0.127 S 
ATOM     62  O   UNL A   1      34.166  33.168  30.761  1.00  0.00    -0.237 OA
ATOM     63  O   UNL A   1      35.831  33.864  29.087  1.00  0.00    -0.237 OA
ATOM     64  O   UNL A   1      34.421  31.899  28.659  1.00  0.00    -0.744 OA
ENDBRANCH  58  61
ENDBRANCH  40  54
BRANCH  41  65
ATOM     65  C   UNL A   1      46.670  27.404  26.016  1.00  0.00     0.023 A 
ATOM     66  C   UNL A   1      46.799  27.645  24.635  1.00  0.00     0.012 A 
ATOM     67  C   UNL A   1      47.715  26.754  26.701  1.00  0.00     0.148 A 
ATOM     68  C   UNL A   1      47.934  27.223  23.942  1.00  0.00     0.002 A 
ATOM     69  C   UNL A   1      48.867  26.384  26.015  1.00  0.00     0.091 A 
ATOM     70  F   UNL A   1      47.565  26.516  28.011  1.00  0.00    -0.205 F 
ATOM     71  C   UNL A   1      48.972  26.602  24.633  1.00  0.00     0.022 A 
BRANCH  69  72
ATOM     72  S   UNL A   1      50.302  25.694  26.847  1.00  0.00     0.127 S 
ATOM     73  O   UNL A   1      49.766  24.446  27.383  1.00  0.00    -0.237 OA
ATOM     74  O   UNL A   1      51.244  25.535  25.739  1.00  0.00    -0.237 OA
ATOM     75  O   UNL A   1      50.698  26.690  27.834  1.00  0.00    -0.744 OA
ENDBRANCH  69  72
ENDBRANCH  41  65
BRANCH  53  76
ATOM     76  C   UNL A   1      45.017  33.239  29.484  1.00  0.00     0.023 A 
ATOM     77  C   UNL A   1      45.909  33.269  30.575  1.00  0.00     0.012 A 
ATOM     78  C   UNL A   1      44.911  34.367  28.646  1.00  0.00     0.148 A 
ATOM     79  C   UNL A   1      46.662  34.412  30.843  1.00  0.00     0.002 A 
ATOM     80  C   UNL A   1      45.699  35.486  28.892  1.00  0.00     0.091 A 
ATOM     81  F   UNL A   1      44.043  34.326  27.625  1.00  0.00    -0.205 F 
ATOM     82  C   UNL A   1      46.566  35.514  29.996  1.00  0.00     0.022 A 
BRANCH  80  83
ATOM     83  S   UNL A   1      45.711  36.912  27.799  1.00  0.00     0.127 S 
ATOM     84  O   UNL A   1      44.345  37.411  27.946  1.00  0.00    -0.237 OA
ATOM     85  O   UNL A   1      46.739  37.761  28.404  1.00  0.00    -0.237 OA
ATOM     86  O   UNL A   1      46.053  36.399  26.479  1.00  0.00    -0.744 OA
ENDBRANCH  80  83
ENDBRANCH  53  76
ENDBRANCH  27  28
ENDBRANCH  20  22
ENDBRANCH  19  20
ENDBRANCH  18  19
ENDBRANCH   1  18
TORSDOF 18
ENDMDL
