MODEL 1
REMARK VINA RESULT:     -11.2      0.000      0.000
REMARK SMILES COc1cccc(C[N@@H+]2C[C@H](C(=O)OCCOCCOC(=O)c3ccc(-c4c5nc(c(-c6cccc(S(=O)(=O)[O-])c6F)c6ccc([nH]6)c(-c6cccc(S(=O)(=O)[O-])c6F)c6nc(c(-c7cccc(S(=O)(=O)[O-])c7F)c7ccc4[nH]7)C=C6)C=C5)cc3)C3(CC[NH+](C)CC3)C2)c1
REMARK SMILES IDX 17 1 16 2 15 3 14 4 12 5 13 6 11 7 9 8 10 9 93 10 86 12
REMARK SMILES IDX 87 13 92 14 88 15 91 16 89 17 90 18 8 20 7 21 3 22 4 23
REMARK SMILES IDX 94 24 5 25 6 26 2 27 1 28 18 29 19 30 20 31 21 32 22 33
REMARK SMILES IDX 23 34 24 35 85 36 25 37 84 38 26 39 27 40 28 41 78 42 29 43
REMARK SMILES IDX 83 44 77 45 79 46 30 47 82 48 76 49 75 50 31 52 63 53 43 54
REMARK SMILES IDX 62 55 44 56 47 57 61 58 80 59 45 60 46 61 60 63 81 64 48 65
REMARK SMILES IDX 32 66 33 67 41 68 34 69 36 70 42 71 35 72 37 73 38 74 39 75
REMARK SMILES IDX 40 76 64 77 65 78 73 79 66 80 68 81 74 82 67 83 69 84 70 85
REMARK SMILES IDX 71 86 72 87 49 88 50 89 58 90 51 91 53 92 59 93 52 94 54 95
REMARK SMILES IDX 55 96 56 97 57 98
REMARK H PARENT 9 11 89 19 79 51 47 62
REMARK Flexibility Score: inf
ROOT
ATOM      1  O   UNL A   1      30.703  27.778  24.566  1.00  0.00    -0.374 OA
ENDROOT
BRANCH   1   2
ATOM      2  C   UNL A   1      31.173  26.560  23.995  1.00  0.00     0.202 C 
BRANCH   2   3
ATOM      3  C   UNL A   1      32.050  25.672  24.878  1.00  0.00     0.261 C 
BRANCH   3   4
ATOM      4  O   UNL A   1      33.389  25.520  24.379  1.00  0.00    -0.463 OA
BRANCH   4   5
ATOM      5  C   UNL A   1      33.579  24.528  23.466  1.00  0.00     0.315 C 
ATOM      6  O   UNL A   1      33.976  24.702  22.319  1.00  0.00    -0.252 OA
BRANCH   5   7
ATOM      7  C   UNL A   1      33.246  23.153  24.004  1.00  0.00     0.166 C 
ATOM      8  N   UNL A   1      32.492  20.978  23.628  1.00  0.00    -0.330 N 
ATOM      9  C   UNL A   1      32.491  22.295  23.000  1.00  0.00     0.278 C 
ATOM     10  C   UNL A   1      33.739  20.831  24.388  1.00  0.00     0.271 C 
ATOM     11  H   UNL A   1      31.708  20.935  24.279  1.00  0.00     0.348 HD
ATOM     12  C   UNL A   1      34.401  22.239  24.479  1.00  0.00     0.049 C 
ATOM     13  C   UNL A   1      34.812  22.531  25.935  1.00  0.00     0.075 C 
ATOM     14  C   UNL A   1      35.676  22.257  23.594  1.00  0.00     0.075 C 
ATOM     15  C   UNL A   1      35.690  23.776  26.066  1.00  0.00     0.262 C 
ATOM     16  C   UNL A   1      36.613  23.449  23.839  1.00  0.00     0.262 C 
ATOM     17  N   UNL A   1      36.900  23.739  25.244  1.00  0.00    -0.337 N 
ATOM     18  C   UNL A   1      37.925  22.851  25.783  1.00  0.00     0.332 C 
ATOM     19  H   UNL A   1      37.287  24.682  25.281  1.00  0.00     0.347 HD
BRANCH   8  20
ATOM     20  C   UNL A   1      32.135  19.849  22.757  1.00  0.00     0.299 C 
BRANCH  20  21
ATOM     21  C   UNL A   1      32.598  18.487  23.231  1.00  0.00     0.010 A 
ATOM     22  C   UNL A   1      32.788  16.832  25.002  1.00  0.00     0.119 A 
ATOM     23  C   UNL A   1      33.788  16.181  24.294  1.00  0.00     0.046 A 
ATOM     24  C   UNL A   1      32.199  17.986  24.483  1.00  0.00     0.056 A 
ATOM     25  C   UNL A   1      34.133  16.632  23.028  1.00  0.00     0.004 A 
ATOM     26  C   UNL A   1      33.521  17.753  22.479  1.00  0.00     0.010 A 
BRANCH  22  27
ATOM     27  O   UNL A   1      32.519  16.348  26.250  1.00  0.00    -0.497 OA
ATOM     28  C   UNL A   1      32.335  14.939  26.276  1.00  0.00     0.278 C 
ENDBRANCH  22  27
ENDBRANCH  20  21
ENDBRANCH   8  20
ENDBRANCH   5   7
ENDBRANCH   4   5
ENDBRANCH   3   4
ENDBRANCH   2   3
ENDBRANCH   1   2
BRANCH   1  29
ATOM     29  C   UNL A   1      31.571  28.907  24.508  1.00  0.00     0.202 C 
BRANCH  29  30
ATOM     30  C   UNL A   1      31.798  29.687  25.810  1.00  0.00     0.261 C 
BRANCH  30  31
ATOM     31  O   UNL A   1      33.050  30.396  25.856  1.00  0.00    -0.460 OA
BRANCH  31  32
ATOM     32  C   UNL A   1      33.253  31.130  26.976  1.00  0.00     0.338 C 
ATOM     33  O   UNL A   1      32.419  31.794  27.589  1.00  0.00    -0.246 OA
BRANCH  32  34
ATOM     34  C   UNL A   1      34.625  30.944  27.468  1.00  0.00     0.060 A 
ATOM     35  C   UNL A   1      35.124  29.647  27.632  1.00  0.00     0.016 A 
ATOM     36  C   UNL A   1      35.383  32.046  27.862  1.00  0.00     0.016 A 
ATOM     37  C   UNL A   1      36.381  29.450  28.212  1.00  0.00     0.010 A 
ATOM     38  C   UNL A   1      36.654  31.846  28.410  1.00  0.00     0.010 A 
ATOM     39  C   UNL A   1      37.146  30.547  28.630  1.00  0.00    -0.014 A 
BRANCH  39  40
ATOM     40  C   UNL A   1      38.369  30.353  29.456  1.00  0.00     0.031 A 
ATOM     41  C   UNL A   1      39.497  29.522  28.892  1.00  0.00     0.074 A 
ATOM     42  C   UNL A   1      38.483  30.885  30.688  1.00  0.00     0.049 A 
ATOM     43  N   UNL A   1      40.622  29.161  29.451  1.00  0.00    -0.248 NA
ATOM     44  C   UNL A   1      39.321  29.017  27.519  1.00  0.00     0.031 C 
ATOM     45  C   UNL A   1      37.468  31.694  31.361  1.00  0.00     0.029 A 
ATOM     46  N   UNL A   1      39.506  30.804  31.603  1.00  0.00    -0.354 N 
ATOM     47  C   UNL A   1      41.262  28.350  28.520  1.00  0.00     0.074 A 
ATOM     48  C   UNL A   1      40.390  28.250  27.372  1.00  0.00     0.031 C 
ATOM     49  C   UNL A   1      37.916  32.030  32.584  1.00  0.00     0.029 A 
ATOM     50  C   UNL A   1      39.237  31.440  32.793  1.00  0.00     0.049 A 
ATOM     51  H   UNL A   1      40.352  30.335  31.423  1.00  0.00     0.167 HD
ATOM     52  C   UNL A   1      42.480  27.764  28.593  1.00  0.00     0.034 A 
ATOM     53  C   UNL A   1      39.969  31.527  33.923  1.00  0.00     0.034 A 
ATOM     54  C   UNL A   1      43.379  27.911  29.704  1.00  0.00     0.049 A 
ATOM     55  C   UNL A   1      41.330  30.877  33.975  1.00  0.00     0.074 A 
ATOM     56  C   UNL A   1      44.661  27.409  29.843  1.00  0.00     0.029 A 
ATOM     57  N   UNL A   1      43.095  28.617  30.861  1.00  0.00    -0.354 N 
ATOM     58  N   UNL A   1      41.966  30.214  33.040  1.00  0.00    -0.248 NA
ATOM     59  C   UNL A   1      42.087  31.016  35.230  1.00  0.00     0.031 C 
ATOM     60  C   UNL A   1      45.148  27.803  31.093  1.00  0.00     0.029 A 
ATOM     61  C   UNL A   1      44.175  28.564  31.723  1.00  0.00     0.049 A 
ATOM     62  H   UNL A   1      42.250  29.087  31.043  1.00  0.00     0.167 HD
ATOM     63  C   UNL A   1      43.208  29.889  33.579  1.00  0.00     0.074 A 
ATOM     64  C   UNL A   1      43.243  30.445  34.915  1.00  0.00     0.031 C 
ATOM     65  C   UNL A   1      44.221  29.179  33.024  1.00  0.00     0.034 A 
BRANCH  52  66
ATOM     66  C   UNL A   1      42.930  26.947  27.412  1.00  0.00     0.023 A 
ATOM     67  C   UNL A   1      43.714  27.552  26.408  1.00  0.00     0.012 A 
ATOM     68  C   UNL A   1      42.615  25.578  27.314  1.00  0.00     0.148 A 
ATOM     69  C   UNL A   1      44.146  26.816  25.305  1.00  0.00     0.002 A 
ATOM     70  C   UNL A   1      43.086  24.841  26.233  1.00  0.00     0.091 A 
ATOM     71  F   UNL A   1      41.848  25.028  28.266  1.00  0.00    -0.205 F 
ATOM     72  C   UNL A   1      43.841  25.460  25.223  1.00  0.00     0.022 A 
BRANCH  70  73
ATOM     73  S   UNL A   1      42.810  23.073  26.076  1.00  0.00     0.127 S 
ATOM     74  O   UNL A   1      43.554  22.556  27.224  1.00  0.00    -0.237 OA
ATOM     75  O   UNL A   1      41.356  22.976  26.198  1.00  0.00    -0.237 OA
ATOM     76  O   UNL A   1      43.334  22.700  24.769  1.00  0.00    -0.744 OA
ENDBRANCH  70  73
ENDBRANCH  52  66
BRANCH  53  77
ATOM     77  C   UNL A   1      39.460  32.307  35.088  1.00  0.00     0.023 A 
ATOM     78  C   UNL A   1      39.668  33.700  35.130  1.00  0.00     0.012 A 
ATOM     79  C   UNL A   1      38.772  31.687  36.149  1.00  0.00     0.148 A 
ATOM     80  C   UNL A   1      39.228  34.456  36.217  1.00  0.00     0.002 A 
ATOM     81  C   UNL A   1      38.290  32.453  37.205  1.00  0.00     0.091 A 
ATOM     82  F   UNL A   1      38.601  30.358  36.103  1.00  0.00    -0.205 F 
ATOM     83  C   UNL A   1      38.531  33.834  37.250  1.00  0.00     0.022 A 
BRANCH  81  84
ATOM     84  S   UNL A   1      37.280  31.757  38.519  1.00  0.00     0.127 S 
ATOM     85  O   UNL A   1      38.116  31.989  39.694  1.00  0.00    -0.237 OA
ATOM     86  O   UNL A   1      36.076  32.587  38.446  1.00  0.00    -0.237 OA
ATOM     87  O   UNL A   1      37.069  30.362  38.155  1.00  0.00    -0.744 OA
ENDBRANCH  81  84
ENDBRANCH  53  77
BRANCH  65  88
ATOM     88  C   UNL A   1      45.477  28.987  33.835  1.00  0.00     0.023 A 
ATOM     89  C   UNL A   1      46.508  29.946  33.763  1.00  0.00     0.012 A 
ATOM     90  C   UNL A   1      45.593  27.913  34.739  1.00  0.00     0.148 A 
ATOM     91  C   UNL A   1      47.646  29.822  34.558  1.00  0.00     0.002 A 
ATOM     92  C   UNL A   1      46.710  27.822  35.562  1.00  0.00     0.091 A 
ATOM     93  F   UNL A   1      44.610  27.003  34.781  1.00  0.00    -0.205 F 
ATOM     94  C   UNL A   1      47.741  28.770  35.465  1.00  0.00     0.022 A 
BRANCH  92  95
ATOM     95  S   UNL A   1      46.871  26.555  36.826  1.00  0.00     0.127 S 
ATOM     96  O   UNL A   1      46.936  25.336  36.020  1.00  0.00    -0.237 OA
ATOM     97  O   UNL A   1      48.130  26.921  37.477  1.00  0.00    -0.237 OA
ATOM     98  O   UNL A   1      45.695  26.686  37.674  1.00  0.00    -0.744 OA
ENDBRANCH  92  95
ENDBRANCH  65  88
ENDBRANCH  39  40
ENDBRANCH  32  34
ENDBRANCH  31  32
ENDBRANCH  30  31
ENDBRANCH  29  30
ENDBRANCH   1  29
TORSDOF 20
ENDMDL
MODEL 2
REMARK VINA RESULT:     -11.2      5.122      8.243
REMARK SMILES COc1cccc(C[N@@H+]2C[C@H](C(=O)OCCOCCOC(=O)c3ccc(-c4c5nc(c(-c6cccc(S(=O)(=O)[O-])c6F)c6ccc([nH]6)c(-c6cccc(S(=O)(=O)[O-])c6F)c6nc(c(-c7cccc(S(=O)(=O)[O-])c7F)c7ccc4[nH]7)C=C6)C=C5)cc3)C3(CC[NH+](C)CC3)C2)c1
REMARK SMILES IDX 17 1 16 2 15 3 14 4 12 5 13 6 11 7 9 8 10 9 93 10 86 12
REMARK SMILES IDX 87 13 92 14 88 15 91 16 89 17 90 18 8 20 7 21 3 22 4 23
REMARK SMILES IDX 94 24 5 25 6 26 2 27 1 28 18 29 19 30 20 31 21 32 22 33
REMARK SMILES IDX 23 34 24 35 85 36 25 37 84 38 26 39 27 40 28 41 78 42 29 43
REMARK SMILES IDX 83 44 77 45 79 46 30 47 82 48 76 49 75 50 31 52 63 53 43 54
REMARK SMILES IDX 62 55 44 56 47 57 61 58 80 59 45 60 46 61 60 63 81 64 48 65
REMARK SMILES IDX 32 66 33 67 41 68 34 69 36 70 42 71 35 72 37 73 38 74 39 75
REMARK SMILES IDX 40 76 64 77 65 78 73 79 66 80 68 81 74 82 67 83 69 84 70 85
REMARK SMILES IDX 71 86 72 87 49 88 50 89 58 90 51 91 53 92 59 93 52 94 54 95
REMARK SMILES IDX 55 96 56 97 57 98
REMARK H PARENT 9 11 89 19 79 51 47 62
REMARK Flexibility Score: inf
ROOT
ATOM      1  O   UNL A   1      37.748  21.976  24.375  1.00  0.00    -0.374 OA
ENDROOT
BRANCH   1   2
ATOM      2  C   UNL A   1      36.472  22.195  23.781  1.00  0.00     0.202 C 
BRANCH   2   3
ATOM      3  C   UNL A   1      35.260  22.174  24.712  1.00  0.00     0.261 C 
BRANCH   3   4
ATOM      4  O   UNL A   1      34.005  22.165  24.011  1.00  0.00    -0.463 OA
BRANCH   4   5
ATOM      5  C   UNL A   1      33.646  23.335  23.413  1.00  0.00     0.315 C 
ATOM      6  O   UNL A   1      33.223  23.431  22.266  1.00  0.00    -0.252 OA
BRANCH   5   7
ATOM      7  C   UNL A   1      33.822  24.541  24.310  1.00  0.00     0.166 C 
ATOM      8  N   UNL A   1      33.969  26.855  24.558  1.00  0.00    -0.330 N 
ATOM      9  C   UNL A   1      34.068  25.823  23.531  1.00  0.00     0.278 C 
ATOM     10  C   UNL A   1      32.985  26.419  25.556  1.00  0.00     0.271 C 
ATOM     11  H   UNL A   1      34.877  26.939  25.014  1.00  0.00     0.348 HD
ATOM     12  C   UNL A   1      32.684  24.913  25.291  1.00  0.00     0.049 C 
ATOM     13  C   UNL A   1      32.771  24.121  26.609  1.00  0.00     0.075 C 
ATOM     14  C   UNL A   1      31.244  24.776  24.727  1.00  0.00     0.075 C 
ATOM     15  C   UNL A   1      32.246  22.691  26.480  1.00  0.00     0.262 C 
ATOM     16  C   UNL A   1      30.685  23.345  24.732  1.00  0.00     0.262 C 
ATOM     17  N   UNL A   1      30.873  22.605  25.980  1.00  0.00    -0.337 N 
ATOM     18  C   UNL A   1      29.879  22.973  26.984  1.00  0.00     0.332 C 
ATOM     19  H   UNL A   1      30.718  21.620  25.768  1.00  0.00     0.347 HD
BRANCH   8  20
ATOM     20  C   UNL A   1      33.821  28.235  24.074  1.00  0.00     0.299 C 
BRANCH  20  21
ATOM     21  C   UNL A   1      32.407  28.778  24.067  1.00  0.00     0.010 A 
ATOM     22  C   UNL A   1      30.307  29.150  22.901  1.00  0.00     0.119 A 
ATOM     23  C   UNL A   1      29.957  30.120  23.829  1.00  0.00     0.046 A 
ATOM     24  C   UNL A   1      31.530  28.486  23.008  1.00  0.00     0.056 A 
ATOM     25  C   UNL A   1      30.789  30.359  24.914  1.00  0.00     0.004 A 
ATOM     26  C   UNL A   1      31.988  29.670  25.059  1.00  0.00     0.010 A 
BRANCH  22  27
ATOM     27  O   UNL A   1      29.454  28.988  21.847  1.00  0.00    -0.497 OA
ATOM     28  C   UNL A   1      28.299  29.812  21.930  1.00  0.00     0.278 C 
ENDBRANCH  22  27
ENDBRANCH  20  21
ENDBRANCH   8  20
ENDBRANCH   5   7
ENDBRANCH   4   5
ENDBRANCH   3   4
ENDBRANCH   2   3
ENDBRANCH   1   2
BRANCH   1  29
ATOM     29  C   UNL A   1      37.811  21.087  25.487  1.00  0.00     0.202 C 
BRANCH  29  30
ATOM     30  C   UNL A   1      38.909  20.015  25.469  1.00  0.00     0.261 C 
BRANCH  30  31
ATOM     31  O   UNL A   1      39.716  19.985  26.660  1.00  0.00    -0.460 OA
BRANCH  31  32
ATOM     32  C   UNL A   1      40.976  20.457  26.511  1.00  0.00     0.338 C 
ATOM     33  O   UNL A   1      41.930  19.877  25.993  1.00  0.00    -0.246 OA
BRANCH  32  34
ATOM     34  C   UNL A   1      41.056  21.855  26.958  1.00  0.00     0.060 A 
ATOM     35  C   UNL A   1      40.590  22.871  26.115  1.00  0.00     0.016 A 
ATOM     36  C   UNL A   1      41.680  22.171  28.163  1.00  0.00     0.016 A 
ATOM     37  C   UNL A   1      40.769  24.211  26.470  1.00  0.00     0.010 A 
ATOM     38  C   UNL A   1      41.825  23.512  28.532  1.00  0.00     0.010 A 
ATOM     39  C   UNL A   1      41.411  24.543  27.671  1.00  0.00    -0.014 A 
BRANCH  39  40
ATOM     40  C   UNL A   1      41.818  25.947  27.954  1.00  0.00     0.031 A 
ATOM     41  C   UNL A   1      43.189  26.403  27.516  1.00  0.00     0.074 A 
ATOM     42  C   UNL A   1      41.003  26.804  28.597  1.00  0.00     0.049 A 
ATOM     43  N   UNL A   1      43.785  27.550  27.712  1.00  0.00    -0.248 NA
ATOM     44  C   UNL A   1      44.003  25.426  26.772  1.00  0.00     0.031 C 
ATOM     45  C   UNL A   1      39.662  26.494  29.088  1.00  0.00     0.029 A 
ATOM     46  N   UNL A   1      41.199  28.114  28.966  1.00  0.00    -0.354 N 
ATOM     47  C   UNL A   1      45.054  27.415  27.162  1.00  0.00     0.074 A 
ATOM     48  C   UNL A   1      45.154  26.068  26.648  1.00  0.00     0.031 C 
ATOM     49  C   UNL A   1      39.157  27.581  29.700  1.00  0.00     0.029 A 
ATOM     50  C   UNL A   1      40.146  28.656  29.668  1.00  0.00     0.049 A 
ATOM     51  H   UNL A   1      42.016  28.617  28.748  1.00  0.00     0.167 HD
ATOM     52  C   UNL A   1      46.043  28.334  27.061  1.00  0.00     0.034 A 
ATOM     53  C   UNL A   1      40.003  29.876  30.227  1.00  0.00     0.034 A 
ATOM     54  C   UNL A   1      45.928  29.693  27.512  1.00  0.00     0.049 A 
ATOM     55  C   UNL A   1      41.114  30.888  30.088  1.00  0.00     0.074 A 
ATOM     56  C   UNL A   1      46.851  30.718  27.396  1.00  0.00     0.029 A 
ATOM     57  N   UNL A   1      44.822  30.219  28.158  1.00  0.00    -0.354 N 
ATOM     58  N   UNL A   1      42.260  30.778  29.461  1.00  0.00    -0.248 NA
ATOM     59  C   UNL A   1      40.897  32.205  30.709  1.00  0.00     0.031 C 
ATOM     60  C   UNL A   1      46.306  31.863  27.985  1.00  0.00     0.029 A 
ATOM     61  C   UNL A   1      45.037  31.554  28.451  1.00  0.00     0.049 A 
ATOM     62  H   UNL A   1      44.004  29.719  28.377  1.00  0.00     0.167 HD
ATOM     63  C   UNL A   1      42.883  32.018  29.580  1.00  0.00     0.074 A 
ATOM     64  C   UNL A   1      41.977  32.870  30.322  1.00  0.00     0.031 C 
ATOM     65  C   UNL A   1      44.100  32.409  29.131  1.00  0.00     0.034 A 
BRANCH  52  66
ATOM     66  C   UNL A   1      47.322  27.909  26.391  1.00  0.00     0.023 A 
ATOM     67  C   UNL A   1      48.378  27.397  27.172  1.00  0.00     0.012 A 
ATOM     68  C   UNL A   1      47.465  27.978  24.991  1.00  0.00     0.148 A 
ATOM     69  C   UNL A   1      49.571  26.993  26.575  1.00  0.00     0.002 A 
ATOM     70  C   UNL A   1      48.642  27.533  24.400  1.00  0.00     0.091 A 
ATOM     71  F   UNL A   1      46.459  28.491  24.270  1.00  0.00    -0.205 F 
ATOM     72  C   UNL A   1      49.699  27.052  25.190  1.00  0.00     0.022 A 
BRANCH  70  73
ATOM     73  S   UNL A   1      48.874  27.498  22.619  1.00  0.00     0.127 S 
ATOM     74  O   UNL A   1      47.806  28.386  22.165  1.00  0.00    -0.237 OA
ATOM     75  O   UNL A   1      50.224  28.044  22.473  1.00  0.00    -0.237 OA
ATOM     76  O   UNL A   1      48.740  26.102  22.225  1.00  0.00    -0.744 OA
ENDBRANCH  70  73
ENDBRANCH  52  66
BRANCH  53  77
ATOM     77  C   UNL A   1      38.736  30.236  30.926  1.00  0.00     0.023 A 
ATOM     78  C   UNL A   1      38.534  29.807  32.253  1.00  0.00     0.012 A 
ATOM     79  C   UNL A   1      37.735  30.999  30.294  1.00  0.00     0.148 A 
ATOM     80  C   UNL A   1      37.348  30.104  32.927  1.00  0.00     0.002 A 
ATOM     81  C   UNL A   1      36.579  31.337  30.989  1.00  0.00     0.091 A 
ATOM     82  F   UNL A   1      37.935  31.381  29.025  1.00  0.00    -0.205 F 
ATOM     83  C   UNL A   1      36.375  30.877  32.299  1.00  0.00     0.022 A 
BRANCH  81  84
ATOM     84  S   UNL A   1      35.324  32.426  30.303  1.00  0.00     0.127 S 
ATOM     85  O   UNL A   1      34.893  31.680  29.124  1.00  0.00    -0.237 OA
ATOM     86  O   UNL A   1      34.345  32.481  31.390  1.00  0.00    -0.237 OA
ATOM     87  O   UNL A   1      36.002  33.689  30.042  1.00  0.00    -0.744 OA
ENDBRANCH  81  84
ENDBRANCH  53  77
BRANCH  65  88
ATOM     88  C   UNL A   1      44.524  33.833  29.388  1.00  0.00     0.023 A 
ATOM     89  C   UNL A   1      45.141  34.167  30.610  1.00  0.00     0.012 A 
ATOM     90  C   UNL A   1      44.400  34.814  28.385  1.00  0.00     0.148 A 
ATOM     91  C   UNL A   1      45.603  35.462  30.839  1.00  0.00     0.002 A 
ATOM     92  C   UNL A   1      44.904  36.091  28.602  1.00  0.00     0.091 A 
ATOM     93  F   UNL A   1      43.794  34.481  27.236  1.00  0.00    -0.205 F 
ATOM     94  C   UNL A   1      45.497  36.419  29.832  1.00  0.00     0.022 A 
BRANCH  92  95
ATOM     95  S   UNL A   1      44.897  37.357  27.328  1.00  0.00     0.127 S 
ATOM     96  O   UNL A   1      45.817  36.791  26.341  1.00  0.00    -0.237 OA
ATOM     97  O   UNL A   1      43.494  37.375  26.911  1.00  0.00    -0.237 OA
ATOM     98  O   UNL A   1      45.349  38.580  27.977  1.00  0.00    -0.744 OA
ENDBRANCH  92  95
ENDBRANCH  65  88
ENDBRANCH  39  40
ENDBRANCH  32  34
ENDBRANCH  31  32
ENDBRANCH  30  31
ENDBRANCH  29  30
ENDBRANCH   1  29
TORSDOF 20
ENDMDL
MODEL 3
REMARK VINA RESULT:     -10.9      4.761      7.374
REMARK SMILES COc1cccc(C[N@@H+]2C[C@H](C(=O)OCCOCCOC(=O)c3ccc(-c4c5nc(c(-c6cccc(S(=O)(=O)[O-])c6F)c6ccc([nH]6)c(-c6cccc(S(=O)(=O)[O-])c6F)c6nc(c(-c7cccc(S(=O)(=O)[O-])c7F)c7ccc4[nH]7)C=C6)C=C5)cc3)C3(CC[NH+](C)CC3)C2)c1
REMARK SMILES IDX 17 1 16 2 15 3 14 4 12 5 13 6 11 7 9 8 10 9 93 10 86 12
REMARK SMILES IDX 87 13 92 14 88 15 91 16 89 17 90 18 8 20 7 21 3 22 4 23
REMARK SMILES IDX 94 24 5 25 6 26 2 27 1 28 18 29 19 30 20 31 21 32 22 33
REMARK SMILES IDX 23 34 24 35 85 36 25 37 84 38 26 39 27 40 28 41 78 42 29 43
REMARK SMILES IDX 83 44 77 45 79 46 30 47 82 48 76 49 75 50 31 52 63 53 43 54
REMARK SMILES IDX 62 55 44 56 47 57 61 58 80 59 45 60 46 61 60 63 81 64 48 65
REMARK SMILES IDX 32 66 33 67 41 68 34 69 36 70 42 71 35 72 37 73 38 74 39 75
REMARK SMILES IDX 40 76 64 77 65 78 73 79 66 80 68 81 74 82 67 83 69 84 70 85
REMARK SMILES IDX 71 86 72 87 49 88 50 89 58 90 51 91 53 92 59 93 52 94 54 95
REMARK SMILES IDX 55 96 56 97 57 98
REMARK H PARENT 9 11 89 19 79 51 47 62
REMARK Flexibility Score: inf
ROOT
ATOM      1  O   UNL A   1      36.883  21.681  25.180  1.00  0.00    -0.374 OA
ENDROOT
BRANCH   1   2
ATOM      2  C   UNL A   1      37.012  21.994  23.796  1.00  0.00     0.202 C 
BRANCH   2   3
ATOM      3  C   UNL A   1      36.485  23.354  23.339  1.00  0.00     0.261 C 
BRANCH   3   4
ATOM      4  O   UNL A   1      35.319  23.784  24.062  1.00  0.00    -0.463 OA
BRANCH   4   5
ATOM      5  C   UNL A   1      34.195  23.984  23.320  1.00  0.00     0.315 C 
ATOM      6  O   UNL A   1      34.094  24.804  22.413  1.00  0.00    -0.252 OA
BRANCH   5   7
ATOM      7  C   UNL A   1      33.048  23.084  23.723  1.00  0.00     0.166 C 
ATOM      8  N   UNL A   1      32.298  21.092  24.677  1.00  0.00    -0.330 N 
ATOM      9  C   UNL A   1      33.505  21.687  24.114  1.00  0.00     0.278 C 
ATOM     10  C   UNL A   1      31.525  22.152  25.335  1.00  0.00     0.271 C 
ATOM     11  H   UNL A   1      31.741  20.713  23.911  1.00  0.00     0.348 HD
ATOM     12  C   UNL A   1      32.135  23.518  24.896  1.00  0.00     0.049 C 
ATOM     13  C   UNL A   1      31.014  24.470  24.438  1.00  0.00     0.075 C 
ATOM     14  C   UNL A   1      32.864  24.160  26.107  1.00  0.00     0.075 C 
ATOM     15  C   UNL A   1      31.500  25.905  24.232  1.00  0.00     0.262 C 
ATOM     16  C   UNL A   1      33.223  25.643  25.930  1.00  0.00     0.262 C 
ATOM     17  N   UNL A   1      32.148  26.487  25.408  1.00  0.00    -0.337 N 
ATOM     18  C   UNL A   1      31.199  26.865  26.451  1.00  0.00     0.332 C 
ATOM     19  H   UNL A   1      32.580  27.352  25.085  1.00  0.00     0.347 HD
BRANCH   8  20
ATOM     20  C   UNL A   1      32.489  19.862  25.458  1.00  0.00     0.299 C 
BRANCH  20  21
ATOM     21  C   UNL A   1      32.827  18.623  24.654  1.00  0.00     0.010 A 
ATOM     22  C   UNL A   1      34.052  16.535  24.430  1.00  0.00     0.119 A 
ATOM     23  C   UNL A   1      33.823  16.541  23.061  1.00  0.00     0.046 A 
ATOM     24  C   UNL A   1      33.568  17.574  25.227  1.00  0.00     0.056 A 
ATOM     25  C   UNL A   1      33.031  17.538  22.506  1.00  0.00     0.004 A 
ATOM     26  C   UNL A   1      32.503  18.552  23.296  1.00  0.00     0.010 A 
BRANCH  22  27
ATOM     27  O   UNL A   1      34.859  15.541  24.902  1.00  0.00    -0.497 OA
ATOM     28  C   UNL A   1      35.939  16.023  25.691  1.00  0.00     0.278 C 
ENDBRANCH  22  27
ENDBRANCH  20  21
ENDBRANCH   8  20
ENDBRANCH   5   7
ENDBRANCH   4   5
ENDBRANCH   3   4
ENDBRANCH   2   3
ENDBRANCH   1   2
BRANCH   1  29
ATOM     29  C   UNL A   1      37.960  22.046  26.038  1.00  0.00     0.202 C 
BRANCH  29  30
ATOM     30  C   UNL A   1      39.324  21.397  25.772  1.00  0.00     0.261 C 
BRANCH  30  31
ATOM     31  O   UNL A   1      40.320  21.699  26.766  1.00  0.00    -0.460 OA
BRANCH  31  32
ATOM     32  C   UNL A   1      41.355  22.455  26.330  1.00  0.00     0.338 C 
ATOM     33  O   UNL A   1      42.225  22.129  25.524  1.00  0.00    -0.246 OA
BRANCH  32  34
ATOM     34  C   UNL A   1      41.254  23.819  26.868  1.00  0.00     0.060 A 
ATOM     35  C   UNL A   1      41.054  24.890  25.989  1.00  0.00     0.016 A 
ATOM     36  C   UNL A   1      41.458  24.052  28.227  1.00  0.00     0.016 A 
ATOM     37  C   UNL A   1      41.077  26.202  26.469  1.00  0.00     0.010 A 
ATOM     38  C   UNL A   1      41.445  25.365  28.710  1.00  0.00     0.010 A 
ATOM     39  C   UNL A   1      41.299  26.452  27.830  1.00  0.00    -0.014 A 
BRANCH  39  40
ATOM     40  C   UNL A   1      41.561  27.835  28.318  1.00  0.00     0.031 A 
ATOM     41  C   UNL A   1      42.984  28.339  28.330  1.00  0.00     0.074 A 
ATOM     42  C   UNL A   1      40.567  28.630  28.757  1.00  0.00     0.049 A 
ATOM     43  N   UNL A   1      43.460  29.473  28.771  1.00  0.00    -0.248 NA
ATOM     44  C   UNL A   1      44.010  27.431  27.786  1.00  0.00     0.031 C 
ATOM     45  C   UNL A   1      39.152  28.268  28.816  1.00  0.00     0.029 A 
ATOM     46  N   UNL A   1      40.605  29.910  29.259  1.00  0.00    -0.354 N 
ATOM     47  C   UNL A   1      44.838  29.395  28.604  1.00  0.00     0.074 A 
ATOM     48  C   UNL A   1      45.125  28.094  28.046  1.00  0.00     0.031 C 
ATOM     49  C   UNL A   1      38.457  29.299  29.331  1.00  0.00     0.029 A 
ATOM     50  C   UNL A   1      39.378  30.383  29.663  1.00  0.00     0.049 A 
ATOM     51  H   UNL A   1      41.434  30.437  29.324  1.00  0.00     0.167 HD
ATOM     52  C   UNL A   1      45.783  30.330  28.859  1.00  0.00     0.034 A 
ATOM     53  C   UNL A   1      39.040  31.554  30.242  1.00  0.00     0.034 A 
ATOM     54  C   UNL A   1      45.498  31.648  29.354  1.00  0.00     0.049 A 
ATOM     55  C   UNL A   1      40.109  32.587  30.504  1.00  0.00     0.074 A 
ATOM     56  C   UNL A   1      46.381  32.689  29.583  1.00  0.00     0.029 A 
ATOM     57  N   UNL A   1      44.236  32.111  29.687  1.00  0.00    -0.354 N 
ATOM     58  N   UNL A   1      41.391  32.538  30.229  1.00  0.00    -0.248 NA
ATOM     59  C   UNL A   1      39.679  33.849  31.127  1.00  0.00     0.031 C 
ATOM     60  C   UNL A   1      45.652  33.779  30.068  1.00  0.00     0.029 A 
ATOM     61  C   UNL A   1      44.314  33.421  30.124  1.00  0.00     0.049 A 
ATOM     62  H   UNL A   1      43.407  31.586  29.624  1.00  0.00     0.167 HD
ATOM     63  C   UNL A   1      41.911  33.772  30.611  1.00  0.00     0.074 A 
ATOM     64  C   UNL A   1      40.803  34.553  31.118  1.00  0.00     0.031 C 
ATOM     65  C   UNL A   1      43.193  34.211  30.563  1.00  0.00     0.034 A 
BRANCH  52  66
ATOM     66  C   UNL A   1      47.214  29.972  28.559  1.00  0.00     0.023 A 
ATOM     67  C   UNL A   1      47.768  30.320  27.310  1.00  0.00     0.012 A 
ATOM     68  C   UNL A   1      48.019  29.332  29.521  1.00  0.00     0.148 A 
ATOM     69  C   UNL A   1      49.092  30.002  27.009  1.00  0.00     0.002 A 
ATOM     70  C   UNL A   1      49.350  29.058  29.228  1.00  0.00     0.091 A 
ATOM     71  F   UNL A   1      47.465  28.988  30.692  1.00  0.00    -0.205 F 
ATOM     72  C   UNL A   1      49.884  29.381  27.970  1.00  0.00     0.022 A 
BRANCH  70  73
ATOM     73  S   UNL A   1      50.471  28.329  30.427  1.00  0.00     0.127 S 
ATOM     74  O   UNL A   1      51.712  28.246  29.658  1.00  0.00    -0.237 OA
ATOM     75  O   UNL A   1      50.480  29.332  31.492  1.00  0.00    -0.237 OA
ATOM     76  O   UNL A   1      49.880  27.052  30.804  1.00  0.00    -0.744 OA
ENDBRANCH  70  73
ENDBRANCH  52  66
BRANCH  53  77
ATOM     77  C   UNL A   1      37.614  31.845  30.568  1.00  0.00     0.023 A 
ATOM     78  C   UNL A   1      37.103  31.469  31.827  1.00  0.00     0.012 A 
ATOM     79  C   UNL A   1      36.763  32.492  29.651  1.00  0.00     0.148 A 
ATOM     80  C   UNL A   1      35.766  31.702  32.154  1.00  0.00     0.002 A 
ATOM     81  C   UNL A   1      35.447  32.769  30.002  1.00  0.00     0.091 A 
ATOM     82  F   UNL A   1      37.261  32.825  28.451  1.00  0.00    -0.205 F 
ATOM     83  C   UNL A   1      34.941  32.360  31.246  1.00  0.00     0.022 A 
BRANCH  81  84
ATOM     84  S   UNL A   1      34.345  33.718  28.945  1.00  0.00     0.127 S 
ATOM     85  O   UNL A   1      33.343  34.185  29.900  1.00  0.00    -0.237 OA
ATOM     86  O   UNL A   1      35.239  34.756  28.432  1.00  0.00    -0.237 OA
ATOM     87  O   UNL A   1      33.870  32.782  27.935  1.00  0.00    -0.744 OA
ENDBRANCH  81  84
ENDBRANCH  53  77
BRANCH  65  88
ATOM     88  C   UNL A   1      43.477  35.614  31.033  1.00  0.00     0.023 A 
ATOM     89  C   UNL A   1      43.697  35.861  32.403  1.00  0.00     0.012 A 
ATOM     90  C   UNL A   1      43.624  36.667  30.108  1.00  0.00     0.148 A 
ATOM     91  C   UNL A   1      44.030  37.139  32.847  1.00  0.00     0.002 A 
ATOM     92  C   UNL A   1      44.001  37.929  30.553  1.00  0.00     0.091 A 
ATOM     93  F   UNL A   1      43.394  36.417  28.811  1.00  0.00    -0.205 F 
ATOM     94  C   UNL A   1      44.195  38.168  31.923  1.00  0.00     0.022 A 
BRANCH  92  95
ATOM     95  S   UNL A   1      44.330  39.288  29.425  1.00  0.00     0.127 S 
ATOM     96  O   UNL A   1      45.791  39.262  29.346  1.00  0.00    -0.237 OA
ATOM     97  O   UNL A   1      43.647  38.855  28.206  1.00  0.00    -0.237 OA
ATOM     98  O   UNL A   1      43.757  40.472  30.049  1.00  0.00    -0.744 OA
ENDBRANCH  92  95
ENDBRANCH  65  88
ENDBRANCH  39  40
ENDBRANCH  32  34
ENDBRANCH  31  32
ENDBRANCH  30  31
ENDBRANCH  29  30
ENDBRANCH   1  29
TORSDOF 20
ENDMDL
