MODEL 1
REMARK VINA RESULT:      -6.9      0.000      0.000
REMARK SMILES CC/C=C/C/C=C/C/C=C/C/C=C/CC/C=C/COCC(=O)OCCOCCOC(=O)c1ccc(-c2c3nc(c(-c4cccc(S(=O)(=O)[O-])c4F)c4ccc([nH]4)c(-c4cccc(S(=O)(=O)[O-])c4F)c4nc(c(-c5cccc(S(=O)(=O)[O-])c5F)c5ccc2[nH]5)C=C4)C=C3)cc1
REMARK SMILES IDX 20 1 19 2 18 3 17 4 16 5 15 6 14 7 13 8 12 9 11 10 10 11
REMARK SMILES IDX 9 12 8 13 7 14 6 15 5 16 4 17 3 18 2 19 1 20 21 21 22 22
REMARK SMILES IDX 23 23 24 24 25 25 26 26 27 27 28 28 29 29 30 30 31 31 32 32
REMARK SMILES IDX 33 33 94 34 34 35 93 36 35 37 36 38 37 39 87 40 38 41 92 42
REMARK SMILES IDX 86 43 88 44 39 45 91 46 85 47 84 48 40 50 72 51 52 52 71 53
REMARK SMILES IDX 53 54 56 55 70 56 89 57 54 58 55 59 69 61 90 62 57 63 41 64
REMARK SMILES IDX 42 65 50 66 43 67 45 68 51 69 44 70 46 71 47 72 48 73 49 74
REMARK SMILES IDX 73 75 74 76 82 77 75 78 77 79 83 80 76 81 78 82 79 83 80 84
REMARK SMILES IDX 81 85 58 86 59 87 67 88 60 89 62 90 68 91 61 92 63 93 64 94
REMARK SMILES IDX 65 95 66 96
REMARK H PARENT 88 49 56 60
REMARK Flexibility Score: inf
ROOT
ATOM      1  C   UNL A   1      45.518  31.125  26.611  1.00  0.00     0.283 C 
ENDROOT
BRANCH   1   2
ATOM      2  O   UNL A   1      44.229  31.278  27.169  1.00  0.00    -0.366 OA
BRANCH   2   3
ATOM      3  C   UNL A   1      44.128  31.359  28.587  1.00  0.00     0.188 C 
BRANCH   3   4
ATOM      4  C   UNL A   1      43.967  30.021  29.253  1.00  0.00    -0.003 C 
ATOM      5  C   UNL A   1      43.359  28.962  28.693  1.00  0.00    -0.029 C 
BRANCH   5   6
ATOM      6  C   UNL A   1      43.146  27.627  29.356  1.00  0.00     0.031 C 
BRANCH   6   7
ATOM      7  C   UNL A   1      41.693  27.380  29.796  1.00  0.00     0.031 C 
BRANCH   7   8
ATOM      8  C   UNL A   1      40.653  27.699  28.755  1.00  0.00    -0.031 C 
ATOM      9  C   UNL A   1      39.342  27.859  29.004  1.00  0.00    -0.027 C 
BRANCH   9  10
ATOM     10  C   UNL A   1      38.325  28.233  27.958  1.00  0.00     0.054 C 
BRANCH  10  11
ATOM     11  C   UNL A   1      38.033  29.708  27.992  1.00  0.00    -0.027 C 
ATOM     12  C   UNL A   1      37.782  30.402  29.116  1.00  0.00    -0.027 C 
BRANCH  12  13
ATOM     13  C   UNL A   1      37.471  31.872  29.150  1.00  0.00     0.054 C 
BRANCH  13  14
ATOM     14  C   UNL A   1      38.555  32.627  29.866  1.00  0.00    -0.027 C 
ATOM     15  C   UNL A   1      38.845  33.921  29.651  1.00  0.00    -0.027 C 
BRANCH  15  16
ATOM     16  C   UNL A   1      39.944  34.665  30.354  1.00  0.00     0.054 C 
BRANCH  16  17
ATOM     17  C   UNL A   1      41.240  34.539  29.605  1.00  0.00    -0.027 C 
ATOM     18  C   UNL A   1      41.673  35.424  28.692  1.00  0.00    -0.031 C 
BRANCH  18  19
ATOM     19  C   UNL A   1      42.963  35.283  27.938  1.00  0.00     0.023 C 
ATOM     20  C   UNL A   1      42.937  36.086  26.646  1.00  0.00     0.008 C 
ENDBRANCH  18  19
ENDBRANCH  16  17
ENDBRANCH  15  16
ENDBRANCH  13  14
ENDBRANCH  12  13
ENDBRANCH  10  11
ENDBRANCH   9  10
ENDBRANCH   7   8
ENDBRANCH   6   7
ENDBRANCH   5   6
ENDBRANCH   3   4
ENDBRANCH   2   3
ENDBRANCH   1   2
BRANCH   1  21
ATOM     21  C   UNL A   1      46.590  32.221  26.583  1.00  0.00     0.332 C 
ATOM     22  O   UNL A   1      47.741  32.009  26.217  1.00  0.00    -0.250 OA
BRANCH  21  23
ATOM     23  O   UNL A   1      46.098  33.439  26.940  1.00  0.00    -0.462 OA
BRANCH  23  24
ATOM     24  C   UNL A   1      46.442  34.537  26.068  1.00  0.00     0.261 C 
BRANCH  24  25
ATOM     25  C   UNL A   1      47.421  35.516  26.719  1.00  0.00     0.202 C 
BRANCH  25  26
ATOM     26  O   UNL A   1      48.799  35.141  26.709  1.00  0.00    -0.374 OA
BRANCH  26  27
ATOM     27  C   UNL A   1      49.625  35.755  27.692  1.00  0.00     0.202 C 
BRANCH  27  28
ATOM     28  C   UNL A   1      50.625  34.851  28.422  1.00  0.00     0.261 C 
BRANCH  28  29
ATOM     29  O   UNL A   1      50.280  34.682  29.802  1.00  0.00    -0.460 OA
BRANCH  29  30
ATOM     30  C   UNL A   1      50.998  33.716  30.426  1.00  0.00     0.338 C 
ATOM     31  O   UNL A   1      52.039  33.854  31.044  1.00  0.00    -0.246 OA
BRANCH  30  32
ATOM     32  C   UNL A   1      50.236  32.456  30.433  1.00  0.00     0.060 A 
ATOM     33  C   UNL A   1      50.983  31.272  30.367  1.00  0.00     0.016 A 
ATOM     34  C   UNL A   1      48.841  32.425  30.437  1.00  0.00     0.016 A 
ATOM     35  C   UNL A   1      50.338  30.053  30.211  1.00  0.00     0.010 A 
ATOM     36  C   UNL A   1      48.193  31.197  30.277  1.00  0.00     0.010 A 
ATOM     37  C   UNL A   1      48.943  30.019  30.104  1.00  0.00    -0.014 A 
BRANCH  37  38
ATOM     38  C   UNL A   1      48.294  28.791  29.591  1.00  0.00     0.031 A 
ATOM     39  C   UNL A   1      48.490  28.438  28.142  1.00  0.00     0.074 A 
ATOM     40  C   UNL A   1      47.578  27.996  30.403  1.00  0.00     0.049 A 
ATOM     41  N   UNL A   1      47.986  27.447  27.457  1.00  0.00    -0.248 NA
ATOM     42  C   UNL A   1      49.372  29.321  27.360  1.00  0.00     0.031 C 
ATOM     43  C   UNL A   1      47.354  28.226  31.829  1.00  0.00     0.029 A 
ATOM     44  N   UNL A   1      46.888  26.842  30.133  1.00  0.00    -0.354 N 
ATOM     45  C   UNL A   1      48.455  27.609  26.158  1.00  0.00     0.074 A 
ATOM     46  C   UNL A   1      49.278  28.798  26.147  1.00  0.00     0.031 C 
ATOM     47  C   UNL A   1      46.552  27.258  32.304  1.00  0.00     0.029 A 
ATOM     48  C   UNL A   1      46.180  26.364  31.209  1.00  0.00     0.049 A 
ATOM     49  H   UNL A   1      46.898  26.401  29.253  1.00  0.00     0.167 HD
ATOM     50  C   UNL A   1      48.228  26.832  25.075  1.00  0.00     0.034 A 
ATOM     51  C   UNL A   1      45.309  25.339  31.288  1.00  0.00     0.034 A 
ATOM     52  C   UNL A   1      47.429  25.638  25.103  1.00  0.00     0.049 A 
ATOM     53  C   UNL A   1      45.047  24.507  30.059  1.00  0.00     0.074 A 
ATOM     54  C   UNL A   1      47.164  24.758  24.072  1.00  0.00     0.029 A 
ATOM     55  N   UNL A   1      46.760  25.165  26.220  1.00  0.00    -0.354 N 
ATOM     56  N   UNL A   1      45.562  24.622  28.859  1.00  0.00    -0.248 NA
ATOM     57  C   UNL A   1      44.110  23.383  30.202  1.00  0.00     0.031 C 
ATOM     58  C   UNL A   1      46.305  23.768  24.557  1.00  0.00     0.029 A 
ATOM     59  C   UNL A   1      46.073  24.008  25.902  1.00  0.00     0.049 A 
ATOM     60  H   UNL A   1      46.772  25.588  27.108  1.00  0.00     0.167 HD
ATOM     61  C   UNL A   1      45.053  23.560  28.119  1.00  0.00     0.074 A 
ATOM     62  C   UNL A   1      44.190  22.810  29.008  1.00  0.00     0.031 C 
ATOM     63  C   UNL A   1      45.275  23.237  26.821  1.00  0.00     0.034 A 
BRANCH  50  64
ATOM     64  C   UNL A   1      48.859  27.242  23.771  1.00  0.00     0.023 A 
ATOM     65  C   UNL A   1      48.073  27.840  22.766  1.00  0.00     0.012 A 
ATOM     66  C   UNL A   1      50.243  27.083  23.564  1.00  0.00     0.148 A 
ATOM     67  C   UNL A   1      48.649  28.243  21.561  1.00  0.00     0.002 A 
ATOM     68  C   UNL A   1      50.818  27.530  22.380  1.00  0.00     0.091 A 
ATOM     69  F   UNL A   1      50.969  26.489  24.521  1.00  0.00    -0.205 F 
ATOM     70  C   UNL A   1      50.021  28.099  21.373  1.00  0.00     0.022 A 
BRANCH  68  71
ATOM     71  S   UNL A   1      52.587  27.461  22.078  1.00  0.00     0.127 S 
ATOM     72  O   UNL A   1      53.104  28.296  23.161  1.00  0.00    -0.237 OA
ATOM     73  O   UNL A   1      52.868  26.033  22.221  1.00  0.00    -0.237 OA
ATOM     74  O   UNL A   1      52.787  27.989  20.735  1.00  0.00    -0.744 OA
ENDBRANCH  68  71
ENDBRANCH  50  64
BRANCH  51  75
ATOM     75  C   UNL A   1      44.637  25.030  32.581  1.00  0.00     0.023 A 
ATOM     76  C   UNL A   1      44.917  23.819  33.242  1.00  0.00     0.012 A 
ATOM     77  C   UNL A   1      43.734  25.939  33.167  1.00  0.00     0.148 A 
ATOM     78  C   UNL A   1      44.285  23.504  34.446  1.00  0.00     0.002 A 
ATOM     79  C   UNL A   1      43.151  25.645  34.393  1.00  0.00     0.091 A 
ATOM     80  F   UNL A   1      43.471  27.081  32.515  1.00  0.00    -0.205 F 
ATOM     81  C   UNL A   1      43.410  24.419  35.025  1.00  0.00     0.022 A 
BRANCH  79  82
ATOM     82  S   UNL A   1      42.113  26.816  35.273  1.00  0.00     0.127 S 
ATOM     83  O   UNL A   1      41.874  26.117  36.533  1.00  0.00    -0.237 OA
ATOM     84  O   UNL A   1      42.993  27.982  35.371  1.00  0.00    -0.237 OA
ATOM     85  O   UNL A   1      40.942  27.017  34.430  1.00  0.00    -0.744 OA
ENDBRANCH  79  82
ENDBRANCH  51  75
BRANCH  63  86
ATOM     86  C   UNL A   1      44.645  21.979  26.287  1.00  0.00     0.023 A 
ATOM     87  C   UNL A   1      45.451  20.941  25.780  1.00  0.00     0.012 A 
ATOM     88  C   UNL A   1      43.254  21.787  26.396  1.00  0.00     0.148 A 
ATOM     89  C   UNL A   1      44.878  19.739  25.369  1.00  0.00     0.002 A 
ATOM     90  C   UNL A   1      42.695  20.567  26.036  1.00  0.00     0.091 A 
ATOM     91  F   UNL A   1      42.505  22.795  26.868  1.00  0.00    -0.205 F 
ATOM     92  C   UNL A   1      43.504  19.547  25.510  1.00  0.00     0.022 A 
BRANCH  90  93
ATOM     93  S   UNL A   1      40.957  20.193  26.281  1.00  0.00     0.127 S 
ATOM     94  O   UNL A   1      40.313  21.193  25.431  1.00  0.00    -0.237 OA
ATOM     95  O   UNL A   1      40.865  18.819  25.786  1.00  0.00    -0.237 OA
ATOM     96  O   UNL A   1      40.708  20.340  27.709  1.00  0.00    -0.744 OA
ENDBRANCH  90  93
ENDBRANCH  63  86
ENDBRANCH  37  38
ENDBRANCH  30  32
ENDBRANCH  29  30
ENDBRANCH  28  29
ENDBRANCH  27  28
ENDBRANCH  26  27
ENDBRANCH  25  26
ENDBRANCH  24  25
ENDBRANCH  23  24
ENDBRANCH  21  23
ENDBRANCH   1  21
TORSDOF 30
ENDMDL
MODEL 2
REMARK VINA RESULT:      -6.6      9.439     15.436
REMARK SMILES CC/C=C/C/C=C/C/C=C/C/C=C/CC/C=C/COCC(=O)OCCOCCOC(=O)c1ccc(-c2c3nc(c(-c4cccc(S(=O)(=O)[O-])c4F)c4ccc([nH]4)c(-c4cccc(S(=O)(=O)[O-])c4F)c4nc(c(-c5cccc(S(=O)(=O)[O-])c5F)c5ccc2[nH]5)C=C4)C=C3)cc1
REMARK SMILES IDX 20 1 19 2 18 3 17 4 16 5 15 6 14 7 13 8 12 9 11 10 10 11
REMARK SMILES IDX 9 12 8 13 7 14 6 15 5 16 4 17 3 18 2 19 1 20 21 21 22 22
REMARK SMILES IDX 23 23 24 24 25 25 26 26 27 27 28 28 29 29 30 30 31 31 32 32
REMARK SMILES IDX 33 33 94 34 34 35 93 36 35 37 36 38 37 39 87 40 38 41 92 42
REMARK SMILES IDX 86 43 88 44 39 45 91 46 85 47 84 48 40 50 72 51 52 52 71 53
REMARK SMILES IDX 53 54 56 55 70 56 89 57 54 58 55 59 69 61 90 62 57 63 41 64
REMARK SMILES IDX 42 65 50 66 43 67 45 68 51 69 44 70 46 71 47 72 48 73 49 74
REMARK SMILES IDX 73 75 74 76 82 77 75 78 77 79 83 80 76 81 78 82 79 83 80 84
REMARK SMILES IDX 81 85 58 86 59 87 67 88 60 89 62 90 68 91 61 92 63 93 64 94
REMARK SMILES IDX 65 95 66 96
REMARK H PARENT 88 49 56 60
REMARK Flexibility Score: inf
ROOT
ATOM      1  C   UNL A   1      43.552  38.408  28.324  1.00  0.00     0.283 C 
ENDROOT
BRANCH   1   2
ATOM      2  O   UNL A   1      42.768  39.450  28.871  1.00  0.00    -0.366 OA
BRANCH   2   3
ATOM      3  C   UNL A   1      43.267  40.779  28.760  1.00  0.00     0.188 C 
BRANCH   3   4
ATOM      4  C   UNL A   1      43.731  41.131  27.375  1.00  0.00    -0.003 C 
ATOM      5  C   UNL A   1      42.912  41.436  26.354  1.00  0.00    -0.029 C 
BRANCH   5   6
ATOM      6  C   UNL A   1      43.349  41.749  24.948  1.00  0.00     0.031 C 
BRANCH   6   7
ATOM      7  C   UNL A   1      44.851  41.520  24.702  1.00  0.00     0.031 C 
BRANCH   7   8
ATOM      8  C   UNL A   1      45.630  42.757  24.340  1.00  0.00    -0.031 C 
ATOM      9  C   UNL A   1      45.137  44.007  24.358  1.00  0.00    -0.027 C 
BRANCH   9  10
ATOM     10  C   UNL A   1      45.948  45.236  24.046  1.00  0.00     0.054 C 
BRANCH  10  11
ATOM     11  C   UNL A   1      45.502  45.864  22.754  1.00  0.00    -0.027 C 
ATOM     12  C   UNL A   1      46.342  46.301  21.799  1.00  0.00    -0.027 C 
BRANCH  12  13
ATOM     13  C   UNL A   1      45.900  46.945  20.515  1.00  0.00     0.054 C 
BRANCH  13  14
ATOM     14  C   UNL A   1      45.007  46.020  19.738  1.00  0.00    -0.027 C 
ATOM     15  C   UNL A   1      45.141  44.683  19.710  1.00  0.00    -0.027 C 
BRANCH  15  16
ATOM     16  C   UNL A   1      44.258  43.765  18.914  1.00  0.00     0.054 C 
BRANCH  16  17
ATOM     17  C   UNL A   1      43.132  44.527  18.276  1.00  0.00    -0.027 C 
ATOM     18  C   UNL A   1      42.887  44.547  16.955  1.00  0.00    -0.031 C 
BRANCH  18  19
ATOM     19  C   UNL A   1      41.766  45.321  16.325  1.00  0.00     0.023 C 
ATOM     20  C   UNL A   1      41.973  46.820  16.485  1.00  0.00     0.008 C 
ENDBRANCH  18  19
ENDBRANCH  16  17
ENDBRANCH  15  16
ENDBRANCH  13  14
ENDBRANCH  12  13
ENDBRANCH  10  11
ENDBRANCH   9  10
ENDBRANCH   7   8
ENDBRANCH   6   7
ENDBRANCH   5   6
ENDBRANCH   3   4
ENDBRANCH   2   3
ENDBRANCH   1   2
BRANCH   1  21
ATOM     21  C   UNL A   1      43.110  36.943  28.233  1.00  0.00     0.332 C 
ATOM     22  O   UNL A   1      41.939  36.617  28.066  1.00  0.00    -0.250 OA
BRANCH  21  23
ATOM     23  O   UNL A   1      44.159  36.079  28.289  1.00  0.00    -0.462 OA
BRANCH  23  24
ATOM     24  C   UNL A   1      44.672  35.627  27.017  1.00  0.00     0.261 C 
BRANCH  24  25
ATOM     25  C   UNL A   1      46.200  35.548  26.999  1.00  0.00     0.202 C 
BRANCH  25  26
ATOM     26  O   UNL A   1      46.868  35.813  28.233  1.00  0.00    -0.374 OA
BRANCH  26  27
ATOM     27  C   UNL A   1      47.820  36.869  28.219  1.00  0.00     0.202 C 
BRANCH  27  28
ATOM     28  C   UNL A   1      47.441  38.156  28.961  1.00  0.00     0.261 C 
BRANCH  28  29
ATOM     29  O   UNL A   1      47.134  37.907  30.338  1.00  0.00    -0.460 OA
BRANCH  29  30
ATOM     30  C   UNL A   1      46.238  38.779  30.860  1.00  0.00     0.338 C 
ATOM     31  O   UNL A   1      46.120  39.962  30.596  1.00  0.00    -0.246 OA
BRANCH  30  32
ATOM     32  C   UNL A   1      45.254  38.050  31.679  1.00  0.00     0.060 A 
ATOM     33  C   UNL A   1      44.169  38.793  32.163  1.00  0.00     0.016 A 
ATOM     34  C   UNL A   1      45.412  36.706  32.018  1.00  0.00     0.016 A 
ATOM     35  C   UNL A   1      43.285  38.221  33.067  1.00  0.00     0.010 A 
ATOM     36  C   UNL A   1      44.524  36.132  32.932  1.00  0.00     0.010 A 
ATOM     37  C   UNL A   1      43.496  36.907  33.500  1.00  0.00    -0.014 A 
BRANCH  37  38
ATOM     38  C   UNL A   1      42.782  36.428  34.706  1.00  0.00     0.031 A 
ATOM     39  C   UNL A   1      41.629  35.480  34.518  1.00  0.00     0.074 A 
ATOM     40  C   UNL A   1      43.172  36.801  35.936  1.00  0.00     0.049 A 
ATOM     41  N   UNL A   1      40.825  34.967  35.410  1.00  0.00    -0.248 NA
ATOM     42  C   UNL A   1      41.342  35.055  33.136  1.00  0.00     0.031 C 
ATOM     43  C   UNL A   1      44.297  37.686  36.233  1.00  0.00     0.029 A 
ATOM     44  N   UNL A   1      42.646  36.495  37.165  1.00  0.00    -0.354 N 
ATOM     45  C   UNL A   1      39.915  34.194  34.699  1.00  0.00     0.074 A 
ATOM     46  C   UNL A   1      40.259  34.309  33.299  1.00  0.00     0.031 C 
ATOM     47  C   UNL A   1      44.358  37.879  37.562  1.00  0.00     0.029 A 
ATOM     48  C   UNL A   1      43.259  37.159  38.201  1.00  0.00     0.049 A 
ATOM     49  H   UNL A   1      41.902  35.864  37.292  1.00  0.00     0.167 HD
ATOM     50  C   UNL A   1      38.892  33.445  35.170  1.00  0.00     0.034 A 
ATOM     51  C   UNL A   1      42.944  37.201  39.510  1.00  0.00     0.034 A 
ATOM     52  C   UNL A   1      38.575  33.317  36.565  1.00  0.00     0.049 A 
ATOM     53  C   UNL A   1      41.778  36.385  40.008  1.00  0.00     0.074 A 
ATOM     54  C   UNL A   1      37.582  32.558  37.154  1.00  0.00     0.029 A 
ATOM     55  N   UNL A   1      39.241  33.973  37.588  1.00  0.00    -0.354 N 
ATOM     56  N   UNL A   1      40.979  35.592  39.335  1.00  0.00    -0.248 NA
ATOM     57  C   UNL A   1      41.490  36.441  41.448  1.00  0.00     0.031 C 
ATOM     58  C   UNL A   1      37.625  32.781  38.533  1.00  0.00     0.029 A 
ATOM     59  C   UNL A   1      38.676  33.643  38.806  1.00  0.00     0.049 A 
ATOM     60  H   UNL A   1      40.004  34.583  37.466  1.00  0.00     0.167 HD
ATOM     61  C   UNL A   1      40.128  35.018  40.274  1.00  0.00     0.074 A 
ATOM     62  C   UNL A   1      40.512  35.552  41.565  1.00  0.00     0.031 C 
ATOM     63  C   UNL A   1      39.119  34.134  40.086  1.00  0.00     0.034 A 
BRANCH  50  64
ATOM     64  C   UNL A   1      38.046  32.701  34.171  1.00  0.00     0.023 A 
ATOM     65  C   UNL A   1      38.286  31.335  33.924  1.00  0.00     0.012 A 
ATOM     66  C   UNL A   1      36.978  33.346  33.517  1.00  0.00     0.148 A 
ATOM     67  C   UNL A   1      37.497  30.629  33.015  1.00  0.00     0.002 A 
ATOM     68  C   UNL A   1      36.167  32.625  32.650  1.00  0.00     0.091 A 
ATOM     69  F   UNL A   1      36.782  34.652  33.747  1.00  0.00    -0.205 F 
ATOM     70  C   UNL A   1      36.432  31.271  32.388  1.00  0.00     0.022 A 
BRANCH  68  71
ATOM     71  S   UNL A   1      34.723  33.340  31.857  1.00  0.00     0.127 S 
ATOM     72  O   UNL A   1      34.813  32.772  30.513  1.00  0.00    -0.237 OA
ATOM     73  O   UNL A   1      33.629  32.807  32.671  1.00  0.00    -0.237 OA
ATOM     74  O   UNL A   1      34.892  34.784  31.936  1.00  0.00    -0.744 OA
ENDBRANCH  68  71
ENDBRANCH  50  64
BRANCH  51  75
ATOM     75  C   UNL A   1      43.755  38.028  40.446  1.00  0.00     0.023 A 
ATOM     76  C   UNL A   1      44.895  37.474  41.060  1.00  0.00     0.012 A 
ATOM     77  C   UNL A   1      43.412  39.367  40.718  1.00  0.00     0.148 A 
ATOM     78  C   UNL A   1      45.659  38.228  41.952  1.00  0.00     0.002 A 
ATOM     79  C   UNL A   1      44.208  40.130  41.564  1.00  0.00     0.091 A 
ATOM     80  F   UNL A   1      42.315  39.871  40.134  1.00  0.00    -0.205 F 
ATOM     81  C   UNL A   1      45.321  39.556  42.197  1.00  0.00     0.022 A 
BRANCH  79  82
ATOM     82  S   UNL A   1      43.922  41.881  41.837  1.00  0.00     0.127 S 
ATOM     83  O   UNL A   1      44.795  42.152  42.976  1.00  0.00    -0.237 OA
ATOM     84  O   UNL A   1      44.367  42.459  40.567  1.00  0.00    -0.237 OA
ATOM     85  O   UNL A   1      42.493  42.014  42.089  1.00  0.00    -0.744 OA
ENDBRANCH  79  82
ENDBRANCH  51  75
BRANCH  63  86
ATOM     86  C   UNL A   1      38.396  33.615  41.300  1.00  0.00     0.023 A 
ATOM     87  C   UNL A   1      37.286  34.312  41.818  1.00  0.00     0.012 A 
ATOM     88  C   UNL A   1      38.755  32.370  41.856  1.00  0.00     0.148 A 
ATOM     89  C   UNL A   1      36.559  33.787  42.886  1.00  0.00     0.002 A 
ATOM     90  C   UNL A   1      37.994  31.828  42.883  1.00  0.00     0.091 A 
ATOM     91  F   UNL A   1      39.824  31.733  41.355  1.00  0.00    -0.205 F 
ATOM     92  C   UNL A   1      36.903  32.541  43.407  1.00  0.00     0.022 A 
BRANCH  90  93
ATOM     93  S   UNL A   1      38.297  30.187  43.544  1.00  0.00     0.127 S 
ATOM     94  O   UNL A   1      38.203  29.359  42.343  1.00  0.00    -0.237 OA
ATOM     95  O   UNL A   1      39.647  30.319  44.091  1.00  0.00    -0.237 OA
ATOM     96  O   UNL A   1      37.259  29.954  44.541  1.00  0.00    -0.744 OA
ENDBRANCH  90  93
ENDBRANCH  63  86
ENDBRANCH  37  38
ENDBRANCH  30  32
ENDBRANCH  29  30
ENDBRANCH  28  29
ENDBRANCH  27  28
ENDBRANCH  26  27
ENDBRANCH  25  26
ENDBRANCH  24  25
ENDBRANCH  23  24
ENDBRANCH  21  23
ENDBRANCH   1  21
TORSDOF 30
ENDMDL
MODEL 3
REMARK VINA RESULT:      -6.6      6.106     12.467
REMARK SMILES CC/C=C/C/C=C/C/C=C/C/C=C/CC/C=C/COCC(=O)OCCOCCOC(=O)c1ccc(-c2c3nc(c(-c4cccc(S(=O)(=O)[O-])c4F)c4ccc([nH]4)c(-c4cccc(S(=O)(=O)[O-])c4F)c4nc(c(-c5cccc(S(=O)(=O)[O-])c5F)c5ccc2[nH]5)C=C4)C=C3)cc1
REMARK SMILES IDX 20 1 19 2 18 3 17 4 16 5 15 6 14 7 13 8 12 9 11 10 10 11
REMARK SMILES IDX 9 12 8 13 7 14 6 15 5 16 4 17 3 18 2 19 1 20 21 21 22 22
REMARK SMILES IDX 23 23 24 24 25 25 26 26 27 27 28 28 29 29 30 30 31 31 32 32
REMARK SMILES IDX 33 33 94 34 34 35 93 36 35 37 36 38 37 39 87 40 38 41 92 42
REMARK SMILES IDX 86 43 88 44 39 45 91 46 85 47 84 48 40 50 72 51 52 52 71 53
REMARK SMILES IDX 53 54 56 55 70 56 89 57 54 58 55 59 69 61 90 62 57 63 41 64
REMARK SMILES IDX 42 65 50 66 43 67 45 68 51 69 44 70 46 71 47 72 48 73 49 74
REMARK SMILES IDX 73 75 74 76 82 77 75 78 77 79 83 80 76 81 78 82 79 83 80 84
REMARK SMILES IDX 81 85 58 86 59 87 67 88 60 89 62 90 68 91 61 92 63 93 64 94
REMARK SMILES IDX 65 95 66 96
REMARK H PARENT 88 49 56 60
REMARK Flexibility Score: inf
ROOT
ATOM      1  C   UNL A   1      45.584  21.454  36.386  1.00  0.00     0.283 C 
ENDROOT
BRANCH   1   2
ATOM      2  O   UNL A   1      45.941  20.247  35.742  1.00  0.00    -0.366 OA
BRANCH   2   3
ATOM      3  C   UNL A   1      46.625  20.341  34.497  1.00  0.00     0.188 C 
BRANCH   3   4
ATOM      4  C   UNL A   1      48.110  20.521  34.641  1.00  0.00    -0.003 C 
ATOM      5  C   UNL A   1      49.015  20.134  33.726  1.00  0.00    -0.029 C 
BRANCH   5   6
ATOM      6  C   UNL A   1      50.508  20.264  33.866  1.00  0.00     0.031 C 
BRANCH   6   7
ATOM      7  C   UNL A   1      51.099  19.402  34.994  1.00  0.00     0.031 C 
BRANCH   7   8
ATOM      8  C   UNL A   1      51.374  20.140  36.278  1.00  0.00    -0.031 C 
ATOM      9  C   UNL A   1      50.519  20.227  37.311  1.00  0.00    -0.027 C 
BRANCH   9  10
ATOM     10  C   UNL A   1      50.833  20.923  38.609  1.00  0.00     0.054 C 
BRANCH  10  11
ATOM     11  C   UNL A   1      49.937  20.436  39.714  1.00  0.00    -0.027 C 
ATOM     12  C   UNL A   1      49.687  19.139  39.967  1.00  0.00    -0.027 C 
BRANCH  12  13
ATOM     13  C   UNL A   1      48.777  18.651  41.059  1.00  0.00     0.054 C 
BRANCH  13  14
ATOM     14  C   UNL A   1      47.372  18.497  40.549  1.00  0.00    -0.027 C 
ATOM     15  C   UNL A   1      46.678  17.347  40.576  1.00  0.00    -0.027 C 
BRANCH  15  16
ATOM     16  C   UNL A   1      45.282  17.194  40.045  1.00  0.00     0.054 C 
BRANCH  16  17
ATOM     17  C   UNL A   1      44.290  17.094  41.168  1.00  0.00    -0.027 C 
ATOM     18  C   UNL A   1      43.935  15.943  41.763  1.00  0.00    -0.031 C 
BRANCH  18  19
ATOM     19  C   UNL A   1      42.933  15.852  42.876  1.00  0.00     0.023 C 
ATOM     20  C   UNL A   1      42.130  14.562  42.791  1.00  0.00     0.008 C 
ENDBRANCH  18  19
ENDBRANCH  16  17
ENDBRANCH  15  16
ENDBRANCH  13  14
ENDBRANCH  12  13
ENDBRANCH  10  11
ENDBRANCH   9  10
ENDBRANCH   7   8
ENDBRANCH   6   7
ENDBRANCH   5   6
ENDBRANCH   3   4
ENDBRANCH   2   3
ENDBRANCH   1   2
BRANCH   1  21
ATOM     21  C   UNL A   1      45.818  22.853  35.804  1.00  0.00     0.332 C 
ATOM     22  O   UNL A   1      45.042  23.376  35.012  1.00  0.00    -0.250 OA
BRANCH  21  23
ATOM     23  O   UNL A   1      46.928  23.450  36.317  1.00  0.00    -0.462 OA
BRANCH  23  24
ATOM     24  C   UNL A   1      47.568  22.757  37.410  1.00  0.00     0.261 C 
BRANCH  24  25
ATOM     25  C   UNL A   1      47.244  23.383  38.768  1.00  0.00     0.202 C 
BRANCH  25  26
ATOM     26  O   UNL A   1      47.702  24.719  38.982  1.00  0.00    -0.374 OA
BRANCH  26  27
ATOM     27  C   UNL A   1      48.913  25.080  38.327  1.00  0.00     0.202 C 
BRANCH  27  28
ATOM     28  C   UNL A   1      48.811  26.115  37.200  1.00  0.00     0.261 C 
BRANCH  28  29
ATOM     29  O   UNL A   1      49.017  27.449  37.682  1.00  0.00    -0.460 OA
BRANCH  29  30
ATOM     30  C   UNL A   1      47.875  28.070  38.064  1.00  0.00     0.338 C 
ATOM     31  O   UNL A   1      47.699  28.739  39.067  1.00  0.00    -0.246 OA
BRANCH  30  32
ATOM     32  C   UNL A   1      46.882  28.000  36.978  1.00  0.00     0.060 A 
ATOM     33  C   UNL A   1      46.995  28.960  35.963  1.00  0.00     0.016 A 
ATOM     34  C   UNL A   1      45.839  27.073  36.977  1.00  0.00     0.016 A 
ATOM     35  C   UNL A   1      46.010  29.059  34.990  1.00  0.00     0.010 A 
ATOM     36  C   UNL A   1      44.845  27.177  35.999  1.00  0.00     0.010 A 
ATOM     37  C   UNL A   1      44.901  28.206  35.042  1.00  0.00    -0.014 A 
BRANCH  37  38
ATOM     38  C   UNL A   1      43.704  28.540  34.237  1.00  0.00     0.031 A 
ATOM     39  C   UNL A   1      43.610  27.987  32.841  1.00  0.00     0.074 A 
ATOM     40  C   UNL A   1      42.712  29.288  34.749  1.00  0.00     0.049 A 
ATOM     41  N   UNL A   1      42.690  28.180  31.935  1.00  0.00    -0.248 NA
ATOM     42  C   UNL A   1      44.703  27.099  32.408  1.00  0.00     0.031 C 
ATOM     43  C   UNL A   1      42.684  29.844  36.101  1.00  0.00     0.029 A 
ATOM     44  N   UNL A   1      41.544  29.725  34.178  1.00  0.00    -0.354 N 
ATOM     45  C   UNL A   1      43.110  27.473  30.814  1.00  0.00     0.074 A 
ATOM     46  C   UNL A   1      44.372  26.852  31.149  1.00  0.00     0.031 C 
ATOM     47  C   UNL A   1      41.568  30.578  36.245  1.00  0.00     0.029 A 
ATOM     48  C   UNL A   1      40.822  30.569  34.988  1.00  0.00     0.049 A 
ATOM     49  H   UNL A   1      41.253  29.461  33.275  1.00  0.00     0.167 HD
ATOM     50  C   UNL A   1      42.494  27.344  29.617  1.00  0.00     0.034 A 
ATOM     51  C   UNL A   1      39.705  31.275  34.728  1.00  0.00     0.034 A 
ATOM     52  C   UNL A   1      41.227  27.944  29.303  1.00  0.00     0.049 A 
ATOM     53  C   UNL A   1      39.054  31.141  33.375  1.00  0.00     0.074 A 
ATOM     54  C   UNL A   1      40.498  27.849  28.133  1.00  0.00     0.029 A 
ATOM     55  N   UNL A   1      40.508  28.760  30.161  1.00  0.00    -0.354 N 
ATOM     56  N   UNL A   1      39.418  30.403  32.354  1.00  0.00    -0.248 NA
ATOM     57  C   UNL A   1      37.822  31.910  33.148  1.00  0.00     0.031 C 
ATOM     58  C   UNL A   1      39.351  28.636  28.272  1.00  0.00     0.029 A 
ATOM     59  C   UNL A   1      39.345  29.183  29.545  1.00  0.00     0.049 A 
ATOM     60  H   UNL A   1      40.783  29.002  31.075  1.00  0.00     0.167 HD
ATOM     61  C   UNL A   1      38.436  30.578  31.385  1.00  0.00     0.074 A 
ATOM     62  C   UNL A   1      37.459  31.491  31.942  1.00  0.00     0.031 C 
ATOM     63  C   UNL A   1      38.352  30.037  30.145  1.00  0.00     0.034 A 
BRANCH  50  64
ATOM     64  C   UNL A   1      43.176  26.515  28.561  1.00  0.00     0.023 A 
ATOM     65  C   UNL A   1      42.841  25.156  28.406  1.00  0.00     0.012 A 
ATOM     66  C   UNL A   1      44.112  27.101  27.687  1.00  0.00     0.148 A 
ATOM     67  C   UNL A   1      43.452  24.383  27.418  1.00  0.00     0.002 A 
ATOM     68  C   UNL A   1      44.681  26.338  26.675  1.00  0.00     0.091 A 
ATOM     69  F   UNL A   1      44.437  28.390  27.866  1.00  0.00    -0.205 F 
ATOM     70  C   UNL A   1      44.362  24.976  26.547  1.00  0.00     0.022 A 
BRANCH  68  71
ATOM     71  S   UNL A   1      45.802  27.029  25.454  1.00  0.00     0.127 S 
ATOM     72  O   UNL A   1      45.884  25.942  24.480  1.00  0.00    -0.237 OA
ATOM     73  O   UNL A   1      45.064  28.206  24.992  1.00  0.00    -0.237 OA
ATOM     74  O   UNL A   1      47.038  27.326  26.163  1.00  0.00    -0.744 OA
ENDBRANCH  68  71
ENDBRANCH  50  64
BRANCH  51  75
ATOM     75  C   UNL A   1      39.119  32.155  35.776  1.00  0.00     0.023 A 
ATOM     76  C   UNL A   1      39.356  33.543  35.737  1.00  0.00     0.012 A 
ATOM     77  C   UNL A   1      38.312  31.626  36.803  1.00  0.00     0.148 A 
ATOM     78  C   UNL A   1      38.829  34.382  36.720  1.00  0.00     0.002 A 
ATOM     79  C   UNL A   1      37.744  32.474  37.746  1.00  0.00     0.091 A 
ATOM     80  F   UNL A   1      38.109  30.301  36.830  1.00  0.00    -0.205 F 
ATOM     81  C   UNL A   1      38.017  33.850  37.718  1.00  0.00     0.022 A 
BRANCH  79  82
ATOM     82  S   UNL A   1      36.585  31.894  38.989  1.00  0.00     0.127 S 
ATOM     83  O   UNL A   1      37.270  32.256  40.228  1.00  0.00    -0.237 OA
ATOM     84  O   UNL A   1      35.396  32.692  38.686  1.00  0.00    -0.237 OA
ATOM     85  O   UNL A   1      36.428  30.466  38.748  1.00  0.00    -0.744 OA
ENDBRANCH  79  82
ENDBRANCH  51  75
BRANCH  63  86
ATOM     86  C   UNL A   1      37.131  30.344  29.320  1.00  0.00     0.023 A 
ATOM     87  C   UNL A   1      36.297  29.302  28.869  1.00  0.00     0.012 A 
ATOM     88  C   UNL A   1      36.753  31.682  29.091  1.00  0.00     0.148 A 
ATOM     89  C   UNL A   1      35.117  29.588  28.184  1.00  0.00     0.002 A 
ATOM     90  C   UNL A   1      35.550  31.961  28.455  1.00  0.00     0.091 A 
ATOM     91  F   UNL A   1      37.571  32.657  29.516  1.00  0.00    -0.205 F 
ATOM     92  C   UNL A   1      34.738  30.915  27.990  1.00  0.00     0.022 A 
BRANCH  90  93
ATOM     93  S   UNL A   1      34.930  33.634  28.257  1.00  0.00     0.127 S 
ATOM     94  O   UNL A   1      35.252  34.227  29.553  1.00  0.00    -0.237 OA
ATOM     95  O   UNL A   1      35.735  34.131  27.140  1.00  0.00    -0.237 OA
ATOM     96  O   UNL A   1      33.507  33.506  27.968  1.00  0.00    -0.744 OA
ENDBRANCH  90  93
ENDBRANCH  63  86
ENDBRANCH  37  38
ENDBRANCH  30  32
ENDBRANCH  29  30
ENDBRANCH  28  29
ENDBRANCH  27  28
ENDBRANCH  26  27
ENDBRANCH  25  26
ENDBRANCH  24  25
ENDBRANCH  23  24
ENDBRANCH  21  23
ENDBRANCH   1  21
TORSDOF 30
ENDMDL
