MODEL 1
REMARK VINA RESULT:     -11.6      0.000      0.000
REMARK SMILES O=C(OCCOCCOC(=O)c1cc2c(c(S(=O)(=O)Nc3cc(C(F)(F)F)ccc3-n3cccn3)c1)CCC2)c1ccc(-c2c3nc(c(-c4cccc(S(=O)(=O)[O-])c4F)c4ccc([nH]4)c(-c4cccc(S(=O)(=O)[O-])c4F)c4nc(c(-c5cccc(S(=O)(=O)[O-])c5F)c5ccc2[nH]5)C=C4)C=C3)cc1
REMARK SMILES IDX 7 1 6 2 5 3 4 4 3 5 2 6 1 7 40 8 41 9 102 10 42 11 101 12
REMARK SMILES IDX 43 13 44 14 45 15 95 16 46 17 100 18 94 19 96 20 47 21 99 22
REMARK SMILES IDX 93 23 92 24 48 26 80 27 60 28 79 29 61 30 64 31 78 32 97 33
REMARK SMILES IDX 62 34 63 35 77 37 98 38 65 39 49 40 50 41 58 42 51 43 53 44
REMARK SMILES IDX 59 45 52 46 54 47 55 48 56 49 57 50 81 51 82 52 90 53 83 54
REMARK SMILES IDX 85 55 91 56 84 57 86 58 87 59 88 60 89 61 66 62 67 63 75 64
REMARK SMILES IDX 68 65 70 66 76 67 69 68 71 69 72 70 73 71 74 72 8 73 9 74
REMARK SMILES IDX 10 75 11 76 12 77 13 78 36 79 14 80 16 81 15 82 39 83 37 84
REMARK SMILES IDX 38 85 17 86 18 87 19 88 20 89 21 91 22 92 30 93 23 94 29 95
REMARK SMILES IDX 28 96 31 97 32 98 35 99 33 100 34 101 24 102 25 103 26 104
REMARK SMILES IDX 27 105
REMARK H PARENT 96 25 64 36 20 90
REMARK Flexibility Score: inf
ROOT
ATOM      1  C   UNL A   1      36.170  21.518  24.878  1.00  0.00     0.202 C 
ENDROOT
BRANCH   1   2
ATOM      2  O   UNL A   1      37.292  22.396  24.702  1.00  0.00    -0.374 OA
BRANCH   2   3
ATOM      3  C   UNL A   1      37.906  22.905  25.880  1.00  0.00     0.202 C 
BRANCH   3   4
ATOM      4  C   UNL A   1      39.151  22.197  26.410  1.00  0.00     0.261 C 
BRANCH   4   5
ATOM      5  O   UNL A   1      40.342  23.005  26.363  1.00  0.00    -0.460 OA
BRANCH   5   6
ATOM      6  C   UNL A   1      41.124  23.296  27.428  1.00  0.00     0.338 C 
ATOM      7  O   UNL A   1      41.638  22.392  28.081  1.00  0.00    -0.246 OA
BRANCH   6   8
ATOM      8  C   UNL A   1      41.557  24.702  27.638  1.00  0.00     0.060 A 
ATOM      9  C   UNL A   1      42.591  25.085  28.489  1.00  0.00     0.016 A 
ATOM     10  C   UNL A   1      40.768  25.692  27.031  1.00  0.00     0.016 A 
ATOM     11  C   UNL A   1      42.633  26.366  28.982  1.00  0.00     0.010 A 
ATOM     12  C   UNL A   1      40.865  27.004  27.452  1.00  0.00     0.010 A 
ATOM     13  C   UNL A   1      41.713  27.297  28.514  1.00  0.00    -0.014 A 
BRANCH  13  14
ATOM     14  C   UNL A   1      41.746  28.600  29.144  1.00  0.00     0.031 A 
ATOM     15  C   UNL A   1      42.867  29.456  28.676  1.00  0.00     0.074 A 
ATOM     16  C   UNL A   1      40.807  28.961  30.037  1.00  0.00     0.049 A 
ATOM     17  N   UNL A   1      43.846  29.945  29.367  1.00  0.00    -0.248 NA
ATOM     18  C   UNL A   1      43.020  29.618  27.221  1.00  0.00     0.031 C 
ATOM     19  C   UNL A   1      39.562  28.259  30.362  1.00  0.00     0.029 A 
ATOM     20  N   UNL A   1      40.691  30.126  30.726  1.00  0.00    -0.354 N 
ATOM     21  C   UNL A   1      44.609  30.677  28.456  1.00  0.00     0.074 A 
ATOM     22  C   UNL A   1      44.184  30.263  27.149  1.00  0.00     0.031 C 
ATOM     23  C   UNL A   1      38.701  29.134  30.926  1.00  0.00     0.029 A 
ATOM     24  C   UNL A   1      39.386  30.399  31.119  1.00  0.00     0.049 A 
ATOM     25  H   UNL A   1      41.453  30.717  30.927  1.00  0.00     0.167 HD
ATOM     26  C   UNL A   1      45.322  31.766  28.854  1.00  0.00     0.034 A 
ATOM     27  C   UNL A   1      38.889  31.614  31.453  1.00  0.00     0.034 A 
ATOM     28  C   UNL A   1      45.591  31.719  30.269  1.00  0.00     0.049 A 
ATOM     29  C   UNL A   1      40.038  32.489  31.781  1.00  0.00     0.074 A 
ATOM     30  C   UNL A   1      46.252  30.847  31.110  1.00  0.00     0.029 A 
ATOM     31  N   UNL A   1      44.815  32.512  31.081  1.00  0.00    -0.354 N 
ATOM     32  N   UNL A   1      40.814  32.300  32.813  1.00  0.00    -0.248 NA
ATOM     33  C   UNL A   1      40.601  33.302  30.714  1.00  0.00     0.031 C 
ATOM     34  C   UNL A   1      45.488  30.848  32.314  1.00  0.00     0.029 A 
ATOM     35  C   UNL A   1      44.444  31.763  32.162  1.00  0.00     0.049 A 
ATOM     36  H   UNL A   1      44.571  33.450  30.912  1.00  0.00     0.167 HD
ATOM     37  C   UNL A   1      42.092  32.567  32.337  1.00  0.00     0.074 A 
ATOM     38  C   UNL A   1      41.887  33.283  31.079  1.00  0.00     0.031 C 
ATOM     39  C   UNL A   1      43.183  31.924  32.850  1.00  0.00     0.034 A 
BRANCH  26  40
ATOM     40  C   UNL A   1      45.375  33.072  28.076  1.00  0.00     0.023 A 
ATOM     41  C   UNL A   1      46.661  33.609  27.830  1.00  0.00     0.012 A 
ATOM     42  C   UNL A   1      44.278  33.940  27.863  1.00  0.00     0.148 A 
ATOM     43  C   UNL A   1      46.848  34.962  27.519  1.00  0.00     0.002 A 
ATOM     44  C   UNL A   1      44.465  35.269  27.502  1.00  0.00     0.091 A 
ATOM     45  F   UNL A   1      43.032  33.537  28.108  1.00  0.00    -0.205 F 
ATOM     46  C   UNL A   1      45.749  35.795  27.367  1.00  0.00     0.022 A 
BRANCH  44  47
ATOM     47  S   UNL A   1      43.072  36.384  27.268  1.00  0.00     0.127 S 
ATOM     48  O   UNL A   1      42.463  36.365  28.595  1.00  0.00    -0.237 OA
ATOM     49  O   UNL A   1      43.748  37.632  26.912  1.00  0.00    -0.237 OA
ATOM     50  O   UNL A   1      42.276  35.809  26.191  1.00  0.00    -0.744 OA
ENDBRANCH  44  47
ENDBRANCH  26  40
BRANCH  27  51
ATOM     51  C   UNL A   1      37.535  32.153  31.185  1.00  0.00     0.023 A 
ATOM     52  C   UNL A   1      36.874  31.812  29.989  1.00  0.00     0.012 A 
ATOM     53  C   UNL A   1      36.785  32.785  32.203  1.00  0.00     0.148 A 
ATOM     54  C   UNL A   1      35.509  32.073  29.821  1.00  0.00     0.002 A 
ATOM     55  C   UNL A   1      35.433  33.057  32.028  1.00  0.00     0.091 A 
ATOM     56  F   UNL A   1      37.374  33.035  33.380  1.00  0.00    -0.205 F 
ATOM     57  C   UNL A   1      34.787  32.691  30.840  1.00  0.00     0.022 A 
BRANCH  55  58
ATOM     58  S   UNL A   1      34.438  33.839  33.304  1.00  0.00     0.127 S 
ATOM     59  O   UNL A   1      34.333  35.212  32.807  1.00  0.00    -0.237 OA
ATOM     60  O   UNL A   1      33.199  33.069  33.239  1.00  0.00    -0.237 OA
ATOM     61  O   UNL A   1      35.200  33.709  34.540  1.00  0.00    -0.744 OA
ENDBRANCH  55  58
ENDBRANCH  27  51
BRANCH  39  62
ATOM     62  C   UNL A   1      43.000  31.099  34.099  1.00  0.00     0.023 A 
ATOM     63  C   UNL A   1      43.018  31.670  35.389  1.00  0.00     0.012 A 
ATOM     64  C   UNL A   1      42.619  29.756  33.955  1.00  0.00     0.148 A 
ATOM     65  C   UNL A   1      42.683  30.909  36.513  1.00  0.00     0.002 A 
ATOM     66  C   UNL A   1      42.242  29.016  35.069  1.00  0.00     0.091 A 
ATOM     67  F   UNL A   1      42.600  29.231  32.720  1.00  0.00    -0.205 F 
ATOM     68  C   UNL A   1      42.282  29.585  36.351  1.00  0.00     0.022 A 
BRANCH  66  69
ATOM     69  S   UNL A   1      41.591  27.352  34.907  1.00  0.00     0.127 S 
ATOM     70  O   UNL A   1      41.168  27.055  36.273  1.00  0.00    -0.237 OA
ATOM     71  O   UNL A   1      40.495  27.534  33.954  1.00  0.00    -0.237 OA
ATOM     72  O   UNL A   1      42.690  26.541  34.398  1.00  0.00    -0.744 OA
ENDBRANCH  66  69
ENDBRANCH  39  62
ENDBRANCH  13  14
ENDBRANCH   6   8
ENDBRANCH   5   6
ENDBRANCH   4   5
ENDBRANCH   3   4
ENDBRANCH   2   3
ENDBRANCH   1   2
BRANCH   1  73
ATOM     73  C   UNL A   1      34.754  22.068  24.642  1.00  0.00     0.261 C 
BRANCH  73  74
ATOM     74  O   UNL A   1      34.674  23.495  24.826  1.00  0.00    -0.460 OA
BRANCH  74  75
ATOM     75  C   UNL A   1      34.107  23.925  25.981  1.00  0.00     0.338 C 
ATOM     76  O   UNL A   1      34.122  23.366  27.068  1.00  0.00    -0.246 OA
BRANCH  75  77
ATOM     77  C   UNL A   1      33.606  25.305  25.787  1.00  0.00     0.061 A 
ATOM     78  C   UNL A   1      32.990  25.966  26.845  1.00  0.00     0.019 A 
ATOM     79  C   UNL A   1      33.759  25.933  24.524  1.00  0.00     0.038 A 
ATOM     80  C   UNL A   1      32.574  27.262  26.626  1.00  0.00    -0.043 A 
ATOM     81  C   UNL A   1      33.290  27.245  24.297  1.00  0.00     0.092 A 
ATOM     82  C   UNL A   1      32.670  27.886  25.360  1.00  0.00    -0.024 A 
ATOM     83  C   UNL A   1      32.005  28.200  27.651  1.00  0.00     0.036 C 
ATOM     84  C   UNL A   1      32.010  29.225  25.467  1.00  0.00     0.037 C 
ATOM     85  C   UNL A   1      32.281  29.527  26.944  1.00  0.00     0.010 C 
BRANCH  81  86
ATOM     86  S   UNL A   1      33.320  27.903  22.639  1.00  0.00     0.262 S 
ATOM     87  O   UNL A   1      33.475  29.340  22.751  1.00  0.00    -0.201 OA
ATOM     88  O   UNL A   1      34.290  27.136  21.885  1.00  0.00    -0.201 OA
BRANCH  86  89
ATOM     89  N   UNL A   1      31.837  27.707  21.802  1.00  0.00    -0.277 N 
ATOM     90  H   UNL A   1      31.843  27.287  20.913  1.00  0.00     0.180 HD
BRANCH  89  91
ATOM     91  C   UNL A   1      30.585  28.139  22.357  1.00  0.00     0.075 A 
ATOM     92  C   UNL A   1      30.092  29.409  22.004  1.00  0.00     0.042 A 
ATOM     93  C   UNL A   1      29.788  27.285  23.134  1.00  0.00     0.089 A 
ATOM     94  C   UNL A   1      28.780  29.799  22.348  1.00  0.00     0.058 A 
ATOM     95  C   UNL A   1      28.491  27.678  23.501  1.00  0.00     0.031 A 
ATOM     96  C   UNL A   1      27.994  28.926  23.115  1.00  0.00     0.015 A 
BRANCH  93  97
ATOM     97  N   UNL A   1      30.241  26.001  23.523  1.00  0.00    -0.239 N 
ATOM     98  C   UNL A   1      30.777  25.011  22.729  1.00  0.00     0.115 A 
ATOM     99  N   UNL A   1      30.075  25.571  24.800  1.00  0.00    -0.177 NA
ATOM    100  C   UNL A   1      30.750  23.853  23.465  1.00  0.00     0.042 A 
ATOM    101  C   UNL A   1      30.274  24.251  24.722  1.00  0.00     0.135 A 
ENDBRANCH  93  97
BRANCH  94 102
ATOM    102  C   UNL A   1      28.202  31.095  21.825  1.00  0.00     0.416 C 
ATOM    103  F   UNL A   1      29.143  32.063  21.662  1.00  0.00    -0.166 F 
ATOM    104  F   UNL A   1      27.602  30.942  20.612  1.00  0.00    -0.166 F 
ATOM    105  F   UNL A   1      27.249  31.630  22.640  1.00  0.00    -0.166 F 
ENDBRANCH  94 102
ENDBRANCH  89  91
ENDBRANCH  86  89
ENDBRANCH  81  86
ENDBRANCH  75  77
ENDBRANCH  74  75
ENDBRANCH  73  74
ENDBRANCH   1  73
TORSDOF 22
ENDMDL
MODEL 2
REMARK VINA RESULT:     -11.6      1.892      2.588
REMARK SMILES O=C(OCCOCCOC(=O)c1cc2c(c(S(=O)(=O)Nc3cc(C(F)(F)F)ccc3-n3cccn3)c1)CCC2)c1ccc(-c2c3nc(c(-c4cccc(S(=O)(=O)[O-])c4F)c4ccc([nH]4)c(-c4cccc(S(=O)(=O)[O-])c4F)c4nc(c(-c5cccc(S(=O)(=O)[O-])c5F)c5ccc2[nH]5)C=C4)C=C3)cc1
REMARK SMILES IDX 7 1 6 2 5 3 4 4 3 5 2 6 1 7 40 8 41 9 102 10 42 11 101 12
REMARK SMILES IDX 43 13 44 14 45 15 95 16 46 17 100 18 94 19 96 20 47 21 99 22
REMARK SMILES IDX 93 23 92 24 48 26 80 27 60 28 79 29 61 30 64 31 78 32 97 33
REMARK SMILES IDX 62 34 63 35 77 37 98 38 65 39 49 40 50 41 58 42 51 43 53 44
REMARK SMILES IDX 59 45 52 46 54 47 55 48 56 49 57 50 81 51 82 52 90 53 83 54
REMARK SMILES IDX 85 55 91 56 84 57 86 58 87 59 88 60 89 61 66 62 67 63 75 64
REMARK SMILES IDX 68 65 70 66 76 67 69 68 71 69 72 70 73 71 74 72 8 73 9 74
REMARK SMILES IDX 10 75 11 76 12 77 13 78 36 79 14 80 16 81 15 82 39 83 37 84
REMARK SMILES IDX 38 85 17 86 18 87 19 88 20 89 21 91 22 92 30 93 23 94 29 95
REMARK SMILES IDX 28 96 31 97 32 98 35 99 33 100 34 101 24 102 25 103 26 104
REMARK SMILES IDX 27 105
REMARK H PARENT 96 25 64 36 20 90
REMARK Flexibility Score: inf
ROOT
ATOM      1  C   UNL A   1      37.807  21.018  25.142  1.00  0.00     0.202 C 
ENDROOT
BRANCH   1   2
ATOM      2  O   UNL A   1      38.538  22.014  25.873  1.00  0.00    -0.374 OA
BRANCH   2   3
ATOM      3  C   UNL A   1      39.814  21.638  26.378  1.00  0.00     0.202 C 
BRANCH   3   4
ATOM      4  C   UNL A   1      40.475  22.540  27.418  1.00  0.00     0.261 C 
BRANCH   4   5
ATOM      5  O   UNL A   1      41.773  23.024  27.026  1.00  0.00    -0.460 OA
BRANCH   5   6
ATOM      6  C   UNL A   1      42.024  24.260  26.538  1.00  0.00     0.338 C 
ATOM      7  O   UNL A   1      42.351  24.404  25.363  1.00  0.00    -0.246 OA
BRANCH   6   8
ATOM      8  C   UNL A   1      41.655  25.444  27.356  1.00  0.00     0.060 A 
ATOM      9  C   UNL A   1      40.690  26.380  26.991  1.00  0.00     0.016 A 
ATOM     10  C   UNL A   1      42.438  25.679  28.497  1.00  0.00     0.016 A 
ATOM     11  C   UNL A   1      40.723  27.643  27.526  1.00  0.00     0.010 A 
ATOM     12  C   UNL A   1      42.412  26.919  29.106  1.00  0.00     0.010 A 
ATOM     13  C   UNL A   1      41.644  27.923  28.530  1.00  0.00    -0.014 A 
BRANCH  13  14
ATOM     14  C   UNL A   1      41.695  29.297  28.985  1.00  0.00     0.031 A 
ATOM     15  C   UNL A   1      42.898  30.032  28.517  1.00  0.00     0.074 A 
ATOM     16  C   UNL A   1      40.703  29.816  29.731  1.00  0.00     0.049 A 
ATOM     17  N   UNL A   1      43.839  30.566  29.228  1.00  0.00    -0.248 NA
ATOM     18  C   UNL A   1      43.188  29.989  27.075  1.00  0.00     0.031 C 
ATOM     19  C   UNL A   1      39.396  29.219  30.025  1.00  0.00     0.029 A 
ATOM     20  N   UNL A   1      40.592  31.067  30.247  1.00  0.00    -0.354 N 
ATOM     21  C   UNL A   1      44.718  31.135  28.306  1.00  0.00     0.074 A 
ATOM     22  C   UNL A   1      44.387  30.566  27.030  1.00  0.00     0.031 C 
ATOM     23  C   UNL A   1      38.539  30.199  30.386  1.00  0.00     0.029 A 
ATOM     24  C   UNL A   1      39.274  31.447  30.476  1.00  0.00     0.049 A 
ATOM     25  H   UNL A   1      41.365  31.646  30.440  1.00  0.00     0.167 HD
ATOM     26  C   UNL A   1      45.453  32.235  28.623  1.00  0.00     0.034 A 
ATOM     27  C   UNL A   1      38.818  32.717  30.600  1.00  0.00     0.034 A 
ATOM     28  C   UNL A   1      45.594  32.369  30.052  1.00  0.00     0.049 A 
ATOM     29  C   UNL A   1      39.982  33.578  30.918  1.00  0.00     0.074 A 
ATOM     30  C   UNL A   1      46.128  31.590  31.059  1.00  0.00     0.029 A 
ATOM     31  N   UNL A   1      44.795  33.297  30.676  1.00  0.00    -0.354 N 
ATOM     32  N   UNL A   1      40.651  33.496  32.034  1.00  0.00    -0.248 NA
ATOM     33  C   UNL A   1      40.681  34.213  29.813  1.00  0.00     0.031 C 
ATOM     34  C   UNL A   1      45.263  31.787  32.174  1.00  0.00     0.029 A 
ATOM     35  C   UNL A   1      44.290  32.718  31.806  1.00  0.00     0.049 A 
ATOM     36  H   UNL A   1      44.619  34.214  30.364  1.00  0.00     0.167 HD
ATOM     37  C   UNL A   1      41.979  33.640  31.651  1.00  0.00     0.074 A 
ATOM     38  C   UNL A   1      41.926  34.188  30.297  1.00  0.00     0.031 C 
ATOM     39  C   UNL A   1      42.984  33.025  32.345  1.00  0.00     0.034 A 
BRANCH  26  40
ATOM     40  C   UNL A   1      45.648  33.421  27.690  1.00  0.00     0.023 A 
ATOM     41  C   UNL A   1      44.597  33.688  26.781  1.00  0.00     0.012 A 
ATOM     42  C   UNL A   1      46.883  34.063  27.435  1.00  0.00     0.148 A 
ATOM     43  C   UNL A   1      44.803  34.443  25.619  1.00  0.00     0.002 A 
ATOM     44  C   UNL A   1      47.067  34.856  26.308  1.00  0.00     0.091 A 
ATOM     45  F   UNL A   1      47.941  33.840  28.212  1.00  0.00    -0.205 F 
ATOM     46  C   UNL A   1      46.043  35.017  25.376  1.00  0.00     0.022 A 
BRANCH  44  47
ATOM     47  S   UNL A   1      48.648  35.643  25.961  1.00  0.00     0.127 S 
ATOM     48  O   UNL A   1      49.139  34.825  24.855  1.00  0.00    -0.237 OA
ATOM     49  O   UNL A   1      48.232  36.997  25.598  1.00  0.00    -0.237 OA
ATOM     50  O   UNL A   1      49.413  35.566  27.200  1.00  0.00    -0.744 OA
ENDBRANCH  44  47
ENDBRANCH  26  40
BRANCH  27  51
ATOM     51  C   UNL A   1      37.525  33.273  30.137  1.00  0.00     0.023 A 
ATOM     52  C   UNL A   1      37.124  33.082  28.801  1.00  0.00     0.012 A 
ATOM     53  C   UNL A   1      36.570  33.764  31.056  1.00  0.00     0.148 A 
ATOM     54  C   UNL A   1      35.809  33.349  28.399  1.00  0.00     0.002 A 
ATOM     55  C   UNL A   1      35.269  34.043  30.651  1.00  0.00     0.091 A 
ATOM     56  F   UNL A   1      36.908  33.867  32.348  1.00  0.00    -0.205 F 
ATOM     57  C   UNL A   1      34.882  33.826  29.323  1.00  0.00     0.022 A 
BRANCH  55  58
ATOM     58  S   UNL A   1      34.018  34.647  31.791  1.00  0.00     0.127 S 
ATOM     59  O   UNL A   1      33.776  33.469  32.626  1.00  0.00    -0.237 OA
ATOM     60  O   UNL A   1      34.720  35.737  32.462  1.00  0.00    -0.237 OA
ATOM     61  O   UNL A   1      32.882  35.039  30.966  1.00  0.00    -0.744 OA
ENDBRANCH  55  58
ENDBRANCH  27  51
BRANCH  39  62
ATOM     62  C   UNL A   1      42.646  32.386  33.667  1.00  0.00     0.023 A 
ATOM     63  C   UNL A   1      42.471  33.139  34.847  1.00  0.00     0.012 A 
ATOM     64  C   UNL A   1      42.318  31.020  33.679  1.00  0.00     0.148 A 
ATOM     65  C   UNL A   1      41.998  32.538  36.018  1.00  0.00     0.002 A 
ATOM     66  C   UNL A   1      41.805  30.436  34.830  1.00  0.00     0.091 A 
ATOM     67  F   UNL A   1      42.484  30.320  32.546  1.00  0.00    -0.205 F 
ATOM     68  C   UNL A   1      41.653  31.188  36.005  1.00  0.00     0.022 A 
BRANCH  66  69
ATOM     69  S   UNL A   1      41.220  28.741  34.835  1.00  0.00     0.127 S 
ATOM     70  O   UNL A   1      42.409  28.006  34.410  1.00  0.00    -0.237 OA
ATOM     71  O   UNL A   1      40.847  28.541  36.237  1.00  0.00    -0.237 OA
ATOM     72  O   UNL A   1      40.093  28.704  33.912  1.00  0.00    -0.744 OA
ENDBRANCH  66  69
ENDBRANCH  39  62
ENDBRANCH  13  14
ENDBRANCH   6   8
ENDBRANCH   5   6
ENDBRANCH   4   5
ENDBRANCH   3   4
ENDBRANCH   2   3
ENDBRANCH   1   2
BRANCH   1  73
ATOM     73  C   UNL A   1      36.271  21.048  25.181  1.00  0.00     0.261 C 
BRANCH  73  74
ATOM     74  O   UNL A   1      35.722  22.212  24.531  1.00  0.00    -0.460 OA
BRANCH  74  75
ATOM     75  C   UNL A   1      35.369  23.244  25.337  1.00  0.00     0.338 C 
ATOM     76  O   UNL A   1      35.697  23.423  26.501  1.00  0.00    -0.246 OA
BRANCH  75  77
ATOM     77  C   UNL A   1      34.655  24.262  24.533  1.00  0.00     0.061 A 
ATOM     78  C   UNL A   1      34.320  23.980  23.212  1.00  0.00     0.019 A 
ATOM     79  C   UNL A   1      34.324  25.511  25.120  1.00  0.00     0.038 A 
ATOM     80  C   UNL A   1      33.622  24.945  22.516  1.00  0.00    -0.043 A 
ATOM     81  C   UNL A   1      33.648  26.509  24.385  1.00  0.00     0.092 A 
ATOM     82  C   UNL A   1      33.330  26.215  23.066  1.00  0.00    -0.024 A 
ATOM     83  C   UNL A   1      33.053  24.809  21.134  1.00  0.00     0.036 C 
ATOM     84  C   UNL A   1      32.687  27.034  21.992  1.00  0.00     0.037 C 
ATOM     85  C   UNL A   1      32.003  25.918  21.194  1.00  0.00     0.010 C 
BRANCH  81  86
ATOM     86  S   UNL A   1      33.446  28.129  25.104  1.00  0.00     0.262 S 
ATOM     87  O   UNL A   1      34.261  28.171  26.303  1.00  0.00    -0.201 OA
ATOM     88  O   UNL A   1      33.670  29.100  24.054  1.00  0.00    -0.201 OA
BRANCH  86  89
ATOM     89  N   UNL A   1      31.856  28.429  25.669  1.00  0.00    -0.277 N 
ATOM     90  H   UNL A   1      31.724  28.671  26.614  1.00  0.00     0.180 HD
BRANCH  89  91
ATOM     91  C   UNL A   1      30.710  28.338  24.810  1.00  0.00     0.075 A 
ATOM     92  C   UNL A   1      30.263  29.501  24.154  1.00  0.00     0.042 A 
ATOM     93  C   UNL A   1      30.106  27.107  24.511  1.00  0.00     0.089 A 
ATOM     94  C   UNL A   1      29.280  29.431  23.144  1.00  0.00     0.058 A 
ATOM     95  C   UNL A   1      29.110  27.036  23.525  1.00  0.00     0.031 A 
ATOM     96  C   UNL A   1      28.698  28.189  22.851  1.00  0.00     0.015 A 
BRANCH  93  97
ATOM     97  N   UNL A   1      30.513  25.910  25.150  1.00  0.00    -0.239 N 
ATOM     98  C   UNL A   1      30.658  24.658  24.596  1.00  0.00     0.115 A 
ATOM     99  N   UNL A   1      30.711  25.881  26.492  1.00  0.00    -0.177 NA
ATOM    100  C   UNL A   1      30.735  23.768  25.638  1.00  0.00     0.042 A 
ATOM    101  C   UNL A   1      30.727  24.576  26.785  1.00  0.00     0.135 A 
ENDBRANCH  93  97
BRANCH  94 102
ATOM    102  C   UNL A   1      28.926  30.657  22.332  1.00  0.00     0.416 C 
ATOM    103  F   UNL A   1      29.521  30.669  21.109  1.00  0.00    -0.166 F 
ATOM    104  F   UNL A   1      27.588  30.758  22.103  1.00  0.00    -0.166 F 
ATOM    105  F   UNL A   1      29.284  31.827  22.935  1.00  0.00    -0.166 F 
ENDBRANCH  94 102
ENDBRANCH  89  91
ENDBRANCH  86  89
ENDBRANCH  81  86
ENDBRANCH  75  77
ENDBRANCH  74  75
ENDBRANCH  73  74
ENDBRANCH   1  73
TORSDOF 22
ENDMDL
MODEL 3
REMARK VINA RESULT:     -11.5      3.785      5.696
REMARK SMILES O=C(OCCOCCOC(=O)c1cc2c(c(S(=O)(=O)Nc3cc(C(F)(F)F)ccc3-n3cccn3)c1)CCC2)c1ccc(-c2c3nc(c(-c4cccc(S(=O)(=O)[O-])c4F)c4ccc([nH]4)c(-c4cccc(S(=O)(=O)[O-])c4F)c4nc(c(-c5cccc(S(=O)(=O)[O-])c5F)c5ccc2[nH]5)C=C4)C=C3)cc1
REMARK SMILES IDX 7 1 6 2 5 3 4 4 3 5 2 6 1 7 40 8 41 9 102 10 42 11 101 12
REMARK SMILES IDX 43 13 44 14 45 15 95 16 46 17 100 18 94 19 96 20 47 21 99 22
REMARK SMILES IDX 93 23 92 24 48 26 80 27 60 28 79 29 61 30 64 31 78 32 97 33
REMARK SMILES IDX 62 34 63 35 77 37 98 38 65 39 49 40 50 41 58 42 51 43 53 44
REMARK SMILES IDX 59 45 52 46 54 47 55 48 56 49 57 50 81 51 82 52 90 53 83 54
REMARK SMILES IDX 85 55 91 56 84 57 86 58 87 59 88 60 89 61 66 62 67 63 75 64
REMARK SMILES IDX 68 65 70 66 76 67 69 68 71 69 72 70 73 71 74 72 8 73 9 74
REMARK SMILES IDX 10 75 11 76 12 77 13 78 36 79 14 80 16 81 15 82 39 83 37 84
REMARK SMILES IDX 38 85 17 86 18 87 19 88 20 89 21 91 22 92 30 93 23 94 29 95
REMARK SMILES IDX 28 96 31 97 32 98 35 99 33 100 34 101 24 102 25 103 26 104
REMARK SMILES IDX 27 105
REMARK H PARENT 96 25 64 36 20 90
REMARK Flexibility Score: inf
ROOT
ATOM      1  C   UNL A   1      44.179  19.865  24.571  1.00  0.00     0.202 C 
ENDROOT
BRANCH   1   2
ATOM      2  O   UNL A   1      44.481  21.179  25.066  1.00  0.00    -0.374 OA
BRANCH   2   3
ATOM      3  C   UNL A   1      44.856  22.160  24.106  1.00  0.00     0.202 C 
BRANCH   3   4
ATOM      4  C   UNL A   1      44.968  23.613  24.563  1.00  0.00     0.261 C 
BRANCH   4   5
ATOM      5  O   UNL A   1      43.741  24.153  25.088  1.00  0.00    -0.460 OA
BRANCH   5   6
ATOM      6  C   UNL A   1      43.567  24.591  26.356  1.00  0.00     0.338 C 
ATOM      7  O   UNL A   1      43.585  23.794  27.291  1.00  0.00    -0.246 OA
BRANCH   6   8
ATOM      8  C   UNL A   1      43.612  26.051  26.624  1.00  0.00     0.060 A 
ATOM      9  C   UNL A   1      44.572  26.674  27.419  1.00  0.00     0.016 A 
ATOM     10  C   UNL A   1      42.531  26.805  26.141  1.00  0.00     0.016 A 
ATOM     11  C   UNL A   1      44.302  27.893  27.990  1.00  0.00     0.010 A 
ATOM     12  C   UNL A   1      42.299  28.074  26.638  1.00  0.00     0.010 A 
ATOM     13  C   UNL A   1      43.124  28.548  27.651  1.00  0.00    -0.014 A 
BRANCH  13  14
ATOM     14  C   UNL A   1      42.852  29.781  28.359  1.00  0.00     0.031 A 
ATOM     15  C   UNL A   1      43.884  30.828  28.143  1.00  0.00     0.074 A 
ATOM     16  C   UNL A   1      41.739  29.922  29.101  1.00  0.00     0.049 A 
ATOM     17  N   UNL A   1      44.653  31.390  29.020  1.00  0.00    -0.248 NA
ATOM     18  C   UNL A   1      44.238  31.139  26.749  1.00  0.00     0.031 C 
ATOM     19  C   UNL A   1      40.584  29.021  29.165  1.00  0.00     0.029 A 
ATOM     20  N   UNL A   1      41.334  30.992  29.833  1.00  0.00    -0.354 N 
ATOM     21  C   UNL A   1      45.425  32.302  28.301  1.00  0.00     0.074 A 
ATOM     22  C   UNL A   1      45.283  31.948  26.916  1.00  0.00     0.031 C 
ATOM     23  C   UNL A   1      39.518  29.710  29.629  1.00  0.00     0.029 A 
ATOM     24  C   UNL A   1      39.957  31.038  30.016  1.00  0.00     0.049 A 
ATOM     25  H   UNL A   1      41.952  31.667  30.197  1.00  0.00     0.167 HD
ATOM     26  C   UNL A   1      45.887  33.443  28.881  1.00  0.00     0.034 A 
ATOM     27  C   UNL A   1      39.229  32.134  30.337  1.00  0.00     0.034 A 
ATOM     28  C   UNL A   1      45.933  33.311  30.317  1.00  0.00     0.049 A 
ATOM     29  C   UNL A   1      40.160  33.134  30.910  1.00  0.00     0.074 A 
ATOM     30  C   UNL A   1      46.581  32.472  31.200  1.00  0.00     0.029 A 
ATOM     31  N   UNL A   1      44.924  33.907  31.034  1.00  0.00    -0.354 N 
ATOM     32  N   UNL A   1      40.783  32.967  32.045  1.00  0.00    -0.248 NA
ATOM     33  C   UNL A   1      40.750  34.111  30.009  1.00  0.00     0.031 C 
ATOM     34  C   UNL A   1      45.646  32.255  32.255  1.00  0.00     0.029 A 
ATOM     35  C   UNL A   1      44.509  33.020  31.986  1.00  0.00     0.049 A 
ATOM     36  H   UNL A   1      44.565  34.812  30.886  1.00  0.00     0.167 HD
ATOM     37  C   UNL A   1      42.062  33.457  31.811  1.00  0.00     0.074 A 
ATOM     38  C   UNL A   1      41.948  34.245  30.584  1.00  0.00     0.031 C 
ATOM     39  C   UNL A   1      43.146  32.936  32.459  1.00  0.00     0.034 A 
BRANCH  26  40
ATOM     40  C   UNL A   1      45.857  34.807  28.209  1.00  0.00     0.023 A 
ATOM     41  C   UNL A   1      47.079  35.519  28.168  1.00  0.00     0.012 A 
ATOM     42  C   UNL A   1      44.686  35.547  27.917  1.00  0.00     0.148 A 
ATOM     43  C   UNL A   1      47.118  36.905  27.977  1.00  0.00     0.002 A 
ATOM     44  C   UNL A   1      44.735  36.914  27.675  1.00  0.00     0.091 A 
ATOM     45  F   UNL A   1      43.485  34.973  27.971  1.00  0.00    -0.205 F 
ATOM     46  C   UNL A   1      45.943  37.606  27.744  1.00  0.00     0.022 A 
BRANCH  44  47
ATOM     47  S   UNL A   1      43.243  37.864  27.341  1.00  0.00     0.127 S 
ATOM     48  O   UNL A   1      42.569  37.008  26.369  1.00  0.00    -0.237 OA
ATOM     49  O   UNL A   1      42.620  37.913  28.664  1.00  0.00    -0.237 OA
ATOM     50  O   UNL A   1      43.695  39.158  26.847  1.00  0.00    -0.744 OA
ENDBRANCH  44  47
ENDBRANCH  26  40
BRANCH  27  51
ATOM     51  C   UNL A   1      37.866  32.493  29.878  1.00  0.00     0.023 A 
ATOM     52  C   UNL A   1      37.402  32.018  28.637  1.00  0.00     0.012 A 
ATOM     53  C   UNL A   1      36.929  33.081  30.759  1.00  0.00     0.148 A 
ATOM     54  C   UNL A   1      36.047  32.105  28.294  1.00  0.00     0.002 A 
ATOM     55  C   UNL A   1      35.588  33.180  30.409  1.00  0.00     0.091 A 
ATOM     56  F   UNL A   1      37.336  33.457  31.979  1.00  0.00    -0.205 F 
ATOM     57  C   UNL A   1      35.140  32.682  29.179  1.00  0.00     0.022 A 
BRANCH  55  58
ATOM     58  S   UNL A   1      34.360  33.900  31.508  1.00  0.00     0.127 S 
ATOM     59  O   UNL A   1      33.360  34.396  30.560  1.00  0.00    -0.237 OA
ATOM     60  O   UNL A   1      33.938  32.742  32.291  1.00  0.00    -0.237 OA
ATOM     61  O   UNL A   1      35.053  34.947  32.248  1.00  0.00    -0.744 OA
ENDBRANCH  55  58
ENDBRANCH  27  51
BRANCH  39  62
ATOM     62  C   UNL A   1      42.900  31.986  33.604  1.00  0.00     0.023 A 
ATOM     63  C   UNL A   1      42.684  32.435  34.924  1.00  0.00     0.012 A 
ATOM     64  C   UNL A   1      42.699  30.628  33.307  1.00  0.00     0.148 A 
ATOM     65  C   UNL A   1      42.297  31.543  35.929  1.00  0.00     0.002 A 
ATOM     66  C   UNL A   1      42.269  29.754  34.297  1.00  0.00     0.091 A 
ATOM     67  F   UNL A   1      42.901  30.220  32.044  1.00  0.00    -0.205 F 
ATOM     68  C   UNL A   1      42.077  30.205  35.612  1.00  0.00     0.022 A 
BRANCH  66  69
ATOM     69  S   UNL A   1      41.843  28.054  33.920  1.00  0.00     0.127 S 
ATOM     70  O   UNL A   1      43.154  27.411  33.882  1.00  0.00    -0.237 OA
ATOM     71  O   UNL A   1      41.011  27.676  35.064  1.00  0.00    -0.237 OA
ATOM     72  O   UNL A   1      41.124  28.093  32.653  1.00  0.00    -0.744 OA
ENDBRANCH  66  69
ENDBRANCH  39  62
ENDBRANCH  13  14
ENDBRANCH   6   8
ENDBRANCH   5   6
ENDBRANCH   4   5
ENDBRANCH   3   4
ENDBRANCH   2   3
ENDBRANCH   1   2
BRANCH   1  73
ATOM     73  C   UNL A   1      43.502  18.856  25.511  1.00  0.00     0.261 C 
BRANCH  73  74
ATOM     74  O   UNL A   1      42.098  19.125  25.695  1.00  0.00    -0.460 OA
BRANCH  74  75
ATOM     75  C   UNL A   1      41.718  19.535  26.931  1.00  0.00     0.338 C 
ATOM     76  O   UNL A   1      42.154  19.152  28.007  1.00  0.00    -0.246 OA
BRANCH  75  77
ATOM     77  C   UNL A   1      40.801  20.690  26.795  1.00  0.00     0.061 A 
ATOM     78  C   UNL A   1      41.009  21.826  27.570  1.00  0.00     0.019 A 
ATOM     79  C   UNL A   1      39.721  20.620  25.877  1.00  0.00     0.038 A 
ATOM     80  C   UNL A   1      40.150  22.889  27.380  1.00  0.00    -0.043 A 
ATOM     81  C   UNL A   1      38.822  21.696  25.721  1.00  0.00     0.092 A 
ATOM     82  C   UNL A   1      39.038  22.818  26.508  1.00  0.00    -0.024 A 
ATOM     83  C   UNL A   1      40.261  24.247  28.008  1.00  0.00     0.036 C 
ATOM     84  C   UNL A   1      38.270  24.094  26.655  1.00  0.00     0.037 C 
ATOM     85  C   UNL A   1      39.418  25.044  27.014  1.00  0.00     0.010 C 
BRANCH  81  86
ATOM     86  S   UNL A   1      37.367  21.473  24.712  1.00  0.00     0.262 S 
ATOM     87  O   UNL A   1      37.145  22.717  24.000  1.00  0.00    -0.201 OA
ATOM     88  O   UNL A   1      37.540  20.244  23.967  1.00  0.00    -0.201 OA
BRANCH  86  89
ATOM     89  N   UNL A   1      35.933  21.253  25.625  1.00  0.00    -0.277 N 
ATOM     90  H   UNL A   1      35.942  21.466  26.586  1.00  0.00     0.180 HD
BRANCH  89  91
ATOM     91  C   UNL A   1      34.719  20.766  25.034  1.00  0.00     0.075 A 
ATOM     92  C   UNL A   1      34.535  19.375  24.917  1.00  0.00     0.042 A 
ATOM     93  C   UNL A   1      33.668  21.629  24.687  1.00  0.00     0.089 A 
ATOM     94  C   UNL A   1      33.286  18.838  24.540  1.00  0.00     0.058 A 
ATOM     95  C   UNL A   1      32.431  21.100  24.287  1.00  0.00     0.031 A 
ATOM     96  C   UNL A   1      32.244  19.717  24.209  1.00  0.00     0.015 A 
BRANCH  93  97
ATOM     97  N   UNL A   1      33.805  23.035  24.778  1.00  0.00    -0.239 N 
ATOM     98  C   UNL A   1      33.845  23.954  23.754  1.00  0.00     0.115 A 
ATOM     99  N   UNL A   1      34.028  23.627  25.979  1.00  0.00    -0.177 NA
ATOM    100  C   UNL A   1      34.321  25.125  24.288  1.00  0.00     0.042 A 
ATOM    101  C   UNL A   1      34.450  24.854  25.658  1.00  0.00     0.135 A 
ENDBRANCH  93  97
BRANCH  94 102
ATOM    102  C   UNL A   1      33.050  17.345  24.577  1.00  0.00     0.416 C 
ATOM    103  F   UNL A   1      31.849  17.015  25.122  1.00  0.00    -0.166 F 
ATOM    104  F   UNL A   1      33.069  16.786  23.335  1.00  0.00    -0.166 F 
ATOM    105  F   UNL A   1      33.989  16.667  25.297  1.00  0.00    -0.166 F 
ENDBRANCH  94 102
ENDBRANCH  89  91
ENDBRANCH  86  89
ENDBRANCH  81  86
ENDBRANCH  75  77
ENDBRANCH  74  75
ENDBRANCH  73  74
ENDBRANCH   1  73
TORSDOF 22
ENDMDL
