MODEL 1
REMARK VINA RESULT:     -12.2      0.000      0.000
REMARK SMILES NC(=O)c1c(-c2ccc(Cl)cc2)csc1NC(=O)[C@H]1[C@@H](C(=O)OCCOCCOC(=O)c2ccc(-c3c4nc(c(-c5cccc(S(=O)(=O)[O-])c5F)c5ccc([nH]5)c(-c5cccc(S(=O)(=O)[O-])c5F)c5nc(c(-c6cccc(S(=O)(=O)[O-])c6F)c6ccc3[nH]6)C=C5)C=C4)cc2)[C@@H]2CC[C@H]1O2
REMARK SMILES IDX 26 1 25 2 24 3 23 4 21 5 22 6 20 7 19 8 98 9 95 10 97 11
REMARK SMILES IDX 99 12 96 13 17 14 16 15 18 17 15 18 4 19 5 20 13 21 14 22
REMARK SMILES IDX 2 23 1 24 3 27 6 28 7 29 12 30 8 31 11 32 9 33 10 34 27 35
REMARK SMILES IDX 28 36 29 37 30 38 31 39 32 40 33 41 94 42 34 43 93 44 35 45
REMARK SMILES IDX 36 46 37 47 87 48 38 49 92 50 86 51 88 52 39 53 91 54 85 55
REMARK SMILES IDX 84 56 40 58 72 59 52 60 71 61 53 62 56 63 70 64 89 65 54 66
REMARK SMILES IDX 55 67 69 69 90 70 57 71 41 72 42 73 50 74 43 75 45 76 51 77
REMARK SMILES IDX 44 78 46 79 47 80 48 81 49 82 73 83 74 84 82 85 75 86 77 87
REMARK SMILES IDX 83 88 76 89 78 90 79 91 80 92 81 93 58 94 59 95 67 96 60 97
REMARK SMILES IDX 62 98 68 99 61 100 63 101 64 102 65 103 66 104
REMARK H PARENT 16 16 1 25 1 26 88 57 56 68
REMARK Flexibility Score: inf
ROOT
ATOM      1  O   UNL A   1      32.846  28.816  25.946  1.00  0.00    -0.374 OA
ENDROOT
BRANCH   1   2
ATOM      2  C   UNL A   1      33.618  28.594  24.771  1.00  0.00     0.202 C 
BRANCH   2   3
ATOM      3  C   UNL A   1      33.609  27.188  24.173  1.00  0.00     0.261 C 
BRANCH   3   4
ATOM      4  O   UNL A   1      34.672  26.343  24.638  1.00  0.00    -0.463 OA
BRANCH   4   5
ATOM      5  C   UNL A   1      34.258  25.243  25.337  1.00  0.00     0.312 C 
ATOM      6  O   UNL A   1      33.776  25.275  26.460  1.00  0.00    -0.252 OA
BRANCH   5   7
ATOM      7  C   UNL A   1      34.717  23.998  24.615  1.00  0.00     0.143 C 
ATOM      8  C   UNL A   1      34.158  22.597  24.915  1.00  0.00     0.124 C 
ATOM      9  C   UNL A   1      35.350  21.935  25.641  1.00  0.00     0.132 C 
ATOM     10  C   UNL A   1      36.191  23.829  24.992  1.00  0.00     0.133 C 
ATOM     11  C   UNL A   1      36.430  21.489  24.659  1.00  0.00     0.035 C 
ATOM     12  O   UNL A   1      36.062  23.058  26.210  1.00  0.00    -0.373 OA
ATOM     13  C   UNL A   1      36.884  22.824  24.068  1.00  0.00     0.036 C 
BRANCH   8  14
ATOM     14  C   UNL A   1      32.876  22.358  25.702  1.00  0.00     0.231 C 
ATOM     15  N   UNL A   1      31.689  23.004  25.427  1.00  0.00    -0.317 N 
ATOM     16  H   UNL A   1      30.958  22.717  26.019  1.00  0.00     0.170 HD
ATOM     17  O   UNL A   1      32.843  21.539  26.622  1.00  0.00    -0.274 OA
BRANCH  15  18
ATOM     18  C   UNL A   1      31.281  23.970  24.506  1.00  0.00     0.108 A 
ATOM     19  C   UNL A   1      30.568  25.149  24.771  1.00  0.00     0.082 A 
ATOM     20  C   UNL A   1      30.323  25.890  23.540  1.00  0.00     0.007 A 
ATOM     21  C   UNL A   1      30.852  25.250  22.442  1.00  0.00     0.076 A 
ATOM     22  S   UNL A   1      31.617  23.817  22.859  1.00  0.00    -0.125 S 
BRANCH  19  23
ATOM     23  C   UNL A   1      30.164  25.518  26.129  1.00  0.00     0.252 C 
ATOM     24  N   UNL A   1      29.043  24.921  26.628  1.00  0.00    -0.365 N 
ATOM     25  H   UNL A   1      28.733  25.137  27.536  1.00  0.00     0.159 HD
ATOM     26  H   UNL A   1      28.546  24.274  26.078  1.00  0.00     0.159 HD
ATOM     27  O   UNL A   1      30.811  26.291  26.830  1.00  0.00    -0.269 OA
ENDBRANCH  19  23
BRANCH  20  28
ATOM     28  C   UNL A   1      29.684  27.179  23.304  1.00  0.00    -0.017 A 
ATOM     29  C   UNL A   1      28.318  27.333  23.582  1.00  0.00     0.010 A 
ATOM     30  C   UNL A   1      30.395  28.227  22.710  1.00  0.00     0.010 A 
ATOM     31  C   UNL A   1      27.664  28.522  23.257  1.00  0.00     0.021 A 
ATOM     32  C   UNL A   1      29.738  29.420  22.390  1.00  0.00     0.021 A 
ATOM     33  C   UNL A   1      28.377  29.559  22.660  1.00  0.00     0.041 A 
ATOM     34  Cl  UNL A   1      27.564  31.016  22.242  1.00  0.00    -0.084 Cl
ENDBRANCH  20  28
ENDBRANCH  15  18
ENDBRANCH   8  14
ENDBRANCH   5   7
ENDBRANCH   4   5
ENDBRANCH   3   4
ENDBRANCH   2   3
ENDBRANCH   1   2
BRANCH   1  35
ATOM     35  C   UNL A   1      31.747  29.718  25.796  1.00  0.00     0.202 C 
BRANCH  35  36
ATOM     36  C   UNL A   1      31.931  31.105  26.417  1.00  0.00     0.261 C 
BRANCH  36  37
ATOM     37  O   UNL A   1      32.807  31.051  27.558  1.00  0.00    -0.460 OA
BRANCH  37  38
ATOM     38  C   UNL A   1      33.675  32.089  27.645  1.00  0.00     0.338 C 
ATOM     39  O   UNL A   1      33.415  33.275  27.616  1.00  0.00    -0.246 OA
BRANCH  38  40
ATOM     40  C   UNL A   1      35.015  31.572  27.993  1.00  0.00     0.060 A 
ATOM     41  C   UNL A   1      35.139  30.188  28.171  1.00  0.00     0.016 A 
ATOM     42  C   UNL A   1      36.111  32.416  28.177  1.00  0.00     0.016 A 
ATOM     43  C   UNL A   1      36.346  29.645  28.596  1.00  0.00     0.010 A 
ATOM     44  C   UNL A   1      37.321  31.872  28.618  1.00  0.00     0.010 A 
ATOM     45  C   UNL A   1      37.427  30.491  28.871  1.00  0.00    -0.014 A 
BRANCH  45  46
ATOM     46  C   UNL A   1      38.605  29.943  29.579  1.00  0.00     0.031 A 
ATOM     47  C   UNL A   1      38.912  30.440  30.965  1.00  0.00     0.074 A 
ATOM     48  C   UNL A   1      39.368  28.994  29.008  1.00  0.00     0.049 A 
ATOM     49  N   UNL A   1      39.883  30.098  31.771  1.00  0.00    -0.248 NA
ATOM     50  C   UNL A   1      38.005  31.461  31.516  1.00  0.00     0.031 C 
ATOM     51  C   UNL A   1      39.158  28.432  27.675  1.00  0.00     0.029 A 
ATOM     52  N   UNL A   1      40.485  28.351  29.475  1.00  0.00    -0.354 N 
ATOM     53  C   UNL A   1      39.723  30.880  32.908  1.00  0.00     0.074 A 
ATOM     54  C   UNL A   1      38.571  31.725  32.684  1.00  0.00     0.031 C 
ATOM     55  C   UNL A   1      40.131  27.543  27.420  1.00  0.00     0.029 A 
ATOM     56  C   UNL A   1      41.045  27.493  28.559  1.00  0.00     0.049 A 
ATOM     57  H   UNL A   1      40.852  28.491  30.378  1.00  0.00     0.167 HD
ATOM     58  C   UNL A   1      40.462  30.885  34.042  1.00  0.00     0.034 A 
ATOM     59  C   UNL A   1      42.179  26.767  28.629  1.00  0.00     0.034 A 
ATOM     60  C   UNL A   1      41.599  30.030  34.262  1.00  0.00     0.049 A 
ATOM     61  C   UNL A   1      42.995  26.804  29.894  1.00  0.00     0.074 A 
ATOM     62  C   UNL A   1      42.388  29.923  35.392  1.00  0.00     0.029 A 
ATOM     63  N   UNL A   1      42.117  29.148  33.326  1.00  0.00    -0.354 N 
ATOM     64  N   UNL A   1      42.771  27.468  31.003  1.00  0.00    -0.248 NA
ATOM     65  C   UNL A   1      44.199  25.962  29.932  1.00  0.00     0.031 C 
ATOM     66  C   UNL A   1      43.408  29.004  35.126  1.00  0.00     0.029 A 
ATOM     67  C   UNL A   1      43.225  28.503  33.847  1.00  0.00     0.049 A 
ATOM     68  H   UNL A   1      41.750  29.002  32.425  1.00  0.00     0.167 HD
ATOM     69  C   UNL A   1      43.780  27.093  31.883  1.00  0.00     0.074 A 
ATOM     70  C   UNL A   1      44.605  26.130  31.183  1.00  0.00     0.031 C 
ATOM     71  C   UNL A   1      44.008  27.512  33.153  1.00  0.00     0.034 A 
BRANCH  58  72
ATOM     72  C   UNL A   1      40.061  31.838  35.138  1.00  0.00     0.023 A 
ATOM     73  C   UNL A   1      40.556  33.158  35.139  1.00  0.00     0.012 A 
ATOM     74  C   UNL A   1      39.150  31.442  36.137  1.00  0.00     0.148 A 
ATOM     75  C   UNL A   1      40.179  34.058  36.135  1.00  0.00     0.002 A 
ATOM     76  C   UNL A   1      38.740  32.358  37.098  1.00  0.00     0.091 A 
ATOM     77  F   UNL A   1      38.708  30.176  36.132  1.00  0.00    -0.205 F 
ATOM     78  C   UNL A   1      39.263  33.661  37.106  1.00  0.00     0.022 A 
BRANCH  76  79
ATOM     79  S   UNL A   1      37.503  31.970  38.340  1.00  0.00     0.127 S 
ATOM     80  O   UNL A   1      37.184  30.579  38.016  1.00  0.00    -0.237 OA
ATOM     81  O   UNL A   1      38.251  32.150  39.584  1.00  0.00    -0.237 OA
ATOM     82  O   UNL A   1      36.418  32.920  38.140  1.00  0.00    -0.744 OA
ENDBRANCH  76  79
ENDBRANCH  58  72
BRANCH  59  83
ATOM     83  C   UNL A   1      42.591  25.920  27.474  1.00  0.00     0.023 A 
ATOM     84  C   UNL A   1      43.408  26.463  26.465  1.00  0.00     0.012 A 
ATOM     85  C   UNL A   1      42.188  24.573  27.381  1.00  0.00     0.148 A 
ATOM     86  C   UNL A   1      43.789  25.691  25.366  1.00  0.00     0.002 A 
ATOM     87  C   UNL A   1      42.619  23.793  26.316  1.00  0.00     0.091 A 
ATOM     88  F   UNL A   1      41.399  24.080  28.346  1.00  0.00    -0.205 F 
ATOM     89  C   UNL A   1      43.403  24.355  25.297  1.00  0.00     0.022 A 
BRANCH  87  90
ATOM     90  S   UNL A   1      42.281  22.032  26.213  1.00  0.00     0.127 S 
ATOM     91  O   UNL A   1      40.837  22.015  25.998  1.00  0.00    -0.237 OA
ATOM     92  O   UNL A   1      43.082  21.640  25.053  1.00  0.00    -0.237 OA
ATOM     93  O   UNL A   1      42.738  21.467  27.477  1.00  0.00    -0.744 OA
ENDBRANCH  87  90
ENDBRANCH  59  83
BRANCH  71  94
ATOM     94  C   UNL A   1      45.166  26.895  33.894  1.00  0.00     0.023 A 
ATOM     95  C   UNL A   1      46.430  27.517  33.882  1.00  0.00     0.012 A 
ATOM     96  C   UNL A   1      44.980  25.724  34.657  1.00  0.00     0.148 A 
ATOM     97  C   UNL A   1      47.502  26.960  34.580  1.00  0.00     0.002 A 
ATOM     98  C   UNL A   1      46.037  25.205  35.395  1.00  0.00     0.091 A 
ATOM     99  F   UNL A   1      43.775  25.136  34.644  1.00  0.00    -0.205 F 
ATOM    100  C   UNL A   1      47.302  25.813  35.345  1.00  0.00     0.022 A 
BRANCH  98 101
ATOM    101  S   UNL A   1      45.847  23.792  36.487  1.00  0.00     0.127 S 
ATOM    102  O   UNL A   1      44.890  22.971  35.746  1.00  0.00    -0.237 OA
ATOM    103  O   UNL A   1      47.206  23.251  36.533  1.00  0.00    -0.237 OA
ATOM    104  O   UNL A   1      45.365  24.323  37.754  1.00  0.00    -0.744 OA
ENDBRANCH  98 101
ENDBRANCH  71  94
ENDBRANCH  45  46
ENDBRANCH  38  40
ENDBRANCH  37  38
ENDBRANCH  36  37
ENDBRANCH  35  36
ENDBRANCH   1  35
TORSDOF 21
ENDMDL
MODEL 2
REMARK VINA RESULT:     -11.9      5.001      9.948
REMARK SMILES NC(=O)c1c(-c2ccc(Cl)cc2)csc1NC(=O)[C@H]1[C@@H](C(=O)OCCOCCOC(=O)c2ccc(-c3c4nc(c(-c5cccc(S(=O)(=O)[O-])c5F)c5ccc([nH]5)c(-c5cccc(S(=O)(=O)[O-])c5F)c5nc(c(-c6cccc(S(=O)(=O)[O-])c6F)c6ccc3[nH]6)C=C5)C=C4)cc2)[C@@H]2CC[C@H]1O2
REMARK SMILES IDX 26 1 25 2 24 3 23 4 21 5 22 6 20 7 19 8 98 9 95 10 97 11
REMARK SMILES IDX 99 12 96 13 17 14 16 15 18 17 15 18 4 19 5 20 13 21 14 22
REMARK SMILES IDX 2 23 1 24 3 27 6 28 7 29 12 30 8 31 11 32 9 33 10 34 27 35
REMARK SMILES IDX 28 36 29 37 30 38 31 39 32 40 33 41 94 42 34 43 93 44 35 45
REMARK SMILES IDX 36 46 37 47 87 48 38 49 92 50 86 51 88 52 39 53 91 54 85 55
REMARK SMILES IDX 84 56 40 58 72 59 52 60 71 61 53 62 56 63 70 64 89 65 54 66
REMARK SMILES IDX 55 67 69 69 90 70 57 71 41 72 42 73 50 74 43 75 45 76 51 77
REMARK SMILES IDX 44 78 46 79 47 80 48 81 49 82 73 83 74 84 82 85 75 86 77 87
REMARK SMILES IDX 83 88 76 89 78 90 79 91 80 92 81 93 58 94 59 95 67 96 60 97
REMARK SMILES IDX 62 98 68 99 61 100 63 101 64 102 65 103 66 104
REMARK H PARENT 16 16 1 25 1 26 88 57 56 68
REMARK Flexibility Score: inf
ROOT
ATOM      1  O   UNL A   1      35.871  23.275  24.548  1.00  0.00    -0.374 OA
ENDROOT
BRANCH   1   2
ATOM      2  C   UNL A   1      35.268  23.681  25.772  1.00  0.00     0.202 C 
BRANCH   2   3
ATOM      3  C   UNL A   1      34.303  24.864  25.729  1.00  0.00     0.261 C 
BRANCH   3   4
ATOM      4  O   UNL A   1      34.784  25.991  24.982  1.00  0.00    -0.463 OA
BRANCH   4   5
ATOM      5  C   UNL A   1      33.803  26.813  24.500  1.00  0.00     0.312 C 
ATOM      6  O   UNL A   1      33.693  27.150  23.330  1.00  0.00    -0.252 OA
BRANCH   5   7
ATOM      7  C   UNL A   1      33.054  27.420  25.662  1.00  0.00     0.143 C 
ATOM      8  C   UNL A   1      31.611  27.942  25.551  1.00  0.00     0.124 C 
ATOM      9  C   UNL A   1      31.826  29.469  25.621  1.00  0.00     0.132 C 
ATOM     10  C   UNL A   1      33.817  28.699  26.016  1.00  0.00     0.133 C 
ATOM     11  C   UNL A   1      32.077  29.939  27.052  1.00  0.00     0.035 C 
ATOM     12  O   UNL A   1      33.174  29.641  25.126  1.00  0.00    -0.373 OA
ATOM     13  C   UNL A   1      33.391  29.234  27.385  1.00  0.00     0.036 C 
BRANCH   8  14
ATOM     14  C   UNL A   1      30.684  27.602  24.392  1.00  0.00     0.231 C 
ATOM     15  N   UNL A   1      30.296  26.314  24.087  1.00  0.00    -0.317 N 
ATOM     16  H   UNL A   1      29.680  26.278  23.320  1.00  0.00     0.170 HD
ATOM     17  O   UNL A   1      30.215  28.490  23.678  1.00  0.00    -0.274 OA
BRANCH  15  18
ATOM     18  C   UNL A   1      30.569  25.050  24.611  1.00  0.00     0.108 A 
ATOM     19  C   UNL A   1      31.378  24.053  24.045  1.00  0.00     0.082 A 
ATOM     20  C   UNL A   1      31.404  22.868  24.894  1.00  0.00     0.007 A 
ATOM     21  C   UNL A   1      30.637  23.032  26.026  1.00  0.00     0.076 A 
ATOM     22  S   UNL A   1      29.912  24.543  26.081  1.00  0.00    -0.125 S 
BRANCH  19  23
ATOM     23  C   UNL A   1      32.072  24.253  22.771  1.00  0.00     0.252 C 
ATOM     24  N   UNL A   1      31.448  25.029  21.839  1.00  0.00    -0.365 N 
ATOM     25  H   UNL A   1      31.876  25.193  20.968  1.00  0.00     0.159 HD
ATOM     26  H   UNL A   1      30.570  25.426  22.038  1.00  0.00     0.159 HD
ATOM     27  O   UNL A   1      33.187  23.795  22.541  1.00  0.00    -0.269 OA
ENDBRANCH  19  23
BRANCH  20  28
ATOM     28  C   UNL A   1      32.131  21.611  24.769  1.00  0.00    -0.017 A 
ATOM     29  C   UNL A   1      32.111  20.921  23.548  1.00  0.00     0.010 A 
ATOM     30  C   UNL A   1      32.761  21.040  25.880  1.00  0.00     0.010 A 
ATOM     31  C   UNL A   1      32.705  19.663  23.442  1.00  0.00     0.021 A 
ATOM     32  C   UNL A   1      33.359  19.781  25.769  1.00  0.00     0.021 A 
ATOM     33  C   UNL A   1      33.324  19.097  24.554  1.00  0.00     0.041 A 
ATOM     34  Cl  UNL A   1      34.038  17.538  24.426  1.00  0.00    -0.084 Cl
ENDBRANCH  20  28
ENDBRANCH  15  18
ENDBRANCH   8  14
ENDBRANCH   5   7
ENDBRANCH   4   5
ENDBRANCH   3   4
ENDBRANCH   2   3
ENDBRANCH   1   2
BRANCH   1  35
ATOM     35  C   UNL A   1      35.995  21.863  24.364  1.00  0.00     0.202 C 
BRANCH  35  36
ATOM     36  C   UNL A   1      37.407  21.292  24.514  1.00  0.00     0.261 C 
BRANCH  36  37
ATOM     37  O   UNL A   1      37.790  21.210  25.899  1.00  0.00    -0.460 OA
BRANCH  37  38
ATOM     38  C   UNL A   1      39.129  21.146  26.106  1.00  0.00     0.338 C 
ATOM     39  O   UNL A   1      39.899  20.297  25.706  1.00  0.00    -0.246 OA
BRANCH  38  40
ATOM     40  C   UNL A   1      39.582  22.401  26.742  1.00  0.00     0.060 A 
ATOM     41  C   UNL A   1      38.911  23.578  26.381  1.00  0.00     0.016 A 
ATOM     42  C   UNL A   1      40.652  22.436  27.635  1.00  0.00     0.016 A 
ATOM     43  C   UNL A   1      39.349  24.805  26.864  1.00  0.00     0.010 A 
ATOM     44  C   UNL A   1      41.101  23.672  28.111  1.00  0.00     0.010 A 
ATOM     45  C   UNL A   1      40.478  24.862  27.689  1.00  0.00    -0.014 A 
BRANCH  45  46
ATOM     46  C   UNL A   1      41.096  26.176  27.971  1.00  0.00     0.031 A 
ATOM     47  C   UNL A   1      42.498  26.435  27.489  1.00  0.00     0.074 A 
ATOM     48  C   UNL A   1      40.407  27.134  28.616  1.00  0.00     0.049 A 
ATOM     49  N   UNL A   1      43.231  27.509  27.615  1.00  0.00    -0.248 NA
ATOM     50  C   UNL A   1      43.161  25.335  26.769  1.00  0.00     0.031 C 
ATOM     51  C   UNL A   1      39.042  26.997  29.119  1.00  0.00     0.029 A 
ATOM     52  N   UNL A   1      40.774  28.406  28.974  1.00  0.00    -0.354 N 
ATOM     53  C   UNL A   1      44.450  27.206  27.021  1.00  0.00     0.074 A 
ATOM     54  C   UNL A   1      44.364  25.843  26.547  1.00  0.00     0.031 C 
ATOM     55  C   UNL A   1      38.692  28.134  29.743  1.00  0.00     0.029 A 
ATOM     56  C   UNL A   1      39.816  29.066  29.706  1.00  0.00     0.049 A 
ATOM     57  H   UNL A   1      41.640  28.807  28.731  1.00  0.00     0.167 HD
ATOM     58  C   UNL A   1      45.539  27.997  26.873  1.00  0.00     0.034 A 
ATOM     59  C   UNL A   1      39.856  30.278  30.295  1.00  0.00     0.034 A 
ATOM     60  C   UNL A   1      45.610  29.357  27.336  1.00  0.00     0.049 A 
ATOM     61  C   UNL A   1      41.086  31.131  30.132  1.00  0.00     0.074 A 
ATOM     62  C   UNL A   1      46.649  30.260  27.197  1.00  0.00     0.029 A 
ATOM     63  N   UNL A   1      44.609  30.005  28.043  1.00  0.00    -0.354 N 
ATOM     64  N   UNL A   1      42.191  30.871  29.476  1.00  0.00    -0.248 NA
ATOM     65  C   UNL A   1      41.060  32.459  30.761  1.00  0.00     0.031 C 
ATOM     66  C   UNL A   1      46.291  31.441  27.854  1.00  0.00     0.029 A 
ATOM     67  C   UNL A   1      45.010  31.291  28.360  1.00  0.00     0.049 A 
ATOM     68  H   UNL A   1      43.741  29.609  28.284  1.00  0.00     0.167 HD
ATOM     69  C   UNL A   1      42.973  32.017  29.575  1.00  0.00     0.074 A 
ATOM     70  C   UNL A   1      42.206  32.977  30.342  1.00  0.00     0.031 C 
ATOM     71  C   UNL A   1      44.216  32.252  29.084  1.00  0.00     0.034 A 
BRANCH  58  72
ATOM     72  C   UNL A   1      46.740  27.414  26.175  1.00  0.00     0.023 A 
ATOM     73  C   UNL A   1      46.888  27.570  24.781  1.00  0.00     0.012 A 
ATOM     74  C   UNL A   1      47.749  26.759  26.907  1.00  0.00     0.148 A 
ATOM     75  C   UNL A   1      48.004  27.052  24.123  1.00  0.00     0.002 A 
ATOM     76  C   UNL A   1      48.881  26.289  26.253  1.00  0.00     0.091 A 
ATOM     77  F   UNL A   1      47.579  26.601  28.228  1.00  0.00    -0.205 F 
ATOM     78  C   UNL A   1      49.004  26.424  24.860  1.00  0.00     0.022 A 
BRANCH  76  79
ATOM     79  S   UNL A   1      50.262  25.540  27.122  1.00  0.00     0.127 S 
ATOM     80  O   UNL A   1      49.654  24.315  27.642  1.00  0.00    -0.237 OA
ATOM     81  O   UNL A   1      51.227  25.331  26.043  1.00  0.00    -0.237 OA
ATOM     82  O   UNL A   1      50.676  26.506  28.131  1.00  0.00    -0.744 OA
ENDBRANCH  76  79
ENDBRANCH  58  72
BRANCH  59  83
ATOM     83  C   UNL A   1      38.679  30.766  31.068  1.00  0.00     0.023 A 
ATOM     84  C   UNL A   1      38.647  30.609  32.467  1.00  0.00     0.012 A 
ATOM     85  C   UNL A   1      37.599  31.400  30.423  1.00  0.00     0.148 A 
ATOM     86  C   UNL A   1      37.545  31.044  33.205  1.00  0.00     0.002 A 
ATOM     87  C   UNL A   1      36.533  31.883  31.169  1.00  0.00     0.091 A 
ATOM     88  F   UNL A   1      37.644  31.528  29.089  1.00  0.00    -0.205 F 
ATOM     89  C   UNL A   1      36.494  31.689  32.559  1.00  0.00     0.022 A 
BRANCH  87  90
ATOM     90  S   UNL A   1      35.201  32.842  30.439  1.00  0.00     0.127 S 
ATOM     91  O   UNL A   1      35.923  33.983  29.882  1.00  0.00    -0.237 OA
ATOM     92  O   UNL A   1      34.667  31.907  29.448  1.00  0.00    -0.237 OA
ATOM     93  O   UNL A   1      34.287  33.145  31.532  1.00  0.00    -0.744 OA
ENDBRANCH  87  90
ENDBRANCH  59  83
BRANCH  71  94
ATOM     94  C   UNL A   1      44.809  33.618  29.311  1.00  0.00     0.023 A 
ATOM     95  C   UNL A   1      45.487  33.908  30.511  1.00  0.00     0.012 A 
ATOM     96  C   UNL A   1      44.746  34.598  28.300  1.00  0.00     0.148 A 
ATOM     97  C   UNL A   1      46.054  35.165  30.720  1.00  0.00     0.002 A 
ATOM     98  C   UNL A   1      45.362  35.829  28.491  1.00  0.00     0.091 A 
ATOM     99  F   UNL A   1      44.083  34.311  27.170  1.00  0.00    -0.205 F 
ATOM    100  C   UNL A   1      46.001  36.120  29.707  1.00  0.00     0.022 A 
BRANCH  98 101
ATOM    101  S   UNL A   1      45.432  37.081  27.206  1.00  0.00     0.127 S 
ATOM    102  O   UNL A   1      46.069  36.349  26.112  1.00  0.00    -0.237 OA
ATOM    103  O   UNL A   1      44.016  37.385  26.992  1.00  0.00    -0.237 OA
ATOM    104  O   UNL A   1      46.209  38.182  27.757  1.00  0.00    -0.744 OA
ENDBRANCH  98 101
ENDBRANCH  71  94
ENDBRANCH  45  46
ENDBRANCH  38  40
ENDBRANCH  37  38
ENDBRANCH  36  37
ENDBRANCH  35  36
ENDBRANCH   1  35
TORSDOF 21
ENDMDL
MODEL 3
REMARK VINA RESULT:     -11.8      2.213      4.124
REMARK SMILES NC(=O)c1c(-c2ccc(Cl)cc2)csc1NC(=O)[C@H]1[C@@H](C(=O)OCCOCCOC(=O)c2ccc(-c3c4nc(c(-c5cccc(S(=O)(=O)[O-])c5F)c5ccc([nH]5)c(-c5cccc(S(=O)(=O)[O-])c5F)c5nc(c(-c6cccc(S(=O)(=O)[O-])c6F)c6ccc3[nH]6)C=C5)C=C4)cc2)[C@@H]2CC[C@H]1O2
REMARK SMILES IDX 26 1 25 2 24 3 23 4 21 5 22 6 20 7 19 8 98 9 95 10 97 11
REMARK SMILES IDX 99 12 96 13 17 14 16 15 18 17 15 18 4 19 5 20 13 21 14 22
REMARK SMILES IDX 2 23 1 24 3 27 6 28 7 29 12 30 8 31 11 32 9 33 10 34 27 35
REMARK SMILES IDX 28 36 29 37 30 38 31 39 32 40 33 41 94 42 34 43 93 44 35 45
REMARK SMILES IDX 36 46 37 47 87 48 38 49 92 50 86 51 88 52 39 53 91 54 85 55
REMARK SMILES IDX 84 56 40 58 72 59 52 60 71 61 53 62 56 63 70 64 89 65 54 66
REMARK SMILES IDX 55 67 69 69 90 70 57 71 41 72 42 73 50 74 43 75 45 76 51 77
REMARK SMILES IDX 44 78 46 79 47 80 48 81 49 82 73 83 74 84 82 85 75 86 77 87
REMARK SMILES IDX 83 88 76 89 78 90 79 91 80 92 81 93 58 94 59 95 67 96 60 97
REMARK SMILES IDX 62 98 68 99 61 100 63 101 64 102 65 103 66 104
REMARK H PARENT 16 16 1 25 1 26 88 57 56 68
REMARK Flexibility Score: inf
ROOT
ATOM      1  O   UNL A   1      31.871  30.426  25.926  1.00  0.00    -0.374 OA
ENDROOT
BRANCH   1   2
ATOM      2  C   UNL A   1      32.009  29.580  27.063  1.00  0.00     0.202 C 
BRANCH   2   3
ATOM      3  C   UNL A   1      31.355  28.201  27.004  1.00  0.00     0.261 C 
BRANCH   3   4
ATOM      4  O   UNL A   1      31.068  27.741  25.675  1.00  0.00    -0.463 OA
BRANCH   4   5
ATOM      5  C   UNL A   1      30.840  26.396  25.577  1.00  0.00     0.312 C 
ATOM      6  O   UNL A   1      30.315  25.716  26.446  1.00  0.00    -0.252 OA
BRANCH   5   7
ATOM      7  C   UNL A   1      31.555  25.862  24.359  1.00  0.00     0.143 C 
ATOM      8  C   UNL A   1      33.087  25.762  24.259  1.00  0.00     0.124 C 
ATOM      9  C   UNL A   1      33.408  26.893  23.258  1.00  0.00     0.132 C 
ATOM     10  C   UNL A   1      31.238  26.852  23.234  1.00  0.00     0.133 C 
ATOM     11  C   UNL A   1      33.109  26.476  21.820  1.00  0.00     0.035 C 
ATOM     12  O   UNL A   1      32.304  27.812  23.423  1.00  0.00    -0.373 OA
ATOM     13  C   UNL A   1      31.596  26.265  21.866  1.00  0.00     0.036 C 
BRANCH   8  14
ATOM     14  C   UNL A   1      34.012  25.860  25.465  1.00  0.00     0.231 C 
ATOM     15  N   UNL A   1      34.821  24.824  25.882  1.00  0.00    -0.317 N 
ATOM     16  H   UNL A   1      35.368  25.065  26.664  1.00  0.00     0.170 HD
ATOM     17  O   UNL A   1      34.093  26.904  26.115  1.00  0.00    -0.274 OA
BRANCH  15  18
ATOM     18  C   UNL A   1      35.047  23.515  25.456  1.00  0.00     0.108 A 
ATOM     19  C   UNL A   1      34.275  22.381  25.749  1.00  0.00     0.082 A 
ATOM     20  C   UNL A   1      34.847  21.193  25.125  1.00  0.00     0.007 A 
ATOM     21  C   UNL A   1      35.988  21.488  24.413  1.00  0.00     0.076 A 
ATOM     22  S   UNL A   1      36.366  23.120  24.479  1.00  0.00    -0.125 S 
BRANCH  19  23
ATOM     23  C   UNL A   1      33.067  22.461  26.573  1.00  0.00     0.252 C 
ATOM     24  N   UNL A   1      33.184  22.094  27.882  1.00  0.00    -0.365 N 
ATOM     25  H   UNL A   1      32.400  22.132  28.476  1.00  0.00     0.159 HD
ATOM     26  H   UNL A   1      34.053  21.793  28.232  1.00  0.00     0.159 HD
ATOM     27  O   UNL A   1      31.996  22.880  26.147  1.00  0.00    -0.269 OA
ENDBRANCH  19  23
BRANCH  20  28
ATOM     28  C   UNL A   1      34.389  19.811  25.089  1.00  0.00    -0.017 A 
ATOM     29  C   UNL A   1      35.270  18.802  24.672  1.00  0.00     0.010 A 
ATOM     30  C   UNL A   1      33.055  19.495  25.369  1.00  0.00     0.010 A 
ATOM     31  C   UNL A   1      34.819  17.491  24.522  1.00  0.00     0.021 A 
ATOM     32  C   UNL A   1      32.606  18.178  25.222  1.00  0.00     0.021 A 
ATOM     33  C   UNL A   1      33.487  17.185  24.796  1.00  0.00     0.041 A 
ATOM     34  Cl  UNL A   1      32.928  15.572  24.591  1.00  0.00    -0.084 Cl
ENDBRANCH  20  28
ENDBRANCH  15  18
ENDBRANCH   8  14
ENDBRANCH   5   7
ENDBRANCH   4   5
ENDBRANCH   3   4
ENDBRANCH   2   3
ENDBRANCH   1   2
BRANCH   1  35
ATOM     35  C   UNL A   1      31.111  31.618  26.137  1.00  0.00     0.202 C 
BRANCH  35  36
ATOM     36  C   UNL A   1      31.780  32.694  26.994  1.00  0.00     0.261 C 
BRANCH  36  37
ATOM     37  O   UNL A   1      33.213  32.557  26.975  1.00  0.00    -0.460 OA
BRANCH  37  38
ATOM     38  C   UNL A   1      33.853  33.253  27.948  1.00  0.00     0.338 C 
ATOM     39  O   UNL A   1      33.421  34.182  28.599  1.00  0.00    -0.246 OA
BRANCH  38  40
ATOM     40  C   UNL A   1      35.131  32.579  28.264  1.00  0.00     0.060 A 
ATOM     41  C   UNL A   1      35.075  31.211  28.559  1.00  0.00     0.016 A 
ATOM     42  C   UNL A   1      36.342  33.270  28.307  1.00  0.00     0.016 A 
ATOM     43  C   UNL A   1      36.222  30.538  28.962  1.00  0.00     0.010 A 
ATOM     44  C   UNL A   1      37.493  32.596  28.725  1.00  0.00     0.010 A 
ATOM     45  C   UNL A   1      37.426  31.240  29.096  1.00  0.00    -0.014 A 
BRANCH  45  46
ATOM     46  C   UNL A   1      38.564  30.589  29.782  1.00  0.00     0.031 A 
ATOM     47  C   UNL A   1      38.891  31.000  31.192  1.00  0.00     0.074 A 
ATOM     48  C   UNL A   1      39.272  29.624  29.169  1.00  0.00     0.049 A 
ATOM     49  N   UNL A   1      39.833  30.562  31.984  1.00  0.00    -0.248 NA
ATOM     50  C   UNL A   1      38.042  32.047  31.787  1.00  0.00     0.031 C 
ATOM     51  C   UNL A   1      39.038  29.139  27.811  1.00  0.00     0.029 A 
ATOM     52  N   UNL A   1      40.346  28.893  29.610  1.00  0.00    -0.354 N 
ATOM     53  C   UNL A   1      39.713  31.298  33.157  1.00  0.00     0.074 A 
ATOM     54  C   UNL A   1      38.615  32.221  32.968  1.00  0.00     0.031 C 
ATOM     55  C   UNL A   1      39.958  28.205  27.518  1.00  0.00     0.029 A 
ATOM     56  C   UNL A   1      40.859  28.047  28.657  1.00  0.00     0.049 A 
ATOM     57  H   UNL A   1      40.714  28.968  30.520  1.00  0.00     0.167 HD
ATOM     58  C   UNL A   1      40.443  31.204  34.293  1.00  0.00     0.034 A 
ATOM     59  C   UNL A   1      41.947  27.251  28.696  1.00  0.00     0.034 A 
ATOM     60  C   UNL A   1      41.524  30.273  34.476  1.00  0.00     0.049 A 
ATOM     61  C   UNL A   1      42.754  27.179  29.966  1.00  0.00     0.074 A 
ATOM     62  C   UNL A   1      42.298  30.065  35.604  1.00  0.00     0.029 A 
ATOM     63  N   UNL A   1      41.995  29.406  33.502  1.00  0.00    -0.354 N 
ATOM     64  N   UNL A   1      42.563  27.802  31.104  1.00  0.00    -0.248 NA
ATOM     65  C   UNL A   1      43.905  26.265  29.968  1.00  0.00     0.031 C 
ATOM     66  C   UNL A   1      43.263  29.100  35.298  1.00  0.00     0.029 A 
ATOM     67  C   UNL A   1      43.058  28.672  33.996  1.00  0.00     0.049 A 
ATOM     68  H   UNL A   1      41.626  29.325  32.593  1.00  0.00     0.167 HD
ATOM     69  C   UNL A   1      43.541  27.326  31.970  1.00  0.00     0.074 A 
ATOM     70  C   UNL A   1      44.312  26.349  31.228  1.00  0.00     0.031 C 
ATOM     71  C   UNL A   1      43.786  27.669  33.259  1.00  0.00     0.034 A 
BRANCH  58  72
ATOM     72  C   UNL A   1      40.092  32.127  35.431  1.00  0.00     0.023 A 
ATOM     73  C   UNL A   1      40.801  33.334  35.603  1.00  0.00     0.012 A 
ATOM     74  C   UNL A   1      39.023  31.824  36.298  1.00  0.00     0.148 A 
ATOM     75  C   UNL A   1      40.475  34.207  36.641  1.00  0.00     0.002 A 
ATOM     76  C   UNL A   1      38.672  32.722  37.299  1.00  0.00     0.091 A 
ATOM     77  F   UNL A   1      38.376  30.661  36.132  1.00  0.00    -0.205 F 
ATOM     78  C   UNL A   1      39.404  33.907  37.479  1.00  0.00     0.022 A 
BRANCH  76  79
ATOM     79  S   UNL A   1      37.259  32.467  38.377  1.00  0.00     0.127 S 
ATOM     80  O   UNL A   1      37.194  31.007  38.438  1.00  0.00    -0.237 OA
ATOM     81  O   UNL A   1      37.698  33.110  39.614  1.00  0.00    -0.237 OA
ATOM     82  O   UNL A   1      36.130  33.113  37.722  1.00  0.00    -0.744 OA
ENDBRANCH  76  79
ENDBRANCH  58  72
BRANCH  59  83
ATOM     83  C   UNL A   1      42.316  26.436  27.504  1.00  0.00     0.023 A 
ATOM     84  C   UNL A   1      43.056  27.022  26.459  1.00  0.00     0.012 A 
ATOM     85  C   UNL A   1      41.948  25.080  27.411  1.00  0.00     0.148 A 
ATOM     86  C   UNL A   1      43.394  26.279  25.326  1.00  0.00     0.002 A 
ATOM     87  C   UNL A   1      42.338  24.331  26.308  1.00  0.00     0.091 A 
ATOM     88  F   UNL A   1      41.233  24.546  28.410  1.00  0.00    -0.205 F 
ATOM     89  C   UNL A   1      43.045  24.933  25.255  1.00  0.00     0.022 A 
BRANCH  87  90
ATOM     90  S   UNL A   1      42.048  22.562  26.193  1.00  0.00     0.127 S 
ATOM     91  O   UNL A   1      42.694  22.234  24.925  1.00  0.00    -0.237 OA
ATOM     92  O   UNL A   1      42.740  22.066  27.383  1.00  0.00    -0.237 OA
ATOM     93  O   UNL A   1      40.601  22.396  26.226  1.00  0.00    -0.744 OA
ENDBRANCH  87  90
ENDBRANCH  59  83
BRANCH  71  94
ATOM     94  C   UNL A   1      44.900  26.949  33.974  1.00  0.00     0.023 A 
ATOM     95  C   UNL A   1      46.233  27.377  33.826  1.00  0.00     0.012 A 
ATOM     96  C   UNL A   1      44.610  25.880  34.847  1.00  0.00     0.148 A 
ATOM     97  C   UNL A   1      47.266  26.725  34.500  1.00  0.00     0.002 A 
ATOM     98  C   UNL A   1      45.638  25.271  35.558  1.00  0.00     0.091 A 
ATOM     99  F   UNL A   1      43.338  25.475  34.964  1.00  0.00    -0.205 F 
ATOM    100  C   UNL A   1      46.967  25.682  35.373  1.00  0.00     0.022 A 
BRANCH  98 101
ATOM    101  S   UNL A   1      45.335  23.989  36.779  1.00  0.00     0.127 S 
ATOM    102  O   UNL A   1      44.920  22.869  35.936  1.00  0.00    -0.237 OA
ATOM    103  O   UNL A   1      46.654  23.832  37.395  1.00  0.00    -0.237 OA
ATOM    104  O   UNL A   1      44.311  24.515  37.669  1.00  0.00    -0.744 OA
ENDBRANCH  98 101
ENDBRANCH  71  94
ENDBRANCH  45  46
ENDBRANCH  38  40
ENDBRANCH  37  38
ENDBRANCH  36  37
ENDBRANCH  35  36
ENDBRANCH   1  35
TORSDOF 21
ENDMDL
