MODEL 1
REMARK VINA RESULT:      -9.7      0.000      0.000
REMARK SMILES CC(C)C[C@H](CNC(=O)[C@H]1CCO[C@@H]1C)C(=O)OCCOCCOC(=O)c1ccc(-c2c3nc(c(-c4cccc(S(=O)(=O)[O-])c4F)c4ccc([nH]4)c(-c4cccc(S(=O)(=O)[O-])c4F)c4nc(c(-c5cccc(S(=O)(=O)[O-])c5F)c5ccc2[nH]5)C=C4)C=C3)cc1
REMARK SMILES IDX 21 1 20 2 19 3 18 4 16 5 17 6 5 7 4 8 2 9 1 10 3 11 6 12
REMARK SMILES IDX 7 13 8 14 9 16 10 17 11 18 14 19 12 20 13 21 15 22 22 23
REMARK SMILES IDX 23 24 24 25 25 26 26 27 27 28 28 29 89 30 29 31 88 32 30 33
REMARK SMILES IDX 31 34 32 35 82 36 33 37 87 38 81 39 83 40 34 41 86 42 80 43
REMARK SMILES IDX 79 44 35 46 67 47 47 48 66 49 48 50 51 51 65 52 84 53 49 54
REMARK SMILES IDX 50 55 64 57 85 58 52 59 36 60 37 61 45 62 38 63 40 64 46 65
REMARK SMILES IDX 39 66 41 67 42 68 43 69 44 70 68 71 69 72 77 73 70 74 72 75
REMARK SMILES IDX 78 76 71 77 73 78 74 79 75 80 76 81 53 82 54 83 62 84 55 85
REMARK SMILES IDX 57 86 63 87 56 88 58 89 59 90 60 91 61 92
REMARK H PARENT 7 15 83 45 51 56
REMARK Flexibility Score: inf
ROOT
ATOM      1  O   UNL A   1      33.173  30.819  27.597  1.00  0.00    -0.374 OA
ENDROOT
BRANCH   1   2
ATOM      2  C   UNL A   1      34.238  29.920  27.288  1.00  0.00     0.202 C 
BRANCH   2   3
ATOM      3  C   UNL A   1      33.855  28.458  27.045  1.00  0.00     0.261 C 
BRANCH   3   4
ATOM      4  O   UNL A   1      33.930  28.112  25.651  1.00  0.00    -0.463 OA
BRANCH   4   5
ATOM      5  C   UNL A   1      33.287  26.973  25.293  1.00  0.00     0.310 C 
ATOM      6  O   UNL A   1      33.077  26.022  26.039  1.00  0.00    -0.252 OA
BRANCH   5   7
ATOM      7  C   UNL A   1      32.814  26.968  23.854  1.00  0.00     0.118 C 
BRANCH   7   8
ATOM      8  C   UNL A   1      33.574  25.961  22.979  1.00  0.00     0.020 C 
BRANCH   8   9
ATOM      9  C   UNL A   1      32.749  24.912  22.216  1.00  0.00    -0.017 C 
ATOM     10  C   UNL A   1      33.402  23.530  22.230  1.00  0.00     0.007 C 
ATOM     11  C   UNL A   1      31.352  24.827  22.839  1.00  0.00     0.007 C 
ENDBRANCH   8   9
ENDBRANCH   7   8
BRANCH   7  12
ATOM     12  C   UNL A   1      32.513  28.308  23.174  1.00  0.00     0.131 C 
BRANCH  12  13
ATOM     13  N   UNL A   1      32.042  29.400  23.994  1.00  0.00    -0.355 N 
ATOM     14  C   UNL A   1      30.804  29.938  24.186  1.00  0.00     0.225 C 
ATOM     15  H   UNL A   1      32.751  29.841  24.515  1.00  0.00     0.163 HD
ATOM     16  O   UNL A   1      30.685  30.672  25.171  1.00  0.00    -0.275 OA
BRANCH  14  17
ATOM     17  C   UNL A   1      29.664  29.771  23.176  1.00  0.00     0.109 C 
ATOM     18  C   UNL A   1      28.878  28.477  23.209  1.00  0.00     0.044 C 
ATOM     19  C   UNL A   1      28.565  30.830  23.420  1.00  0.00     0.127 C 
ATOM     20  C   UNL A   1      27.496  28.884  22.769  1.00  0.00     0.161 C 
ATOM     21  O   UNL A   1      27.284  30.165  23.341  1.00  0.00    -0.378 OA
ATOM     22  C   UNL A   1      28.581  31.948  22.387  1.00  0.00     0.039 C 
ENDBRANCH  14  17
ENDBRANCH  12  13
ENDBRANCH   7  12
ENDBRANCH   5   7
ENDBRANCH   4   5
ENDBRANCH   3   4
ENDBRANCH   2   3
ENDBRANCH   1   2
BRANCH   1  23
ATOM     23  C   UNL A   1      33.112  32.040  26.862  1.00  0.00     0.202 C 
BRANCH  23  24
ATOM     24  C   UNL A   1      32.533  33.266  27.581  1.00  0.00     0.261 C 
BRANCH  24  25
ATOM     25  O   UNL A   1      33.540  34.216  27.968  1.00  0.00    -0.460 OA
BRANCH  25  26
ATOM     26  C   UNL A   1      33.472  34.624  29.260  1.00  0.00     0.338 C 
ATOM     27  O   UNL A   1      32.509  35.132  29.821  1.00  0.00    -0.246 OA
BRANCH  26  28
ATOM     28  C   UNL A   1      34.672  34.194  29.998  1.00  0.00     0.060 A 
ATOM     29  C   UNL A   1      35.924  34.445  29.416  1.00  0.00     0.016 A 
ATOM     30  C   UNL A   1      34.577  33.491  31.198  1.00  0.00     0.016 A 
ATOM     31  C   UNL A   1      37.087  33.980  30.028  1.00  0.00     0.010 A 
ATOM     32  C   UNL A   1      35.744  33.009  31.801  1.00  0.00     0.010 A 
ATOM     33  C   UNL A   1      37.001  33.232  31.209  1.00  0.00    -0.014 A 
BRANCH  33  34
ATOM     34  C   UNL A   1      38.218  32.619  31.794  1.00  0.00     0.031 A 
ATOM     35  C   UNL A   1      38.863  31.451  31.104  1.00  0.00     0.074 A 
ATOM     36  C   UNL A   1      38.712  33.077  32.960  1.00  0.00     0.049 A 
ATOM     37  N   UNL A   1      39.879  30.724  31.488  1.00  0.00    -0.248 NA
ATOM     38  C   UNL A   1      38.289  31.045  29.810  1.00  0.00     0.031 C 
ATOM     39  C   UNL A   1      38.168  34.199  33.722  1.00  0.00     0.029 A 
ATOM     40  N   UNL A   1      39.757  32.623  33.726  1.00  0.00    -0.354 N 
ATOM     41  C   UNL A   1      40.041  29.750  30.510  1.00  0.00     0.074 A 
ATOM     42  C   UNL A   1      39.029  29.987  29.504  1.00  0.00     0.031 C 
ATOM     43  C   UNL A   1      38.849  34.313  34.875  1.00  0.00     0.029 A 
ATOM     44  C   UNL A   1      39.854  33.254  34.944  1.00  0.00     0.049 A 
ATOM     45  H   UNL A   1      40.376  31.915  33.433  1.00  0.00     0.167 HD
ATOM     46  C   UNL A   1      40.953  28.752  30.457  1.00  0.00     0.034 A 
ATOM     47  C   UNL A   1      40.633  32.981  36.010  1.00  0.00     0.034 A 
ATOM     48  C   UNL A   1      41.976  28.536  31.445  1.00  0.00     0.049 A 
ATOM     49  C   UNL A   1      41.622  31.845  35.929  1.00  0.00     0.074 A 
ATOM     50  C   UNL A   1      43.006  27.612  31.426  1.00  0.00     0.029 A 
ATOM     51  N   UNL A   1      42.082  29.229  32.639  1.00  0.00    -0.354 N 
ATOM     52  N   UNL A   1      41.879  31.045  34.923  1.00  0.00    -0.248 NA
ATOM     53  C   UNL A   1      42.445  31.591  37.121  1.00  0.00     0.031 C 
ATOM     54  C   UNL A   1      43.712  27.720  32.628  1.00  0.00     0.029 A 
ATOM     55  C   UNL A   1      43.137  28.730  33.382  1.00  0.00     0.049 A 
ATOM     56  H   UNL A   1      41.492  29.966  32.918  1.00  0.00     0.167 HD
ATOM     57  C   UNL A   1      42.907  30.210  35.352  1.00  0.00     0.074 A 
ATOM     58  C   UNL A   1      43.246  30.622  36.698  1.00  0.00     0.031 C 
ATOM     59  C   UNL A   1      43.502  29.181  34.700  1.00  0.00     0.034 A 
BRANCH  46  60
ATOM     60  C   UNL A   1      40.913  27.812  29.283  1.00  0.00     0.023 A 
ATOM     61  C   UNL A   1      39.939  26.795  29.235  1.00  0.00     0.012 A 
ATOM     62  C   UNL A   1      41.768  28.009  28.180  1.00  0.00     0.148 A 
ATOM     63  C   UNL A   1      39.824  25.979  28.110  1.00  0.00     0.002 A 
ATOM     64  C   UNL A   1      41.622  27.216  27.048  1.00  0.00     0.091 A 
ATOM     65  F   UNL A   1      42.699  28.970  28.258  1.00  0.00    -0.205 F 
ATOM     66  C   UNL A   1      40.656  26.198  27.013  1.00  0.00     0.022 A 
BRANCH  64  67
ATOM     67  S   UNL A   1      42.591  27.467  25.556  1.00  0.00     0.127 S 
ATOM     68  O   UNL A   1      42.233  26.286  24.771  1.00  0.00    -0.237 OA
ATOM     69  O   UNL A   1      42.046  28.725  25.046  1.00  0.00    -0.237 OA
ATOM     70  O   UNL A   1      43.981  27.531  25.982  1.00  0.00    -0.744 OA
ENDBRANCH  64  67
ENDBRANCH  46  60
BRANCH  47  71
ATOM     71  C   UNL A   1      40.507  33.790  37.256  1.00  0.00     0.023 A 
ATOM     72  C   UNL A   1      41.282  34.954  37.412  1.00  0.00     0.012 A 
ATOM     73  C   UNL A   1      39.627  33.409  38.288  1.00  0.00     0.148 A 
ATOM     74  C   UNL A   1      41.211  35.705  38.587  1.00  0.00     0.002 A 
ATOM     75  C   UNL A   1      39.515  34.193  39.430  1.00  0.00     0.091 A 
ATOM     76  F   UNL A   1      38.915  32.283  38.136  1.00  0.00    -0.205 F 
ATOM     77  C   UNL A   1      40.320  35.330  39.591  1.00  0.00     0.022 A 
BRANCH  75  78
ATOM     78  S   UNL A   1      38.294  33.854  40.704  1.00  0.00     0.127 S 
ATOM     79  O   UNL A   1      38.013  35.192  41.215  1.00  0.00    -0.237 OA
ATOM     80  O   UNL A   1      37.207  33.247  39.933  1.00  0.00    -0.237 OA
ATOM     81  O   UNL A   1      38.945  32.937  41.632  1.00  0.00    -0.744 OA
ENDBRANCH  75  78
ENDBRANCH  47  71
BRANCH  59  82
ATOM     82  C   UNL A   1      44.595  28.432  35.413  1.00  0.00     0.023 A 
ATOM     83  C   UNL A   1      45.942  28.766  35.166  1.00  0.00     0.012 A 
ATOM     84  C   UNL A   1      44.292  27.465  36.393  1.00  0.00     0.148 A 
ATOM     85  C   UNL A   1      46.969  28.132  35.865  1.00  0.00     0.002 A 
ATOM     86  C   UNL A   1      45.318  26.872  37.118  1.00  0.00     0.091 A 
ATOM     87  F   UNL A   1      43.004  27.152  36.603  1.00  0.00    -0.205 F 
ATOM     88  C   UNL A   1      46.658  27.196  36.848  1.00  0.00     0.022 A 
BRANCH  86  89
ATOM     89  S   UNL A   1      45.011  25.726  38.467  1.00  0.00     0.127 S 
ATOM     90  O   UNL A   1      44.397  24.599  37.767  1.00  0.00    -0.237 OA
ATOM     91  O   UNL A   1      46.362  25.467  38.968  1.00  0.00    -0.237 OA
ATOM     92  O   UNL A   1      44.143  26.426  39.402  1.00  0.00    -0.744 OA
ENDBRANCH  86  89
ENDBRANCH  59  82
ENDBRANCH  33  34
ENDBRANCH  26  28
ENDBRANCH  25  26
ENDBRANCH  24  25
ENDBRANCH  23  24
ENDBRANCH   1  23
TORSDOF 22
ENDMDL
MODEL 2
REMARK VINA RESULT:      -9.6      5.969      9.388
REMARK SMILES CC(C)C[C@H](CNC(=O)[C@H]1CCO[C@@H]1C)C(=O)OCCOCCOC(=O)c1ccc(-c2c3nc(c(-c4cccc(S(=O)(=O)[O-])c4F)c4ccc([nH]4)c(-c4cccc(S(=O)(=O)[O-])c4F)c4nc(c(-c5cccc(S(=O)(=O)[O-])c5F)c5ccc2[nH]5)C=C4)C=C3)cc1
REMARK SMILES IDX 21 1 20 2 19 3 18 4 16 5 17 6 5 7 4 8 2 9 1 10 3 11 6 12
REMARK SMILES IDX 7 13 8 14 9 16 10 17 11 18 14 19 12 20 13 21 15 22 22 23
REMARK SMILES IDX 23 24 24 25 25 26 26 27 27 28 28 29 89 30 29 31 88 32 30 33
REMARK SMILES IDX 31 34 32 35 82 36 33 37 87 38 81 39 83 40 34 41 86 42 80 43
REMARK SMILES IDX 79 44 35 46 67 47 47 48 66 49 48 50 51 51 65 52 84 53 49 54
REMARK SMILES IDX 50 55 64 57 85 58 52 59 36 60 37 61 45 62 38 63 40 64 46 65
REMARK SMILES IDX 39 66 41 67 42 68 43 69 44 70 68 71 69 72 77 73 70 74 72 75
REMARK SMILES IDX 78 76 71 77 73 78 74 79 75 80 76 81 53 82 54 83 62 84 55 85
REMARK SMILES IDX 57 86 63 87 56 88 58 89 59 90 60 91 61 92
REMARK H PARENT 7 15 83 45 51 56
REMARK Flexibility Score: inf
ROOT
ATOM      1  O   UNL A   1      37.869  21.567  25.010  1.00  0.00    -0.374 OA
ENDROOT
BRANCH   1   2
ATOM      2  C   UNL A   1      37.046  21.808  23.868  1.00  0.00     0.202 C 
BRANCH   2   3
ATOM      3  C   UNL A   1      36.997  23.245  23.345  1.00  0.00     0.261 C 
BRANCH   3   4
ATOM      4  O   UNL A   1      35.673  23.612  22.919  1.00  0.00    -0.463 OA
BRANCH   4   5
ATOM      5  C   UNL A   1      34.763  23.783  23.912  1.00  0.00     0.310 C 
ATOM      6  O   UNL A   1      34.972  24.390  24.957  1.00  0.00    -0.252 OA
BRANCH   5   7
ATOM      7  C   UNL A   1      33.416  23.159  23.615  1.00  0.00     0.118 C 
BRANCH   7   8
ATOM      8  C   UNL A   1      33.378  21.652  23.910  1.00  0.00     0.020 C 
BRANCH   8   9
ATOM      9  C   UNL A   1      32.706  21.196  25.215  1.00  0.00    -0.017 C 
ATOM     10  C   UNL A   1      31.463  22.020  25.552  1.00  0.00     0.007 C 
ATOM     11  C   UNL A   1      32.325  19.718  25.089  1.00  0.00     0.007 C 
ENDBRANCH   8   9
ENDBRANCH   7   8
BRANCH   7  12
ATOM     12  C   UNL A   1      32.673  23.581  22.343  1.00  0.00     0.131 C 
BRANCH  12  13
ATOM     13  N   UNL A   1      32.972  24.876  21.775  1.00  0.00    -0.355 N 
ATOM     14  C   UNL A   1      32.741  26.146  22.212  1.00  0.00     0.225 C 
ATOM     15  H   UNL A   1      33.431  24.832  20.906  1.00  0.00     0.163 HD
ATOM     16  O   UNL A   1      33.378  27.035  21.638  1.00  0.00    -0.275 OA
BRANCH  14  17
ATOM     17  C   UNL A   1      31.659  26.483  23.243  1.00  0.00     0.109 C 
ATOM     18  C   UNL A   1      31.976  26.232  24.703  1.00  0.00     0.044 C 
ATOM     19  C   UNL A   1      31.349  27.997  23.229  1.00  0.00     0.127 C 
ATOM     20  C   UNL A   1      31.194  27.295  25.428  1.00  0.00     0.161 C 
ATOM     21  O   UNL A   1      31.270  28.446  24.601  1.00  0.00    -0.378 OA
ATOM     22  C   UNL A   1      30.028  28.324  22.548  1.00  0.00     0.039 C 
ENDBRANCH  14  17
ENDBRANCH  12  13
ENDBRANCH   7  12
ENDBRANCH   5   7
ENDBRANCH   4   5
ENDBRANCH   3   4
ENDBRANCH   2   3
ENDBRANCH   1   2
BRANCH   1  23
ATOM     23  C   UNL A   1      37.965  20.223  25.478  1.00  0.00     0.202 C 
BRANCH  23  24
ATOM     24  C   UNL A   1      39.366  19.598  25.537  1.00  0.00     0.261 C 
BRANCH  24  25
ATOM     25  O   UNL A   1      39.934  19.621  26.858  1.00  0.00    -0.460 OA
BRANCH  25  26
ATOM     26  C   UNL A   1      41.248  19.954  26.906  1.00  0.00     0.338 C 
ATOM     27  O   UNL A   1      42.199  19.237  26.621  1.00  0.00    -0.246 OA
BRANCH  26  28
ATOM     28  C   UNL A   1      41.402  21.396  27.167  1.00  0.00     0.060 A 
ATOM     29  C   UNL A   1      41.130  22.284  26.116  1.00  0.00     0.016 A 
ATOM     30  C   UNL A   1      41.875  21.869  28.390  1.00  0.00     0.016 A 
ATOM     31  C   UNL A   1      41.346  23.652  26.282  1.00  0.00     0.010 A 
ATOM     32  C   UNL A   1      42.109  23.239  28.547  1.00  0.00     0.010 A 
ATOM     33  C   UNL A   1      41.866  24.133  27.489  1.00  0.00    -0.014 A 
BRANCH  33  34
ATOM     34  C   UNL A   1      42.225  25.566  27.628  1.00  0.00     0.031 A 
ATOM     35  C   UNL A   1      43.584  26.033  27.189  1.00  0.00     0.074 A 
ATOM     36  C   UNL A   1      41.357  26.430  28.186  1.00  0.00     0.049 A 
ATOM     37  N   UNL A   1      44.122  27.220  27.297  1.00  0.00    -0.248 NA
ATOM     38  C   UNL A   1      44.453  25.035  26.544  1.00  0.00     0.031 C 
ATOM     39  C   UNL A   1      40.014  26.090  28.654  1.00  0.00     0.029 A 
ATOM     40  N   UNL A   1      41.495  27.760  28.494  1.00  0.00    -0.354 N 
ATOM     41  C   UNL A   1      45.405  27.103  26.776  1.00  0.00     0.074 A 
ATOM     42  C   UNL A   1      45.561  25.734  26.335  1.00  0.00     0.031 C 
ATOM     43  C   UNL A   1      39.471  27.170  29.240  1.00  0.00     0.029 A 
ATOM     44  C   UNL A   1      40.438  28.265  29.215  1.00  0.00     0.049 A 
ATOM     45  H   UNL A   1      42.274  28.300  28.226  1.00  0.00     0.167 HD
ATOM     46  C   UNL A   1      46.363  28.054  26.673  1.00  0.00     0.034 A 
ATOM     47  C   UNL A   1      40.286  29.459  29.825  1.00  0.00     0.034 A 
ATOM     48  C   UNL A   1      46.194  29.421  27.087  1.00  0.00     0.049 A 
ATOM     49  C   UNL A   1      41.383  30.488  29.713  1.00  0.00     0.074 A 
ATOM     50  C   UNL A   1      47.073  30.479  26.931  1.00  0.00     0.029 A 
ATOM     51  N   UNL A   1      45.090  29.914  27.762  1.00  0.00    -0.354 N 
ATOM     52  N   UNL A   1      42.519  30.416  29.063  1.00  0.00    -0.248 NA
ATOM     53  C   UNL A   1      41.166  31.771  30.397  1.00  0.00     0.031 C 
ATOM     54  C   UNL A   1      46.516  31.604  27.547  1.00  0.00     0.029 A 
ATOM     55  C   UNL A   1      45.279  31.251  28.062  1.00  0.00     0.049 A 
ATOM     56  H   UNL A   1      44.290  29.389  27.995  1.00  0.00     0.167 HD
ATOM     57  C   UNL A   1      43.140  31.649  29.241  1.00  0.00     0.074 A 
ATOM     58  C   UNL A   1      42.239  32.460  30.034  1.00  0.00     0.031 C 
ATOM     59  C   UNL A   1      44.354  32.066  28.806  1.00  0.00     0.034 A 
BRANCH  46  60
ATOM     60  C   UNL A   1      47.687  27.669  26.073  1.00  0.00     0.023 A 
ATOM     61  C   UNL A   1      48.696  27.129  26.894  1.00  0.00     0.012 A 
ATOM     62  C   UNL A   1      47.888  27.739  24.680  1.00  0.00     0.148 A 
ATOM     63  C   UNL A   1      49.892  26.674  26.339  1.00  0.00     0.002 A 
ATOM     64  C   UNL A   1      49.067  27.250  24.130  1.00  0.00     0.091 A 
ATOM     65  F   UNL A   1      46.921  28.275  23.921  1.00  0.00    -0.205 F 
ATOM     66  C   UNL A   1      50.072  26.723  24.958  1.00  0.00     0.022 A 
BRANCH  64  67
ATOM     67  S   UNL A   1      49.364  27.197  22.359  1.00  0.00     0.127 S 
ATOM     68  O   UNL A   1      48.478  26.109  21.945  1.00  0.00    -0.237 OA
ATOM     69  O   UNL A   1      48.931  28.529  21.937  1.00  0.00    -0.237 OA
ATOM     70  O   UNL A   1      50.786  26.936  22.195  1.00  0.00    -0.744 OA
ENDBRANCH  64  67
ENDBRANCH  46  60
BRANCH  47  71
ATOM     71  C   UNL A   1      39.051  29.748  30.606  1.00  0.00     0.023 A 
ATOM     72  C   UNL A   1      38.877  29.166  31.876  1.00  0.00     0.012 A 
ATOM     73  C   UNL A   1      38.046  30.594  30.097  1.00  0.00     0.148 A 
ATOM     74  C   UNL A   1      37.710  29.390  32.608  1.00  0.00     0.002 A 
ATOM     75  C   UNL A   1      36.913  30.861  30.857  1.00  0.00     0.091 A 
ATOM     76  F   UNL A   1      38.213  31.120  28.876  1.00  0.00    -0.205 F 
ATOM     77  C   UNL A   1      36.733  30.245  32.104  1.00  0.00     0.022 A 
BRANCH  75  78
ATOM     78  S   UNL A   1      35.677  32.058  30.336  1.00  0.00     0.127 S 
ATOM     79  O   UNL A   1      34.840  32.162  31.527  1.00  0.00    -0.237 OA
ATOM     80  O   UNL A   1      36.494  33.239  30.053  1.00  0.00    -0.237 OA
ATOM     81  O   UNL A   1      35.046  31.477  29.158  1.00  0.00    -0.744 OA
ENDBRANCH  75  78
ENDBRANCH  47  71
BRANCH  59  82
ATOM     82  C   UNL A   1      44.786  33.466  29.155  1.00  0.00     0.023 A 
ATOM     83  C   UNL A   1      45.403  33.712  30.398  1.00  0.00     0.012 A 
ATOM     84  C   UNL A   1      44.668  34.515  28.222  1.00  0.00     0.148 A 
ATOM     85  C   UNL A   1      45.872  34.987  30.716  1.00  0.00     0.002 A 
ATOM     86  C   UNL A   1      45.180  35.770  28.527  1.00  0.00     0.091 A 
ATOM     87  F   UNL A   1      44.065  34.262  27.050  1.00  0.00    -0.205 F 
ATOM     88  C   UNL A   1      45.772  36.011  29.777  1.00  0.00     0.022 A 
BRANCH  86  89
ATOM     89  S   UNL A   1      45.182  37.126  27.347  1.00  0.00     0.127 S 
ATOM     90  O   UNL A   1      43.762  37.233  27.014  1.00  0.00    -0.237 OA
ATOM     91  O   UNL A   1      45.704  38.233  28.149  1.00  0.00    -0.237 OA
ATOM     92  O   UNL A   1      46.048  36.708  26.254  1.00  0.00    -0.744 OA
ENDBRANCH  86  89
ENDBRANCH  59  82
ENDBRANCH  33  34
ENDBRANCH  26  28
ENDBRANCH  25  26
ENDBRANCH  24  25
ENDBRANCH  23  24
ENDBRANCH   1  23
TORSDOF 22
ENDMDL
MODEL 3
REMARK VINA RESULT:      -9.5      1.441      3.317
REMARK SMILES CC(C)C[C@H](CNC(=O)[C@H]1CCO[C@@H]1C)C(=O)OCCOCCOC(=O)c1ccc(-c2c3nc(c(-c4cccc(S(=O)(=O)[O-])c4F)c4ccc([nH]4)c(-c4cccc(S(=O)(=O)[O-])c4F)c4nc(c(-c5cccc(S(=O)(=O)[O-])c5F)c5ccc2[nH]5)C=C4)C=C3)cc1
REMARK SMILES IDX 21 1 20 2 19 3 18 4 16 5 17 6 5 7 4 8 2 9 1 10 3 11 6 12
REMARK SMILES IDX 7 13 8 14 9 16 10 17 11 18 14 19 12 20 13 21 15 22 22 23
REMARK SMILES IDX 23 24 24 25 25 26 26 27 27 28 28 29 89 30 29 31 88 32 30 33
REMARK SMILES IDX 31 34 32 35 82 36 33 37 87 38 81 39 83 40 34 41 86 42 80 43
REMARK SMILES IDX 79 44 35 46 67 47 47 48 66 49 48 50 51 51 65 52 84 53 49 54
REMARK SMILES IDX 50 55 64 57 85 58 52 59 36 60 37 61 45 62 38 63 40 64 46 65
REMARK SMILES IDX 39 66 41 67 42 68 43 69 44 70 68 71 69 72 77 73 70 74 72 75
REMARK SMILES IDX 78 76 71 77 73 78 74 79 75 80 76 81 53 82 54 83 62 84 55 85
REMARK SMILES IDX 57 86 63 87 56 88 58 89 59 90 60 91 61 92
REMARK H PARENT 7 15 83 45 51 56
REMARK Flexibility Score: inf
ROOT
ATOM      1  O   UNL A   1      32.849  30.941  27.787  1.00  0.00    -0.374 OA
ENDROOT
BRANCH   1   2
ATOM      2  C   UNL A   1      31.848  30.588  26.833  1.00  0.00     0.202 C 
BRANCH   2   3
ATOM      3  C   UNL A   1      32.335  29.972  25.520  1.00  0.00     0.261 C 
BRANCH   3   4
ATOM      4  O   UNL A   1      31.652  28.741  25.223  1.00  0.00    -0.463 OA
BRANCH   4   5
ATOM      5  C   UNL A   1      32.379  27.609  25.404  1.00  0.00     0.310 C 
ATOM      6  O   UNL A   1      32.714  27.156  26.494  1.00  0.00    -0.252 OA
BRANCH   5   7
ATOM      7  C   UNL A   1      32.745  26.910  24.111  1.00  0.00     0.118 C 
BRANCH   7   8
ATOM      8  C   UNL A   1      31.517  26.443  23.317  1.00  0.00     0.020 C 
BRANCH   8   9
ATOM      9  C   UNL A   1      30.449  25.629  24.065  1.00  0.00    -0.017 C 
ATOM     10  C   UNL A   1      29.080  26.311  24.054  1.00  0.00     0.007 C 
ATOM     11  C   UNL A   1      30.338  24.243  23.423  1.00  0.00     0.007 C 
ENDBRANCH   8   9
ENDBRANCH   7   8
BRANCH   7  12
ATOM     12  C   UNL A   1      33.919  25.925  24.113  1.00  0.00     0.131 C 
BRANCH  12  13
ATOM     13  N   UNL A   1      34.045  25.009  23.002  1.00  0.00    -0.355 N 
ATOM     14  C   UNL A   1      33.878  23.660  22.900  1.00  0.00     0.225 C 
ATOM     15  H   UNL A   1      34.300  25.443  22.157  1.00  0.00     0.163 HD
ATOM     16  O   UNL A   1      33.773  23.218  21.753  1.00  0.00    -0.275 OA
BRANCH  14  17
ATOM     17  C   UNL A   1      33.959  22.722  24.108  1.00  0.00     0.109 C 
ATOM     18  C   UNL A   1      33.278  21.374  24.001  1.00  0.00     0.044 C 
ATOM     19  C   UNL A   1      35.426  22.328  24.391  1.00  0.00     0.127 C 
ATOM     20  C   UNL A   1      34.126  20.473  24.859  1.00  0.00     0.161 C 
ATOM     21  O   UNL A   1      35.461  20.906  24.652  1.00  0.00    -0.378 OA
ATOM     22  C   UNL A   1      36.010  23.044  25.600  1.00  0.00     0.039 C 
ENDBRANCH  14  17
ENDBRANCH  12  13
ENDBRANCH   7  12
ENDBRANCH   5   7
ENDBRANCH   4   5
ENDBRANCH   3   4
ENDBRANCH   2   3
ENDBRANCH   1   2
BRANCH   1  23
ATOM     23  C   UNL A   1      33.675  32.064  27.486  1.00  0.00     0.202 C 
BRANCH  23  24
ATOM     24  C   UNL A   1      32.994  33.438  27.407  1.00  0.00     0.261 C 
BRANCH  24  25
ATOM     25  O   UNL A   1      32.545  33.914  28.687  1.00  0.00    -0.460 OA
BRANCH  25  26
ATOM     26  C   UNL A   1      33.382  34.794  29.292  1.00  0.00     0.338 C 
ATOM     27  O   UNL A   1      33.134  35.954  29.596  1.00  0.00    -0.246 OA
BRANCH  26  28
ATOM     28  C   UNL A   1      34.610  34.112  29.735  1.00  0.00     0.060 A 
ATOM     29  C   UNL A   1      34.497  33.161  30.759  1.00  0.00     0.016 A 
ATOM     30  C   UNL A   1      35.859  34.448  29.214  1.00  0.00     0.016 A 
ATOM     31  C   UNL A   1      35.639  32.551  31.278  1.00  0.00     0.010 A 
ATOM     32  C   UNL A   1      37.004  33.848  29.749  1.00  0.00     0.010 A 
ATOM     33  C   UNL A   1      36.903  32.915  30.796  1.00  0.00    -0.014 A 
BRANCH  33  34
ATOM     34  C   UNL A   1      38.128  32.373  31.431  1.00  0.00     0.031 A 
ATOM     35  C   UNL A   1      38.844  31.218  30.791  1.00  0.00     0.074 A 
ATOM     36  C   UNL A   1      38.567  32.882  32.597  1.00  0.00     0.049 A 
ATOM     37  N   UNL A   1      39.881  30.548  31.223  1.00  0.00    -0.248 NA
ATOM     38  C   UNL A   1      38.327  30.753  29.493  1.00  0.00     0.031 C 
ATOM     39  C   UNL A   1      37.951  33.998  33.314  1.00  0.00     0.029 A 
ATOM     40  N   UNL A   1      39.608  32.496  33.405  1.00  0.00    -0.354 N 
ATOM     41  C   UNL A   1      40.115  29.558  30.277  1.00  0.00     0.074 A 
ATOM     42  C   UNL A   1      39.123  29.723  29.236  1.00  0.00     0.031 C 
ATOM     43  C   UNL A   1      38.592  34.172  34.482  1.00  0.00     0.029 A 
ATOM     44  C   UNL A   1      39.641  33.163  34.608  1.00  0.00     0.049 A 
ATOM     45  H   UNL A   1      40.266  31.810  33.149  1.00  0.00     0.167 HD
ATOM     46  C   UNL A   1      41.071  28.601  30.276  1.00  0.00     0.034 A 
ATOM     47  C   UNL A   1      40.399  32.952  35.703  1.00  0.00     0.034 A 
ATOM     48  C   UNL A   1      42.073  28.457  31.299  1.00  0.00     0.049 A 
ATOM     49  C   UNL A   1      41.440  31.861  35.681  1.00  0.00     0.074 A 
ATOM     50  C   UNL A   1      43.143  27.581  31.333  1.00  0.00     0.029 A 
ATOM     51  N   UNL A   1      42.113  29.185  32.476  1.00  0.00    -0.354 N 
ATOM     52  N   UNL A   1      41.762  31.048  34.704  1.00  0.00    -0.248 NA
ATOM     53  C   UNL A   1      42.238  31.675  36.901  1.00  0.00     0.031 C 
ATOM     54  C   UNL A   1      43.808  27.752  32.552  1.00  0.00     0.029 A 
ATOM     55  C   UNL A   1      43.167  28.754  33.262  1.00  0.00     0.049 A 
ATOM     56  H   UNL A   1      41.483  29.902  32.719  1.00  0.00     0.167 HD
ATOM     57  C   UNL A   1      42.813  30.272  35.185  1.00  0.00     0.074 A 
ATOM     58  C   UNL A   1      43.093  30.733  36.528  1.00  0.00     0.031 C 
ATOM     59  C   UNL A   1      43.472  29.255  34.577  1.00  0.00     0.034 A 
BRANCH  46  60
ATOM     60  C   UNL A   1      41.108  27.630  29.128  1.00  0.00     0.023 A 
ATOM     61  C   UNL A   1      40.215  26.541  29.105  1.00  0.00     0.012 A 
ATOM     62  C   UNL A   1      41.950  27.863  28.022  1.00  0.00     0.148 A 
ATOM     63  C   UNL A   1      40.167  25.690  28.001  1.00  0.00     0.002 A 
ATOM     64  C   UNL A   1      41.870  27.033  26.911  1.00  0.00     0.091 A 
ATOM     65  F   UNL A   1      42.804  28.895  28.076  1.00  0.00    -0.205 F 
ATOM     66  C   UNL A   1      40.984  25.942  26.901  1.00  0.00     0.022 A 
BRANCH  64  67
ATOM     67  S   UNL A   1      42.822  27.318  25.414  1.00  0.00     0.127 S 
ATOM     68  O   UNL A   1      44.160  27.549  25.958  1.00  0.00    -0.237 OA
ATOM     69  O   UNL A   1      42.664  26.049  24.705  1.00  0.00    -0.237 OA
ATOM     70  O   UNL A   1      42.212  28.464  24.759  1.00  0.00    -0.744 OA
ENDBRANCH  64  67
ENDBRANCH  46  60
BRANCH  47  71
ATOM     71  C   UNL A   1      40.200  33.786  36.922  1.00  0.00     0.023 A 
ATOM     72  C   UNL A   1      40.756  35.078  36.981  1.00  0.00     0.012 A 
ATOM     73  C   UNL A   1      39.467  33.305  38.025  1.00  0.00     0.148 A 
ATOM     74  C   UNL A   1      40.618  35.861  38.129  1.00  0.00     0.002 A 
ATOM     75  C   UNL A   1      39.281  34.112  39.141  1.00  0.00     0.091 A 
ATOM     76  F   UNL A   1      38.966  32.063  37.964  1.00  0.00    -0.205 F 
ATOM     77  C   UNL A   1      39.872  35.382  39.203  1.00  0.00     0.022 A 
BRANCH  75  78
ATOM     78  S   UNL A   1      38.220  33.621  40.506  1.00  0.00     0.127 S 
ATOM     79  O   UNL A   1      38.099  34.868  41.255  1.00  0.00    -0.237 OA
ATOM     80  O   UNL A   1      37.003  33.199  39.811  1.00  0.00    -0.237 OA
ATOM     81  O   UNL A   1      38.927  32.537  41.176  1.00  0.00    -0.744 OA
ENDBRANCH  75  78
ENDBRANCH  47  71
BRANCH  59  82
ATOM     82  C   UNL A   1      44.576  28.574  35.341  1.00  0.00     0.023 A 
ATOM     83  C   UNL A   1      45.897  29.054  35.228  1.00  0.00     0.012 A 
ATOM     84  C   UNL A   1      44.297  27.524  36.238  1.00  0.00     0.148 A 
ATOM     85  C   UNL A   1      46.925  28.482  35.978  1.00  0.00     0.002 A 
ATOM     86  C   UNL A   1      45.317  26.992  37.017  1.00  0.00     0.091 A 
ATOM     87  F   UNL A   1      43.036  27.073  36.320  1.00  0.00    -0.205 F 
ATOM     88  C   UNL A   1      46.634  27.462  36.880  1.00  0.00     0.022 A 
BRANCH  86  89
ATOM     89  S   UNL A   1      45.023  25.739  38.272  1.00  0.00     0.127 S 
ATOM     90  O   UNL A   1      46.368  25.532  38.807  1.00  0.00    -0.237 OA
ATOM     91  O   UNL A   1      44.105  26.424  39.183  1.00  0.00    -0.237 OA
ATOM     92  O   UNL A   1      44.447  24.598  37.576  1.00  0.00    -0.744 OA
ENDBRANCH  86  89
ENDBRANCH  59  82
ENDBRANCH  33  34
ENDBRANCH  26  28
ENDBRANCH  25  26
ENDBRANCH  24  25
ENDBRANCH  23  24
ENDBRANCH   1  23
TORSDOF 22
ENDMDL
