MODEL 1
REMARK VINA RESULT:     -11.2      0.000      0.000
REMARK SMILES C[C@@H]1CCCN(c2ccc(NC(=O)Cc3cccs3)c(C(=O)OCCOCCOC(=O)c3ccc(-c4c5nc(c(-c6cccc(S(=O)(=O)[O-])c6F)c6ccc([nH]6)c(-c6cccc(S(=O)(=O)[O-])c6F)c6nc(c(-c7cccc(S(=O)(=O)[O-])c7F)c7ccc4[nH]7)C=C6)C=C5)cc3)c2)C1
REMARK SMILES IDX 26 1 25 2 24 3 23 4 21 5 22 6 20 7 7 8 8 9 95 10 9 11 10 12
REMARK SMILES IDX 6 13 1 14 2 15 3 16 96 17 4 18 5 19 11 20 12 21 13 23 14 24
REMARK SMILES IDX 15 25 16 26 19 27 17 28 18 29 27 30 28 31 29 32 30 33 31 34
REMARK SMILES IDX 32 35 33 36 94 37 34 38 93 39 35 40 36 41 37 42 87 43 38 44
REMARK SMILES IDX 92 45 86 46 88 47 39 48 91 49 85 50 84 51 40 53 72 54 52 55
REMARK SMILES IDX 71 56 53 57 56 58 70 59 89 60 54 61 55 62 69 64 90 65 57 66
REMARK SMILES IDX 41 67 42 68 50 69 43 70 45 71 51 72 44 73 46 74 47 75 48 76
REMARK SMILES IDX 49 77 73 78 74 79 82 80 75 81 77 82 83 83 76 84 78 85 79 86
REMARK SMILES IDX 80 87 81 88 58 89 59 90 67 91 60 92 62 93 68 94 61 95 63 96
REMARK SMILES IDX 64 97 65 98 66 99
REMARK H PARENT 11 22 88 52 56 63
REMARK Flexibility Score: inf
ROOT
ATOM      1  O   UNL A   1      31.473  29.943  27.264  1.00  0.00    -0.374 OA
ENDROOT
BRANCH   1   2
ATOM      2  C   UNL A   1      31.972  28.614  27.117  1.00  0.00     0.202 C 
BRANCH   2   3
ATOM      3  C   UNL A   1      33.465  28.500  26.795  1.00  0.00     0.261 C 
BRANCH   3   4
ATOM      4  O   UNL A   1      33.773  27.232  26.192  1.00  0.00    -0.460 OA
BRANCH   4   5
ATOM      5  C   UNL A   1      33.652  27.184  24.844  1.00  0.00     0.340 C 
ATOM      6  O   UNL A   1      34.279  27.860  24.038  1.00  0.00    -0.246 OA
BRANCH   5   7
ATOM      7  C   UNL A   1      32.760  26.072  24.417  1.00  0.00     0.085 A 
ATOM      8  C   UNL A   1      32.137  23.713  24.553  1.00  0.00     0.038 A 
ATOM      9  C   UNL A   1      31.113  23.976  23.644  1.00  0.00     0.028 A 
ATOM     10  C   UNL A   1      32.922  24.791  24.974  1.00  0.00     0.043 A 
ATOM     11  C   UNL A   1      30.933  25.248  23.090  1.00  0.00     0.029 A 
ATOM     12  C   UNL A   1      31.809  26.288  23.393  1.00  0.00     0.055 A 
BRANCH   8  13
ATOM     13  N   UNL A   1      32.392  22.439  25.006  1.00  0.00    -0.371 N 
ATOM     14  C   UNL A   1      32.532  18.916  23.573  1.00  0.00     0.009 C 
ATOM     15  C   UNL A   1      33.023  20.205  24.230  1.00  0.00     0.005 C 
ATOM     16  C   UNL A   1      33.583  19.920  25.632  1.00  0.00     0.007 C 
ATOM     17  C   UNL A   1      31.903  21.261  24.290  1.00  0.00     0.119 C 
ATOM     18  C   UNL A   1      34.034  21.210  26.319  1.00  0.00     0.022 C 
ATOM     19  C   UNL A   1      32.907  22.236  26.357  1.00  0.00     0.116 C 
ENDBRANCH   8  13
BRANCH  12  20
ATOM     20  N   UNL A   1      31.865  27.499  22.661  1.00  0.00    -0.325 N 
ATOM     21  C   UNL A   1      31.165  28.668  22.677  1.00  0.00     0.229 C 
ATOM     22  H   UNL A   1      32.577  27.495  21.981  1.00  0.00     0.169 HD
ATOM     23  O   UNL A   1      31.403  29.474  21.766  1.00  0.00    -0.274 OA
BRANCH  21  24
ATOM     24  C   UNL A   1      30.155  29.044  23.737  1.00  0.00     0.147 C 
BRANCH  24  25
ATOM     25  C   UNL A   1      29.265  30.212  23.401  1.00  0.00     0.014 A 
ATOM     26  C   UNL A   1      29.233  31.515  23.865  1.00  0.00     0.016 A 
ATOM     27  S   UNL A   1      28.075  29.980  22.174  1.00  0.00    -0.148 S 
ATOM     28  C   UNL A   1      28.297  32.331  23.164  1.00  0.00     0.012 A 
ATOM     29  C   UNL A   1      27.587  31.614  22.231  1.00  0.00     0.065 A 
ENDBRANCH  24  25
ENDBRANCH  21  24
ENDBRANCH  12  20
ENDBRANCH   5   7
ENDBRANCH   4   5
ENDBRANCH   3   4
ENDBRANCH   2   3
ENDBRANCH   1   2
BRANCH   1  30
ATOM     30  C   UNL A   1      32.095  30.953  26.466  1.00  0.00     0.202 C 
BRANCH  30  31
ATOM     31  C   UNL A   1      31.760  32.403  26.838  1.00  0.00     0.261 C 
BRANCH  31  32
ATOM     32  O   UNL A   1      32.914  33.257  26.745  1.00  0.00    -0.460 OA
BRANCH  32  33
ATOM     33  C   UNL A   1      33.337  33.780  27.919  1.00  0.00     0.338 C 
ATOM     34  O   UNL A   1      32.736  34.581  28.626  1.00  0.00    -0.246 OA
BRANCH  33  35
ATOM     35  C   UNL A   1      34.578  33.113  28.356  1.00  0.00     0.060 A 
ATOM     36  C   UNL A   1      34.454  31.876  29.001  1.00  0.00     0.016 A 
ATOM     37  C   UNL A   1      35.831  33.708  28.199  1.00  0.00     0.016 A 
ATOM     38  C   UNL A   1      35.577  31.253  29.542  1.00  0.00     0.010 A 
ATOM     39  C   UNL A   1      36.957  33.084  28.748  1.00  0.00     0.010 A 
ATOM     40  C   UNL A   1      36.829  31.873  29.455  1.00  0.00    -0.014 A 
BRANCH  40  41
ATOM     41  C   UNL A   1      37.977  31.329  30.223  1.00  0.00     0.031 A 
ATOM     42  C   UNL A   1      38.848  30.279  29.587  1.00  0.00     0.074 A 
ATOM     43  C   UNL A   1      38.239  31.761  31.469  1.00  0.00     0.049 A 
ATOM     44  N   UNL A   1      39.875  29.643  30.087  1.00  0.00    -0.248 NA
ATOM     45  C   UNL A   1      38.516  29.893  28.206  1.00  0.00     0.031 C 
ATOM     46  C   UNL A   1      37.473  32.775  32.190  1.00  0.00     0.029 A 
ATOM     47  N   UNL A   1      39.213  31.379  32.358  1.00  0.00    -0.354 N 
ATOM     48  C   UNL A   1      40.293  28.761  29.097  1.00  0.00     0.074 A 
ATOM     49  C   UNL A   1      39.401  28.936  27.971  1.00  0.00     0.031 C 
ATOM     50  C   UNL A   1      37.987  32.914  33.424  1.00  0.00     0.029 A 
ATOM     51  C   UNL A   1      39.102  31.983  33.587  1.00  0.00     0.049 A 
ATOM     52  H   UNL A   1      39.922  30.733  32.136  1.00  0.00     0.167 HD
ATOM     53  C   UNL A   1      41.335  27.897  29.114  1.00  0.00     0.034 A 
ATOM     54  C   UNL A   1      39.806  31.790  34.722  1.00  0.00     0.034 A 
ATOM     55  C   UNL A   1      42.235  27.740  30.225  1.00  0.00     0.049 A 
ATOM     56  C   UNL A   1      40.947  30.805  34.723  1.00  0.00     0.074 A 
ATOM     57  C   UNL A   1      43.349  26.925  30.320  1.00  0.00     0.029 A 
ATOM     58  N   UNL A   1      42.120  28.404  31.437  1.00  0.00    -0.354 N 
ATOM     59  N   UNL A   1      41.402  30.067  33.739  1.00  0.00    -0.248 NA
ATOM     60  C   UNL A   1      41.692  30.651  35.981  1.00  0.00     0.031 C 
ATOM     61  C   UNL A   1      43.893  27.076  31.601  1.00  0.00     0.029 A 
ATOM     62  C   UNL A   1      43.134  28.008  32.291  1.00  0.00     0.049 A 
ATOM     63  H   UNL A   1      41.420  29.059  31.657  1.00  0.00     0.167 HD
ATOM     64  C   UNL A   1      42.508  29.392  34.248  1.00  0.00     0.074 A 
ATOM     65  C   UNL A   1      42.664  29.823  35.621  1.00  0.00     0.031 C 
ATOM     66  C   UNL A   1      43.313  28.487  33.638  1.00  0.00     0.034 A 
BRANCH  53  67
ATOM     67  C   UNL A   1      41.577  27.067  27.882  1.00  0.00     0.023 A 
ATOM     68  C   UNL A   1      42.186  27.653  26.754  1.00  0.00     0.012 A 
ATOM     69  C   UNL A   1      41.256  25.695  27.859  1.00  0.00     0.148 A 
ATOM     70  C   UNL A   1      42.447  26.895  25.613  1.00  0.00     0.002 A 
ATOM     71  C   UNL A   1      41.557  24.937  26.735  1.00  0.00     0.091 A 
ATOM     72  F   UNL A   1      40.656  25.161  28.933  1.00  0.00    -0.205 F 
ATOM     73  C   UNL A   1      42.142  25.537  25.608  1.00  0.00     0.022 A 
BRANCH  71  74
ATOM     74  S   UNL A   1      41.274  23.165  26.658  1.00  0.00     0.127 S 
ATOM     75  O   UNL A   1      42.050  22.793  25.475  1.00  0.00    -0.237 OA
ATOM     76  O   UNL A   1      41.839  22.706  27.927  1.00  0.00    -0.237 OA
ATOM     77  O   UNL A   1      39.833  22.994  26.538  1.00  0.00    -0.744 OA
ENDBRANCH  71  74
ENDBRANCH  53  67
BRANCH  54  78
ATOM     78  C   UNL A   1      39.472  32.569  35.948  1.00  0.00     0.023 A 
ATOM     79  C   UNL A   1      40.044  33.841  36.141  1.00  0.00     0.012 A 
ATOM     80  C   UNL A   1      38.583  32.061  36.916  1.00  0.00     0.148 A 
ATOM     81  C   UNL A   1      39.764  34.579  37.292  1.00  0.00     0.002 A 
ATOM     82  C   UNL A   1      38.262  32.826  38.031  1.00  0.00     0.091 A 
ATOM     83  F   UNL A   1      38.062  30.841  36.722  1.00  0.00    -0.205 F 
ATOM     84  C   UNL A   1      38.866  34.077  38.230  1.00  0.00     0.022 A 
BRANCH  82  85
ATOM     85  S   UNL A   1      37.019  32.314  39.222  1.00  0.00     0.127 S 
ATOM     86  O   UNL A   1      37.329  33.168  40.365  1.00  0.00    -0.237 OA
ATOM     87  O   UNL A   1      35.777  32.645  38.523  1.00  0.00    -0.237 OA
ATOM     88  O   UNL A   1      37.231  30.886  39.421  1.00  0.00    -0.744 OA
ENDBRANCH  82  85
ENDBRANCH  54  78
BRANCH  66  89
ATOM     89  C   UNL A   1      44.465  27.924  34.430  1.00  0.00     0.023 A 
ATOM     90  C   UNL A   1      45.676  28.638  34.512  1.00  0.00     0.012 A 
ATOM     91  C   UNL A   1      44.318  26.727  35.160  1.00  0.00     0.148 A 
ATOM     92  C   UNL A   1      46.735  28.154  35.280  1.00  0.00     0.002 A 
ATOM     93  C   UNL A   1      45.360  26.276  35.962  1.00  0.00     0.091 A 
ATOM     94  F   UNL A   1      43.164  26.052  35.057  1.00  0.00    -0.205 F 
ATOM     95  C   UNL A   1      46.572  26.981  36.014  1.00  0.00     0.022 A 
BRANCH  93  96
ATOM     96  S   UNL A   1      45.207  24.829  37.016  1.00  0.00     0.127 S 
ATOM     97  O   UNL A   1      46.606  24.449  37.205  1.00  0.00    -0.237 OA
ATOM     98  O   UNL A   1      44.559  25.380  38.207  1.00  0.00    -0.237 OA
ATOM     99  O   UNL A   1      44.394  23.876  36.273  1.00  0.00    -0.744 OA
ENDBRANCH  93  96
ENDBRANCH  66  89
ENDBRANCH  40  41
ENDBRANCH  33  35
ENDBRANCH  32  33
ENDBRANCH  31  32
ENDBRANCH  30  31
ENDBRANCH   1  30
TORSDOF 21
ENDMDL
MODEL 2
REMARK VINA RESULT:     -11.2      0.911      7.316
REMARK SMILES C[C@@H]1CCCN(c2ccc(NC(=O)Cc3cccs3)c(C(=O)OCCOCCOC(=O)c3ccc(-c4c5nc(c(-c6cccc(S(=O)(=O)[O-])c6F)c6ccc([nH]6)c(-c6cccc(S(=O)(=O)[O-])c6F)c6nc(c(-c7cccc(S(=O)(=O)[O-])c7F)c7ccc4[nH]7)C=C6)C=C5)cc3)c2)C1
REMARK SMILES IDX 26 1 25 2 24 3 23 4 21 5 22 6 20 7 7 8 8 9 95 10 9 11 10 12
REMARK SMILES IDX 6 13 1 14 2 15 3 16 96 17 4 18 5 19 11 20 12 21 13 23 14 24
REMARK SMILES IDX 15 25 16 26 19 27 17 28 18 29 27 30 28 31 29 32 30 33 31 34
REMARK SMILES IDX 32 35 33 36 94 37 34 38 93 39 35 40 36 41 37 42 87 43 38 44
REMARK SMILES IDX 92 45 86 46 88 47 39 48 91 49 85 50 84 51 40 53 72 54 52 55
REMARK SMILES IDX 71 56 53 57 56 58 70 59 89 60 54 61 55 62 69 64 90 65 57 66
REMARK SMILES IDX 41 67 42 68 50 69 43 70 45 71 51 72 44 73 46 74 47 75 48 76
REMARK SMILES IDX 49 77 73 78 74 79 82 80 75 81 77 82 83 83 76 84 78 85 79 86
REMARK SMILES IDX 80 87 81 88 58 89 59 90 67 91 60 92 62 93 68 94 61 95 63 96
REMARK SMILES IDX 64 97 65 98 66 99
REMARK H PARENT 11 22 88 52 56 63
REMARK Flexibility Score: inf
ROOT
ATOM      1  O   UNL A   1      32.122  30.565  27.083  1.00  0.00    -0.374 OA
ENDROOT
BRANCH   1   2
ATOM      2  C   UNL A   1      32.294  29.333  26.383  1.00  0.00     0.202 C 
BRANCH   2   3
ATOM      3  C   UNL A   1      32.522  28.099  27.260  1.00  0.00     0.261 C 
BRANCH   3   4
ATOM      4  O   UNL A   1      32.910  26.962  26.470  1.00  0.00    -0.460 OA
BRANCH   4   5
ATOM      5  C   UNL A   1      31.905  26.125  26.123  1.00  0.00     0.340 C 
ATOM      6  O   UNL A   1      30.744  26.191  26.506  1.00  0.00    -0.246 OA
BRANCH   5   7
ATOM      7  C   UNL A   1      32.332  25.172  25.063  1.00  0.00     0.085 A 
ATOM      8  C   UNL A   1      33.067  22.929  24.431  1.00  0.00     0.038 A 
ATOM      9  C   UNL A   1      33.131  23.368  23.110  1.00  0.00     0.028 A 
ATOM     10  C   UNL A   1      32.609  23.834  25.394  1.00  0.00     0.043 A 
ATOM     11  C   UNL A   1      32.847  24.694  22.764  1.00  0.00     0.029 A 
ATOM     12  C   UNL A   1      32.538  25.636  23.742  1.00  0.00     0.055 A 
BRANCH   8  13
ATOM     13  N   UNL A   1      33.463  21.661  24.791  1.00  0.00    -0.371 N 
ATOM     14  C   UNL A   1      32.481  18.072  23.992  1.00  0.00     0.009 C 
ATOM     15  C   UNL A   1      33.350  19.326  24.066  1.00  0.00     0.005 C 
ATOM     16  C   UNL A   1      34.626  19.055  24.879  1.00  0.00     0.007 C 
ATOM     17  C   UNL A   1      32.566  20.513  24.656  1.00  0.00     0.119 C 
ATOM     18  C   UNL A   1      35.481  20.316  25.001  1.00  0.00     0.022 C 
ATOM     19  C   UNL A   1      34.676  21.473  25.581  1.00  0.00     0.116 C 
ENDBRANCH   8  13
BRANCH  12  20
ATOM     20  N   UNL A   1      32.527  27.032  23.505  1.00  0.00    -0.325 N 
ATOM     21  C   UNL A   1      31.628  27.914  22.985  1.00  0.00     0.229 C 
ATOM     22  H   UNL A   1      33.365  27.468  23.782  1.00  0.00     0.169 HD
ATOM     23  O   UNL A   1      32.029  29.070  22.789  1.00  0.00    -0.274 OA
BRANCH  21  24
ATOM     24  C   UNL A   1      30.190  27.578  22.664  1.00  0.00     0.147 C 
BRANCH  24  25
ATOM     25  C   UNL A   1      29.202  28.700  22.852  1.00  0.00     0.014 A 
ATOM     26  C   UNL A   1      27.823  28.746  22.746  1.00  0.00     0.016 A 
ATOM     27  S   UNL A   1      29.820  30.230  23.353  1.00  0.00    -0.148 S 
ATOM     28  C   UNL A   1      27.278  30.001  23.149  1.00  0.00     0.012 A 
ATOM     29  C   UNL A   1      28.258  30.904  23.483  1.00  0.00     0.065 A 
ENDBRANCH  24  25
ENDBRANCH  21  24
ENDBRANCH  12  20
ENDBRANCH   5   7
ENDBRANCH   4   5
ENDBRANCH   3   4
ENDBRANCH   2   3
ENDBRANCH   1   2
BRANCH   1  30
ATOM     30  C   UNL A   1      31.482  31.624  26.369  1.00  0.00     0.202 C 
BRANCH  30  31
ATOM     31  C   UNL A   1      31.644  33.029  26.962  1.00  0.00     0.261 C 
BRANCH  31  32
ATOM     32  O   UNL A   1      33.013  33.471  26.917  1.00  0.00    -0.460 OA
BRANCH  32  33
ATOM     33  C   UNL A   1      33.520  33.889  28.100  1.00  0.00     0.338 C 
ATOM     34  O   UNL A   1      33.009  34.683  28.881  1.00  0.00    -0.246 OA
BRANCH  33  35
ATOM     35  C   UNL A   1      34.727  33.111  28.439  1.00  0.00     0.060 A 
ATOM     36  C   UNL A   1      34.542  31.820  28.952  1.00  0.00     0.016 A 
ATOM     37  C   UNL A   1      36.010  33.648  28.320  1.00  0.00     0.016 A 
ATOM     38  C   UNL A   1      35.634  31.082  29.400  1.00  0.00     0.010 A 
ATOM     39  C   UNL A   1      37.106  32.908  28.778  1.00  0.00     0.010 A 
ATOM     40  C   UNL A   1      36.919  31.637  29.354  1.00  0.00    -0.014 A 
BRANCH  40  41
ATOM     41  C   UNL A   1      38.043  30.951  30.037  1.00  0.00     0.031 A 
ATOM     42  C   UNL A   1      38.391  31.345  31.447  1.00  0.00     0.074 A 
ATOM     43  C   UNL A   1      38.747  29.991  29.410  1.00  0.00     0.049 A 
ATOM     44  N   UNL A   1      39.353  30.904  32.216  1.00  0.00    -0.248 NA
ATOM     45  C   UNL A   1      37.545  32.375  32.073  1.00  0.00     0.031 C 
ATOM     46  C   UNL A   1      38.504  29.518  28.049  1.00  0.00     0.029 A 
ATOM     47  N   UNL A   1      39.828  29.259  29.834  1.00  0.00    -0.354 N 
ATOM     48  C   UNL A   1      39.247  31.621  33.402  1.00  0.00     0.074 A 
ATOM     49  C   UNL A   1      38.136  32.535  33.247  1.00  0.00     0.031 C 
ATOM     50  C   UNL A   1      39.430  28.595  27.737  1.00  0.00     0.029 A 
ATOM     51  C   UNL A   1      40.343  28.429  28.866  1.00  0.00     0.049 A 
ATOM     52  H   UNL A   1      40.199  29.321  30.744  1.00  0.00     0.167 HD
ATOM     53  C   UNL A   1      39.996  31.518  34.525  1.00  0.00     0.034 A 
ATOM     54  C   UNL A   1      41.439  27.644  28.882  1.00  0.00     0.034 A 
ATOM     55  C   UNL A   1      41.086  30.594  34.687  1.00  0.00     0.049 A 
ATOM     56  C   UNL A   1      42.270  27.564  30.138  1.00  0.00     0.074 A 
ATOM     57  C   UNL A   1      41.874  30.381  35.805  1.00  0.00     0.029 A 
ATOM     58  N   UNL A   1      41.550  29.737  33.702  1.00  0.00    -0.354 N 
ATOM     59  N   UNL A   1      42.085  28.160  31.291  1.00  0.00    -0.248 NA
ATOM     60  C   UNL A   1      43.442  26.676  30.105  1.00  0.00     0.031 C 
ATOM     61  C   UNL A   1      42.832  29.413  35.486  1.00  0.00     0.029 A 
ATOM     62  C   UNL A   1      42.621  29.002  34.179  1.00  0.00     0.049 A 
ATOM     63  H   UNL A   1      41.173  29.662  32.796  1.00  0.00     0.167 HD
ATOM     64  C   UNL A   1      43.092  27.692  32.130  1.00  0.00     0.074 A 
ATOM     65  C   UNL A   1      43.872  26.748  31.357  1.00  0.00     0.031 C 
ATOM     66  C   UNL A   1      43.355  28.023  33.418  1.00  0.00     0.034 A 
BRANCH  53  67
ATOM     67  C   UNL A   1      39.646  32.413  35.685  1.00  0.00     0.023 A 
ATOM     68  C   UNL A   1      40.186  33.714  35.750  1.00  0.00     0.012 A 
ATOM     69  C   UNL A   1      38.739  31.991  36.677  1.00  0.00     0.148 A 
ATOM     70  C   UNL A   1      39.852  34.570  36.799  1.00  0.00     0.002 A 
ATOM     71  C   UNL A   1      38.379  32.863  37.696  1.00  0.00     0.091 A 
ATOM     72  F   UNL A   1      38.256  30.742  36.610  1.00  0.00    -0.205 F 
ATOM     73  C   UNL A   1      38.942  34.148  37.765  1.00  0.00     0.022 A 
BRANCH  71  74
ATOM     74  S   UNL A   1      37.158  32.443  38.944  1.00  0.00     0.127 S 
ATOM     75  O   UNL A   1      37.522  33.350  40.031  1.00  0.00    -0.237 OA
ATOM     76  O   UNL A   1      35.901  32.771  38.270  1.00  0.00    -0.237 OA
ATOM     77  O   UNL A   1      37.342  31.026  39.225  1.00  0.00    -0.744 OA
ENDBRANCH  71  74
ENDBRANCH  53  67
BRANCH  54  78
ATOM     78  C   UNL A   1      41.802  26.844  27.678  1.00  0.00     0.023 A 
ATOM     79  C   UNL A   1      42.434  27.474  26.589  1.00  0.00     0.012 A 
ATOM     80  C   UNL A   1      41.535  25.463  27.612  1.00  0.00     0.148 A 
ATOM     81  C   UNL A   1      42.763  26.751  25.442  1.00  0.00     0.002 A 
ATOM     82  C   UNL A   1      41.918  24.736  26.491  1.00  0.00     0.091 A 
ATOM     83  F   UNL A   1      40.916  24.884  28.652  1.00  0.00    -0.205 F 
ATOM     84  C   UNL A   1      42.515  25.381  25.397  1.00  0.00     0.022 A 
BRANCH  82  85
ATOM     85  S   UNL A   1      41.754  22.949  26.402  1.00  0.00     0.127 S 
ATOM     86  O   UNL A   1      40.304  22.780  26.401  1.00  0.00    -0.237 OA
ATOM     87  O   UNL A   1      42.412  22.649  25.130  1.00  0.00    -0.237 OA
ATOM     88  O   UNL A   1      42.452  22.432  27.572  1.00  0.00    -0.744 OA
ENDBRANCH  82  85
ENDBRANCH  54  78
BRANCH  66  89
ATOM     89  C   UNL A   1      44.510  27.335  34.099  1.00  0.00     0.023 A 
ATOM     90  C   UNL A   1      45.793  27.916  34.063  1.00  0.00     0.012 A 
ATOM     91  C   UNL A   1      44.306  26.156  34.843  1.00  0.00     0.148 A 
ATOM     92  C   UNL A   1      46.862  27.315  34.728  1.00  0.00     0.002 A 
ATOM     93  C   UNL A   1      45.365  25.590  35.544  1.00  0.00     0.091 A 
ATOM     94  F   UNL A   1      43.082  25.609  34.852  1.00  0.00    -0.205 F 
ATOM     95  C   UNL A   1      46.645  26.162  35.478  1.00  0.00     0.022 A 
BRANCH  93  96
ATOM     96  S   UNL A   1      45.158  24.160  36.613  1.00  0.00     0.127 S 
ATOM     97  O   UNL A   1      44.818  23.115  35.648  1.00  0.00    -0.237 OA
ATOM     98  O   UNL A   1      46.486  24.027  37.213  1.00  0.00    -0.237 OA
ATOM     99  O   UNL A   1      44.103  24.512  37.553  1.00  0.00    -0.744 OA
ENDBRANCH  93  96
ENDBRANCH  66  89
ENDBRANCH  40  41
ENDBRANCH  33  35
ENDBRANCH  32  33
ENDBRANCH  31  32
ENDBRANCH  30  31
ENDBRANCH   1  30
TORSDOF 21
ENDMDL
MODEL 3
REMARK VINA RESULT:     -10.8      1.673      2.144
REMARK SMILES C[C@@H]1CCCN(c2ccc(NC(=O)Cc3cccs3)c(C(=O)OCCOCCOC(=O)c3ccc(-c4c5nc(c(-c6cccc(S(=O)(=O)[O-])c6F)c6ccc([nH]6)c(-c6cccc(S(=O)(=O)[O-])c6F)c6nc(c(-c7cccc(S(=O)(=O)[O-])c7F)c7ccc4[nH]7)C=C6)C=C5)cc3)c2)C1
REMARK SMILES IDX 26 1 25 2 24 3 23 4 21 5 22 6 20 7 7 8 8 9 95 10 9 11 10 12
REMARK SMILES IDX 6 13 1 14 2 15 3 16 96 17 4 18 5 19 11 20 12 21 13 23 14 24
REMARK SMILES IDX 15 25 16 26 19 27 17 28 18 29 27 30 28 31 29 32 30 33 31 34
REMARK SMILES IDX 32 35 33 36 94 37 34 38 93 39 35 40 36 41 37 42 87 43 38 44
REMARK SMILES IDX 92 45 86 46 88 47 39 48 91 49 85 50 84 51 40 53 72 54 52 55
REMARK SMILES IDX 71 56 53 57 56 58 70 59 89 60 54 61 55 62 69 64 90 65 57 66
REMARK SMILES IDX 41 67 42 68 50 69 43 70 45 71 51 72 44 73 46 74 47 75 48 76
REMARK SMILES IDX 49 77 73 78 74 79 82 80 75 81 77 82 83 83 76 84 78 85 79 86
REMARK SMILES IDX 80 87 81 88 58 89 59 90 67 91 60 92 62 93 68 94 61 95 63 96
REMARK SMILES IDX 64 97 65 98 66 99
REMARK H PARENT 11 22 88 52 56 63
REMARK Flexibility Score: inf
ROOT
ATOM      1  O   UNL A   1      32.409  30.177  27.197  1.00  0.00    -0.374 OA
ENDROOT
BRANCH   1   2
ATOM      2  C   UNL A   1      32.705  29.495  25.977  1.00  0.00     0.202 C 
BRANCH   2   3
ATOM      3  C   UNL A   1      34.030  28.728  25.954  1.00  0.00     0.261 C 
BRANCH   3   4
ATOM      4  O   UNL A   1      33.832  27.360  25.555  1.00  0.00    -0.460 OA
BRANCH   4   5
ATOM      5  C   UNL A   1      33.661  27.160  24.227  1.00  0.00     0.340 C 
ATOM      6  O   UNL A   1      34.177  27.809  23.326  1.00  0.00    -0.246 OA
BRANCH   5   7
ATOM      7  C   UNL A   1      32.878  25.924  23.960  1.00  0.00     0.085 A 
ATOM      8  C   UNL A   1      32.592  23.516  24.260  1.00  0.00     0.038 A 
ATOM      9  C   UNL A   1      31.437  23.599  23.484  1.00  0.00     0.028 A 
ATOM     10  C   UNL A   1      33.275  24.705  24.536  1.00  0.00     0.043 A 
ATOM     11  C   UNL A   1      31.024  24.808  22.913  1.00  0.00     0.029 A 
ATOM     12  C   UNL A   1      31.785  25.964  23.062  1.00  0.00     0.055 A 
BRANCH   8  13
ATOM     13  N   UNL A   1      33.068  22.309  24.720  1.00  0.00    -0.371 N 
ATOM     14  C   UNL A   1      32.383  18.609  24.151  1.00  0.00     0.009 C 
ATOM     15  C   UNL A   1      33.154  19.928  24.161  1.00  0.00     0.005 C 
ATOM     16  C   UNL A   1      34.417  19.811  25.028  1.00  0.00     0.007 C 
ATOM     17  C   UNL A   1      32.264  21.090  24.641  1.00  0.00     0.119 C 
ATOM     18  C   UNL A   1      35.172  21.139  25.085  1.00  0.00     0.022 C 
ATOM     19  C   UNL A   1      34.264  22.269  25.557  1.00  0.00     0.116 C 
ENDBRANCH   8  13
BRANCH  12  20
ATOM     20  N   UNL A   1      31.590  27.133  22.286  1.00  0.00    -0.325 N 
ATOM     21  C   UNL A   1      30.805  28.242  22.395  1.00  0.00     0.229 C 
ATOM     22  H   UNL A   1      32.153  27.148  21.479  1.00  0.00     0.169 HD
ATOM     23  O   UNL A   1      30.788  29.011  21.424  1.00  0.00    -0.274 OA
BRANCH  21  24
ATOM     24  C   UNL A   1      29.991  28.595  23.618  1.00  0.00     0.147 C 
BRANCH  24  25
ATOM     25  C   UNL A   1      29.232  29.894  23.542  1.00  0.00     0.014 A 
ATOM     26  C   UNL A   1      29.551  31.177  23.951  1.00  0.00     0.016 A 
ATOM     27  S   UNL A   1      27.697  29.876  22.757  1.00  0.00    -0.148 S 
ATOM     28  C   UNL A   1      28.580  32.143  23.553  1.00  0.00     0.012 A 
ATOM     29  C   UNL A   1      27.511  31.565  22.913  1.00  0.00     0.065 A 
ENDBRANCH  24  25
ENDBRANCH  21  24
ENDBRANCH  12  20
ENDBRANCH   5   7
ENDBRANCH   4   5
ENDBRANCH   3   4
ENDBRANCH   2   3
ENDBRANCH   1   2
BRANCH   1  30
ATOM     30  C   UNL A   1      32.403  31.606  27.146  1.00  0.00     0.202 C 
BRANCH  30  31
ATOM     31  C   UNL A   1      33.634  32.303  27.737  1.00  0.00     0.261 C 
BRANCH  31  32
ATOM     32  O   UNL A   1      33.564  33.732  27.578  1.00  0.00    -0.460 OA
BRANCH  32  33
ATOM     33  C   UNL A   1      33.476  34.434  28.731  1.00  0.00     0.338 C 
ATOM     34  O   UNL A   1      32.549  35.153  29.086  1.00  0.00    -0.246 OA
BRANCH  33  35
ATOM     35  C   UNL A   1      34.592  34.080  29.629  1.00  0.00     0.060 A 
ATOM     36  C   UNL A   1      35.892  34.352  29.183  1.00  0.00     0.016 A 
ATOM     37  C   UNL A   1      34.382  33.439  30.851  1.00  0.00     0.016 A 
ATOM     38  C   UNL A   1      36.990  33.934  29.932  1.00  0.00     0.010 A 
ATOM     39  C   UNL A   1      35.486  33.014  31.599  1.00  0.00     0.010 A 
ATOM     40  C   UNL A   1      36.794  33.226  31.124  1.00  0.00    -0.014 A 
BRANCH  40  41
ATOM     41  C   UNL A   1      37.950  32.586  31.799  1.00  0.00     0.031 A 
ATOM     42  C   UNL A   1      38.627  31.417  31.136  1.00  0.00     0.074 A 
ATOM     43  C   UNL A   1      38.391  33.037  32.987  1.00  0.00     0.049 A 
ATOM     44  N   UNL A   1      39.626  30.688  31.562  1.00  0.00    -0.248 NA
ATOM     45  C   UNL A   1      38.108  31.014  29.818  1.00  0.00     0.031 C 
ATOM     46  C   UNL A   1      37.823  34.162  33.727  1.00  0.00     0.029 A 
ATOM     47  N   UNL A   1      39.406  32.583  33.791  1.00  0.00    -0.354 N 
ATOM     48  C   UNL A   1      39.835  29.724  30.583  1.00  0.00     0.074 A 
ATOM     49  C   UNL A   1      38.852  29.953  29.546  1.00  0.00     0.031 C 
ATOM     50  C   UNL A   1      38.479  34.292  34.893  1.00  0.00     0.029 A 
ATOM     51  C   UNL A   1      39.495  33.247  34.992  1.00  0.00     0.049 A 
ATOM     52  H   UNL A   1      40.012  31.851  33.534  1.00  0.00     0.167 HD
ATOM     53  C   UNL A   1      40.771  28.746  30.541  1.00  0.00     0.034 A 
ATOM     54  C   UNL A   1      40.291  33.022  36.057  1.00  0.00     0.034 A 
ATOM     55  C   UNL A   1      41.763  28.534  31.561  1.00  0.00     0.049 A 
ATOM     56  C   UNL A   1      41.310  31.913  35.995  1.00  0.00     0.074 A 
ATOM     57  C   UNL A   1      42.784  27.600  31.586  1.00  0.00     0.029 A 
ATOM     58  N   UNL A   1      41.852  29.256  32.741  1.00  0.00    -0.354 N 
ATOM     59  N   UNL A   1      41.574  31.087  35.011  1.00  0.00    -0.248 NA
ATOM     60  C   UNL A   1      42.165  31.727  37.177  1.00  0.00     0.031 C 
ATOM     61  C   UNL A   1      43.475  27.741  32.794  1.00  0.00     0.029 A 
ATOM     62  C   UNL A   1      42.902  28.783  33.508  1.00  0.00     0.049 A 
ATOM     63  H   UNL A   1      41.256  29.997  32.995  1.00  0.00     0.167 HD
ATOM     64  C   UNL A   1      42.646  30.311  35.440  1.00  0.00     0.074 A 
ATOM     65  C   UNL A   1      42.995  30.778  36.765  1.00  0.00     0.031 C 
ATOM     66  C   UNL A   1      43.276  29.294  34.801  1.00  0.00     0.034 A 
BRANCH  53  67
ATOM     67  C   UNL A   1      40.786  27.843  29.337  1.00  0.00     0.023 A 
ATOM     68  C   UNL A   1      39.925  26.728  29.290  1.00  0.00     0.012 A 
ATOM     69  C   UNL A   1      41.608  28.128  28.229  1.00  0.00     0.148 A 
ATOM     70  C   UNL A   1      39.901  25.894  28.173  1.00  0.00     0.002 A 
ATOM     71  C   UNL A   1      41.548  27.318  27.102  1.00  0.00     0.091 A 
ATOM     72  F   UNL A   1      42.437  29.179  28.302  1.00  0.00    -0.205 F 
ATOM     73  C   UNL A   1      40.704  26.195  27.076  1.00  0.00     0.022 A 
BRANCH  71  74
ATOM     74  S   UNL A   1      42.486  27.664  25.610  1.00  0.00     0.127 S 
ATOM     75  O   UNL A   1      43.851  27.738  26.130  1.00  0.00    -0.237 OA
ATOM     76  O   UNL A   1      42.209  26.485  24.790  1.00  0.00    -0.237 OA
ATOM     77  O   UNL A   1      41.952  28.910  25.080  1.00  0.00    -0.744 OA
ENDBRANCH  71  74
ENDBRANCH  53  67
BRANCH  54  78
ATOM     78  C   UNL A   1      40.179  33.885  37.267  1.00  0.00     0.023 A 
ATOM     79  C   UNL A   1      40.832  35.132  37.295  1.00  0.00     0.012 A 
ATOM     80  C   UNL A   1      39.419  33.482  38.383  1.00  0.00     0.148 A 
ATOM     81  C   UNL A   1      40.760  35.947  38.426  1.00  0.00     0.002 A 
ATOM     82  C   UNL A   1      39.303  34.324  39.483  1.00  0.00     0.091 A 
ATOM     83  F   UNL A   1      38.819  32.283  38.344  1.00  0.00    -0.205 F 
ATOM     84  C   UNL A   1      39.988  35.549  39.514  1.00  0.00     0.022 A 
BRANCH  82  85
ATOM     85  S   UNL A   1      38.227  33.948  40.871  1.00  0.00     0.127 S 
ATOM     86  O   UNL A   1      37.965  35.278  41.416  1.00  0.00    -0.237 OA
ATOM     87  O   UNL A   1      37.086  33.317  40.206  1.00  0.00    -0.237 OA
ATOM     88  O   UNL A   1      38.990  33.051  41.728  1.00  0.00    -0.744 OA
ENDBRANCH  82  85
ENDBRANCH  54  78
BRANCH  66  89
ATOM     89  C   UNL A   1      44.437  28.636  35.501  1.00  0.00     0.023 A 
ATOM     90  C   UNL A   1      45.751  29.077  35.248  1.00  0.00     0.012 A 
ATOM     91  C   UNL A   1      44.219  27.635  36.470  1.00  0.00     0.148 A 
ATOM     92  C   UNL A   1      46.832  28.510  35.923  1.00  0.00     0.002 A 
ATOM     93  C   UNL A   1      45.297  27.110  37.174  1.00  0.00     0.091 A 
ATOM     94  F   UNL A   1      42.963  27.217  36.686  1.00  0.00    -0.205 F 
ATOM     95  C   UNL A   1      46.604  27.538  36.894  1.00  0.00     0.022 A 
BRANCH  93  96
ATOM     96  S   UNL A   1      45.089  25.925  38.509  1.00  0.00     0.127 S 
ATOM     97  O   UNL A   1      44.081  26.585  39.338  1.00  0.00    -0.237 OA
ATOM     98  O   UNL A   1      44.611  24.738  37.798  1.00  0.00    -0.237 OA
ATOM     99  O   UNL A   1      46.402  25.775  39.120  1.00  0.00    -0.744 OA
ENDBRANCH  93  96
ENDBRANCH  66  89
ENDBRANCH  40  41
ENDBRANCH  33  35
ENDBRANCH  32  33
ENDBRANCH  31  32
ENDBRANCH  30  31
ENDBRANCH   1  30
TORSDOF 21
ENDMDL
