MODEL 1
REMARK VINA RESULT:     -11.3      0.000      0.000
REMARK SMILES Cc1ccc(C)n1-c1ccccc1S[C@H](C)C(=O)OCCOCCOC(=O)c1ccc(-c2c3nc(c(-c4cccc(S(=O)(=O)[O-])c4F)c4ccc([nH]4)c(-c4cccc(S(=O)(=O)[O-])c4F)c4nc(c(-c5cccc(S(=O)(=O)[O-])c5F)c5ccc2[nH]5)C=C4)C=C3)cc1
REMARK SMILES IDX 22 1 21 2 20 3 19 4 17 5 18 6 15 7 16 8 14 9 13 10 8 11 9 12
REMARK SMILES IDX 10 13 12 14 11 15 7 16 1 17 2 18 3 19 4 20 5 21 6 22 23 23
REMARK SMILES IDX 24 24 25 25 26 26 27 27 28 28 29 29 90 30 30 31 89 32 31 33
REMARK SMILES IDX 32 34 33 35 83 36 34 37 88 38 82 39 84 40 35 41 87 42 81 43
REMARK SMILES IDX 80 44 36 46 68 47 48 48 67 49 49 50 52 51 66 52 85 53 50 54
REMARK SMILES IDX 51 55 65 57 86 58 53 59 37 60 38 61 46 62 39 63 41 64 47 65
REMARK SMILES IDX 40 66 42 67 43 68 44 69 45 70 69 71 70 72 78 73 71 74 73 75
REMARK SMILES IDX 79 76 72 77 74 78 75 79 76 80 77 81 54 82 55 83 63 84 56 85
REMARK SMILES IDX 58 86 64 87 57 88 59 89 60 90 61 91 62 92
REMARK H PARENT 84 45 52 56
REMARK Flexibility Score: inf
ROOT
ATOM      1  O   UNL A   1      35.638  21.233  26.144  1.00  0.00    -0.374 OA
ENDROOT
BRANCH   1   2
ATOM      2  C   UNL A   1      34.242  21.427  25.912  1.00  0.00     0.202 C 
BRANCH   2   3
ATOM      3  C   UNL A   1      33.876  22.789  25.301  1.00  0.00     0.261 C 
BRANCH   3   4
ATOM      4  O   UNL A   1      33.533  23.743  26.314  1.00  0.00    -0.462 OA
BRANCH   4   5
ATOM      5  C   UNL A   1      32.306  23.634  26.887  1.00  0.00     0.319 C 
ATOM      6  O   UNL A   1      32.057  22.982  27.897  1.00  0.00    -0.251 OA
BRANCH   5   7
ATOM      7  C   UNL A   1      31.237  24.369  26.091  1.00  0.00     0.158 C 
ATOM      8  C   UNL A   1      29.787  23.993  26.358  1.00  0.00     0.032 C 
BRANCH   7   9
ATOM      9  S   UNL A   1      31.638  26.152  26.060  1.00  0.00    -0.109 SA
BRANCH   9  10
ATOM     10  C   UNL A   1      32.516  26.553  24.541  1.00  0.00     0.032 A 
ATOM     11  C   UNL A   1      32.849  27.903  24.280  1.00  0.00     0.059 A 
ATOM     12  C   UNL A   1      33.408  28.308  23.055  1.00  0.00     0.028 A 
ATOM     13  C   UNL A   1      33.669  27.364  22.068  1.00  0.00     0.002 A 
ATOM     14  C   UNL A   1      32.788  25.636  23.518  1.00  0.00     0.017 A 
ATOM     15  C   UNL A   1      33.362  26.029  22.301  1.00  0.00     0.001 A 
BRANCH  11  16
ATOM     16  N   UNL A   1      32.501  28.926  25.201  1.00  0.00    -0.317 N 
ATOM     17  C   UNL A   1      30.353  29.707  24.069  1.00  0.00     0.065 C 
ATOM     18  C   UNL A   1      31.428  29.805  25.098  1.00  0.00     0.020 A 
ATOM     19  C   UNL A   1      31.556  30.743  26.106  1.00  0.00     0.023 A 
ATOM     20  C   UNL A   1      32.693  30.410  26.867  1.00  0.00     0.023 A 
ATOM     21  C   UNL A   1      33.260  29.279  26.312  1.00  0.00     0.020 A 
ATOM     22  C   UNL A   1      34.514  28.587  26.726  1.00  0.00     0.065 C 
ENDBRANCH  11  16
ENDBRANCH   9  10
ENDBRANCH   7   9
ENDBRANCH   5   7
ENDBRANCH   4   5
ENDBRANCH   3   4
ENDBRANCH   2   3
ENDBRANCH   1   2
BRANCH   1  23
ATOM     23  C   UNL A   1      36.435  20.982  24.971  1.00  0.00     0.202 C 
BRANCH  23  24
ATOM     24  C   UNL A   1      37.781  21.753  24.866  1.00  0.00     0.261 C 
BRANCH  24  25
ATOM     25  O   UNL A   1      38.025  22.851  25.832  1.00  0.00    -0.460 OA
BRANCH  25  26
ATOM     26  C   UNL A   1      39.217  22.799  26.524  1.00  0.00     0.338 C 
ATOM     27  O   UNL A   1      39.890  21.774  26.563  1.00  0.00    -0.246 OA
BRANCH  26  28
ATOM     28  C   UNL A   1      39.755  24.110  27.136  1.00  0.00     0.060 A 
ATOM     29  C   UNL A   1      39.121  24.592  28.280  1.00  0.00     0.016 A 
ATOM     30  C   UNL A   1      40.638  25.030  26.534  1.00  0.00     0.016 A 
ATOM     31  C   UNL A   1      39.377  25.910  28.799  1.00  0.00     0.010 A 
ATOM     32  C   UNL A   1      40.834  26.412  27.027  1.00  0.00     0.010 A 
ATOM     33  C   UNL A   1      40.192  26.922  28.173  1.00  0.00    -0.014 A 
BRANCH  33  34
ATOM     34  C   UNL A   1      39.829  28.477  28.546  1.00  0.00     0.031 A 
ATOM     35  C   UNL A   1      41.175  29.050  28.851  1.00  0.00     0.074 A 
ATOM     36  C   UNL A   1      38.788  29.396  28.771  1.00  0.00     0.049 A 
ATOM     37  N   UNL A   1      41.993  28.443  29.670  1.00  0.00    -0.248 NA
ATOM     38  C   UNL A   1      41.823  30.066  28.016  1.00  0.00     0.031 C 
ATOM     39  C   UNL A   1      37.335  29.146  28.782  1.00  0.00     0.029 A 
ATOM     40  N   UNL A   1      38.770  30.817  29.051  1.00  0.00    -0.354 N 
ATOM     41  C   UNL A   1      43.063  29.275  29.790  1.00  0.00     0.074 A 
ATOM     42  C   UNL A   1      43.048  30.038  28.552  1.00  0.00     0.031 C 
ATOM     43  C   UNL A   1      36.610  30.300  28.900  1.00  0.00     0.029 A 
ATOM     44  C   UNL A   1      37.475  31.473  29.044  1.00  0.00     0.049 A 
ATOM     45  H   UNL A   1      39.598  31.316  29.238  1.00  0.00     0.167 HD
ATOM     46  C   UNL A   1      43.349  29.696  31.055  1.00  0.00     0.034 A 
ATOM     47  C   UNL A   1      37.095  32.810  29.223  1.00  0.00     0.034 A 
ATOM     48  C   UNL A   1      43.179  31.109  31.235  1.00  0.00     0.049 A 
ATOM     49  C   UNL A   1      38.171  33.452  29.995  1.00  0.00     0.074 A 
ATOM     50  C   UNL A   1      43.439  32.215  30.448  1.00  0.00     0.029 A 
ATOM     51  N   UNL A   1      42.248  31.501  32.170  1.00  0.00    -0.354 N 
ATOM     52  N   UNL A   1      38.242  33.304  31.284  1.00  0.00    -0.248 NA
ATOM     53  C   UNL A   1      39.079  34.447  29.432  1.00  0.00     0.031 C 
ATOM     54  C   UNL A   1      42.311  33.051  30.605  1.00  0.00     0.029 A 
ATOM     55  C   UNL A   1      41.579  32.614  31.700  1.00  0.00     0.049 A 
ATOM     56  H   UNL A   1      42.086  31.059  33.035  1.00  0.00     0.167 HD
ATOM     57  C   UNL A   1      39.488  33.760  31.584  1.00  0.00     0.074 A 
ATOM     58  C   UNL A   1      39.826  34.679  30.515  1.00  0.00     0.031 C 
ATOM     59  C   UNL A   1      40.283  32.903  32.265  1.00  0.00     0.034 A 
BRANCH  46  60
ATOM     60  C   UNL A   1      43.141  28.657  32.136  1.00  0.00     0.023 A 
ATOM     61  C   UNL A   1      41.852  28.532  32.677  1.00  0.00     0.012 A 
ATOM     62  C   UNL A   1      44.208  27.941  32.743  1.00  0.00     0.148 A 
ATOM     63  C   UNL A   1      41.640  27.774  33.832  1.00  0.00     0.002 A 
ATOM     64  C   UNL A   1      44.012  27.293  33.958  1.00  0.00     0.091 A 
ATOM     65  F   UNL A   1      45.402  27.912  32.131  1.00  0.00    -0.205 F 
ATOM     66  C   UNL A   1      42.722  27.195  34.495  1.00  0.00     0.022 A 
BRANCH  64  67
ATOM     67  S   UNL A   1      45.397  26.788  34.999  1.00  0.00     0.127 S 
ATOM     68  O   UNL A   1      44.717  26.248  36.184  1.00  0.00    -0.237 OA
ATOM     69  O   UNL A   1      46.063  25.766  34.181  1.00  0.00    -0.237 OA
ATOM     70  O   UNL A   1      46.175  27.977  35.266  1.00  0.00    -0.744 OA
ENDBRANCH  64  67
ENDBRANCH  46  60
BRANCH  47  71
ATOM     71  C   UNL A   1      35.907  33.853  29.174  1.00  0.00     0.023 A 
ATOM     72  C   UNL A   1      35.060  33.853  28.004  1.00  0.00     0.012 A 
ATOM     73  C   UNL A   1      35.318  34.456  30.309  1.00  0.00     0.148 A 
ATOM     74  C   UNL A   1      33.718  34.279  27.986  1.00  0.00     0.002 A 
ATOM     75  C   UNL A   1      33.973  34.932  30.275  1.00  0.00     0.091 A 
ATOM     76  F   UNL A   1      36.017  34.478  31.450  1.00  0.00    -0.205 F 
ATOM     77  C   UNL A   1      33.167  34.810  29.131  1.00  0.00     0.022 A 
BRANCH  75  78
ATOM     78  S   UNL A   1      33.123  35.667  31.694  1.00  0.00     0.127 S 
ATOM     79  O   UNL A   1      32.795  34.497  32.514  1.00  0.00    -0.237 OA
ATOM     80  O   UNL A   1      34.164  36.525  32.261  1.00  0.00    -0.237 OA
ATOM     81  O   UNL A   1      31.969  36.354  31.137  1.00  0.00    -0.744 OA
ENDBRANCH  75  78
ENDBRANCH  47  71
BRANCH  59  82
ATOM     82  C   UNL A   1      39.649  32.090  33.380  1.00  0.00     0.023 A 
ATOM     83  C   UNL A   1      39.191  30.758  33.261  1.00  0.00     0.012 A 
ATOM     84  C   UNL A   1      39.520  32.711  34.631  1.00  0.00     0.148 A 
ATOM     85  C   UNL A   1      38.596  30.089  34.337  1.00  0.00     0.002 A 
ATOM     86  C   UNL A   1      38.986  32.025  35.718  1.00  0.00     0.091 A 
ATOM     87  F   UNL A   1      39.924  33.987  34.743  1.00  0.00    -0.205 F 
ATOM     88  C   UNL A   1      38.512  30.716  35.574  1.00  0.00     0.022 A 
BRANCH  86  89
ATOM     89  S   UNL A   1      38.951  32.799  37.333  1.00  0.00     0.127 S 
ATOM     90  O   UNL A   1      38.032  33.915  37.113  1.00  0.00    -0.237 OA
ATOM     91  O   UNL A   1      38.434  31.746  38.204  1.00  0.00    -0.237 OA
ATOM     92  O   UNL A   1      40.336  33.171  37.603  1.00  0.00    -0.744 OA
ENDBRANCH  86  89
ENDBRANCH  59  82
ENDBRANCH  33  34
ENDBRANCH  26  28
ENDBRANCH  25  26
ENDBRANCH  24  25
ENDBRANCH  23  24
ENDBRANCH   1  23
TORSDOF 20
ENDMDL
MODEL 2
REMARK VINA RESULT:     -11.1      4.624     11.119
REMARK SMILES Cc1ccc(C)n1-c1ccccc1S[C@H](C)C(=O)OCCOCCOC(=O)c1ccc(-c2c3nc(c(-c4cccc(S(=O)(=O)[O-])c4F)c4ccc([nH]4)c(-c4cccc(S(=O)(=O)[O-])c4F)c4nc(c(-c5cccc(S(=O)(=O)[O-])c5F)c5ccc2[nH]5)C=C4)C=C3)cc1
REMARK SMILES IDX 22 1 21 2 20 3 19 4 17 5 18 6 15 7 16 8 14 9 13 10 8 11 9 12
REMARK SMILES IDX 10 13 12 14 11 15 7 16 1 17 2 18 3 19 4 20 5 21 6 22 23 23
REMARK SMILES IDX 24 24 25 25 26 26 27 27 28 28 29 29 90 30 30 31 89 32 31 33
REMARK SMILES IDX 32 34 33 35 83 36 34 37 88 38 82 39 84 40 35 41 87 42 81 43
REMARK SMILES IDX 80 44 36 46 68 47 48 48 67 49 49 50 52 51 66 52 85 53 50 54
REMARK SMILES IDX 51 55 65 57 86 58 53 59 37 60 38 61 46 62 39 63 41 64 47 65
REMARK SMILES IDX 40 66 42 67 43 68 44 69 45 70 69 71 70 72 78 73 71 74 73 75
REMARK SMILES IDX 79 76 72 77 74 78 75 79 76 80 77 81 54 82 55 83 63 84 56 85
REMARK SMILES IDX 58 86 64 87 57 88 59 89 60 90 61 91 62 92
REMARK H PARENT 84 45 52 56
REMARK Flexibility Score: inf
ROOT
ATOM      1  O   UNL A   1      33.789  36.137  29.755  1.00  0.00    -0.374 OA
ENDROOT
BRANCH   1   2
ATOM      2  C   UNL A   1      32.508  36.079  30.383  1.00  0.00     0.202 C 
BRANCH   2   3
ATOM      3  C   UNL A   1      32.548  36.025  31.919  1.00  0.00     0.261 C 
BRANCH   3   4
ATOM      4  O   UNL A   1      33.318  34.910  32.384  1.00  0.00    -0.462 OA
BRANCH   4   5
ATOM      5  C   UNL A   1      34.457  35.179  33.074  1.00  0.00     0.319 C 
ATOM      6  O   UNL A   1      34.932  36.299  33.238  1.00  0.00    -0.251 OA
BRANCH   5   7
ATOM      7  C   UNL A   1      35.131  33.912  33.579  1.00  0.00     0.158 C 
ATOM      8  C   UNL A   1      34.778  32.607  32.880  1.00  0.00     0.032 C 
BRANCH   7   9
ATOM      9  S   UNL A   1      36.907  34.251  33.853  1.00  0.00    -0.109 SA
BRANCH   9  10
ATOM     10  C   UNL A   1      37.839  33.858  32.363  1.00  0.00     0.032 A 
ATOM     11  C   UNL A   1      39.058  33.150  32.486  1.00  0.00     0.059 A 
ATOM     12  C   UNL A   1      39.905  32.931  31.386  1.00  0.00     0.028 A 
ATOM     13  C   UNL A   1      39.540  33.398  30.128  1.00  0.00     0.002 A 
ATOM     14  C   UNL A   1      37.513  34.317  31.081  1.00  0.00     0.017 A 
ATOM     15  C   UNL A   1      38.343  34.086  29.976  1.00  0.00     0.001 A 
BRANCH  11  16
ATOM     16  N   UNL A   1      39.538  32.752  33.762  1.00  0.00    -0.317 N 
ATOM     17  C   UNL A   1      38.265  30.550  33.949  1.00  0.00     0.065 C 
ATOM     18  C   UNL A   1      39.147  31.628  34.482  1.00  0.00     0.020 A 
ATOM     19  C   UNL A   1      39.723  31.711  35.736  1.00  0.00     0.023 A 
ATOM     20  C   UNL A   1      40.517  32.874  35.772  1.00  0.00     0.023 A 
ATOM     21  C   UNL A   1      40.410  33.501  34.545  1.00  0.00     0.020 A 
ATOM     22  C   UNL A   1      41.014  34.797  34.125  1.00  0.00     0.065 C 
ENDBRANCH  11  16
ENDBRANCH   9  10
ENDBRANCH   7   9
ENDBRANCH   5   7
ENDBRANCH   4   5
ENDBRANCH   3   4
ENDBRANCH   2   3
ENDBRANCH   1   2
BRANCH   1  23
ATOM     23  C   UNL A   1      33.871  35.535  28.449  1.00  0.00     0.202 C 
BRANCH  23  24
ATOM     24  C   UNL A   1      33.478  34.034  28.350  1.00  0.00     0.261 C 
BRANCH  24  25
ATOM     25  O   UNL A   1      34.133  33.086  29.282  1.00  0.00    -0.460 OA
BRANCH  25  26
ATOM     26  C   UNL A   1      34.567  31.897  28.736  1.00  0.00     0.338 C 
ATOM     27  O   UNL A   1      33.928  31.326  27.857  1.00  0.00    -0.246 OA
BRANCH  26  28
ATOM     28  C   UNL A   1      35.954  31.369  29.161  1.00  0.00     0.060 A 
ATOM     29  C   UNL A   1      36.912  31.204  28.162  1.00  0.00     0.016 A 
ATOM     30  C   UNL A   1      36.297  30.777  30.394  1.00  0.00     0.016 A 
ATOM     31  C   UNL A   1      38.149  30.506  28.396  1.00  0.00     0.010 A 
ATOM     32  C   UNL A   1      37.534  29.990  30.603  1.00  0.00     0.010 A 
ATOM     33  C   UNL A   1      38.507  29.800  29.601  1.00  0.00    -0.014 A 
BRANCH  33  34
ATOM     34  C   UNL A   1      39.588  28.579  29.432  1.00  0.00     0.031 A 
ATOM     35  C   UNL A   1      40.300  28.604  30.745  1.00  0.00     0.074 A 
ATOM     36  C   UNL A   1      40.134  27.639  28.539  1.00  0.00     0.049 A 
ATOM     37  N   UNL A   1      40.773  29.721  31.231  1.00  0.00    -0.248 NA
ATOM     38  C   UNL A   1      40.195  27.527  31.736  1.00  0.00     0.031 C 
ATOM     39  C   UNL A   1      39.845  27.466  27.105  1.00  0.00     0.029 A 
ATOM     40  N   UNL A   1      41.107  26.577  28.699  1.00  0.00    -0.354 N 
ATOM     41  C   UNL A   1      41.431  29.366  32.369  1.00  0.00     0.074 A 
ATOM     42  C   UNL A   1      40.777  28.133  32.777  1.00  0.00     0.031 C 
ATOM     43  C   UNL A   1      40.460  26.361  26.580  1.00  0.00     0.029 A 
ATOM     44  C   UNL A   1      41.291  25.679  27.574  1.00  0.00     0.049 A 
ATOM     45  H   UNL A   1      41.620  26.469  29.532  1.00  0.00     0.167 HD
ATOM     46  C   UNL A   1      42.754  29.694  32.416  1.00  0.00     0.034 A 
ATOM     47  C   UNL A   1      42.093  24.543  27.396  1.00  0.00     0.034 A 
ATOM     48  C   UNL A   1      43.620  28.550  32.453  1.00  0.00     0.049 A 
ATOM     49  C   UNL A   1      43.204  24.660  28.353  1.00  0.00     0.074 A 
ATOM     50  C   UNL A   1      43.557  27.318  33.075  1.00  0.00     0.029 A 
ATOM     51  N   UNL A   1      44.507  28.419  31.408  1.00  0.00    -0.354 N 
ATOM     52  N   UNL A   1      44.227  25.417  28.092  1.00  0.00    -0.248 NA
ATOM     53  C   UNL A   1      43.349  23.800  29.524  1.00  0.00     0.031 C 
ATOM     54  C   UNL A   1      43.993  26.392  32.102  1.00  0.00     0.029 A 
ATOM     55  C   UNL A   1      44.608  27.084  31.069  1.00  0.00     0.049 A 
ATOM     56  H   UNL A   1      44.992  29.158  30.974  1.00  0.00     0.167 HD
ATOM     57  C   UNL A   1      44.862  25.511  29.292  1.00  0.00     0.074 A 
ATOM     58  C   UNL A   1      44.473  24.322  30.023  1.00  0.00     0.031 C 
ATOM     59  C   UNL A   1      45.087  26.766  29.745  1.00  0.00     0.034 A 
BRANCH  46  60
ATOM     60  C   UNL A   1      43.106  31.024  31.785  1.00  0.00     0.023 A 
ATOM     61  C   UNL A   1      43.099  31.099  30.383  1.00  0.00     0.012 A 
ATOM     62  C   UNL A   1      43.608  32.127  32.525  1.00  0.00     0.148 A 
ATOM     63  C   UNL A   1      43.643  32.210  29.732  1.00  0.00     0.002 A 
ATOM     64  C   UNL A   1      44.256  33.170  31.872  1.00  0.00     0.091 A 
ATOM     65  F   UNL A   1      43.455  32.139  33.859  1.00  0.00    -0.205 F 
ATOM     66  C   UNL A   1      44.258  33.220  30.472  1.00  0.00     0.022 A 
BRANCH  64  67
ATOM     67  S   UNL A   1      45.314  34.333  32.757  1.00  0.00     0.127 S 
ATOM     68  O   UNL A   1      46.266  33.439  33.432  1.00  0.00    -0.237 OA
ATOM     69  O   UNL A   1      45.910  35.121  31.671  1.00  0.00    -0.237 OA
ATOM     70  O   UNL A   1      44.462  35.067  33.665  1.00  0.00    -0.744 OA
ENDBRANCH  64  67
ENDBRANCH  46  60
BRANCH  47  71
ATOM     71  C   UNL A   1      42.454  23.329  26.449  1.00  0.00     0.023 A 
ATOM     72  C   UNL A   1      43.674  23.415  25.680  1.00  0.00     0.012 A 
ATOM     73  C   UNL A   1      41.970  22.010  26.611  1.00  0.00     0.148 A 
ATOM     74  C   UNL A   1      44.419  22.307  25.232  1.00  0.00     0.002 A 
ATOM     75  C   UNL A   1      42.702  20.891  26.113  1.00  0.00     0.091 A 
ATOM     76  F   UNL A   1      40.858  21.827  27.334  1.00  0.00    -0.205 F 
ATOM     77  C   UNL A   1      43.937  21.038  25.460  1.00  0.00     0.022 A 
BRANCH  75  78
ATOM     78  S   UNL A   1      42.185  19.169  26.322  1.00  0.00     0.127 S 
ATOM     79  O   UNL A   1      40.815  19.179  25.799  1.00  0.00    -0.237 OA
ATOM     80  O   UNL A   1      43.145  18.458  25.476  1.00  0.00    -0.237 OA
ATOM     81  O   UNL A   1      42.281  18.910  27.749  1.00  0.00    -0.744 OA
ENDBRANCH  75  78
ENDBRANCH  47  71
BRANCH  59  82
ATOM     82  C   UNL A   1      45.536  27.809  28.737  1.00  0.00     0.023 A 
ATOM     83  C   UNL A   1      44.685  28.722  28.072  1.00  0.00     0.012 A 
ATOM     84  C   UNL A   1      46.908  27.877  28.454  1.00  0.00     0.148 A 
ATOM     85  C   UNL A   1      45.181  29.638  27.138  1.00  0.00     0.002 A 
ATOM     86  C   UNL A   1      47.410  28.829  27.572  1.00  0.00     0.091 A 
ATOM     87  F   UNL A   1      47.718  26.992  29.058  1.00  0.00    -0.205 F 
ATOM     88  C   UNL A   1      46.550  29.706  26.902  1.00  0.00     0.022 A 
BRANCH  86  89
ATOM     89  S   UNL A   1      49.178  28.975  27.327  1.00  0.00     0.127 S 
ATOM     90  O   UNL A   1      49.271  30.184  26.510  1.00  0.00    -0.237 OA
ATOM     91  O   UNL A   1      49.700  29.114  28.684  1.00  0.00    -0.237 OA
ATOM     92  O   UNL A   1      49.570  27.737  26.661  1.00  0.00    -0.744 OA
ENDBRANCH  86  89
ENDBRANCH  59  82
ENDBRANCH  33  34
ENDBRANCH  26  28
ENDBRANCH  25  26
ENDBRANCH  24  25
ENDBRANCH  23  24
ENDBRANCH   1  23
TORSDOF 20
ENDMDL
MODEL 3
REMARK VINA RESULT:     -10.9      1.865      2.284
REMARK SMILES Cc1ccc(C)n1-c1ccccc1S[C@H](C)C(=O)OCCOCCOC(=O)c1ccc(-c2c3nc(c(-c4cccc(S(=O)(=O)[O-])c4F)c4ccc([nH]4)c(-c4cccc(S(=O)(=O)[O-])c4F)c4nc(c(-c5cccc(S(=O)(=O)[O-])c5F)c5ccc2[nH]5)C=C4)C=C3)cc1
REMARK SMILES IDX 22 1 21 2 20 3 19 4 17 5 18 6 15 7 16 8 14 9 13 10 8 11 9 12
REMARK SMILES IDX 10 13 12 14 11 15 7 16 1 17 2 18 3 19 4 20 5 21 6 22 23 23
REMARK SMILES IDX 24 24 25 25 26 26 27 27 28 28 29 29 90 30 30 31 89 32 31 33
REMARK SMILES IDX 32 34 33 35 83 36 34 37 88 38 82 39 84 40 35 41 87 42 81 43
REMARK SMILES IDX 80 44 36 46 68 47 48 48 67 49 49 50 52 51 66 52 85 53 50 54
REMARK SMILES IDX 51 55 65 57 86 58 53 59 37 60 38 61 46 62 39 63 41 64 47 65
REMARK SMILES IDX 40 66 42 67 43 68 44 69 45 70 69 71 70 72 78 73 71 74 73 75
REMARK SMILES IDX 79 76 72 77 74 78 75 79 76 80 77 81 54 82 55 83 63 84 56 85
REMARK SMILES IDX 58 86 64 87 57 88 59 89 60 90 61 91 62 92
REMARK H PARENT 84 45 52 56
REMARK Flexibility Score: inf
ROOT
ATOM      1  O   UNL A   1      35.209  21.638  26.283  1.00  0.00    -0.374 OA
ENDROOT
BRANCH   1   2
ATOM      2  C   UNL A   1      33.828  21.275  26.238  1.00  0.00     0.202 C 
BRANCH   2   3
ATOM      3  C   UNL A   1      32.933  22.251  25.458  1.00  0.00     0.261 C 
BRANCH   3   4
ATOM      4  O   UNL A   1      32.863  23.528  26.105  1.00  0.00    -0.462 OA
BRANCH   4   5
ATOM      5  C   UNL A   1      31.655  23.921  26.587  1.00  0.00     0.319 C 
ATOM      6  O   UNL A   1      30.994  23.303  27.416  1.00  0.00    -0.251 OA
BRANCH   5   7
ATOM      7  C   UNL A   1      31.166  25.202  25.927  1.00  0.00     0.158 C 
ATOM      8  C   UNL A   1      29.693  25.551  26.083  1.00  0.00     0.032 C 
BRANCH   7   9
ATOM      9  S   UNL A   1      32.372  26.538  26.253  1.00  0.00    -0.109 SA
BRANCH   9  10
ATOM     10  C   UNL A   1      33.086  27.107  24.702  1.00  0.00     0.032 A 
ATOM     11  C   UNL A   1      33.226  28.498  24.484  1.00  0.00     0.059 A 
ATOM     12  C   UNL A   1      33.643  29.019  23.246  1.00  0.00     0.028 A 
ATOM     13  C   UNL A   1      33.953  28.155  22.202  1.00  0.00     0.002 A 
ATOM     14  C   UNL A   1      33.400  26.273  23.622  1.00  0.00     0.017 A 
ATOM     15  C   UNL A   1      33.835  26.784  22.391  1.00  0.00     0.001 A 
BRANCH  11  16
ATOM     16  N   UNL A   1      32.815  29.430  25.472  1.00  0.00    -0.317 N 
ATOM     17  C   UNL A   1      30.531  30.004  24.492  1.00  0.00     0.065 C 
ATOM     18  C   UNL A   1      31.644  30.182  25.469  1.00  0.00     0.020 A 
ATOM     19  C   UNL A   1      31.720  31.082  26.515  1.00  0.00     0.023 A 
ATOM     20  C   UNL A   1      32.929  30.851  27.199  1.00  0.00     0.023 A 
ATOM     21  C   UNL A   1      33.590  29.821  26.560  1.00  0.00     0.020 A 
ATOM     22  C   UNL A   1      34.936  29.263  26.875  1.00  0.00     0.065 C 
ENDBRANCH  11  16
ENDBRANCH   9  10
ENDBRANCH   7   9
ENDBRANCH   5   7
ENDBRANCH   4   5
ENDBRANCH   3   4
ENDBRANCH   2   3
ENDBRANCH   1   2
BRANCH   1  23
ATOM     23  C   UNL A   1      35.974  21.321  25.104  1.00  0.00     0.202 C 
BRANCH  23  24
ATOM     24  C   UNL A   1      37.464  21.768  25.102  1.00  0.00     0.261 C 
BRANCH  24  25
ATOM     25  O   UNL A   1      37.896  22.735  26.138  1.00  0.00    -0.460 OA
BRANCH  25  26
ATOM     26  C   UNL A   1      39.232  22.707  26.477  1.00  0.00     0.338 C 
ATOM     27  O   UNL A   1      39.914  21.701  26.308  1.00  0.00    -0.246 OA
BRANCH  26  28
ATOM     28  C   UNL A   1      39.887  24.024  26.947  1.00  0.00     0.060 A 
ATOM     29  C   UNL A   1      39.470  24.547  28.170  1.00  0.00     0.016 A 
ATOM     30  C   UNL A   1      40.662  24.912  26.173  1.00  0.00     0.016 A 
ATOM     31  C   UNL A   1      39.831  25.872  28.598  1.00  0.00     0.010 A 
ATOM     32  C   UNL A   1      40.960  26.303  26.585  1.00  0.00     0.010 A 
ATOM     33  C   UNL A   1      40.536  26.854  27.810  1.00  0.00    -0.014 A 
BRANCH  33  34
ATOM     34  C   UNL A   1      40.265  28.424  28.197  1.00  0.00     0.031 A 
ATOM     35  C   UNL A   1      41.608  29.039  27.976  1.00  0.00     0.074 A 
ATOM     36  C   UNL A   1      39.332  29.338  28.720  1.00  0.00     0.049 A 
ATOM     37  N   UNL A   1      42.684  28.503  28.489  1.00  0.00    -0.248 NA
ATOM     38  C   UNL A   1      41.883  30.007  26.909  1.00  0.00     0.031 C 
ATOM     39  C   UNL A   1      37.986  29.064  29.255  1.00  0.00     0.029 A 
ATOM     40  N   UNL A   1      39.357  30.775  28.906  1.00  0.00    -0.354 N 
ATOM     41  C   UNL A   1      43.695  29.359  28.177  1.00  0.00     0.074 A 
ATOM     42  C   UNL A   1      43.218  30.036  26.981  1.00  0.00     0.031 C 
ATOM     43  C   UNL A   1      37.302  30.212  29.553  1.00  0.00     0.029 A 
ATOM     44  C   UNL A   1      38.116  31.406  29.316  1.00  0.00     0.049 A 
ATOM     45  H   UNL A   1      40.177  31.299  28.761  1.00  0.00     0.167 HD
ATOM     46  C   UNL A   1      44.389  29.870  29.235  1.00  0.00     0.034 A 
ATOM     47  C   UNL A   1      37.769  32.745  29.541  1.00  0.00     0.034 A 
ATOM     48  C   UNL A   1      44.236  31.289  29.381  1.00  0.00     0.049 A 
ATOM     49  C   UNL A   1      39.021  33.456  29.846  1.00  0.00     0.074 A 
ATOM     50  C   UNL A   1      44.160  32.343  28.491  1.00  0.00     0.029 A 
ATOM     51  N   UNL A   1      43.676  31.728  30.559  1.00  0.00    -0.354 N 
ATOM     52  N   UNL A   1      39.543  33.398  31.035  1.00  0.00    -0.248 NA
ATOM     53  C   UNL A   1      39.634  34.427  28.944  1.00  0.00     0.031 C 
ATOM     54  C   UNL A   1      43.126  33.169  28.985  1.00  0.00     0.029 A 
ATOM     55  C   UNL A   1      42.840  32.794  30.290  1.00  0.00     0.049 A 
ATOM     56  H   UNL A   1      43.844  31.343  31.450  1.00  0.00     0.167 HD
ATOM     57  C   UNL A   1      40.797  33.894  30.851  1.00  0.00     0.074 A 
ATOM     58  C   UNL A   1      40.703  34.744  29.680  1.00  0.00     0.031 C 
ATOM     59  C   UNL A   1      41.813  33.099  31.258  1.00  0.00     0.034 A 
BRANCH  46  60
ATOM     60  C   UNL A   1      44.613  28.903  30.378  1.00  0.00     0.023 A 
ATOM     61  C   UNL A   1      43.755  28.997  31.485  1.00  0.00     0.012 A 
ATOM     62  C   UNL A   1      45.741  28.044  30.460  1.00  0.00     0.148 A 
ATOM     63  C   UNL A   1      44.048  28.310  32.666  1.00  0.00     0.002 A 
ATOM     64  C   UNL A   1      46.091  27.464  31.674  1.00  0.00     0.091 A 
ATOM     65  F   UNL A   1      46.463  27.812  29.352  1.00  0.00    -0.205 F 
ATOM     66  C   UNL A   1      45.234  27.584  32.775  1.00  0.00     0.022 A 
BRANCH  64  67
ATOM     67  S   UNL A   1      47.734  26.773  31.958  1.00  0.00     0.127 S 
ATOM     68  O   UNL A   1      47.634  26.288  33.342  1.00  0.00    -0.237 OA
ATOM     69  O   UNL A   1      47.812  25.699  30.959  1.00  0.00    -0.237 OA
ATOM     70  O   UNL A   1      48.678  27.854  31.787  1.00  0.00    -0.744 OA
ENDBRANCH  64  67
ENDBRANCH  46  60
BRANCH  47  71
ATOM     71  C   UNL A   1      36.599  33.762  29.852  1.00  0.00     0.023 A 
ATOM     72  C   UNL A   1      35.790  34.216  28.744  1.00  0.00     0.012 A 
ATOM     73  C   UNL A   1      35.981  33.917  31.115  1.00  0.00     0.148 A 
ATOM     74  C   UNL A   1      34.455  34.651  28.852  1.00  0.00     0.002 A 
ATOM     75  C   UNL A   1      34.645  34.406  31.226  1.00  0.00     0.091 A 
ATOM     76  F   UNL A   1      36.644  33.498  32.200  1.00  0.00    -0.205 F 
ATOM     77  C   UNL A   1      33.875  34.735  30.098  1.00  0.00     0.022 A 
BRANCH  75  78
ATOM     78  S   UNL A   1      33.761  34.585  32.795  1.00  0.00     0.127 S 
ATOM     79  O   UNL A   1      34.655  35.450  33.571  1.00  0.00    -0.237 OA
ATOM     80  O   UNL A   1      32.519  35.233  32.371  1.00  0.00    -0.237 OA
ATOM     81  O   UNL A   1      33.627  33.235  33.317  1.00  0.00    -0.744 OA
ENDBRANCH  75  78
ENDBRANCH  47  71
BRANCH  59  82
ATOM     82  C   UNL A   1      41.642  32.353  32.569  1.00  0.00     0.023 A 
ATOM     83  C   UNL A   1      41.943  32.872  33.849  1.00  0.00     0.012 A 
ATOM     84  C   UNL A   1      41.132  31.048  32.501  1.00  0.00     0.148 A 
ATOM     85  C   UNL A   1      41.775  32.106  35.008  1.00  0.00     0.002 A 
ATOM     86  C   UNL A   1      40.906  30.308  33.658  1.00  0.00     0.091 A 
ATOM     87  F   UNL A   1      40.873  30.538  31.287  1.00  0.00    -0.205 F 
ATOM     88  C   UNL A   1      41.237  30.828  34.915  1.00  0.00     0.022 A 
BRANCH  86  89
ATOM     89  S   UNL A   1      40.136  28.695  33.550  1.00  0.00     0.127 S 
ATOM     90  O   UNL A   1      40.713  28.006  34.703  1.00  0.00    -0.237 OA
ATOM     91  O   UNL A   1      38.710  28.989  33.667  1.00  0.00    -0.237 OA
ATOM     92  O   UNL A   1      40.533  28.174  32.245  1.00  0.00    -0.744 OA
ENDBRANCH  86  89
ENDBRANCH  59  82
ENDBRANCH  33  34
ENDBRANCH  26  28
ENDBRANCH  25  26
ENDBRANCH  24  25
ENDBRANCH  23  24
ENDBRANCH   1  23
TORSDOF 20
ENDMDL
