MODEL 1
REMARK VINA RESULT:     -11.7      0.000      0.000
REMARK SMILES CC[C@H]1CCC[C@](Cc2ccc(OC)cc2)(C(=O)OCCOCCOC(=O)c2ccc(-c3c4nc(c(-c5cccc(S(=O)(=O)[O-])c5F)c5ccc([nH]5)c(-c5cccc(S(=O)(=O)[O-])c5F)c5nc(c(-c6cccc(S(=O)(=O)[O-])c6F)c6ccc3[nH]6)C=C5)C=C4)cc2)C1
REMARK SMILES IDX 22 1 21 2 20 3 19 4 17 5 18 6 7 7 3 8 4 9 91 10 5 11 6 12
REMARK SMILES IDX 2 13 1 14 8 15 9 16 10 17 16 18 11 19 15 20 12 21 13 22
REMARK SMILES IDX 14 23 23 24 24 25 25 26 26 27 27 28 28 29 29 30 90 31 30 32
REMARK SMILES IDX 89 33 31 34 32 35 33 36 83 37 34 38 88 39 82 40 84 41 35 42
REMARK SMILES IDX 87 43 81 44 80 45 36 47 68 48 48 49 67 50 49 51 52 52 66 53
REMARK SMILES IDX 85 54 50 55 51 56 65 58 86 59 53 60 37 61 38 62 46 63 39 64
REMARK SMILES IDX 41 65 47 66 40 67 42 68 43 69 44 70 45 71 69 72 70 73 78 74
REMARK SMILES IDX 71 75 73 76 79 77 72 78 74 79 75 80 76 81 77 82 54 83 55 84
REMARK SMILES IDX 63 85 56 86 58 87 64 88 57 89 59 90 60 91 61 92 62 93
REMARK H PARENT 84 46 52 57
REMARK Flexibility Score: inf
ROOT
ATOM      1  O   UNL A   1      35.222  21.742  25.597  1.00  0.00    -0.374 OA
ENDROOT
BRANCH   1   2
ATOM      2  C   UNL A   1      34.804  21.810  26.956  1.00  0.00     0.202 C 
BRANCH   2   3
ATOM      3  C   UNL A   1      33.310  21.824  27.290  1.00  0.00     0.261 C 
BRANCH   3   4
ATOM      4  O   UNL A   1      32.460  22.303  26.234  1.00  0.00    -0.463 OA
BRANCH   4   5
ATOM      5  C   UNL A   1      31.755  23.409  26.577  1.00  0.00     0.312 C 
ATOM      6  O   UNL A   1      30.899  23.418  27.461  1.00  0.00    -0.252 OA
BRANCH   5   7
ATOM      7  C   UNL A   1      32.077  24.672  25.745  1.00  0.00     0.072 C 
ATOM      8  C   UNL A   1      33.030  24.656  23.237  1.00  0.00    -0.010 C 
ATOM      9  C   UNL A   1      34.064  25.716  23.698  1.00  0.00     0.003 C 
ATOM     10  C   UNL A   1      32.325  23.954  24.388  1.00  0.00     0.022 C 
ATOM     11  C   UNL A   1      33.999  26.273  25.137  1.00  0.00     0.001 C 
ATOM     12  C   UNL A   1      33.377  25.358  26.187  1.00  0.00     0.019 C 
BRANCH   8  13
ATOM     13  C   UNL A   1      31.980  25.052  22.158  1.00  0.00     0.000 C 
ATOM     14  C   UNL A   1      32.585  25.740  20.935  1.00  0.00     0.004 C 
ENDBRANCH   8  13
BRANCH   7  15
ATOM     15  C   UNL A   1      30.790  25.588  25.945  1.00  0.00     0.054 C 
BRANCH  15  16
ATOM     16  C   UNL A   1      30.264  26.642  24.977  1.00  0.00    -0.047 A 
ATOM     17  C   UNL A   1      29.080  26.485  24.244  1.00  0.00     0.007 A 
ATOM     18  C   UNL A   1      30.989  27.776  24.672  1.00  0.00     0.007 A 
ATOM     19  C   UNL A   1      28.712  27.413  23.237  1.00  0.00     0.046 A 
ATOM     20  C   UNL A   1      30.672  28.682  23.670  1.00  0.00     0.046 A 
ATOM     21  C   UNL A   1      29.533  28.499  22.921  1.00  0.00     0.118 A 
BRANCH  21  22
ATOM     22  O   UNL A   1      29.159  29.320  21.890  1.00  0.00    -0.497 OA
ATOM     23  C   UNL A   1      27.913  30.001  22.075  1.00  0.00     0.278 C 
ENDBRANCH  21  22
ENDBRANCH  15  16
ENDBRANCH   7  15
ENDBRANCH   5   7
ENDBRANCH   4   5
ENDBRANCH   3   4
ENDBRANCH   2   3
ENDBRANCH   1   2
BRANCH   1  24
ATOM     24  C   UNL A   1      35.621  20.488  25.056  1.00  0.00     0.202 C 
BRANCH  24  25
ATOM     25  C   UNL A   1      37.111  20.199  24.858  1.00  0.00     0.261 C 
BRANCH  25  26
ATOM     26  O   UNL A   1      37.945  21.338  25.110  1.00  0.00    -0.460 OA
BRANCH  26  27
ATOM     27  C   UNL A   1      39.018  21.055  25.888  1.00  0.00     0.338 C 
ATOM     28  O   UNL A   1      39.649  20.012  25.914  1.00  0.00    -0.246 OA
BRANCH  27  29
ATOM     29  C   UNL A   1      39.475  22.258  26.606  1.00  0.00     0.060 A 
ATOM     30  C   UNL A   1      38.851  23.465  26.267  1.00  0.00     0.016 A 
ATOM     31  C   UNL A   1      40.557  22.233  27.488  1.00  0.00     0.016 A 
ATOM     32  C   UNL A   1      39.374  24.667  26.723  1.00  0.00     0.010 A 
ATOM     33  C   UNL A   1      41.084  23.445  27.945  1.00  0.00     0.010 A 
ATOM     34  C   UNL A   1      40.533  24.664  27.509  1.00  0.00    -0.014 A 
BRANCH  34  35
ATOM     35  C   UNL A   1      41.261  25.941  27.684  1.00  0.00     0.031 A 
ATOM     36  C   UNL A   1      40.596  27.057  28.445  1.00  0.00     0.074 A 
ATOM     37  C   UNL A   1      42.524  26.074  27.241  1.00  0.00     0.049 A 
ATOM     38  N   UNL A   1      41.072  28.228  28.781  1.00  0.00    -0.248 NA
ATOM     39  C   UNL A   1      39.212  26.823  28.891  1.00  0.00     0.031 C 
ATOM     40  C   UNL A   1      43.269  25.057  26.501  1.00  0.00     0.029 A 
ATOM     41  N   UNL A   1      43.396  27.125  27.346  1.00  0.00    -0.354 N 
ATOM     42  C   UNL A   1      40.042  28.878  29.451  1.00  0.00     0.074 A 
ATOM     43  C   UNL A   1      38.908  27.980  29.458  1.00  0.00     0.031 C 
ATOM     44  C   UNL A   1      44.487  25.542  26.204  1.00  0.00     0.029 A 
ATOM     45  C   UNL A   1      44.598  26.906  26.718  1.00  0.00     0.049 A 
ATOM     46  H   UNL A   1      43.183  27.958  27.826  1.00  0.00     0.167 HD
ATOM     47  C   UNL A   1      40.045  30.102  30.028  1.00  0.00     0.034 A 
ATOM     48  C   UNL A   1      45.662  27.719  26.568  1.00  0.00     0.034 A 
ATOM     49  C   UNL A   1      41.183  30.980  30.038  1.00  0.00     0.049 A 
ATOM     50  C   UNL A   1      45.639  29.079  27.215  1.00  0.00     0.074 A 
ATOM     51  C   UNL A   1      41.305  32.226  30.628  1.00  0.00     0.029 A 
ATOM     52  N   UNL A   1      42.396  30.709  29.423  1.00  0.00    -0.354 N 
ATOM     53  N   UNL A   1      44.698  29.633  27.941  1.00  0.00    -0.248 NA
ATOM     54  C   UNL A   1      46.841  29.908  27.057  1.00  0.00     0.031 C 
ATOM     55  C   UNL A   1      42.583  32.719  30.346  1.00  0.00     0.029 A 
ATOM     56  C   UNL A   1      43.270  31.766  29.610  1.00  0.00     0.049 A 
ATOM     57  H   UNL A   1      42.604  29.885  28.925  1.00  0.00     0.167 HD
ATOM     58  C   UNL A   1      45.208  30.857  28.359  1.00  0.00     0.074 A 
ATOM     59  C   UNL A   1      46.551  30.953  27.821  1.00  0.00     0.031 C 
ATOM     60  C   UNL A   1      44.619  31.822  29.109  1.00  0.00     0.034 A 
BRANCH  47  61
ATOM     61  C   UNL A   1      38.782  30.557  30.713  1.00  0.00     0.023 A 
ATOM     62  C   UNL A   1      38.638  30.381  32.105  1.00  0.00     0.012 A 
ATOM     63  C   UNL A   1      37.759  31.200  29.989  1.00  0.00     0.148 A 
ATOM     64  C   UNL A   1      37.483  30.809  32.759  1.00  0.00     0.002 A 
ATOM     65  C   UNL A   1      36.632  31.664  30.656  1.00  0.00     0.091 A 
ATOM     66  F   UNL A   1      37.904  31.336  28.663  1.00  0.00    -0.205 F 
ATOM     67  C   UNL A   1      36.486  31.460  32.037  1.00  0.00     0.022 A 
BRANCH  65  68
ATOM     68  S   UNL A   1      35.327  32.582  29.828  1.00  0.00     0.127 S 
ATOM     69  O   UNL A   1      34.921  31.643  28.785  1.00  0.00    -0.237 OA
ATOM     70  O   UNL A   1      34.349  32.761  30.902  1.00  0.00    -0.237 OA
ATOM     71  O   UNL A   1      35.941  33.815  29.356  1.00  0.00    -0.744 OA
ENDBRANCH  65  68
ENDBRANCH  47  61
BRANCH  48  72
ATOM     72  C   UNL A   1      46.853  27.248  25.808  1.00  0.00     0.023 A 
ATOM     73  C   UNL A   1      47.753  26.344  26.404  1.00  0.00     0.012 A 
ATOM     74  C   UNL A   1      47.085  27.677  24.486  1.00  0.00     0.148 A 
ATOM     75  C   UNL A   1      48.878  25.901  25.710  1.00  0.00     0.002 A 
ATOM     76  C   UNL A   1      48.175  27.187  23.780  1.00  0.00     0.091 A 
ATOM     77  F   UNL A   1      46.225  28.550  23.942  1.00  0.00    -0.205 F 
ATOM     78  C   UNL A   1      49.085  26.313  24.395  1.00  0.00     0.022 A 
BRANCH  76  79
ATOM     79  S   UNL A   1      48.442  27.559  22.044  1.00  0.00     0.127 S 
ATOM     80  O   UNL A   1      49.579  28.473  22.104  1.00  0.00    -0.237 OA
ATOM     81  O   UNL A   1      48.743  26.236  21.494  1.00  0.00    -0.237 OA
ATOM     82  O   UNL A   1      47.190  28.133  21.568  1.00  0.00    -0.744 OA
ENDBRANCH  76  79
ENDBRANCH  48  72
BRANCH  60  83
ATOM     83  C   UNL A   1      45.433  33.049  29.430  1.00  0.00     0.023 A 
ATOM     84  C   UNL A   1      46.224  33.084  30.596  1.00  0.00     0.012 A 
ATOM     85  C   UNL A   1      45.460  34.143  28.543  1.00  0.00     0.148 A 
ATOM     86  C   UNL A   1      46.995  34.207  30.896  1.00  0.00     0.002 A 
ATOM     87  C   UNL A   1      46.271  35.237  28.822  1.00  0.00     0.091 A 
ATOM     88  F   UNL A   1      44.688  34.100  27.448  1.00  0.00    -0.205 F 
ATOM     89  C   UNL A   1      47.026  35.277  30.005  1.00  0.00     0.022 A 
BRANCH  87  90
ATOM     90  S   UNL A   1      46.448  36.614  27.682  1.00  0.00     0.127 S 
ATOM     91  O   UNL A   1      45.057  37.006  27.470  1.00  0.00    -0.237 OA
ATOM     92  O   UNL A   1      47.238  37.566  28.463  1.00  0.00    -0.237 OA
ATOM     93  O   UNL A   1      47.135  36.078  26.514  1.00  0.00    -0.744 OA
ENDBRANCH  87  90
ENDBRANCH  60  83
ENDBRANCH  34  35
ENDBRANCH  27  29
ENDBRANCH  26  27
ENDBRANCH  25  26
ENDBRANCH  24  25
ENDBRANCH   1  24
TORSDOF 21
ENDMDL
MODEL 2
REMARK VINA RESULT:     -11.6      1.798      7.733
REMARK SMILES CC[C@H]1CCC[C@](Cc2ccc(OC)cc2)(C(=O)OCCOCCOC(=O)c2ccc(-c3c4nc(c(-c5cccc(S(=O)(=O)[O-])c5F)c5ccc([nH]5)c(-c5cccc(S(=O)(=O)[O-])c5F)c5nc(c(-c6cccc(S(=O)(=O)[O-])c6F)c6ccc3[nH]6)C=C5)C=C4)cc2)C1
REMARK SMILES IDX 22 1 21 2 20 3 19 4 17 5 18 6 7 7 3 8 4 9 91 10 5 11 6 12
REMARK SMILES IDX 2 13 1 14 8 15 9 16 10 17 16 18 11 19 15 20 12 21 13 22
REMARK SMILES IDX 14 23 23 24 24 25 25 26 26 27 27 28 28 29 29 30 90 31 30 32
REMARK SMILES IDX 89 33 31 34 32 35 33 36 83 37 34 38 88 39 82 40 84 41 35 42
REMARK SMILES IDX 87 43 81 44 80 45 36 47 68 48 48 49 67 50 49 51 52 52 66 53
REMARK SMILES IDX 85 54 50 55 51 56 65 58 86 59 53 60 37 61 38 62 46 63 39 64
REMARK SMILES IDX 41 65 47 66 40 67 42 68 43 69 44 70 45 71 69 72 70 73 78 74
REMARK SMILES IDX 71 75 73 76 79 77 72 78 74 79 75 80 76 81 77 82 54 83 55 84
REMARK SMILES IDX 63 85 56 86 58 87 64 88 57 89 59 90 60 91 61 92 62 93
REMARK H PARENT 84 46 52 57
REMARK Flexibility Score: inf
ROOT
ATOM      1  O   UNL A   1      35.680  21.715  25.564  1.00  0.00    -0.374 OA
ENDROOT
BRANCH   1   2
ATOM      2  C   UNL A   1      34.766  21.712  26.655  1.00  0.00     0.202 C 
BRANCH   2   3
ATOM      3  C   UNL A   1      33.344  21.183  26.450  1.00  0.00     0.261 C 
BRANCH   3   4
ATOM      4  O   UNL A   1      32.737  21.549  25.200  1.00  0.00    -0.463 OA
BRANCH   4   5
ATOM      5  C   UNL A   1      31.870  22.585  25.311  1.00  0.00     0.312 C 
ATOM      6  O   UNL A   1      30.764  22.485  25.841  1.00  0.00    -0.252 OA
BRANCH   5   7
ATOM      7  C   UNL A   1      32.353  23.913  24.684  1.00  0.00     0.072 C 
ATOM      8  C   UNL A   1      31.027  25.297  22.807  1.00  0.00    -0.010 C 
ATOM      9  C   UNL A   1      32.373  25.417  22.045  1.00  0.00     0.003 C 
ATOM     10  C   UNL A   1      31.047  24.252  23.913  1.00  0.00     0.022 C 
ATOM     11  C   UNL A   1      33.664  24.859  22.681  1.00  0.00     0.001 C 
ATOM     12  C   UNL A   1      33.488  23.712  23.670  1.00  0.00     0.019 C 
BRANCH   8  13
ATOM     13  C   UNL A   1      30.347  26.593  23.337  1.00  0.00     0.000 C 
ATOM     14  C   UNL A   1      29.149  26.331  24.248  1.00  0.00     0.004 C 
ENDBRANCH   8  13
BRANCH   7  15
ATOM     15  C   UNL A   1      32.790  24.783  25.944  1.00  0.00     0.054 C 
BRANCH  15  16
ATOM     16  C   UNL A   1      32.790  26.304  26.044  1.00  0.00    -0.047 A 
ATOM     17  C   UNL A   1      31.759  27.030  26.658  1.00  0.00     0.007 A 
ATOM     18  C   UNL A   1      33.755  27.075  25.429  1.00  0.00     0.007 A 
ATOM     19  C   UNL A   1      31.716  28.445  26.586  1.00  0.00     0.046 A 
ATOM     20  C   UNL A   1      33.721  28.457  25.314  1.00  0.00     0.046 A 
ATOM     21  C   UNL A   1      32.683  29.163  25.877  1.00  0.00     0.118 A 
BRANCH  21  22
ATOM     22  O   UNL A   1      32.549  30.523  25.783  1.00  0.00    -0.497 OA
ATOM     23  C   UNL A   1      31.889  31.147  26.890  1.00  0.00     0.278 C 
ENDBRANCH  21  22
ENDBRANCH  15  16
ENDBRANCH   7  15
ENDBRANCH   5   7
ENDBRANCH   4   5
ENDBRANCH   3   4
ENDBRANCH   2   3
ENDBRANCH   1   2
BRANCH   1  24
ATOM     24  C   UNL A   1      36.088  20.474  24.997  1.00  0.00     0.202 C 
BRANCH  24  25
ATOM     25  C   UNL A   1      37.573  20.102  25.003  1.00  0.00     0.261 C 
BRANCH  25  26
ATOM     26  O   UNL A   1      38.437  21.233  25.174  1.00  0.00    -0.460 OA
BRANCH  26  27
ATOM     27  C   UNL A   1      39.492  20.982  25.988  1.00  0.00     0.338 C 
ATOM     28  O   UNL A   1      40.209  19.997  25.976  1.00  0.00    -0.246 OA
BRANCH  27  29
ATOM     29  C   UNL A   1      39.808  22.163  26.813  1.00  0.00     0.060 A 
ATOM     30  C   UNL A   1      39.129  23.347  26.497  1.00  0.00     0.016 A 
ATOM     31  C   UNL A   1      40.817  22.150  27.777  1.00  0.00     0.016 A 
ATOM     32  C   UNL A   1      39.531  24.547  27.066  1.00  0.00     0.010 A 
ATOM     33  C   UNL A   1      41.222  23.360  28.348  1.00  0.00     0.010 A 
ATOM     34  C   UNL A   1      40.623  24.567  27.942  1.00  0.00    -0.014 A 
BRANCH  34  35
ATOM     35  C   UNL A   1      41.245  25.875  28.253  1.00  0.00     0.031 A 
ATOM     36  C   UNL A   1      42.651  26.140  27.784  1.00  0.00     0.074 A 
ATOM     37  C   UNL A   1      40.540  26.837  28.874  1.00  0.00     0.049 A 
ATOM     38  N   UNL A   1      43.363  27.231  27.880  1.00  0.00    -0.248 NA
ATOM     39  C   UNL A   1      43.347  25.027  27.116  1.00  0.00     0.031 C 
ATOM     40  C   UNL A   1      39.169  26.694  29.363  1.00  0.00     0.029 A 
ATOM     41  N   UNL A   1      40.886  28.121  29.202  1.00  0.00    -0.354 N 
ATOM     42  C   UNL A   1      44.595  26.932  27.310  1.00  0.00     0.074 A 
ATOM     43  C   UNL A   1      44.542  25.550  26.888  1.00  0.00     0.031 C 
ATOM     44  C   UNL A   1      38.795  27.846  29.946  1.00  0.00     0.029 A 
ATOM     45  C   UNL A   1      39.903  28.797  29.884  1.00  0.00     0.049 A 
ATOM     46  H   UNL A   1      41.755  28.521  28.972  1.00  0.00     0.167 HD
ATOM     47  C   UNL A   1      45.667  27.740  27.133  1.00  0.00     0.034 A 
ATOM     48  C   UNL A   1      39.905  30.039  30.406  1.00  0.00     0.034 A 
ATOM     49  C   UNL A   1      45.705  29.120  27.533  1.00  0.00     0.049 A 
ATOM     50  C   UNL A   1      41.111  30.916  30.201  1.00  0.00     0.074 A 
ATOM     51  C   UNL A   1      46.726  30.038  27.365  1.00  0.00     0.029 A 
ATOM     52  N   UNL A   1      44.677  29.781  28.188  1.00  0.00    -0.354 N 
ATOM     53  N   UNL A   1      42.225  30.653  29.560  1.00  0.00    -0.248 NA
ATOM     54  C   UNL A   1      41.043  32.276  30.753  1.00  0.00     0.031 C 
ATOM     55  C   UNL A   1      46.325  31.247  27.944  1.00  0.00     0.029 A 
ATOM     56  C   UNL A   1      45.041  31.092  28.441  1.00  0.00     0.049 A 
ATOM     57  H   UNL A   1      43.814  29.377  28.438  1.00  0.00     0.167 HD
ATOM     58  C   UNL A   1      42.974  31.825  29.598  1.00  0.00     0.074 A 
ATOM     59  C   UNL A   1      42.176  32.805  30.308  1.00  0.00     0.031 C 
ATOM     60  C   UNL A   1      44.214  32.067  29.104  1.00  0.00     0.034 A 
BRANCH  47  61
ATOM     61  C   UNL A   1      46.882  27.155  26.460  1.00  0.00     0.023 A 
ATOM     62  C   UNL A   1      47.042  27.288  25.065  1.00  0.00     0.012 A 
ATOM     63  C   UNL A   1      47.886  26.516  27.213  1.00  0.00     0.148 A 
ATOM     64  C   UNL A   1      48.167  26.766  24.427  1.00  0.00     0.002 A 
ATOM     65  C   UNL A   1      49.025  26.039  26.575  1.00  0.00     0.091 A 
ATOM     66  F   UNL A   1      47.704  26.377  28.533  1.00  0.00    -0.205 F 
ATOM     67  C   UNL A   1      49.162  26.151  25.182  1.00  0.00     0.022 A 
BRANCH  65  68
ATOM     68  S   UNL A   1      50.398  25.301  27.470  1.00  0.00     0.127 S 
ATOM     69  O   UNL A   1      49.774  24.106  28.035  1.00  0.00    -0.237 OA
ATOM     70  O   UNL A   1      51.357  25.038  26.396  1.00  0.00    -0.237 OA
ATOM     71  O   UNL A   1      50.830  26.299  28.438  1.00  0.00    -0.744 OA
ENDBRANCH  65  68
ENDBRANCH  47  61
BRANCH  48  72
ATOM     72  C   UNL A   1      38.706  30.537  31.136  1.00  0.00     0.023 A 
ATOM     73  C   UNL A   1      38.627  30.395  32.534  1.00  0.00     0.012 A 
ATOM     74  C   UNL A   1      37.652  31.173  30.449  1.00  0.00     0.148 A 
ATOM     75  C   UNL A   1      37.507  30.847  33.232  1.00  0.00     0.002 A 
ATOM     76  C   UNL A   1      36.567  31.673  31.157  1.00  0.00     0.091 A 
ATOM     77  F   UNL A   1      37.740  31.285  29.116  1.00  0.00    -0.205 F 
ATOM     78  C   UNL A   1      36.482  31.495  32.546  1.00  0.00     0.022 A 
BRANCH  76  79
ATOM     79  S   UNL A   1      35.271  32.637  30.372  1.00  0.00     0.127 S 
ATOM     80  O   UNL A   1      34.761  31.699  29.375  1.00  0.00    -0.237 OA
ATOM     81  O   UNL A   1      34.367  32.896  31.493  1.00  0.00    -0.237 OA
ATOM     82  O   UNL A   1      35.928  33.826  29.846  1.00  0.00    -0.744 OA
ENDBRANCH  76  79
ENDBRANCH  48  72
BRANCH  60  83
ATOM     83  C   UNL A   1      44.771  33.457  29.273  1.00  0.00     0.023 A 
ATOM     84  C   UNL A   1      45.435  33.810  30.465  1.00  0.00     0.012 A 
ATOM     85  C   UNL A   1      44.689  34.394  28.225  1.00  0.00     0.148 A 
ATOM     86  C   UNL A   1      45.970  35.087  30.628  1.00  0.00     0.002 A 
ATOM     87  C   UNL A   1      45.270  35.648  28.374  1.00  0.00     0.091 A 
ATOM     88  F   UNL A   1      44.039  34.048  27.105  1.00  0.00    -0.205 F 
ATOM     89  C   UNL A   1      45.897  36.001  29.579  1.00  0.00     0.022 A 
BRANCH  87  90
ATOM     90  S   UNL A   1      45.310  36.851  27.040  1.00  0.00     0.127 S 
ATOM     91  O   UNL A   1      43.892  37.159  26.874  1.00  0.00    -0.237 OA
ATOM     92  O   UNL A   1      46.106  37.933  27.619  1.00  0.00    -0.237 OA
ATOM     93  O   UNL A   1      45.942  36.176  25.913  1.00  0.00    -0.744 OA
ENDBRANCH  87  90
ENDBRANCH  60  83
ENDBRANCH  34  35
ENDBRANCH  27  29
ENDBRANCH  26  27
ENDBRANCH  25  26
ENDBRANCH  24  25
ENDBRANCH   1  24
TORSDOF 21
ENDMDL
MODEL 3
REMARK VINA RESULT:     -11.4      1.649      2.275
REMARK SMILES CC[C@H]1CCC[C@](Cc2ccc(OC)cc2)(C(=O)OCCOCCOC(=O)c2ccc(-c3c4nc(c(-c5cccc(S(=O)(=O)[O-])c5F)c5ccc([nH]5)c(-c5cccc(S(=O)(=O)[O-])c5F)c5nc(c(-c6cccc(S(=O)(=O)[O-])c6F)c6ccc3[nH]6)C=C5)C=C4)cc2)C1
REMARK SMILES IDX 22 1 21 2 20 3 19 4 17 5 18 6 7 7 3 8 4 9 91 10 5 11 6 12
REMARK SMILES IDX 2 13 1 14 8 15 9 16 10 17 16 18 11 19 15 20 12 21 13 22
REMARK SMILES IDX 14 23 23 24 24 25 25 26 26 27 27 28 28 29 29 30 90 31 30 32
REMARK SMILES IDX 89 33 31 34 32 35 33 36 83 37 34 38 88 39 82 40 84 41 35 42
REMARK SMILES IDX 87 43 81 44 80 45 36 47 68 48 48 49 67 50 49 51 52 52 66 53
REMARK SMILES IDX 85 54 50 55 51 56 65 58 86 59 53 60 37 61 38 62 46 63 39 64
REMARK SMILES IDX 41 65 47 66 40 67 42 68 43 69 44 70 45 71 69 72 70 73 78 74
REMARK SMILES IDX 71 75 73 76 79 77 72 78 74 79 75 80 76 81 77 82 54 83 55 84
REMARK SMILES IDX 63 85 56 86 58 87 64 88 57 89 59 90 60 91 61 92 62 93
REMARK H PARENT 84 46 52 57
REMARK Flexibility Score: inf
ROOT
ATOM      1  O   UNL A   1      35.263  21.429  26.384  1.00  0.00    -0.374 OA
ENDROOT
BRANCH   1   2
ATOM      2  C   UNL A   1      33.875  21.372  26.692  1.00  0.00     0.202 C 
BRANCH   2   3
ATOM      3  C   UNL A   1      32.929  20.583  25.784  1.00  0.00     0.261 C 
BRANCH   3   4
ATOM      4  O   UNL A   1      32.209  21.377  24.825  1.00  0.00    -0.463 OA
BRANCH   4   5
ATOM      5  C   UNL A   1      31.671  22.501  25.359  1.00  0.00     0.312 C 
ATOM      6  O   UNL A   1      30.810  22.486  26.239  1.00  0.00    -0.252 OA
BRANCH   5   7
ATOM      7  C   UNL A   1      32.192  23.826  24.756  1.00  0.00     0.072 C 
ATOM      8  C   UNL A   1      30.888  25.295  22.928  1.00  0.00    -0.010 C 
ATOM      9  C   UNL A   1      32.227  25.387  22.150  1.00  0.00     0.003 C 
ATOM     10  C   UNL A   1      30.887  24.226  24.011  1.00  0.00     0.022 C 
ATOM     11  C   UNL A   1      33.507  24.772  22.756  1.00  0.00     0.001 C 
ATOM     12  C   UNL A   1      33.306  23.609  23.722  1.00  0.00     0.019 C 
BRANCH   8  13
ATOM     13  C   UNL A   1      30.260  26.602  23.495  1.00  0.00     0.000 C 
ATOM     14  C   UNL A   1      28.800  26.449  23.916  1.00  0.00     0.004 C 
ENDBRANCH   8  13
BRANCH   7  15
ATOM     15  C   UNL A   1      32.675  24.652  26.028  1.00  0.00     0.054 C 
BRANCH  15  16
ATOM     16  C   UNL A   1      32.767  26.169  26.147  1.00  0.00    -0.047 A 
ATOM     17  C   UNL A   1      31.748  26.956  26.702  1.00  0.00     0.007 A 
ATOM     18  C   UNL A   1      33.818  26.879  25.604  1.00  0.00     0.007 A 
ATOM     19  C   UNL A   1      31.802  28.372  26.646  1.00  0.00     0.046 A 
ATOM     20  C   UNL A   1      33.882  28.262  25.505  1.00  0.00     0.046 A 
ATOM     21  C   UNL A   1      32.858  29.030  26.009  1.00  0.00     0.118 A 
BRANCH  21  22
ATOM     22  O   UNL A   1      32.819  30.396  25.924  1.00  0.00    -0.497 OA
ATOM     23  C   UNL A   1      31.778  31.023  26.681  1.00  0.00     0.278 C 
ENDBRANCH  21  22
ENDBRANCH  15  16
ENDBRANCH   7  15
ENDBRANCH   5   7
ENDBRANCH   4   5
ENDBRANCH   3   4
ENDBRANCH   2   3
ENDBRANCH   1   2
BRANCH   1  24
ATOM     24  C   UNL A   1      35.707  21.000  25.101  1.00  0.00     0.202 C 
BRANCH  24  25
ATOM     25  C   UNL A   1      37.080  20.336  24.969  1.00  0.00     0.261 C 
BRANCH  25  26
ATOM     26  O   UNL A   1      38.162  21.277  24.950  1.00  0.00    -0.460 OA
BRANCH  26  27
ATOM     27  C   UNL A   1      39.133  20.995  25.854  1.00  0.00     0.338 C 
ATOM     28  O   UNL A   1      39.736  19.943  25.977  1.00  0.00    -0.246 OA
BRANCH  27  29
ATOM     29  C   UNL A   1      39.527  22.209  26.592  1.00  0.00     0.060 A 
ATOM     30  C   UNL A   1      38.928  23.410  26.189  1.00  0.00     0.016 A 
ATOM     31  C   UNL A   1      40.535  22.199  27.557  1.00  0.00     0.016 A 
ATOM     32  C   UNL A   1      39.410  24.618  26.671  1.00  0.00     0.010 A 
ATOM     33  C   UNL A   1      41.020  23.418  28.040  1.00  0.00     0.010 A 
ATOM     34  C   UNL A   1      40.502  24.630  27.547  1.00  0.00    -0.014 A 
BRANCH  34  35
ATOM     35  C   UNL A   1      41.210  25.912  27.764  1.00  0.00     0.031 A 
ATOM     36  C   UNL A   1      40.504  27.014  28.508  1.00  0.00     0.074 A 
ATOM     37  C   UNL A   1      42.488  26.061  27.374  1.00  0.00     0.049 A 
ATOM     38  N   UNL A   1      40.953  28.185  28.874  1.00  0.00    -0.248 NA
ATOM     39  C   UNL A   1      39.104  26.762  28.894  1.00  0.00     0.031 C 
ATOM     40  C   UNL A   1      43.273  25.059  26.656  1.00  0.00     0.029 A 
ATOM     41  N   UNL A   1      43.345  27.119  27.526  1.00  0.00    -0.354 N 
ATOM     42  C   UNL A   1      39.890  28.819  29.508  1.00  0.00     0.074 A 
ATOM     43  C   UNL A   1      38.766  27.911  29.460  1.00  0.00     0.031 C 
ATOM     44  C   UNL A   1      44.498  25.558  26.414  1.00  0.00     0.029 A 
ATOM     45  C   UNL A   1      44.574  26.917  26.946  1.00  0.00     0.049 A 
ATOM     46  H   UNL A   1      43.104  27.945  28.005  1.00  0.00     0.167 HD
ATOM     47  C   UNL A   1      39.857  30.037  30.096  1.00  0.00     0.034 A 
ATOM     48  C   UNL A   1      45.635  27.742  26.848  1.00  0.00     0.034 A 
ATOM     49  C   UNL A   1      40.986  30.926  30.162  1.00  0.00     0.049 A 
ATOM     50  C   UNL A   1      45.573  29.095  27.506  1.00  0.00     0.074 A 
ATOM     51  C   UNL A   1      41.071  32.166  30.768  1.00  0.00     0.029 A 
ATOM     52  N   UNL A   1      42.225  30.673  29.594  1.00  0.00    -0.354 N 
ATOM     53  N   UNL A   1      44.597  29.633  28.198  1.00  0.00    -0.248 NA
ATOM     54  C   UNL A   1      46.772  29.937  27.406  1.00  0.00     0.031 C 
ATOM     55  C   UNL A   1      42.355  32.674  30.544  1.00  0.00     0.029 A 
ATOM     56  C   UNL A   1      43.080  31.735  29.827  1.00  0.00     0.049 A 
ATOM     57  H   UNL A   1      42.462  29.856  29.098  1.00  0.00     0.167 HD
ATOM     58  C   UNL A   1      45.077  30.858  28.649  1.00  0.00     0.074 A 
ATOM     59  C   UNL A   1      46.440  30.971  28.168  1.00  0.00     0.031 C 
ATOM     60  C   UNL A   1      44.449  31.809  29.383  1.00  0.00     0.034 A 
BRANCH  47  61
ATOM     61  C   UNL A   1      38.563  30.473  30.733  1.00  0.00     0.023 A 
ATOM     62  C   UNL A   1      38.335  30.217  32.101  1.00  0.00     0.012 A 
ATOM     63  C   UNL A   1      37.595  31.177  29.991  1.00  0.00     0.148 A 
ATOM     64  C   UNL A   1      37.150  30.627  32.712  1.00  0.00     0.002 A 
ATOM     65  C   UNL A   1      36.436  31.620  30.618  1.00  0.00     0.091 A 
ATOM     66  F   UNL A   1      37.818  31.388  28.687  1.00  0.00    -0.205 F 
ATOM     67  C   UNL A   1      36.206  31.337  31.974  1.00  0.00     0.022 A 
BRANCH  65  68
ATOM     68  S   UNL A   1      35.196  32.609  29.773  1.00  0.00     0.127 S 
ATOM     69  O   UNL A   1      34.717  31.675  28.756  1.00  0.00    -0.237 OA
ATOM     70  O   UNL A   1      34.241  32.886  30.847  1.00  0.00    -0.237 OA
ATOM     71  O   UNL A   1      35.894  33.782  29.266  1.00  0.00    -0.744 OA
ENDBRANCH  65  68
ENDBRANCH  47  61
BRANCH  48  72
ATOM     72  C   UNL A   1      46.861  27.290  26.132  1.00  0.00     0.023 A 
ATOM     73  C   UNL A   1      47.001  27.541  24.754  1.00  0.00     0.012 A 
ATOM     74  C   UNL A   1      47.899  26.631  26.821  1.00  0.00     0.148 A 
ATOM     75  C   UNL A   1      48.138  27.116  24.068  1.00  0.00     0.002 A 
ATOM     76  C   UNL A   1      49.054  26.263  26.143  1.00  0.00     0.091 A 
ATOM     77  F   UNL A   1      47.739  26.388  28.129  1.00  0.00    -0.205 F 
ATOM     78  C   UNL A   1      49.169  26.486  24.762  1.00  0.00     0.022 A 
BRANCH  76  79
ATOM     79  S   UNL A   1      50.482  25.570  26.984  1.00  0.00     0.127 S 
ATOM     80  O   UNL A   1      49.929  24.346  27.556  1.00  0.00    -0.237 OA
ATOM     81  O   UNL A   1      51.415  25.366  25.875  1.00  0.00    -0.237 OA
ATOM     82  O   UNL A   1      50.904  26.584  27.942  1.00  0.00    -0.744 OA
ENDBRANCH  76  79
ENDBRANCH  48  72
BRANCH  60  83
ATOM     83  C   UNL A   1      45.237  33.040  29.750  1.00  0.00     0.023 A 
ATOM     84  C   UNL A   1      46.130  33.007  30.838  1.00  0.00     0.012 A 
ATOM     85  C   UNL A   1      45.135  34.212  28.975  1.00  0.00     0.148 A 
ATOM     86  C   UNL A   1      46.878  34.134  31.177  1.00  0.00     0.002 A 
ATOM     87  C   UNL A   1      45.922  35.315  29.287  1.00  0.00     0.091 A 
ATOM     88  F   UNL A   1      44.267  34.233  27.953  1.00  0.00    -0.205 F 
ATOM     89  C   UNL A   1      46.782  35.283  30.396  1.00  0.00     0.022 A 
BRANCH  87  90
ATOM     90  S   UNL A   1      45.934  36.800  28.275  1.00  0.00     0.127 S 
ATOM     91  O   UNL A   1      46.279  36.262  26.961  1.00  0.00    -0.237 OA
ATOM     92  O   UNL A   1      44.555  37.273  28.399  1.00  0.00    -0.237 OA
ATOM     93  O   UNL A   1      46.928  37.682  28.873  1.00  0.00    -0.744 OA
ENDBRANCH  87  90
ENDBRANCH  60  83
ENDBRANCH  34  35
ENDBRANCH  27  29
ENDBRANCH  26  27
ENDBRANCH  25  26
ENDBRANCH  24  25
ENDBRANCH   1  24
TORSDOF 21
ENDMDL
