MODEL 1
REMARK VINA RESULT:     -11.5      0.000      0.000
REMARK SMILES Cc1ccc(Nc2c(C)cccc2Cl)c(CC(=O)OCCOCCOC(=O)c2ccc(-c3c4nc(c(-c5cccc(S(=O)(=O)[O-])c5F)c5ccc([nH]5)c(-c5cccc(S(=O)(=O)[O-])c5F)c5nc(c(-c6cccc(S(=O)(=O)[O-])c6F)c6ccc3[nH]6)C=C5)C=C4)cc2)c1
REMARK SMILES IDX 22 1 21 2 20 3 19 4 17 5 18 6 16 7 15 8 1 9 2 10 3 11 91 12
REMARK SMILES IDX 4 13 5 14 6 15 7 17 8 18 13 19 9 20 10 21 12 22 14 23 11 24
REMARK SMILES IDX 23 25 24 26 25 27 26 28 27 29 28 30 29 31 90 32 30 33 89 34
REMARK SMILES IDX 31 35 32 36 33 37 83 38 34 39 88 40 82 41 84 42 35 43 87 44
REMARK SMILES IDX 81 45 80 46 36 48 68 49 48 50 67 51 49 52 52 53 66 54 85 55
REMARK SMILES IDX 50 56 51 57 65 59 86 60 53 61 37 62 38 63 46 64 39 65 41 66
REMARK SMILES IDX 47 67 40 68 42 69 43 70 44 71 45 72 69 73 70 74 78 75 71 76
REMARK SMILES IDX 73 77 79 78 72 79 74 80 75 81 76 82 77 83 54 84 55 85 63 86
REMARK SMILES IDX 56 87 58 88 64 89 57 90 59 91 60 92 61 93 62 94
REMARK H PARENT 6 16 84 47 52 58
REMARK Flexibility Score: inf
ROOT
ATOM      1  O   UNL A   1      32.312  28.864  25.979  1.00  0.00    -0.374 OA
ENDROOT
BRANCH   1   2
ATOM      2  C   UNL A   1      31.560  28.081  26.878  1.00  0.00     0.202 C 
BRANCH   2   3
ATOM      3  C   UNL A   1      32.079  26.656  26.873  1.00  0.00     0.261 C 
BRANCH   3   4
ATOM      4  O   UNL A   1      31.069  25.665  26.721  1.00  0.00    -0.463 OA
BRANCH   4   5
ATOM      5  C   UNL A   1      31.439  24.351  26.853  1.00  0.00     0.310 C 
ATOM      6  O   UNL A   1      30.848  23.476  27.465  1.00  0.00    -0.252 OA
BRANCH   5   7
ATOM      7  C   UNL A   1      32.751  24.087  26.140  1.00  0.00     0.160 C 
BRANCH   7   8
ATOM      8  C   UNL A   1      32.478  23.558  24.747  1.00  0.00    -0.013 A 
ATOM      9  C   UNL A   1      32.581  19.976  23.425  1.00  0.00     0.044 C 
ATOM     10  C   UNL A   1      32.538  21.474  23.459  1.00  0.00    -0.051 A 
ATOM     11  C   UNL A   1      32.784  22.227  22.316  1.00  0.00     0.005 A 
ATOM     12  C   UNL A   1      32.324  22.150  24.657  1.00  0.00     0.009 A 
ATOM     13  C   UNL A   1      32.863  23.626  22.386  1.00  0.00     0.026 A 
ATOM     14  C   UNL A   1      32.739  24.330  23.599  1.00  0.00     0.042 A 
BRANCH  14  15
ATOM     15  N   UNL A   1      32.895  25.746  23.660  1.00  0.00    -0.354 N 
ATOM     16  H   UNL A   1      33.714  26.069  24.100  1.00  0.00     0.167 HD
BRANCH  15  17
ATOM     17  C   UNL A   1      32.017  26.753  23.168  1.00  0.00     0.060 A 
ATOM     18  C   UNL A   1      32.511  27.956  22.639  1.00  0.00    -0.026 A 
ATOM     19  C   UNL A   1      30.624  26.660  23.357  1.00  0.00     0.064 A 
ATOM     20  C   UNL A   1      33.873  28.020  22.003  1.00  0.00     0.046 C 
ATOM     21  C   UNL A   1      31.692  29.097  22.605  1.00  0.00     0.005 A 
ATOM     22  C   UNL A   1      29.815  27.800  23.353  1.00  0.00     0.023 A 
ATOM     23  Cl  UNL A   1      29.849  25.124  23.474  1.00  0.00    -0.082 Cl
ATOM     24  C   UNL A   1      30.366  29.034  23.029  1.00  0.00     0.002 A 
ENDBRANCH  15  17
ENDBRANCH  14  15
ENDBRANCH   7   8
ENDBRANCH   5   7
ENDBRANCH   4   5
ENDBRANCH   3   4
ENDBRANCH   2   3
ENDBRANCH   1   2
BRANCH   1  25
ATOM     25  C   UNL A   1      33.508  29.404  26.497  1.00  0.00     0.202 C 
BRANCH  25  26
ATOM     26  C   UNL A   1      33.213  30.830  26.948  1.00  0.00     0.261 C 
BRANCH  26  27
ATOM     27  O   UNL A   1      33.911  31.146  28.172  1.00  0.00    -0.460 OA
BRANCH  27  28
ATOM     28  C   UNL A   1      35.205  31.536  27.987  1.00  0.00     0.338 C 
ATOM     29  O   UNL A   1      35.518  32.654  27.589  1.00  0.00    -0.246 OA
BRANCH  28  30
ATOM     30  C   UNL A   1      36.138  30.393  28.188  1.00  0.00     0.060 A 
ATOM     31  C   UNL A   1      36.261  29.831  29.467  1.00  0.00     0.016 A 
ATOM     32  C   UNL A   1      37.107  30.133  27.218  1.00  0.00     0.016 A 
ATOM     33  C   UNL A   1      37.450  29.197  29.840  1.00  0.00     0.010 A 
ATOM     34  C   UNL A   1      38.321  29.615  27.623  1.00  0.00     0.010 A 
ATOM     35  C   UNL A   1      38.511  29.183  28.948  1.00  0.00    -0.014 A 
BRANCH  35  36
ATOM     36  C   UNL A   1      39.865  28.732  29.255  1.00  0.00     0.031 A 
ATOM     37  C   UNL A   1      40.177  27.309  29.057  1.00  0.00     0.074 A 
ATOM     38  C   UNL A   1      40.883  29.617  29.321  1.00  0.00     0.049 A 
ATOM     39  N   UNL A   1      41.354  26.822  29.212  1.00  0.00    -0.248 NA
ATOM     40  C   UNL A   1      39.178  26.300  28.713  1.00  0.00     0.031 C 
ATOM     41  C   UNL A   1      42.242  29.443  28.807  1.00  0.00     0.029 A 
ATOM     42  N   UNL A   1      40.911  30.877  29.897  1.00  0.00    -0.354 N 
ATOM     43  C   UNL A   1      41.351  25.590  28.617  1.00  0.00     0.074 A 
ATOM     44  C   UNL A   1      39.961  25.240  28.484  1.00  0.00     0.031 C 
ATOM     45  C   UNL A   1      43.009  30.466  29.210  1.00  0.00     0.029 A 
ATOM     46  C   UNL A   1      42.236  31.240  30.159  1.00  0.00     0.049 A 
ATOM     47  H   UNL A   1      40.122  31.433  30.091  1.00  0.00     0.167 HD
ATOM     48  C   UNL A   1      42.538  25.099  28.177  1.00  0.00     0.034 A 
ATOM     49  C   UNL A   1      42.668  31.703  31.362  1.00  0.00     0.034 A 
ATOM     50  C   UNL A   1      43.674  25.911  28.679  1.00  0.00     0.049 A 
ATOM     51  C   UNL A   1      43.547  30.641  32.002  1.00  0.00     0.074 A 
ATOM     52  C   UNL A   1      44.630  26.741  28.120  1.00  0.00     0.029 A 
ATOM     53  N   UNL A   1      43.755  26.141  30.049  1.00  0.00    -0.354 N 
ATOM     54  N   UNL A   1      44.113  29.660  31.345  1.00  0.00    -0.248 NA
ATOM     55  C   UNL A   1      43.789  30.538  33.436  1.00  0.00     0.031 C 
ATOM     56  C   UNL A   1      45.246  27.493  29.181  1.00  0.00     0.029 A 
ATOM     57  C   UNL A   1      44.710  27.084  30.392  1.00  0.00     0.049 A 
ATOM     58  H   UNL A   1      43.191  25.677  30.710  1.00  0.00     0.167 HD
ATOM     59  C   UNL A   1      44.523  28.689  32.216  1.00  0.00     0.074 A 
ATOM     60  C   UNL A   1      44.366  29.326  33.521  1.00  0.00     0.031 C 
ATOM     61  C   UNL A   1      44.884  27.423  31.814  1.00  0.00     0.034 A 
BRANCH  48  62
ATOM     62  C   UNL A   1      42.679  23.941  27.209  1.00  0.00     0.023 A 
ATOM     63  C   UNL A   1      41.571  23.077  27.091  1.00  0.00     0.012 A 
ATOM     64  C   UNL A   1      43.833  23.587  26.456  1.00  0.00     0.148 A 
ATOM     65  C   UNL A   1      41.595  21.937  26.278  1.00  0.00     0.002 A 
ATOM     66  C   UNL A   1      43.832  22.488  25.589  1.00  0.00     0.091 A 
ATOM     67  F   UNL A   1      44.981  24.247  26.634  1.00  0.00    -0.205 F 
ATOM     68  C   UNL A   1      42.717  21.652  25.512  1.00  0.00     0.022 A 
BRANCH  66  69
ATOM     69  S   UNL A   1      45.227  22.077  24.519  1.00  0.00     0.127 S 
ATOM     70  O   UNL A   1      45.431  23.326  23.787  1.00  0.00    -0.237 OA
ATOM     71  O   UNL A   1      46.282  21.763  25.484  1.00  0.00    -0.237 OA
ATOM     72  O   UNL A   1      44.801  20.944  23.707  1.00  0.00    -0.744 OA
ENDBRANCH  66  69
ENDBRANCH  48  62
BRANCH  49  73
ATOM     73  C   UNL A   1      41.644  32.608  31.976  1.00  0.00     0.023 A 
ATOM     74  C   UNL A   1      41.412  33.809  31.250  1.00  0.00     0.012 A 
ATOM     75  C   UNL A   1      40.605  32.094  32.771  1.00  0.00     0.148 A 
ATOM     76  C   UNL A   1      40.130  34.353  31.150  1.00  0.00     0.002 A 
ATOM     77  C   UNL A   1      39.321  32.635  32.651  1.00  0.00     0.091 A 
ATOM     78  F   UNL A   1      40.840  30.986  33.486  1.00  0.00    -0.205 F 
ATOM     79  C   UNL A   1      39.075  33.732  31.808  1.00  0.00     0.022 A 
BRANCH  77  80
ATOM     80  S   UNL A   1      37.889  31.823  33.380  1.00  0.00     0.127 S 
ATOM     81  O   UNL A   1      36.796  32.645  32.871  1.00  0.00    -0.237 OA
ATOM     82  O   UNL A   1      37.967  30.479  32.812  1.00  0.00    -0.237 OA
ATOM     83  O   UNL A   1      38.127  31.879  34.815  1.00  0.00    -0.744 OA
ENDBRANCH  77  80
ENDBRANCH  49  73
BRANCH  61  84
ATOM     84  C   UNL A   1      45.397  26.366  32.787  1.00  0.00     0.023 A 
ATOM     85  C   UNL A   1      46.746  25.957  32.747  1.00  0.00     0.012 A 
ATOM     86  C   UNL A   1      44.559  25.663  33.692  1.00  0.00     0.148 A 
ATOM     87  C   UNL A   1      47.268  25.027  33.652  1.00  0.00     0.002 A 
ATOM     88  C   UNL A   1      45.062  24.676  34.533  1.00  0.00     0.091 A 
ATOM     89  F   UNL A   1      43.256  25.940  33.761  1.00  0.00    -0.205 F 
ATOM     90  C   UNL A   1      46.426  24.389  34.551  1.00  0.00     0.022 A 
BRANCH  88  91
ATOM     91  S   UNL A   1      43.999  23.658  35.569  1.00  0.00     0.127 S 
ATOM     92  O   UNL A   1      43.596  24.615  36.601  1.00  0.00    -0.237 OA
ATOM     93  O   UNL A   1      42.938  23.285  34.635  1.00  0.00    -0.237 OA
ATOM     94  O   UNL A   1      44.819  22.556  36.050  1.00  0.00    -0.744 OA
ENDBRANCH  88  91
ENDBRANCH  61  84
ENDBRANCH  35  36
ENDBRANCH  28  30
ENDBRANCH  27  28
ENDBRANCH  26  27
ENDBRANCH  25  26
ENDBRANCH   1  25
TORSDOF 20
ENDMDL
MODEL 2
REMARK VINA RESULT:     -11.5      3.776      9.562
REMARK SMILES Cc1ccc(Nc2c(C)cccc2Cl)c(CC(=O)OCCOCCOC(=O)c2ccc(-c3c4nc(c(-c5cccc(S(=O)(=O)[O-])c5F)c5ccc([nH]5)c(-c5cccc(S(=O)(=O)[O-])c5F)c5nc(c(-c6cccc(S(=O)(=O)[O-])c6F)c6ccc3[nH]6)C=C5)C=C4)cc2)c1
REMARK SMILES IDX 22 1 21 2 20 3 19 4 17 5 18 6 16 7 15 8 1 9 2 10 3 11 91 12
REMARK SMILES IDX 4 13 5 14 6 15 7 17 8 18 13 19 9 20 10 21 12 22 14 23 11 24
REMARK SMILES IDX 23 25 24 26 25 27 26 28 27 29 28 30 29 31 90 32 30 33 89 34
REMARK SMILES IDX 31 35 32 36 33 37 83 38 34 39 88 40 82 41 84 42 35 43 87 44
REMARK SMILES IDX 81 45 80 46 36 48 68 49 48 50 67 51 49 52 52 53 66 54 85 55
REMARK SMILES IDX 50 56 51 57 65 59 86 60 53 61 37 62 38 63 46 64 39 65 41 66
REMARK SMILES IDX 47 67 40 68 42 69 43 70 44 71 45 72 69 73 70 74 78 75 71 76
REMARK SMILES IDX 73 77 79 78 72 79 74 80 75 81 76 82 77 83 54 84 55 85 63 86
REMARK SMILES IDX 56 87 58 88 64 89 57 90 59 91 60 92 61 93 62 94
REMARK H PARENT 6 16 84 47 52 58
REMARK Flexibility Score: inf
ROOT
ATOM      1  O   UNL A   1      37.775  23.684  25.774  1.00  0.00    -0.374 OA
ENDROOT
BRANCH   1   2
ATOM      2  C   UNL A   1      36.865  22.621  25.606  1.00  0.00     0.202 C 
BRANCH   2   3
ATOM      3  C   UNL A   1      35.504  23.169  25.219  1.00  0.00     0.261 C 
BRANCH   3   4
ATOM      4  O   UNL A   1      35.499  24.558  24.913  1.00  0.00    -0.463 OA
BRANCH   4   5
ATOM      5  C   UNL A   1      34.282  25.176  24.775  1.00  0.00     0.310 C 
ATOM      6  O   UNL A   1      33.779  25.594  23.744  1.00  0.00    -0.252 OA
BRANCH   5   7
ATOM      7  C   UNL A   1      33.595  25.320  26.119  1.00  0.00     0.160 C 
BRANCH   7   8
ATOM      8  C   UNL A   1      33.080  26.735  26.281  1.00  0.00    -0.013 A 
ATOM      9  C   UNL A   1      34.924  29.905  27.349  1.00  0.00     0.044 C 
ATOM     10  C   UNL A   1      33.813  28.953  27.023  1.00  0.00    -0.051 A 
ATOM     11  C   UNL A   1      32.499  29.229  27.386  1.00  0.00     0.005 A 
ATOM     12  C   UNL A   1      34.083  27.730  26.415  1.00  0.00     0.009 A 
ATOM     13  C   UNL A   1      31.488  28.276  27.186  1.00  0.00     0.026 A 
ATOM     14  C   UNL A   1      31.748  26.998  26.655  1.00  0.00     0.042 A 
BRANCH  14  15
ATOM     15  N   UNL A   1      30.720  26.019  26.528  1.00  0.00    -0.354 N 
ATOM     16  H   UNL A   1      30.065  25.987  27.262  1.00  0.00     0.167 HD
BRANCH  15  17
ATOM     17  C   UNL A   1      30.520  25.080  25.477  1.00  0.00     0.060 A 
ATOM     18  C   UNL A   1      30.774  23.712  25.664  1.00  0.00    -0.026 A 
ATOM     19  C   UNL A   1      30.237  25.506  24.165  1.00  0.00     0.064 A 
ATOM     20  C   UNL A   1      30.659  23.082  27.025  1.00  0.00     0.046 C 
ATOM     21  C   UNL A   1      31.036  22.889  24.556  1.00  0.00     0.005 A 
ATOM     22  C   UNL A   1      30.527  24.697  23.062  1.00  0.00     0.023 A 
ATOM     23  Cl  UNL A   1      29.404  26.988  23.877  1.00  0.00    -0.082 Cl
ATOM     24  C   UNL A   1      30.983  23.400  23.261  1.00  0.00     0.002 A 
ENDBRANCH  15  17
ENDBRANCH  14  15
ENDBRANCH   7   8
ENDBRANCH   5   7
ENDBRANCH   4   5
ENDBRANCH   3   4
ENDBRANCH   2   3
ENDBRANCH   1   2
BRANCH   1  25
ATOM     25  C   UNL A   1      38.962  23.365  26.468  1.00  0.00     0.202 C 
BRANCH  25  26
ATOM     26  C   UNL A   1      39.103  21.846  26.464  1.00  0.00     0.261 C 
BRANCH  26  27
ATOM     27  O   UNL A   1      40.274  21.434  25.726  1.00  0.00    -0.460 OA
BRANCH  27  28
ATOM     28  C   UNL A   1      41.267  20.915  26.506  1.00  0.00     0.338 C 
ATOM     29  O   UNL A   1      41.311  19.736  26.840  1.00  0.00    -0.246 OA
BRANCH  28  30
ATOM     30  C   UNL A   1      42.172  21.991  26.997  1.00  0.00     0.060 A 
ATOM     31  C   UNL A   1      42.215  22.271  28.370  1.00  0.00     0.016 A 
ATOM     32  C   UNL A   1      42.683  22.913  26.082  1.00  0.00     0.016 A 
ATOM     33  C   UNL A   1      42.563  23.552  28.811  1.00  0.00     0.010 A 
ATOM     34  C   UNL A   1      42.911  24.206  26.509  1.00  0.00     0.010 A 
ATOM     35  C   UNL A   1      42.811  24.541  27.871  1.00  0.00    -0.014 A 
BRANCH  35  36
ATOM     36  C   UNL A   1      43.000  25.957  28.168  1.00  0.00     0.031 A 
ATOM     37  C   UNL A   1      41.801  26.800  28.287  1.00  0.00     0.074 A 
ATOM     38  C   UNL A   1      44.158  26.395  28.708  1.00  0.00     0.049 A 
ATOM     39  N   UNL A   1      41.846  28.036  28.630  1.00  0.00    -0.248 NA
ATOM     40  C   UNL A   1      40.450  26.337  27.982  1.00  0.00     0.031 C 
ATOM     41  C   UNL A   1      44.321  27.395  29.764  1.00  0.00     0.029 A 
ATOM     42  N   UNL A   1      45.460  26.038  28.394  1.00  0.00    -0.354 N 
ATOM     43  C   UNL A   1      40.572  28.394  28.976  1.00  0.00     0.074 A 
ATOM     44  C   UNL A   1      39.726  27.383  28.397  1.00  0.00     0.031 C 
ATOM     45  C   UNL A   1      45.621  27.685  29.912  1.00  0.00     0.029 A 
ATOM     46  C   UNL A   1      46.335  27.037  28.831  1.00  0.00     0.049 A 
ATOM     47  H   UNL A   1      45.728  25.209  27.935  1.00  0.00     0.167 HD
ATOM     48  C   UNL A   1      40.421  29.428  29.844  1.00  0.00     0.034 A 
ATOM     49  C   UNL A   1      47.290  27.600  28.044  1.00  0.00     0.034 A 
ATOM     50  C   UNL A   1      41.701  30.150  30.047  1.00  0.00     0.049 A 
ATOM     51  C   UNL A   1      46.886  29.035  27.745  1.00  0.00     0.074 A 
ATOM     52  C   UNL A   1      42.583  30.341  31.095  1.00  0.00     0.029 A 
ATOM     53  N   UNL A   1      42.382  30.598  28.918  1.00  0.00    -0.354 N 
ATOM     54  N   UNL A   1      46.013  29.715  28.445  1.00  0.00    -0.248 NA
ATOM     55  C   UNL A   1      47.355  29.789  26.589  1.00  0.00     0.031 C 
ATOM     56  C   UNL A   1      43.809  30.869  30.559  1.00  0.00     0.029 A 
ATOM     57  C   UNL A   1      43.660  31.056  29.194  1.00  0.00     0.049 A 
ATOM     58  H   UNL A   1      41.993  30.591  28.013  1.00  0.00     0.167 HD
ATOM     59  C   UNL A   1      45.597  30.809  27.737  1.00  0.00     0.074 A 
ATOM     60  C   UNL A   1      46.528  30.850  26.612  1.00  0.00     0.031 C 
ATOM     61  C   UNL A   1      44.486  31.546  28.079  1.00  0.00     0.034 A 
BRANCH  48  62
ATOM     62  C   UNL A   1      39.140  29.735  30.593  1.00  0.00     0.023 A 
ATOM     63  C   UNL A   1      38.731  28.795  31.562  1.00  0.00     0.012 A 
ATOM     64  C   UNL A   1      38.262  30.835  30.379  1.00  0.00     0.148 A 
ATOM     65  C   UNL A   1      37.537  28.931  32.279  1.00  0.00     0.002 A 
ATOM     66  C   UNL A   1      37.105  31.007  31.146  1.00  0.00     0.091 A 
ATOM     67  F   UNL A   1      38.479  31.681  29.368  1.00  0.00    -0.205 F 
ATOM     68  C   UNL A   1      36.733  30.046  32.087  1.00  0.00     0.022 A 
BRANCH  66  69
ATOM     69  S   UNL A   1      36.032  32.452  30.998  1.00  0.00     0.127 S 
ATOM     70  O   UNL A   1      36.984  33.556  31.112  1.00  0.00    -0.237 OA
ATOM     71  O   UNL A   1      35.459  32.282  29.662  1.00  0.00    -0.237 OA
ATOM     72  O   UNL A   1      35.062  32.356  32.083  1.00  0.00    -0.744 OA
ENDBRANCH  66  69
ENDBRANCH  48  62
BRANCH  49  73
ATOM     73  C   UNL A   1      47.919  26.568  27.159  1.00  0.00     0.023 A 
ATOM     74  C   UNL A   1      47.212  26.322  25.951  1.00  0.00     0.012 A 
ATOM     75  C   UNL A   1      49.307  26.341  27.181  1.00  0.00     0.148 A 
ATOM     76  C   UNL A   1      47.891  26.071  24.757  1.00  0.00     0.002 A 
ATOM     77  C   UNL A   1      49.980  26.107  25.979  1.00  0.00     0.091 A 
ATOM     78  F   UNL A   1      49.964  26.534  28.333  1.00  0.00    -0.205 F 
ATOM     79  C   UNL A   1      49.280  26.018  24.764  1.00  0.00     0.022 A 
BRANCH  77  80
ATOM     80  S   UNL A   1      51.778  26.137  25.889  1.00  0.00     0.127 S 
ATOM     81  O   UNL A   1      52.096  27.262  26.762  1.00  0.00    -0.237 OA
ATOM     82  O   UNL A   1      52.141  24.823  26.418  1.00  0.00    -0.237 OA
ATOM     83  O   UNL A   1      52.072  26.311  24.475  1.00  0.00    -0.744 OA
ENDBRANCH  77  80
ENDBRANCH  49  73
BRANCH  61  84
ATOM     84  C   UNL A   1      44.066  32.800  27.319  1.00  0.00     0.023 A 
ATOM     85  C   UNL A   1      44.104  32.825  25.910  1.00  0.00     0.012 A 
ATOM     86  C   UNL A   1      43.727  34.023  27.955  1.00  0.00     0.148 A 
ATOM     87  C   UNL A   1      43.681  33.936  25.174  1.00  0.00     0.002 A 
ATOM     88  C   UNL A   1      43.390  35.156  27.222  1.00  0.00     0.091 A 
ATOM     89  F   UNL A   1      43.719  34.114  29.286  1.00  0.00    -0.205 F 
ATOM     90  C   UNL A   1      43.318  35.103  25.831  1.00  0.00     0.022 A 
BRANCH  88  91
ATOM     91  S   UNL A   1      43.117  36.759  27.994  1.00  0.00     0.127 S 
ATOM     92  O   UNL A   1      42.925  37.616  26.822  1.00  0.00    -0.237 OA
ATOM     93  O   UNL A   1      41.905  36.513  28.774  1.00  0.00    -0.237 OA
ATOM     94  O   UNL A   1      44.310  37.054  28.773  1.00  0.00    -0.744 OA
ENDBRANCH  88  91
ENDBRANCH  61  84
ENDBRANCH  35  36
ENDBRANCH  28  30
ENDBRANCH  27  28
ENDBRANCH  26  27
ENDBRANCH  25  26
ENDBRANCH   1  25
TORSDOF 20
ENDMDL
MODEL 3
REMARK VINA RESULT:     -11.1      3.822      9.487
REMARK SMILES Cc1ccc(Nc2c(C)cccc2Cl)c(CC(=O)OCCOCCOC(=O)c2ccc(-c3c4nc(c(-c5cccc(S(=O)(=O)[O-])c5F)c5ccc([nH]5)c(-c5cccc(S(=O)(=O)[O-])c5F)c5nc(c(-c6cccc(S(=O)(=O)[O-])c6F)c6ccc3[nH]6)C=C5)C=C4)cc2)c1
REMARK SMILES IDX 22 1 21 2 20 3 19 4 17 5 18 6 16 7 15 8 1 9 2 10 3 11 91 12
REMARK SMILES IDX 4 13 5 14 6 15 7 17 8 18 13 19 9 20 10 21 12 22 14 23 11 24
REMARK SMILES IDX 23 25 24 26 25 27 26 28 27 29 28 30 29 31 90 32 30 33 89 34
REMARK SMILES IDX 31 35 32 36 33 37 83 38 34 39 88 40 82 41 84 42 35 43 87 44
REMARK SMILES IDX 81 45 80 46 36 48 68 49 48 50 67 51 49 52 52 53 66 54 85 55
REMARK SMILES IDX 50 56 51 57 65 59 86 60 53 61 37 62 38 63 46 64 39 65 41 66
REMARK SMILES IDX 47 67 40 68 42 69 43 70 44 71 45 72 69 73 70 74 78 75 71 76
REMARK SMILES IDX 73 77 79 78 72 79 74 80 75 81 76 82 77 83 54 84 55 85 63 86
REMARK SMILES IDX 56 87 58 88 64 89 57 90 59 91 60 92 61 93 62 94
REMARK H PARENT 6 16 84 47 52 58
REMARK Flexibility Score: inf
ROOT
ATOM      1  O   UNL A   1      36.196  22.947  24.901  1.00  0.00    -0.374 OA
ENDROOT
BRANCH   1   2
ATOM      2  C   UNL A   1      35.054  22.581  24.161  1.00  0.00     0.202 C 
BRANCH   2   3
ATOM      3  C   UNL A   1      34.120  23.770  24.039  1.00  0.00     0.261 C 
BRANCH   3   4
ATOM      4  O   UNL A   1      34.638  24.978  24.585  1.00  0.00    -0.463 OA
BRANCH   4   5
ATOM      5  C   UNL A   1      33.739  25.931  24.993  1.00  0.00     0.310 C 
ATOM      6  O   UNL A   1      33.021  25.894  25.980  1.00  0.00    -0.252 OA
BRANCH   5   7
ATOM      7  C   UNL A   1      33.707  27.093  24.020  1.00  0.00     0.160 C 
BRANCH   7   8
ATOM      8  C   UNL A   1      33.633  28.399  24.784  1.00  0.00    -0.013 A 
ATOM      9  C   UNL A   1      35.181  29.360  28.141  1.00  0.00     0.044 C 
ATOM     10  C   UNL A   1      34.318  29.395  26.916  1.00  0.00    -0.051 A 
ATOM     11  C   UNL A   1      33.220  30.244  26.833  1.00  0.00     0.005 A 
ATOM     12  C   UNL A   1      34.553  28.520  25.859  1.00  0.00     0.009 A 
ATOM     13  C   UNL A   1      32.349  30.180  25.735  1.00  0.00     0.026 A 
ATOM     14  C   UNL A   1      32.511  29.244  24.695  1.00  0.00     0.042 A 
BRANCH  14  15
ATOM     15  N   UNL A   1      31.575  29.147  23.625  1.00  0.00    -0.354 N 
ATOM     16  H   UNL A   1      31.958  29.137  22.719  1.00  0.00     0.167 HD
BRANCH  15  17
ATOM     17  C   UNL A   1      30.155  29.063  23.699  1.00  0.00     0.060 A 
ATOM     18  C   UNL A   1      29.493  27.827  23.621  1.00  0.00    -0.026 A 
ATOM     19  C   UNL A   1      29.355  30.221  23.669  1.00  0.00     0.064 A 
ATOM     20  C   UNL A   1      30.167  26.558  24.069  1.00  0.00     0.046 C 
ATOM     21  C   UNL A   1      28.148  27.776  23.221  1.00  0.00     0.005 A 
ATOM     22  C   UNL A   1      28.025  30.173  23.241  1.00  0.00     0.023 A 
ATOM     23  Cl  UNL A   1      29.949  31.721  24.280  1.00  0.00    -0.082 Cl
ATOM     24  C   UNL A   1      27.437  28.946  22.963  1.00  0.00     0.002 A 
ENDBRANCH  15  17
ENDBRANCH  14  15
ENDBRANCH   7   8
ENDBRANCH   5   7
ENDBRANCH   4   5
ENDBRANCH   3   4
ENDBRANCH   2   3
ENDBRANCH   1   2
BRANCH   1  25
ATOM     25  C   UNL A   1      37.038  21.882  25.286  1.00  0.00     0.202 C 
BRANCH  25  26
ATOM     26  C   UNL A   1      38.418  22.466  25.573  1.00  0.00     0.261 C 
BRANCH  26  27
ATOM     27  O   UNL A   1      39.085  21.736  26.625  1.00  0.00    -0.460 OA
BRANCH  27  28
ATOM     28  C   UNL A   1      40.360  21.360  26.317  1.00  0.00     0.338 C 
ATOM     29  O   UNL A   1      40.638  20.270  25.828  1.00  0.00    -0.246 OA
BRANCH  28  30
ATOM     30  C   UNL A   1      41.341  22.377  26.787  1.00  0.00     0.060 A 
ATOM     31  C   UNL A   1      41.481  22.603  28.164  1.00  0.00     0.016 A 
ATOM     32  C   UNL A   1      41.836  23.310  25.874  1.00  0.00     0.016 A 
ATOM     33  C   UNL A   1      41.913  23.850  28.625  1.00  0.00     0.010 A 
ATOM     34  C   UNL A   1      42.146  24.575  26.330  1.00  0.00     0.010 A 
ATOM     35  C   UNL A   1      42.146  24.862  27.707  1.00  0.00    -0.014 A 
BRANCH  35  36
ATOM     36  C   UNL A   1      42.416  26.257  28.041  1.00  0.00     0.031 A 
ATOM     37  C   UNL A   1      41.272  27.176  28.133  1.00  0.00     0.074 A 
ATOM     38  C   UNL A   1      43.579  26.607  28.632  1.00  0.00     0.049 A 
ATOM     39  N   UNL A   1      41.385  28.399  28.504  1.00  0.00    -0.248 NA
ATOM     40  C   UNL A   1      39.905  26.809  27.769  1.00  0.00     0.031 C 
ATOM     41  C   UNL A   1      43.767  27.574  29.715  1.00  0.00     0.029 A 
ATOM     42  N   UNL A   1      44.866  26.170  28.359  1.00  0.00    -0.354 N 
ATOM     43  C   UNL A   1      40.124  28.835  28.810  1.00  0.00     0.074 A 
ATOM     44  C   UNL A   1      39.237  27.893  28.179  1.00  0.00     0.031 C 
ATOM     45  C   UNL A   1      45.077  27.774  29.917  1.00  0.00     0.029 A 
ATOM     46  C   UNL A   1      45.787  27.100  28.849  1.00  0.00     0.049 A 
ATOM     47  H   UNL A   1      45.096  25.333  27.893  1.00  0.00     0.167 HD
ATOM     48  C   UNL A   1      40.009  29.860  29.694  1.00  0.00     0.034 A 
ATOM     49  C   UNL A   1      46.807  27.613  28.111  1.00  0.00     0.034 A 
ATOM     50  C   UNL A   1      41.325  30.492  29.959  1.00  0.00     0.049 A 
ATOM     51  C   UNL A   1      46.509  29.077  27.827  1.00  0.00     0.074 A 
ATOM     52  C   UNL A   1      42.177  30.604  31.043  1.00  0.00     0.029 A 
ATOM     53  N   UNL A   1      42.076  30.914  28.866  1.00  0.00    -0.354 N 
ATOM     54  N   UNL A   1      45.658  29.801  28.509  1.00  0.00    -0.248 NA
ATOM     55  C   UNL A   1      47.071  29.820  26.705  1.00  0.00     0.031 C 
ATOM     56  C   UNL A   1      43.455  31.059  30.564  1.00  0.00     0.029 A 
ATOM     57  C   UNL A   1      43.370  31.280  29.198  1.00  0.00     0.049 A 
ATOM     58  H   UNL A   1      41.723  30.950  27.948  1.00  0.00     0.167 HD
ATOM     59  C   UNL A   1      45.341  30.932  27.809  1.00  0.00     0.074 A 
ATOM     60  C   UNL A   1      46.316  30.933  26.721  1.00  0.00     0.031 C 
ATOM     61  C   UNL A   1      44.269  31.736  28.126  1.00  0.00     0.034 A 
BRANCH  48  62
ATOM     62  C   UNL A   1      38.723  30.237  30.401  1.00  0.00     0.023 A 
ATOM     63  C   UNL A   1      38.365  29.460  31.522  1.00  0.00     0.012 A 
ATOM     64  C   UNL A   1      37.797  31.249  30.019  1.00  0.00     0.148 A 
ATOM     65  C   UNL A   1      37.172  29.667  32.226  1.00  0.00     0.002 A 
ATOM     66  C   UNL A   1      36.640  31.501  30.765  1.00  0.00     0.091 A 
ATOM     67  F   UNL A   1      37.967  31.919  28.876  1.00  0.00    -0.205 F 
ATOM     68  C   UNL A   1      36.319  30.699  31.861  1.00  0.00     0.022 A 
BRANCH  66  69
ATOM     69  S   UNL A   1      35.505  32.855  30.393  1.00  0.00     0.127 S 
ATOM     70  O   UNL A   1      35.099  32.549  29.023  1.00  0.00    -0.237 OA
ATOM     71  O   UNL A   1      34.453  32.666  31.393  1.00  0.00    -0.237 OA
ATOM     72  O   UNL A   1      36.269  34.087  30.553  1.00  0.00    -0.744 OA
ENDBRANCH  66  69
ENDBRANCH  48  62
BRANCH  49  73
ATOM     73  C   UNL A   1      47.400  26.558  27.227  1.00  0.00     0.023 A 
ATOM     74  C   UNL A   1      46.697  26.350  26.009  1.00  0.00     0.012 A 
ATOM     75  C   UNL A   1      48.775  26.270  27.266  1.00  0.00     0.148 A 
ATOM     76  C   UNL A   1      47.379  26.075  24.823  1.00  0.00     0.002 A 
ATOM     77  C   UNL A   1      49.453  26.011  26.070  1.00  0.00     0.091 A 
ATOM     78  F   UNL A   1      49.426  26.427  28.426  1.00  0.00    -0.205 F 
ATOM     79  C   UNL A   1      48.764  25.959  24.846  1.00  0.00     0.022 A 
BRANCH  77  80
ATOM     80  S   UNL A   1      51.252  25.961  26.003  1.00  0.00     0.127 S 
ATOM     81  O   UNL A   1      51.488  25.887  24.565  1.00  0.00    -0.237 OA
ATOM     82  O   UNL A   1      51.624  27.230  26.626  1.00  0.00    -0.237 OA
ATOM     83  O   UNL A   1      51.615  24.786  26.781  1.00  0.00    -0.744 OA
ENDBRANCH  77  80
ENDBRANCH  49  73
BRANCH  61  84
ATOM     84  C   UNL A   1      43.961  33.029  27.377  1.00  0.00     0.023 A 
ATOM     85  C   UNL A   1      43.817  33.023  25.975  1.00  0.00     0.012 A 
ATOM     86  C   UNL A   1      43.913  34.302  28.003  1.00  0.00     0.148 A 
ATOM     87  C   UNL A   1      43.487  34.176  25.257  1.00  0.00     0.002 A 
ATOM     88  C   UNL A   1      43.671  35.462  27.276  1.00  0.00     0.091 A 
ATOM     89  F   UNL A   1      44.096  34.416  29.320  1.00  0.00    -0.205 F 
ATOM     90  C   UNL A   1      43.408  35.398  25.908  1.00  0.00     0.022 A 
BRANCH  88  91
ATOM     91  S   UNL A   1      43.766  37.102  28.014  1.00  0.00     0.127 S 
ATOM     92  O   UNL A   1      43.492  37.956  26.857  1.00  0.00    -0.237 OA
ATOM     93  O   UNL A   1      42.690  37.048  29.002  1.00  0.00    -0.237 OA
ATOM     94  O   UNL A   1      45.108  37.233  28.562  1.00  0.00    -0.744 OA
ENDBRANCH  88  91
ENDBRANCH  61  84
ENDBRANCH  35  36
ENDBRANCH  28  30
ENDBRANCH  27  28
ENDBRANCH  26  27
ENDBRANCH  25  26
ENDBRANCH   1  25
TORSDOF 20
ENDMDL
