MODEL 1
REMARK VINA RESULT:     -11.8      0.000      0.000
REMARK SMILES O=C(CC[NH+]1CC[NH+](Cc2ccccc2C2CC2)CC1)OCCOCCOC(=O)c1ccc(-c2c3nc(c(-c4cccc(S(=O)(=O)[O-])c4F)c4ccc([nH]4)c(-c4cccc(S(=O)(=O)[O-])c4F)c4nc(c(-c5cccc(S(=O)(=O)[O-])c5F)c5ccc2[nH]5)C=C4)C=C3)cc1
REMARK SMILES IDX 23 1 22 2 21 3 2 4 1 5 3 6 4 7 5 8 6 9 20 10 7 12 19 13 8 14
REMARK SMILES IDX 9 16 10 17 11 18 15 19 12 20 14 21 13 22 16 23 17 24 18 25
REMARK SMILES IDX 24 26 25 27 26 28 27 29 28 30 29 31 30 32 31 33 92 34 32 35
REMARK SMILES IDX 91 36 33 37 34 38 35 39 85 40 36 41 90 42 84 43 86 44 37 45
REMARK SMILES IDX 89 46 83 47 82 48 38 50 70 51 50 52 69 53 51 54 54 55 68 56
REMARK SMILES IDX 87 57 52 58 53 59 67 61 88 62 55 63 39 64 40 65 48 66 41 67
REMARK SMILES IDX 43 68 49 69 42 70 44 71 45 72 46 73 47 74 71 75 72 76 80 77
REMARK SMILES IDX 73 78 75 79 81 80 74 81 76 82 77 83 78 84 79 85 56 86 57 87
REMARK SMILES IDX 65 88 58 89 60 90 66 91 59 92 61 93 62 94 63 95 64 96
REMARK H PARENT 5 11 8 15 86 49 54 60
REMARK Flexibility Score: inf
ROOT
ATOM      1  C   UNL A   1      41.555  20.528  27.191  1.00  0.00     0.202 C 
ENDROOT
BRANCH   1   2
ATOM      2  C   UNL A   1      40.233  20.123  26.106  1.00  0.00     0.261 C 
BRANCH   2   3
ATOM      3  O   UNL A   1      38.863  21.369  25.474  1.00  0.00    -0.463 OA
BRANCH   3   4
ATOM      4  C   UNL A   1      37.623  22.052  25.317  1.00  0.00     0.311 C 
ATOM      5  O   UNL A   1      37.221  22.865  26.148  1.00  0.00    -0.252 OA
BRANCH   4   6
ATOM      6  C   UNL A   1      36.731  21.660  24.164  1.00  0.00     0.184 C 
BRANCH   6   7
ATOM      7  C   UNL A   1      36.200  22.872  23.479  1.00  0.00     0.274 C 
BRANCH   7   8
ATOM      8  N   UNL A   1      34.833  23.059  23.915  1.00  0.00    -0.325 N 
ATOM      9  C   UNL A   1      34.862  24.723  24.762  1.00  0.00     0.324 C 
ATOM     10  C   UNL A   1      33.694  22.968  22.390  1.00  0.00     0.324 C 
ATOM     11  H   UNL A   1      34.472  22.353  24.557  1.00  0.00     0.348 HD
ATOM     12  C   UNL A   1      33.970  26.252  24.050  1.00  0.00     0.324 C 
ATOM     13  C   UNL A   1      32.660  24.633  21.873  1.00  0.00     0.324 C 
ATOM     14  N   UNL A   1      32.645  26.113  22.970  1.00  0.00    -0.322 N 
ATOM     15  H   UNL A   1      32.754  26.776  22.201  1.00  0.00     0.348 HD
BRANCH  14  16
ATOM     16  C   UNL A   1      31.359  26.617  23.609  1.00  0.00     0.299 C 
BRANCH  16  17
ATOM     17  C   UNL A   1      30.964  28.137  23.535  1.00  0.00     0.010 A 
ATOM     18  C   UNL A   1      30.253  28.565  22.384  1.00  0.00     0.010 A 
ATOM     19  C   UNL A   1      31.126  29.101  24.570  1.00  0.00    -0.036 A 
ATOM     20  C   UNL A   1      29.465  29.722  22.364  1.00  0.00     0.001 A 
ATOM     21  C   UNL A   1      30.274  30.244  24.536  1.00  0.00     0.004 A 
ATOM     22  C   UNL A   1      29.415  30.527  23.482  1.00  0.00     0.000 A 
BRANCH  19  23
ATOM     23  C   UNL A   1      32.047  29.057  25.781  1.00  0.00     0.020 C 
ATOM     24  C   UNL A   1      31.639  29.258  27.215  1.00  0.00     0.009 C 
ATOM     25  C   UNL A   1      31.958  27.882  26.720  1.00  0.00     0.009 C 
ENDBRANCH  19  23
ENDBRANCH  16  17
ENDBRANCH  14  16
ENDBRANCH   7   8
ENDBRANCH   6   7
ENDBRANCH   4   6
ENDBRANCH   3   4
ENDBRANCH   2   3
ENDBRANCH   1   2
BRANCH   1  26
ATOM     26  O   UNL A   1      42.975  20.600  26.920  1.00  0.00    -0.374 OA
BRANCH  26  27
ATOM     27  C   UNL A   1      43.729  21.267  25.892  1.00  0.00     0.202 C 
BRANCH  27  28
ATOM     28  C   UNL A   1      43.239  22.323  24.853  1.00  0.00     0.261 C 
BRANCH  28  29
ATOM     29  O   UNL A   1      42.535  23.452  25.347  1.00  0.00    -0.460 OA
BRANCH  29  30
ATOM     30  C   UNL A   1      43.310  24.529  25.566  1.00  0.00     0.338 C 
ATOM     31  O   UNL A   1      44.308  24.843  24.953  1.00  0.00    -0.246 OA
BRANCH  30  32
ATOM     32  C   UNL A   1      42.608  25.385  26.539  1.00  0.00     0.060 A 
ATOM     33  C   UNL A   1      42.999  26.723  26.556  1.00  0.00     0.016 A 
ATOM     34  C   UNL A   1      41.604  24.916  27.399  1.00  0.00     0.016 A 
ATOM     35  C   UNL A   1      42.431  27.593  27.474  1.00  0.00     0.010 A 
ATOM     36  C   UNL A   1      41.046  25.791  28.338  1.00  0.00     0.010 A 
ATOM     37  C   UNL A   1      41.494  27.120  28.402  1.00  0.00    -0.014 A 
BRANCH  37  38
ATOM     38  C   UNL A   1      41.221  27.986  29.568  1.00  0.00     0.031 A 
ATOM     39  C   UNL A   1      39.991  28.849  29.518  1.00  0.00     0.074 A 
ATOM     40  C   UNL A   1      41.958  27.910  30.689  1.00  0.00     0.049 A 
ATOM     41  N   UNL A   1      39.431  29.550  30.467  1.00  0.00    -0.248 NA
ATOM     42  C   UNL A   1      39.282  28.906  28.227  1.00  0.00     0.031 C 
ATOM     43  C   UNL A   1      43.157  27.093  30.864  1.00  0.00     0.029 A 
ATOM     44  N   UNL A   1      41.794  28.536  31.898  1.00  0.00    -0.354 N 
ATOM     45  C   UNL A   1      38.299  30.116  29.897  1.00  0.00     0.074 A 
ATOM     46  C   UNL A   1      38.263  29.703  28.512  1.00  0.00     0.031 C 
ATOM     47  C   UNL A   1      43.636  27.290  32.105  1.00  0.00     0.029 A 
ATOM     48  C   UNL A   1      42.783  28.247  32.806  1.00  0.00     0.049 A 
ATOM     49  H   UNL A   1      41.038  29.133  32.096  1.00  0.00     0.167 HD
ATOM     50  C   UNL A   1      37.357  30.892  30.479  1.00  0.00     0.034 A 
ATOM     51  C   UNL A   1      42.980  28.716  34.054  1.00  0.00     0.034 A 
ATOM     52  C   UNL A   1      37.412  31.333  31.846  1.00  0.00     0.049 A 
ATOM     53  C   UNL A   1      41.951  29.641  34.657  1.00  0.00     0.074 A 
ATOM     54  C   UNL A   1      36.515  32.134  32.528  1.00  0.00     0.029 A 
ATOM     55  N   UNL A   1      38.435  31.030  32.731  1.00  0.00    -0.354 N 
ATOM     56  N   UNL A   1      40.825  30.076  34.145  1.00  0.00    -0.248 NA
ATOM     57  C   UNL A   1      42.200  30.101  36.031  1.00  0.00     0.031 C 
ATOM     58  C   UNL A   1      37.015  32.347  33.817  1.00  0.00     0.029 A 
ATOM     59  C   UNL A   1      38.200  31.639  33.952  1.00  0.00     0.049 A 
ATOM     60  H   UNL A   1      39.214  30.466  32.523  1.00  0.00     0.167 HD
ATOM     61  C   UNL A   1      40.218  30.832  35.143  1.00  0.00     0.074 A 
ATOM     62  C   UNL A   1      41.086  30.764  36.300  1.00  0.00     0.031 C 
ATOM     63  C   UNL A   1      39.055  31.532  35.105  1.00  0.00     0.034 A 
BRANCH  50  64
ATOM     64  C   UNL A   1      36.184  31.308  29.633  1.00  0.00     0.023 A 
ATOM     65  C   UNL A   1      35.560  30.360  28.796  1.00  0.00     0.012 A 
ATOM     66  C   UNL A   1      35.679  32.619  29.692  1.00  0.00     0.148 A 
ATOM     67  C   UNL A   1      34.466  30.720  28.010  1.00  0.00     0.002 A 
ATOM     68  C   UNL A   1      34.562  32.959  28.940  1.00  0.00     0.091 A 
ATOM     69  F   UNL A   1      36.305  33.510  30.475  1.00  0.00    -0.205 F 
ATOM     70  C   UNL A   1      33.961  32.014  28.090  1.00  0.00     0.022 A 
BRANCH  68  71
ATOM     71  S   UNL A   1      33.790  34.577  29.024  1.00  0.00     0.127 S 
ATOM     72  O   UNL A   1      33.667  34.772  30.469  1.00  0.00    -0.237 OA
ATOM     73  O   UNL A   1      34.790  35.425  28.377  1.00  0.00    -0.237 OA
ATOM     74  O   UNL A   1      32.528  34.462  28.306  1.00  0.00    -0.744 OA
ENDBRANCH  68  71
ENDBRANCH  50  64
BRANCH  51  75
ATOM     75  C   UNL A   1      44.195  28.323  34.823  1.00  0.00     0.023 A 
ATOM     76  C   UNL A   1      44.154  27.231  35.711  1.00  0.00     0.012 A 
ATOM     77  C   UNL A   1      45.391  29.057  34.697  1.00  0.00     0.148 A 
ATOM     78  C   UNL A   1      45.263  26.909  36.495  1.00  0.00     0.002 A 
ATOM     79  C   UNL A   1      46.510  28.695  35.435  1.00  0.00     0.091 A 
ATOM     80  F   UNL A   1      45.407  30.105  33.861  1.00  0.00    -0.205 F 
ATOM     81  C   UNL A   1      46.442  27.635  36.352  1.00  0.00     0.022 A 
BRANCH  79  82
ATOM     82  S   UNL A   1      48.103  29.495  35.224  1.00  0.00     0.127 S 
ATOM     83  O   UNL A   1      48.821  28.521  34.406  1.00  0.00    -0.237 OA
ATOM     84  O   UNL A   1      47.729  30.728  34.530  1.00  0.00    -0.237 OA
ATOM     85  O   UNL A   1      48.625  29.697  36.569  1.00  0.00    -0.744 OA
ENDBRANCH  79  82
ENDBRANCH  51  75
BRANCH  63  86
ATOM     86  C   UNL A   1      38.636  32.253  36.363  1.00  0.00     0.023 A 
ATOM     87  C   UNL A   1      38.916  33.627  36.515  1.00  0.00     0.012 A 
ATOM     88  C   UNL A   1      37.926  31.578  37.376  1.00  0.00     0.148 A 
ATOM     89  C   UNL A   1      38.546  34.301  37.678  1.00  0.00     0.002 A 
ATOM     90  C   UNL A   1      37.512  32.271  38.507  1.00  0.00     0.091 A 
ATOM     91  F   UNL A   1      37.679  30.269  37.222  1.00  0.00    -0.205 F 
ATOM     92  C   UNL A   1      37.836  33.627  38.668  1.00  0.00     0.022 A 
BRANCH  90  93
ATOM     93  S   UNL A   1      36.505  31.509  39.786  1.00  0.00     0.127 S 
ATOM     94  O   UNL A   1      37.410  30.485  40.305  1.00  0.00    -0.237 OA
ATOM     95  O   UNL A   1      36.264  32.628  40.697  1.00  0.00    -0.237 OA
ATOM     96  O   UNL A   1      35.313  31.010  39.114  1.00  0.00    -0.744 OA
ENDBRANCH  90  93
ENDBRANCH  63  86
ENDBRANCH  37  38
ENDBRANCH  30  32
ENDBRANCH  29  30
ENDBRANCH  28  29
ENDBRANCH  27  28
ENDBRANCH  26  27
ENDBRANCH   1  26
TORSDOF 22
ENDMDL
MODEL 2
REMARK VINA RESULT:     -11.7      1.770      2.031
REMARK SMILES O=C(CC[NH+]1CC[NH+](Cc2ccccc2C2CC2)CC1)OCCOCCOC(=O)c1ccc(-c2c3nc(c(-c4cccc(S(=O)(=O)[O-])c4F)c4ccc([nH]4)c(-c4cccc(S(=O)(=O)[O-])c4F)c4nc(c(-c5cccc(S(=O)(=O)[O-])c5F)c5ccc2[nH]5)C=C4)C=C3)cc1
REMARK SMILES IDX 23 1 22 2 21 3 2 4 1 5 3 6 4 7 5 8 6 9 20 10 7 12 19 13 8 14
REMARK SMILES IDX 9 16 10 17 11 18 15 19 12 20 14 21 13 22 16 23 17 24 18 25
REMARK SMILES IDX 24 26 25 27 26 28 27 29 28 30 29 31 30 32 31 33 92 34 32 35
REMARK SMILES IDX 91 36 33 37 34 38 35 39 85 40 36 41 90 42 84 43 86 44 37 45
REMARK SMILES IDX 89 46 83 47 82 48 38 50 70 51 50 52 69 53 51 54 54 55 68 56
REMARK SMILES IDX 87 57 52 58 53 59 67 61 88 62 55 63 39 64 40 65 48 66 41 67
REMARK SMILES IDX 43 68 49 69 42 70 44 71 45 72 46 73 47 74 71 75 72 76 80 77
REMARK SMILES IDX 73 78 75 79 81 80 74 81 76 82 77 83 78 84 79 85 56 86 57 87
REMARK SMILES IDX 65 88 58 89 60 90 66 91 59 92 61 93 62 94 63 95 64 96
REMARK H PARENT 5 11 8 15 86 49 54 60
REMARK Flexibility Score: inf
ROOT
ATOM      1  C   UNL A   1      41.638  20.586  27.160  1.00  0.00     0.202 C 
ENDROOT
BRANCH   1   2
ATOM      2  C   UNL A   1      40.264  20.191  26.138  1.00  0.00     0.261 C 
BRANCH   2   3
ATOM      3  O   UNL A   1      38.910  21.461  25.520  1.00  0.00    -0.463 OA
BRANCH   3   4
ATOM      4  C   UNL A   1      37.678  22.160  25.370  1.00  0.00     0.311 C 
ATOM      5  O   UNL A   1      37.315  23.014  26.178  1.00  0.00    -0.252 OA
BRANCH   4   6
ATOM      6  C   UNL A   1      36.746  21.738  24.260  1.00  0.00     0.184 C 
BRANCH   6   7
ATOM      7  C   UNL A   1      36.204  22.933  23.551  1.00  0.00     0.274 C 
BRANCH   7   8
ATOM      8  N   UNL A   1      34.824  23.094  23.955  1.00  0.00    -0.325 N 
ATOM      9  C   UNL A   1      34.794  24.774  24.768  1.00  0.00     0.324 C 
ATOM     10  C   UNL A   1      33.720  22.943  22.409  1.00  0.00     0.324 C 
ATOM     11  H   UNL A   1      34.468  22.392  24.604  1.00  0.00     0.348 HD
ATOM     12  C   UNL A   1      33.880  26.266  24.006  1.00  0.00     0.324 C 
ATOM     13  C   UNL A   1      32.657  24.571  21.836  1.00  0.00     0.324 C 
ATOM     14  N   UNL A   1      32.582  26.072  22.902  1.00  0.00    -0.322 N 
ATOM     15  H   UNL A   1      32.691  26.721  22.122  1.00  0.00     0.348 HD
BRANCH  14  16
ATOM     16  C   UNL A   1      31.271  26.556  23.504  1.00  0.00     0.299 C 
BRANCH  16  17
ATOM     17  C   UNL A   1      30.885  28.080  23.475  1.00  0.00     0.010 A 
ATOM     18  C   UNL A   1      30.164  28.543  22.344  1.00  0.00     0.010 A 
ATOM     19  C   UNL A   1      31.065  29.015  24.534  1.00  0.00    -0.036 A 
ATOM     20  C   UNL A   1      29.384  29.706  22.365  1.00  0.00     0.001 A 
ATOM     21  C   UNL A   1      30.221  30.163  24.541  1.00  0.00     0.004 A 
ATOM     22  C   UNL A   1      29.351  30.480  23.504  1.00  0.00     0.000 A 
BRANCH  19  23
ATOM     23  C   UNL A   1      32.000  28.932  25.733  1.00  0.00     0.020 C 
ATOM     24  C   UNL A   1      31.677  29.351  27.141  1.00  0.00     0.009 C 
ATOM     25  C   UNL A   1      31.732  27.896  26.794  1.00  0.00     0.009 C 
ENDBRANCH  19  23
ENDBRANCH  16  17
ENDBRANCH  14  16
ENDBRANCH   7   8
ENDBRANCH   6   7
ENDBRANCH   4   6
ENDBRANCH   3   4
ENDBRANCH   2   3
ENDBRANCH   1   2
BRANCH   1  26
ATOM     26  O   UNL A   1      43.050  20.581  26.841  1.00  0.00    -0.374 OA
BRANCH  26  27
ATOM     27  C   UNL A   1      43.801  21.183  25.771  1.00  0.00     0.202 C 
BRANCH  27  28
ATOM     28  C   UNL A   1      43.324  22.223  24.710  1.00  0.00     0.261 C 
BRANCH  28  29
ATOM     29  O   UNL A   1      42.619  23.362  25.179  1.00  0.00    -0.460 OA
BRANCH  29  30
ATOM     30  C   UNL A   1      43.394  24.444  25.374  1.00  0.00     0.338 C 
ATOM     31  O   UNL A   1      44.381  24.755  24.743  1.00  0.00    -0.246 OA
BRANCH  30  32
ATOM     32  C   UNL A   1      42.704  25.307  26.351  1.00  0.00     0.060 A 
ATOM     33  C   UNL A   1      43.127  26.636  26.383  1.00  0.00     0.016 A 
ATOM     34  C   UNL A   1      41.682  24.855  27.198  1.00  0.00     0.016 A 
ATOM     35  C   UNL A   1      42.573  27.511  27.305  1.00  0.00     0.010 A 
ATOM     36  C   UNL A   1      41.138  25.734  28.141  1.00  0.00     0.010 A 
ATOM     37  C   UNL A   1      41.617  27.052  28.221  1.00  0.00    -0.014 A 
BRANCH  37  38
ATOM     38  C   UNL A   1      41.355  27.913  29.394  1.00  0.00     0.031 A 
ATOM     39  C   UNL A   1      40.117  28.764  29.365  1.00  0.00     0.074 A 
ATOM     40  C   UNL A   1      42.112  27.841  30.502  1.00  0.00     0.049 A 
ATOM     41  N   UNL A   1      39.567  29.458  30.325  1.00  0.00    -0.248 NA
ATOM     42  C   UNL A   1      39.386  28.817  28.086  1.00  0.00     0.031 C 
ATOM     43  C   UNL A   1      43.321  27.035  30.655  1.00  0.00     0.029 A 
ATOM     44  N   UNL A   1      41.961  28.464  31.715  1.00  0.00    -0.354 N 
ATOM     45  C   UNL A   1      38.420  30.015  29.775  1.00  0.00     0.074 A 
ATOM     46  C   UNL A   1      38.365  29.603  28.390  1.00  0.00     0.031 C 
ATOM     47  C   UNL A   1      43.818  27.234  31.888  1.00  0.00     0.029 A 
ATOM     48  C   UNL A   1      42.969  28.182  32.605  1.00  0.00     0.049 A 
ATOM     49  H   UNL A   1      41.203  29.054  31.926  1.00  0.00     0.167 HD
ATOM     50  C   UNL A   1      37.480  30.781  30.374  1.00  0.00     0.034 A 
ATOM     51  C   UNL A   1      43.182  28.651  33.850  1.00  0.00     0.034 A 
ATOM     52  C   UNL A   1      37.554  31.220  31.740  1.00  0.00     0.049 A 
ATOM     53  C   UNL A   1      42.155  29.565  34.473  1.00  0.00     0.074 A 
ATOM     54  C   UNL A   1      36.661  32.012  32.439  1.00  0.00     0.029 A 
ATOM     55  N   UNL A   1      38.594  30.925  32.608  1.00  0.00    -0.354 N 
ATOM     56  N   UNL A   1      41.016  29.991  33.980  1.00  0.00    -0.248 NA
ATOM     57  C   UNL A   1      42.422  30.025  35.843  1.00  0.00     0.031 C 
ATOM     58  C   UNL A   1      37.181  32.227  33.720  1.00  0.00     0.029 A 
ATOM     59  C   UNL A   1      38.373  31.530  33.834  1.00  0.00     0.049 A 
ATOM     60  H   UNL A   1      39.375  30.368  32.386  1.00  0.00     0.167 HD
ATOM     61  C   UNL A   1      40.419  30.739  34.990  1.00  0.00     0.074 A 
ATOM     62  C   UNL A   1      41.306  30.677  36.132  1.00  0.00     0.031 C 
ATOM     63  C   UNL A   1      39.249  31.428  34.972  1.00  0.00     0.034 A 
BRANCH  50  64
ATOM     64  C   UNL A   1      36.290  31.187  29.548  1.00  0.00     0.023 A 
ATOM     65  C   UNL A   1      35.630  30.223  28.757  1.00  0.00     0.012 A 
ATOM     66  C   UNL A   1      35.803  32.506  29.581  1.00  0.00     0.148 A 
ATOM     67  C   UNL A   1      34.519  30.574  27.991  1.00  0.00     0.002 A 
ATOM     68  C   UNL A   1      34.670  32.839  28.851  1.00  0.00     0.091 A 
ATOM     69  F   UNL A   1      36.461  33.411  30.320  1.00  0.00    -0.205 F 
ATOM     70  C   UNL A   1      34.034  31.877  28.046  1.00  0.00     0.022 A 
BRANCH  68  71
ATOM     71  S   UNL A   1      33.921  34.469  28.907  1.00  0.00     0.127 S 
ATOM     72  O   UNL A   1      33.788  34.684  30.348  1.00  0.00    -0.237 OA
ATOM     73  O   UNL A   1      34.940  35.294  28.259  1.00  0.00    -0.237 OA
ATOM     74  O   UNL A   1      32.665  34.363  28.179  1.00  0.00    -0.744 OA
ENDBRANCH  68  71
ENDBRANCH  50  64
BRANCH  51  75
ATOM     75  C   UNL A   1      44.413  28.268  34.599  1.00  0.00     0.023 A 
ATOM     76  C   UNL A   1      45.553  29.093  34.566  1.00  0.00     0.012 A 
ATOM     77  C   UNL A   1      44.464  27.060  35.322  1.00  0.00     0.148 A 
ATOM     78  C   UNL A   1      46.735  28.700  35.197  1.00  0.00     0.002 A 
ATOM     79  C   UNL A   1      45.623  26.702  35.998  1.00  0.00     0.091 A 
ATOM     80  F   UNL A   1      43.375  26.277  35.327  1.00  0.00    -0.205 F 
ATOM     81  C   UNL A   1      46.768  27.510  35.918  1.00  0.00     0.022 A 
BRANCH  79  82
ATOM     82  S   UNL A   1      45.716  25.251  37.049  1.00  0.00     0.127 S 
ATOM     83  O   UNL A   1      45.228  24.203  36.156  1.00  0.00    -0.237 OA
ATOM     84  O   UNL A   1      47.147  25.189  37.350  1.00  0.00    -0.237 OA
ATOM     85  O   UNL A   1      44.871  25.542  38.201  1.00  0.00    -0.744 OA
ENDBRANCH  79  82
ENDBRANCH  51  75
BRANCH  63  86
ATOM     86  C   UNL A   1      38.844  32.144  36.238  1.00  0.00     0.023 A 
ATOM     87  C   UNL A   1      37.832  31.607  37.060  1.00  0.00     0.012 A 
ATOM     88  C   UNL A   1      39.498  33.327  36.635  1.00  0.00     0.148 A 
ATOM     89  C   UNL A   1      37.439  32.266  38.224  1.00  0.00     0.002 A 
ATOM     90  C   UNL A   1      39.141  33.947  37.826  1.00  0.00     0.091 A 
ATOM     91  F   UNL A   1      40.450  33.832  35.837  1.00  0.00    -0.205 F 
ATOM     92  C   UNL A   1      38.099  33.429  38.612  1.00  0.00     0.022 A 
BRANCH  90  93
ATOM     93  S   UNL A   1      40.005  35.391  38.456  1.00  0.00     0.127 S 
ATOM     94  O   UNL A   1      39.277  36.479  37.805  1.00  0.00    -0.237 OA
ATOM     95  O   UNL A   1      39.779  35.283  39.897  1.00  0.00    -0.237 OA
ATOM     96  O   UNL A   1      41.395  35.236  38.050  1.00  0.00    -0.744 OA
ENDBRANCH  90  93
ENDBRANCH  63  86
ENDBRANCH  37  38
ENDBRANCH  30  32
ENDBRANCH  29  30
ENDBRANCH  28  29
ENDBRANCH  27  28
ENDBRANCH  26  27
ENDBRANCH   1  26
TORSDOF 22
ENDMDL
MODEL 3
REMARK VINA RESULT:     -11.7      5.327      8.288
REMARK SMILES O=C(CC[NH+]1CC[NH+](Cc2ccccc2C2CC2)CC1)OCCOCCOC(=O)c1ccc(-c2c3nc(c(-c4cccc(S(=O)(=O)[O-])c4F)c4ccc([nH]4)c(-c4cccc(S(=O)(=O)[O-])c4F)c4nc(c(-c5cccc(S(=O)(=O)[O-])c5F)c5ccc2[nH]5)C=C4)C=C3)cc1
REMARK SMILES IDX 23 1 22 2 21 3 2 4 1 5 3 6 4 7 5 8 6 9 20 10 7 12 19 13 8 14
REMARK SMILES IDX 9 16 10 17 11 18 15 19 12 20 14 21 13 22 16 23 17 24 18 25
REMARK SMILES IDX 24 26 25 27 26 28 27 29 28 30 29 31 30 32 31 33 92 34 32 35
REMARK SMILES IDX 91 36 33 37 34 38 35 39 85 40 36 41 90 42 84 43 86 44 37 45
REMARK SMILES IDX 89 46 83 47 82 48 38 50 70 51 50 52 69 53 51 54 54 55 68 56
REMARK SMILES IDX 87 57 52 58 53 59 67 61 88 62 55 63 39 64 40 65 48 66 41 67
REMARK SMILES IDX 43 68 49 69 42 70 44 71 45 72 46 73 47 74 71 75 72 76 80 77
REMARK SMILES IDX 73 78 75 79 81 80 74 81 76 82 77 83 78 84 79 85 56 86 57 87
REMARK SMILES IDX 65 88 58 89 60 90 66 91 59 92 61 93 62 94 63 95 64 96
REMARK H PARENT 5 11 8 15 86 49 54 60
REMARK Flexibility Score: inf
ROOT
ATOM      1  C   UNL A   1      37.340  23.563  25.512  1.00  0.00     0.202 C 
ENDROOT
BRANCH   1   2
ATOM      2  C   UNL A   1      36.780  22.392  24.327  1.00  0.00     0.261 C 
BRANCH   2   3
ATOM      3  O   UNL A   1      35.461  20.986  24.659  1.00  0.00    -0.463 OA
BRANCH   3   4
ATOM      4  C   UNL A   1      34.236  20.259  24.692  1.00  0.00     0.311 C 
ATOM      5  O   UNL A   1      34.203  19.037  24.555  1.00  0.00    -0.252 OA
BRANCH   4   6
ATOM      6  C   UNL A   1      32.944  21.037  24.766  1.00  0.00     0.184 C 
BRANCH   6   7
ATOM      7  C   UNL A   1      32.257  21.033  23.443  1.00  0.00     0.274 C 
BRANCH   7   8
ATOM      8  N   UNL A   1      31.820  22.386  23.171  1.00  0.00    -0.325 N 
ATOM      9  C   UNL A   1      30.954  22.895  24.745  1.00  0.00     0.324 C 
ATOM     10  C   UNL A   1      33.347  23.438  22.733  1.00  0.00     0.324 C 
ATOM     11  H   UNL A   1      31.187  22.496  22.380  1.00  0.00     0.348 HD
ATOM     12  C   UNL A   1      31.649  24.237  25.910  1.00  0.00     0.324 C 
ATOM     13  C   UNL A   1      33.846  24.957  23.979  1.00  0.00     0.324 C 
ATOM     14  N   UNL A   1      32.732  25.448  25.362  1.00  0.00    -0.322 N 
ATOM     15  H   UNL A   1      33.493  25.562  26.032  1.00  0.00     0.348 HD
BRANCH  14  16
ATOM     16  C   UNL A   1      32.088  26.826  25.414  1.00  0.00     0.299 C 
BRANCH  16  17
ATOM     17  C   UNL A   1      31.196  27.345  24.227  1.00  0.00     0.010 A 
ATOM     18  C   UNL A   1      29.881  26.822  24.130  1.00  0.00     0.010 A 
ATOM     19  C   UNL A   1      31.528  28.391  23.320  1.00  0.00    -0.036 A 
ATOM     20  C   UNL A   1      28.852  27.478  23.443  1.00  0.00     0.001 A 
ATOM     21  C   UNL A   1      30.448  29.061  22.675  1.00  0.00     0.004 A 
ATOM     22  C   UNL A   1      29.124  28.652  22.775  1.00  0.00     0.000 A 
BRANCH  19  23
ATOM     23  C   UNL A   1      32.897  28.965  22.982  1.00  0.00     0.020 C 
ATOM     24  C   UNL A   1      34.216  28.495  23.531  1.00  0.00     0.009 C 
ATOM     25  C   UNL A   1      33.834  28.155  22.124  1.00  0.00     0.009 C 
ENDBRANCH  19  23
ENDBRANCH  16  17
ENDBRANCH  14  16
ENDBRANCH   7   8
ENDBRANCH   6   7
ENDBRANCH   4   6
ENDBRANCH   3   4
ENDBRANCH   2   3
ENDBRANCH   1   2
BRANCH   1  26
ATOM     26  O   UNL A   1      38.603  23.622  26.218  1.00  0.00    -0.374 OA
BRANCH  26  27
ATOM     27  C   UNL A   1      39.481  22.596  26.713  1.00  0.00     0.202 C 
BRANCH  27  28
ATOM     28  C   UNL A   1      39.657  21.132  26.201  1.00  0.00     0.261 C 
BRANCH  28  29
ATOM     29  O   UNL A   1      40.443  20.251  26.989  1.00  0.00    -0.460 OA
BRANCH  29  30
ATOM     30  C   UNL A   1      41.635  19.945  26.446  1.00  0.00     0.338 C 
ATOM     31  O   UNL A   1      41.930  18.920  25.871  1.00  0.00    -0.246 OA
BRANCH  30  32
ATOM     32  C   UNL A   1      42.457  21.168  26.477  1.00  0.00     0.060 A 
ATOM     33  C   UNL A   1      42.653  21.730  27.738  1.00  0.00     0.016 A 
ATOM     34  C   UNL A   1      43.027  21.747  25.333  1.00  0.00     0.016 A 
ATOM     35  C   UNL A   1      43.370  22.910  27.860  1.00  0.00     0.010 A 
ATOM     36  C   UNL A   1      43.733  22.949  25.456  1.00  0.00     0.010 A 
ATOM     37  C   UNL A   1      43.866  23.552  26.718  1.00  0.00    -0.014 A 
BRANCH  37  38
ATOM     38  C   UNL A   1      44.277  24.963  26.875  1.00  0.00     0.031 A 
ATOM     39  C   UNL A   1      43.244  25.933  27.376  1.00  0.00     0.074 A 
ATOM     40  C   UNL A   1      45.555  25.345  26.713  1.00  0.00     0.049 A 
ATOM     41  N   UNL A   1      43.392  27.169  27.771  1.00  0.00    -0.248 NA
ATOM     42  C   UNL A   1      41.862  25.431  27.469  1.00  0.00     0.031 C 
ATOM     43  C   UNL A   1      46.647  24.489  26.254  1.00  0.00     0.029 A 
ATOM     44  N   UNL A   1      46.144  26.565  26.924  1.00  0.00    -0.354 N 
ATOM     45  C   UNL A   1      42.131  27.587  28.175  1.00  0.00     0.074 A 
ATOM     46  C   UNL A   1      41.222  26.485  27.951  1.00  0.00     0.031 C 
ATOM     47  C   UNL A   1      47.772  25.222  26.194  1.00  0.00     0.029 A 
ATOM     48  C   UNL A   1      47.479  26.594  26.602  1.00  0.00     0.049 A 
ATOM     49  H   UNL A   1      45.657  27.345  27.274  1.00  0.00     0.167 HD
ATOM     50  C   UNL A   1      41.764  28.775  28.708  1.00  0.00     0.034 A 
ATOM     51  C   UNL A   1      48.355  27.617  26.624  1.00  0.00     0.034 A 
ATOM     52  C   UNL A   1      42.660  29.881  28.895  1.00  0.00     0.049 A 
ATOM     53  C   UNL A   1      47.903  28.955  27.155  1.00  0.00     0.074 A 
ATOM     54  C   UNL A   1      42.384  31.134  29.414  1.00  0.00     0.029 A 
ATOM     55  N   UNL A   1      44.002  29.878  28.548  1.00  0.00    -0.354 N 
ATOM     56  N   UNL A   1      46.736  29.303  27.641  1.00  0.00    -0.248 NA
ATOM     57  C   UNL A   1      48.906  30.030  27.183  1.00  0.00     0.031 C 
ATOM     58  C   UNL A   1      43.552  31.900  29.344  1.00  0.00     0.029 A 
ATOM     59  C   UNL A   1      44.567  31.110  28.827  1.00  0.00     0.049 A 
ATOM     60  H   UNL A   1      44.483  29.112  28.158  1.00  0.00     0.167 HD
ATOM     61  C   UNL A   1      46.874  30.622  28.062  1.00  0.00     0.074 A 
ATOM     62  C   UNL A   1      48.249  30.997  27.805  1.00  0.00     0.031 C 
ATOM     63  C   UNL A   1      45.946  31.455  28.599  1.00  0.00     0.034 A 
BRANCH  50  64
ATOM     64  C   UNL A   1      40.327  28.929  29.128  1.00  0.00     0.023 A 
ATOM     65  C   UNL A   1      39.331  29.106  28.146  1.00  0.00     0.012 A 
ATOM     66  C   UNL A   1      39.960  28.860  30.484  1.00  0.00     0.148 A 
ATOM     67  C   UNL A   1      37.992  29.241  28.511  1.00  0.00     0.002 A 
ATOM     68  C   UNL A   1      38.620  28.950  30.837  1.00  0.00     0.091 A 
ATOM     69  F   UNL A   1      40.927  28.717  31.401  1.00  0.00    -0.205 F 
ATOM     70  C   UNL A   1      37.636  29.153  29.853  1.00  0.00     0.022 A 
BRANCH  68  71
ATOM     71  S   UNL A   1      38.048  28.778  32.529  1.00  0.00     0.127 S 
ATOM     72  O   UNL A   1      39.009  29.609  33.253  1.00  0.00    -0.237 OA
ATOM     73  O   UNL A   1      36.697  29.334  32.452  1.00  0.00    -0.237 OA
ATOM     74  O   UNL A   1      38.107  27.356  32.834  1.00  0.00    -0.744 OA
ENDBRANCH  68  71
ENDBRANCH  50  64
BRANCH  51  75
ATOM     75  C   UNL A   1      49.750  27.425  26.133  1.00  0.00     0.023 A 
ATOM     76  C   UNL A   1      50.759  26.980  27.008  1.00  0.00     0.012 A 
ATOM     77  C   UNL A   1      50.084  27.717  24.796  1.00  0.00     0.148 A 
ATOM     78  C   UNL A   1      52.082  26.877  26.575  1.00  0.00     0.002 A 
ATOM     79  C   UNL A   1      51.392  27.555  24.354  1.00  0.00     0.091 A 
ATOM     80  F   UNL A   1      49.115  28.158  23.980  1.00  0.00    -0.205 F 
ATOM     81  C   UNL A   1      52.397  27.156  25.249  1.00  0.00     0.022 A 
BRANCH  79  82
ATOM     82  S   UNL A   1      51.862  27.774  22.636  1.00  0.00     0.127 S 
ATOM     83  O   UNL A   1      51.205  26.636  21.999  1.00  0.00    -0.237 OA
ATOM     84  O   UNL A   1      51.275  29.079  22.329  1.00  0.00    -0.237 OA
ATOM     85  O   UNL A   1      53.319  27.752  22.620  1.00  0.00    -0.744 OA
ENDBRANCH  79  82
ENDBRANCH  51  75
BRANCH  63  86
ATOM     86  C   UNL A   1      46.396  32.846  28.977  1.00  0.00     0.023 A 
ATOM     87  C   UNL A   1      46.955  33.086  30.249  1.00  0.00     0.012 A 
ATOM     88  C   UNL A   1      46.304  33.907  28.054  1.00  0.00     0.148 A 
ATOM     89  C   UNL A   1      47.361  34.369  30.614  1.00  0.00     0.002 A 
ATOM     90  C   UNL A   1      46.764  35.169  28.405  1.00  0.00     0.091 A 
ATOM     91  F   UNL A   1      45.758  33.665  26.853  1.00  0.00    -0.205 F 
ATOM     92  C   UNL A   1      47.275  35.407  29.691  1.00  0.00     0.022 A 
BRANCH  90  93
ATOM     93  S   UNL A   1      46.786  36.542  27.246  1.00  0.00     0.127 S 
ATOM     94  O   UNL A   1      47.507  37.562  28.007  1.00  0.00    -0.237 OA
ATOM     95  O   UNL A   1      47.530  35.984  26.118  1.00  0.00    -0.237 OA
ATOM     96  O   UNL A   1      45.391  36.847  26.958  1.00  0.00    -0.744 OA
ENDBRANCH  90  93
ENDBRANCH  63  86
ENDBRANCH  37  38
ENDBRANCH  30  32
ENDBRANCH  29  30
ENDBRANCH  28  29
ENDBRANCH  27  28
ENDBRANCH  26  27
ENDBRANCH   1  26
TORSDOF 22
ENDMDL
