MODEL 1
REMARK VINA RESULT:     -10.2      0.000      0.000
REMARK SMILES Cc1ccc(C(=O)N[C@@H]2C=C[C@H](C(=O)OCCOCCOC(=O)c3ccc(-c4c5nc(c(-c6cccc(S(=O)(=O)[O-])c6F)c6ccc([nH]6)c(-c6cccc(S(=O)(=O)[O-])c6F)c6nc(c(-c7cccc(S(=O)(=O)[O-])c7F)c7ccc4[nH]7)C=C6)C=C5)cc3)C2)c(F)c1
REMARK SMILES IDX 19 1 18 2 17 3 16 4 15 5 13 6 14 7 12 8 9 9 10 10 87 11
REMARK SMILES IDX 11 12 8 13 6 14 7 15 5 17 1 18 2 19 3 20 90 21 4 22 88 23
REMARK SMILES IDX 89 24 20 25 21 26 22 27 23 28 24 29 25 30 86 31 26 32 85 33
REMARK SMILES IDX 27 34 28 35 29 36 79 37 30 38 84 39 78 40 80 41 31 42 83 43
REMARK SMILES IDX 77 44 76 45 32 47 64 48 44 49 63 50 45 51 48 52 62 53 81 54
REMARK SMILES IDX 46 55 47 56 61 58 82 59 49 60 33 61 34 62 42 63 35 64 37 65
REMARK SMILES IDX 43 66 36 67 38 68 39 69 40 70 41 71 65 72 66 73 74 74 67 75
REMARK SMILES IDX 69 76 75 77 68 78 70 79 71 80 72 81 73 82 50 83 51 84 59 85
REMARK SMILES IDX 52 86 54 87 60 88 53 89 55 90 56 91 57 92 58 93
REMARK H PARENT 8 16 80 46 48 57
REMARK Flexibility Score: inf
ROOT
ATOM      1  C   UNL A   1      33.493  34.032  28.023  1.00  0.00     0.202 C 
ENDROOT
BRANCH   1   2
ATOM      2  O   UNL A   1      33.878  35.254  28.637  1.00  0.00    -0.374 OA
BRANCH   2   3
ATOM      3  C   UNL A   1      32.882  35.967  29.362  1.00  0.00     0.202 C 
BRANCH   3   4
ATOM      4  C   UNL A   1      33.176  36.388  30.809  1.00  0.00     0.261 C 
BRANCH   4   5
ATOM      5  O   UNL A   1      32.938  35.386  31.815  1.00  0.00    -0.463 OA
BRANCH   5   6
ATOM      6  C   UNL A   1      33.968  35.195  32.694  1.00  0.00     0.312 C 
ATOM      7  O   UNL A   1      34.654  36.093  33.166  1.00  0.00    -0.252 OA
BRANCH   6   8
ATOM      8  C   UNL A   1      34.207  33.707  32.952  1.00  0.00     0.124 C 
ATOM      9  C   UNL A   1      36.513  32.797  33.110  1.00  0.00     0.106 C 
ATOM     10  C   UNL A   1      35.910  32.580  31.763  1.00  0.00    -0.006 C 
ATOM     11  C   UNL A   1      35.353  33.391  33.928  1.00  0.00     0.048 C 
ATOM     12  C   UNL A   1      34.656  33.031  31.688  1.00  0.00    -0.014 C 
BRANCH   9  13
ATOM     13  N   UNL A   1      37.692  33.629  32.967  1.00  0.00    -0.346 N 
ATOM     14  C   UNL A   1      38.790  33.813  33.780  1.00  0.00     0.254 C 
ATOM     15  O   UNL A   1      39.764  34.401  33.316  1.00  0.00    -0.269 OA
ATOM     16  H   UNL A   1      37.712  34.160  32.138  1.00  0.00     0.164 HD
BRANCH  14  17
ATOM     17  C   UNL A   1      38.783  33.412  35.209  1.00  0.00     0.075 A 
ATOM     18  C   UNL A   1      37.672  32.703  39.300  1.00  0.00     0.044 C 
ATOM     19  C   UNL A   1      38.202  32.908  37.911  1.00  0.00    -0.048 A 
ATOM     20  C   UNL A   1      38.188  31.868  36.978  1.00  0.00     0.004 A 
ATOM     21  C   UNL A   1      38.687  34.159  37.519  1.00  0.00     0.043 A 
ATOM     22  C   UNL A   1      38.506  32.113  35.638  1.00  0.00     0.017 A 
ATOM     23  C   UNL A   1      38.961  34.408  36.173  1.00  0.00     0.136 A 
ATOM     24  F   UNL A   1      39.257  35.670  35.825  1.00  0.00    -0.206 F 
ENDBRANCH  14  17
ENDBRANCH   9  13
ENDBRANCH   6   8
ENDBRANCH   5   6
ENDBRANCH   4   5
ENDBRANCH   3   4
ENDBRANCH   2   3
ENDBRANCH   1   2
BRANCH   1  25
ATOM     25  C   UNL A   1      34.506  32.881  28.020  1.00  0.00     0.261 C 
BRANCH  25  26
ATOM     26  O   UNL A   1      33.953  31.591  28.283  1.00  0.00    -0.460 OA
BRANCH  26  27
ATOM     27  C   UNL A   1      34.524  30.588  27.577  1.00  0.00     0.338 C 
ATOM     28  O   UNL A   1      34.098  30.033  26.581  1.00  0.00    -0.246 OA
BRANCH  27  29
ATOM     29  C   UNL A   1      35.810  30.254  28.199  1.00  0.00     0.060 A 
ATOM     30  C   UNL A   1      36.989  30.414  27.466  1.00  0.00     0.016 A 
ATOM     31  C   UNL A   1      35.824  29.695  29.478  1.00  0.00     0.016 A 
ATOM     32  C   UNL A   1      38.197  29.981  28.009  1.00  0.00     0.010 A 
ATOM     33  C   UNL A   1      37.036  29.274  30.023  1.00  0.00     0.010 A 
ATOM     34  C   UNL A   1      38.224  29.384  29.279  1.00  0.00    -0.014 A 
BRANCH  34  35
ATOM     35  C   UNL A   1      39.482  28.799  29.793  1.00  0.00     0.031 A 
ATOM     36  C   UNL A   1      40.139  29.400  31.004  1.00  0.00     0.074 A 
ATOM     37  C   UNL A   1      40.041  27.750  29.162  1.00  0.00     0.049 A 
ATOM     38  N   UNL A   1      41.225  29.022  31.625  1.00  0.00    -0.248 NA
ATOM     39  C   UNL A   1      39.493  30.587  31.589  1.00  0.00     0.031 C 
ATOM     40  C   UNL A   1      39.515  27.119  27.952  1.00  0.00     0.029 A 
ATOM     41  N   UNL A   1      41.187  27.050  29.436  1.00  0.00    -0.354 N 
ATOM     42  C   UNL A   1      41.409  29.934  32.658  1.00  0.00     0.074 A 
ATOM     43  C   UNL A   1      40.328  30.893  32.573  1.00  0.00     0.031 C 
ATOM     44  C   UNL A   1      40.353  26.139  27.572  1.00  0.00     0.029 A 
ATOM     45  C   UNL A   1      41.477  26.082  28.505  1.00  0.00     0.049 A 
ATOM     46  H   UNL A   1      41.750  27.224  30.225  1.00  0.00     0.167 HD
ATOM     47  C   UNL A   1      42.378  29.956  33.601  1.00  0.00     0.034 A 
ATOM     48  C   UNL A   1      42.532  25.249  28.412  1.00  0.00     0.034 A 
ATOM     49  C   UNL A   1      43.431  28.982  33.696  1.00  0.00     0.049 A 
ATOM     50  C   UNL A   1      43.577  25.273  29.496  1.00  0.00     0.074 A 
ATOM     51  C   UNL A   1      44.413  28.866  34.664  1.00  0.00     0.029 A 
ATOM     52  N   UNL A   1      43.648  27.962  32.782  1.00  0.00    -0.354 N 
ATOM     53  N   UNL A   1      43.638  26.031  30.565  1.00  0.00    -0.248 NA
ATOM     54  C   UNL A   1      44.675  24.302  29.385  1.00  0.00     0.031 C 
ATOM     55  C   UNL A   1      45.237  27.788  34.323  1.00  0.00     0.029 A 
ATOM     56  C   UNL A   1      44.757  27.222  33.153  1.00  0.00     0.049 A 
ATOM     57  H   UNL A   1      43.095  27.790  31.986  1.00  0.00     0.167 HD
ATOM     58  C   UNL A   1      44.763  25.612  31.267  1.00  0.00     0.074 A 
ATOM     59  C   UNL A   1      45.336  24.514  30.516  1.00  0.00     0.031 C 
ATOM     60  C   UNL A   1      45.284  26.100  32.419  1.00  0.00     0.034 A 
BRANCH  47  61
ATOM     61  C   UNL A   1      42.328  31.048  34.636  1.00  0.00     0.023 A 
ATOM     62  C   UNL A   1      41.884  30.748  35.941  1.00  0.00     0.012 A 
ATOM     63  C   UNL A   1      42.783  32.347  34.342  1.00  0.00     0.148 A 
ATOM     64  C   UNL A   1      41.875  31.731  36.930  1.00  0.00     0.002 A 
ATOM     65  C   UNL A   1      42.806  33.311  35.343  1.00  0.00     0.091 A 
ATOM     66  F   UNL A   1      43.178  32.617  33.089  1.00  0.00    -0.205 F 
ATOM     67  C   UNL A   1      42.345  33.007  36.634  1.00  0.00     0.022 A 
BRANCH  65  68
ATOM     68  S   UNL A   1      43.456  34.966  35.080  1.00  0.00     0.127 S 
ATOM     69  O   UNL A   1      42.960  35.267  33.737  1.00  0.00    -0.237 OA
ATOM     70  O   UNL A   1      42.811  35.725  36.152  1.00  0.00    -0.237 OA
ATOM     71  O   UNL A   1      44.902  34.853  35.201  1.00  0.00    -0.744 OA
ENDBRANCH  65  68
ENDBRANCH  47  61
BRANCH  48  72
ATOM     72  C   UNL A   1      42.620  24.289  27.277  1.00  0.00     0.023 A 
ATOM     73  C   UNL A   1      43.316  24.652  26.107  1.00  0.00     0.012 A 
ATOM     74  C   UNL A   1      42.049  23.005  27.364  1.00  0.00     0.148 A 
ATOM     75  C   UNL A   1      43.417  23.763  25.035  1.00  0.00     0.002 A 
ATOM     76  C   UNL A   1      42.203  22.104  26.316  1.00  0.00     0.091 A 
ATOM     77  F   UNL A   1      41.371  22.683  28.475  1.00  0.00    -0.205 F 
ATOM     78  C   UNL A   1      42.872  22.486  25.144  1.00  0.00     0.022 A 
BRANCH  76  79
ATOM     79  S   UNL A   1      41.653  20.398  26.444  1.00  0.00     0.127 S 
ATOM     80  O   UNL A   1      42.178  20.010  27.750  1.00  0.00    -0.237 OA
ATOM     81  O   UNL A   1      40.197  20.538  26.382  1.00  0.00    -0.237 OA
ATOM     82  O   UNL A   1      42.233  19.720  25.292  1.00  0.00    -0.744 OA
ENDBRANCH  76  79
ENDBRANCH  48  72
BRANCH  60  83
ATOM     83  C   UNL A   1      46.530  25.446  32.953  1.00  0.00     0.023 A 
ATOM     84  C   UNL A   1      47.790  25.984  32.627  1.00  0.00     0.012 A 
ATOM     85  C   UNL A   1      46.451  24.351  33.835  1.00  0.00     0.148 A 
ATOM     86  C   UNL A   1      48.956  25.422  33.148  1.00  0.00     0.002 A 
ATOM     87  C   UNL A   1      47.614  23.825  34.386  1.00  0.00     0.091 A 
ATOM     88  F   UNL A   1      45.243  23.839  34.116  1.00  0.00    -0.205 F 
ATOM     89  C   UNL A   1      48.867  24.352  34.035  1.00  0.00     0.022 A 
BRANCH  87  90
ATOM     90  S   UNL A   1      47.581  22.509  35.609  1.00  0.00     0.127 S 
ATOM     91  O   UNL A   1      46.594  23.013  36.563  1.00  0.00    -0.237 OA
ATOM     92  O   UNL A   1      47.135  21.358  34.822  1.00  0.00    -0.237 OA
ATOM     93  O   UNL A   1      48.945  22.400  36.110  1.00  0.00    -0.744 OA
ENDBRANCH  87  90
ENDBRANCH  60  83
ENDBRANCH  34  35
ENDBRANCH  27  29
ENDBRANCH  26  27
ENDBRANCH  25  26
ENDBRANCH   1  25
TORSDOF 19
ENDMDL
MODEL 2
REMARK VINA RESULT:     -10.1      3.915      7.700
REMARK SMILES Cc1ccc(C(=O)N[C@@H]2C=C[C@H](C(=O)OCCOCCOC(=O)c3ccc(-c4c5nc(c(-c6cccc(S(=O)(=O)[O-])c6F)c6ccc([nH]6)c(-c6cccc(S(=O)(=O)[O-])c6F)c6nc(c(-c7cccc(S(=O)(=O)[O-])c7F)c7ccc4[nH]7)C=C6)C=C5)cc3)C2)c(F)c1
REMARK SMILES IDX 19 1 18 2 17 3 16 4 15 5 13 6 14 7 12 8 9 9 10 10 87 11
REMARK SMILES IDX 11 12 8 13 6 14 7 15 5 17 1 18 2 19 3 20 90 21 4 22 88 23
REMARK SMILES IDX 89 24 20 25 21 26 22 27 23 28 24 29 25 30 86 31 26 32 85 33
REMARK SMILES IDX 27 34 28 35 29 36 79 37 30 38 84 39 78 40 80 41 31 42 83 43
REMARK SMILES IDX 77 44 76 45 32 47 64 48 44 49 63 50 45 51 48 52 62 53 81 54
REMARK SMILES IDX 46 55 47 56 61 58 82 59 49 60 33 61 34 62 42 63 35 64 37 65
REMARK SMILES IDX 43 66 36 67 38 68 39 69 40 70 41 71 65 72 66 73 74 74 67 75
REMARK SMILES IDX 69 76 75 77 68 78 70 79 71 80 72 81 73 82 50 83 51 84 59 85
REMARK SMILES IDX 52 86 54 87 60 88 53 89 55 90 56 91 57 92 58 93
REMARK H PARENT 8 16 80 46 48 57
REMARK Flexibility Score: inf
ROOT
ATOM      1  C   UNL A   1      31.090  29.707  25.190  1.00  0.00     0.202 C 
ENDROOT
BRANCH   1   2
ATOM      2  O   UNL A   1      31.656  29.402  23.924  1.00  0.00    -0.374 OA
BRANCH   2   3
ATOM      3  C   UNL A   1      30.777  29.352  22.805  1.00  0.00     0.202 C 
BRANCH   3   4
ATOM      4  C   UNL A   1      29.713  28.246  22.746  1.00  0.00     0.261 C 
BRANCH   4   5
ATOM      5  O   UNL A   1      30.155  26.929  23.129  1.00  0.00    -0.463 OA
BRANCH   5   6
ATOM      6  C   UNL A   1      29.516  26.400  24.216  1.00  0.00     0.312 C 
ATOM      7  O   UNL A   1      28.299  26.332  24.341  1.00  0.00    -0.252 OA
BRANCH   6   8
ATOM      8  C   UNL A   1      30.514  25.974  25.293  1.00  0.00     0.124 C 
ATOM      9  C   UNL A   1      32.591  24.754  24.690  1.00  0.00     0.106 C 
ATOM     10  C   UNL A   1      31.516  23.838  25.168  1.00  0.00    -0.006 C 
ATOM     11  C   UNL A   1      31.994  26.154  24.916  1.00  0.00     0.048 C 
ATOM     12  C   UNL A   1      30.412  24.495  25.531  1.00  0.00    -0.014 C 
BRANCH   9  13
ATOM     13  N   UNL A   1      32.927  24.410  23.322  1.00  0.00    -0.346 N 
ATOM     14  C   UNL A   1      33.761  23.447  22.795  1.00  0.00     0.254 C 
ATOM     15  O   UNL A   1      33.689  23.212  21.591  1.00  0.00    -0.269 OA
ATOM     16  H   UNL A   1      32.477  24.967  22.645  1.00  0.00     0.164 HD
BRANCH  14  17
ATOM     17  C   UNL A   1      34.793  22.769  23.618  1.00  0.00     0.075 A 
ATOM     18  C   UNL A   1      37.803  20.070  25.077  1.00  0.00     0.044 C 
ATOM     19  C   UNL A   1      36.753  21.076  24.707  1.00  0.00    -0.048 A 
ATOM     20  C   UNL A   1      37.107  22.318  24.172  1.00  0.00     0.004 A 
ATOM     21  C   UNL A   1      35.398  20.770  24.859  1.00  0.00     0.043 A 
ATOM     22  C   UNL A   1      36.128  23.174  23.657  1.00  0.00     0.017 A 
ATOM     23  C   UNL A   1      34.429  21.607  24.304  1.00  0.00     0.136 A 
ATOM     24  F   UNL A   1      33.156  21.181  24.327  1.00  0.00    -0.206 F 
ENDBRANCH  14  17
ENDBRANCH   9  13
ENDBRANCH   6   8
ENDBRANCH   5   6
ENDBRANCH   4   5
ENDBRANCH   3   4
ENDBRANCH   2   3
ENDBRANCH   1   2
BRANCH   1  25
ATOM     25  C   UNL A   1      31.693  30.872  25.984  1.00  0.00     0.261 C 
BRANCH  25  26
ATOM     26  O   UNL A   1      33.072  30.720  26.320  1.00  0.00    -0.460 OA
BRANCH  26  27
ATOM     27  C   UNL A   1      33.531  31.632  27.208  1.00  0.00     0.338 C 
ATOM     28  O   UNL A   1      33.008  32.677  27.550  1.00  0.00    -0.246 OA
BRANCH  27  29
ATOM     29  C   UNL A   1      34.807  31.154  27.750  1.00  0.00     0.060 A 
ATOM     30  C   UNL A   1      34.973  29.791  28.014  1.00  0.00     0.016 A 
ATOM     31  C   UNL A   1      35.798  32.080  28.079  1.00  0.00     0.016 A 
ATOM     32  C   UNL A   1      36.136  29.352  28.645  1.00  0.00     0.010 A 
ATOM     33  C   UNL A   1      36.966  31.635  28.698  1.00  0.00     0.010 A 
ATOM     34  C   UNL A   1      37.127  30.275  29.014  1.00  0.00    -0.014 A 
BRANCH  34  35
ATOM     35  C   UNL A   1      38.293  29.827  29.807  1.00  0.00     0.031 A 
ATOM     36  C   UNL A   1      38.489  30.353  31.201  1.00  0.00     0.074 A 
ATOM     37  C   UNL A   1      39.182  28.972  29.269  1.00  0.00     0.049 A 
ATOM     38  N   UNL A   1      39.425  30.068  32.066  1.00  0.00    -0.248 NA
ATOM     39  C   UNL A   1      37.504  31.337  31.684  1.00  0.00     0.031 C 
ATOM     40  C   UNL A   1      39.115  28.435  27.910  1.00  0.00     0.029 A 
ATOM     41  N   UNL A   1      40.325  28.427  29.791  1.00  0.00    -0.354 N 
ATOM     42  C   UNL A   1      39.161  30.850  33.185  1.00  0.00     0.074 A 
ATOM     43  C   UNL A   1      37.982  31.633  32.885  1.00  0.00     0.031 C 
ATOM     44  C   UNL A   1      40.191  27.657  27.696  1.00  0.00     0.029 A 
ATOM     45  C   UNL A   1      41.022  27.649  28.898  1.00  0.00     0.049 A 
ATOM     46  H   UNL A   1      40.621  28.578  30.719  1.00  0.00     0.167 HD
ATOM     47  C   UNL A   1      39.830  30.894  34.360  1.00  0.00     0.034 A 
ATOM     48  C   UNL A   1      42.201  27.009  29.032  1.00  0.00     0.034 A 
ATOM     49  C   UNL A   1      40.983  30.090  34.660  1.00  0.00     0.049 A 
ATOM     50  C   UNL A   1      42.903  27.048  30.362  1.00  0.00     0.074 A 
ATOM     51  C   UNL A   1      41.682  29.999  35.851  1.00  0.00     0.029 A 
ATOM     52  N   UNL A   1      41.616  29.249  33.759  1.00  0.00    -0.354 N 
ATOM     53  N   UNL A   1      42.543  27.656  31.468  1.00  0.00    -0.248 NA
ATOM     54  C   UNL A   1      44.153  26.282  30.480  1.00  0.00     0.031 C 
ATOM     55  C   UNL A   1      42.752  29.116  35.662  1.00  0.00     0.029 A 
ATOM     56  C   UNL A   1      42.707  28.645  34.359  1.00  0.00     0.049 A 
ATOM     57  H   UNL A   1      41.331  29.102  32.828  1.00  0.00     0.167 HD
ATOM     58  C   UNL A   1      43.502  27.324  32.418  1.00  0.00     0.074 A 
ATOM     59  C   UNL A   1      44.445  26.439  31.765  1.00  0.00     0.031 C 
ATOM     60  C   UNL A   1      43.606  27.728  33.708  1.00  0.00     0.034 A 
BRANCH  47  61
ATOM     61  C   UNL A   1      39.310  31.816  35.431  1.00  0.00     0.023 A 
ATOM     62  C   UNL A   1      38.360  31.339  36.357  1.00  0.00     0.012 A 
ATOM     63  C   UNL A   1      39.809  33.126  35.565  1.00  0.00     0.148 A 
ATOM     64  C   UNL A   1      37.901  32.157  37.387  1.00  0.00     0.002 A 
ATOM     65  C   UNL A   1      39.373  33.924  36.616  1.00  0.00     0.091 A 
ATOM     66  F   UNL A   1      40.694  33.568  34.659  1.00  0.00    -0.205 F 
ATOM     67  C   UNL A   1      38.414  33.444  37.523  1.00  0.00     0.022 A 
BRANCH  65  68
ATOM     68  S   UNL A   1      40.025  35.571  36.917  1.00  0.00     0.127 S 
ATOM     69  O   UNL A   1      39.371  35.921  38.178  1.00  0.00    -0.237 OA
ATOM     70  O   UNL A   1      41.462  35.320  37.024  1.00  0.00    -0.237 OA
ATOM     71  O   UNL A   1      39.633  36.373  35.767  1.00  0.00    -0.744 OA
ENDBRANCH  65  68
ENDBRANCH  47  61
BRANCH  48  72
ATOM     72  C   UNL A   1      42.758  26.236  27.887  1.00  0.00     0.023 A 
ATOM     73  C   UNL A   1      43.783  26.794  27.099  1.00  0.00     0.012 A 
ATOM     74  C   UNL A   1      42.303  24.934  27.598  1.00  0.00     0.148 A 
ATOM     75  C   UNL A   1      44.324  26.082  26.028  1.00  0.00     0.002 A 
ATOM     76  C   UNL A   1      42.886  24.208  26.565  1.00  0.00     0.091 A 
ATOM     77  F   UNL A   1      41.312  24.426  28.344  1.00  0.00    -0.205 F 
ATOM     78  C   UNL A   1      43.885  24.787  25.768  1.00  0.00     0.022 A 
BRANCH  76  79
ATOM     79  S   UNL A   1      42.473  22.486  26.267  1.00  0.00     0.127 S 
ATOM     80  O   UNL A   1      41.021  22.542  26.137  1.00  0.00    -0.237 OA
ATOM     81  O   UNL A   1      43.194  22.207  25.023  1.00  0.00    -0.237 OA
ATOM     82  O   UNL A   1      42.986  21.762  27.423  1.00  0.00    -0.744 OA
ENDBRANCH  76  79
ENDBRANCH  48  72
BRANCH  60  83
ATOM     83  C   UNL A   1      44.768  27.207  34.510  1.00  0.00     0.023 A 
ATOM     84  C   UNL A   1      45.953  27.966  34.586  1.00  0.00     0.012 A 
ATOM     85  C   UNL A   1      44.662  26.013  35.247  1.00  0.00     0.148 A 
ATOM     86  C   UNL A   1      47.025  27.526  35.361  1.00  0.00     0.002 A 
ATOM     87  C   UNL A   1      45.718  25.604  36.053  1.00  0.00     0.091 A 
ATOM     88  F   UNL A   1      43.533  25.294  35.144  1.00  0.00    -0.205 F 
ATOM     89  C   UNL A   1      46.904  26.354  36.103  1.00  0.00     0.022 A 
BRANCH  87  90
ATOM     90  S   UNL A   1      45.607  24.157  37.112  1.00  0.00     0.127 S 
ATOM     91  O   UNL A   1      44.755  24.645  38.196  1.00  0.00    -0.237 OA
ATOM     92  O   UNL A   1      44.971  23.172  36.235  1.00  0.00    -0.237 OA
ATOM     93  O   UNL A   1      46.978  23.832  37.483  1.00  0.00    -0.744 OA
ENDBRANCH  87  90
ENDBRANCH  60  83
ENDBRANCH  34  35
ENDBRANCH  27  29
ENDBRANCH  26  27
ENDBRANCH  25  26
ENDBRANCH   1  25
TORSDOF 19
ENDMDL
MODEL 3
REMARK VINA RESULT:     -10.0      5.710     11.870
REMARK SMILES Cc1ccc(C(=O)N[C@@H]2C=C[C@H](C(=O)OCCOCCOC(=O)c3ccc(-c4c5nc(c(-c6cccc(S(=O)(=O)[O-])c6F)c6ccc([nH]6)c(-c6cccc(S(=O)(=O)[O-])c6F)c6nc(c(-c7cccc(S(=O)(=O)[O-])c7F)c7ccc4[nH]7)C=C6)C=C5)cc3)C2)c(F)c1
REMARK SMILES IDX 19 1 18 2 17 3 16 4 15 5 13 6 14 7 12 8 9 9 10 10 87 11
REMARK SMILES IDX 11 12 8 13 6 14 7 15 5 17 1 18 2 19 3 20 90 21 4 22 88 23
REMARK SMILES IDX 89 24 20 25 21 26 22 27 23 28 24 29 25 30 86 31 26 32 85 33
REMARK SMILES IDX 27 34 28 35 29 36 79 37 30 38 84 39 78 40 80 41 31 42 83 43
REMARK SMILES IDX 77 44 76 45 32 47 64 48 44 49 63 50 45 51 48 52 62 53 81 54
REMARK SMILES IDX 46 55 47 56 61 58 82 59 49 60 33 61 34 62 42 63 35 64 37 65
REMARK SMILES IDX 43 66 36 67 38 68 39 69 40 70 41 71 65 72 66 73 74 74 67 75
REMARK SMILES IDX 69 76 75 77 68 78 70 79 71 80 72 81 73 82 50 83 51 84 59 85
REMARK SMILES IDX 52 86 54 87 60 88 53 89 55 90 56 91 57 92 58 93
REMARK H PARENT 8 16 80 46 48 57
REMARK Flexibility Score: inf
ROOT
ATOM      1  C   UNL A   1      36.569  20.942  24.411  1.00  0.00     0.202 C 
ENDROOT
BRANCH   1   2
ATOM      2  O   UNL A   1      35.326  20.657  25.036  1.00  0.00    -0.374 OA
BRANCH   2   3
ATOM      3  C   UNL A   1      34.164  21.288  24.507  1.00  0.00     0.202 C 
BRANCH   3   4
ATOM      4  C   UNL A   1      34.209  22.792  24.203  1.00  0.00     0.261 C 
BRANCH   4   5
ATOM      5  O   UNL A   1      33.100  23.566  24.700  1.00  0.00    -0.463 OA
BRANCH   5   6
ATOM      6  C   UNL A   1      33.188  23.919  26.018  1.00  0.00     0.312 C 
ATOM      7  O   UNL A   1      34.176  23.739  26.721  1.00  0.00    -0.252 OA
BRANCH   6   8
ATOM      8  C   UNL A   1      31.867  24.495  26.527  1.00  0.00     0.124 C 
ATOM      9  C   UNL A   1      30.338  25.714  24.995  1.00  0.00     0.106 C 
ATOM     10  C   UNL A   1      31.181  26.639  25.807  1.00  0.00    -0.006 C 
ATOM     11  C   UNL A   1      30.673  24.328  25.572  1.00  0.00     0.048 C 
ATOM     12  C   UNL A   1      31.975  25.987  26.660  1.00  0.00    -0.014 C 
BRANCH   9  13
ATOM     13  N   UNL A   1      30.637  25.918  23.591  1.00  0.00    -0.346 N 
ATOM     14  C   UNL A   1      30.509  27.021  22.775  1.00  0.00     0.254 C 
ATOM     15  O   UNL A   1      31.053  26.996  21.674  1.00  0.00    -0.269 OA
ATOM     16  H   UNL A   1      30.997  25.121  23.137  1.00  0.00     0.164 HD
BRANCH  14  17
ATOM     17  C   UNL A   1      29.660  28.179  23.151  1.00  0.00     0.075 A 
ATOM     18  C   UNL A   1      27.550  31.923  23.181  1.00  0.00     0.044 C 
ATOM     19  C   UNL A   1      28.246  30.601  23.317  1.00  0.00    -0.048 A 
ATOM     20  C   UNL A   1      27.574  29.406  23.046  1.00  0.00     0.004 A 
ATOM     21  C   UNL A   1      29.593  30.548  23.685  1.00  0.00     0.043 A 
ATOM     22  C   UNL A   1      28.273  28.195  22.992  1.00  0.00     0.017 A 
ATOM     23  C   UNL A   1      30.295  29.346  23.587  1.00  0.00     0.136 A 
ATOM     24  F   UNL A   1      31.621  29.385  23.786  1.00  0.00    -0.206 F 
ENDBRANCH  14  17
ENDBRANCH   9  13
ENDBRANCH   6   8
ENDBRANCH   5   6
ENDBRANCH   4   5
ENDBRANCH   3   4
ENDBRANCH   2   3
ENDBRANCH   1   2
BRANCH   1  25
ATOM     25  C   UNL A   1      37.824  20.259  24.966  1.00  0.00     0.261 C 
BRANCH  25  26
ATOM     26  O   UNL A   1      38.285  20.772  26.217  1.00  0.00    -0.460 OA
BRANCH  26  27
ATOM     27  C   UNL A   1      39.632  20.799  26.343  1.00  0.00     0.338 C 
ATOM     28  O   UNL A   1      40.429  19.915  26.087  1.00  0.00    -0.246 OA
BRANCH  27  29
ATOM     29  C   UNL A   1      40.026  22.122  26.839  1.00  0.00     0.060 A 
ATOM     30  C   UNL A   1      39.428  23.264  26.300  1.00  0.00     0.016 A 
ATOM     31  C   UNL A   1      41.058  22.220  27.774  1.00  0.00     0.016 A 
ATOM     32  C   UNL A   1      39.889  24.523  26.678  1.00  0.00     0.010 A 
ATOM     33  C   UNL A   1      41.509  23.482  28.160  1.00  0.00     0.010 A 
ATOM     34  C   UNL A   1      40.950  24.639  27.590  1.00  0.00    -0.014 A 
BRANCH  34  35
ATOM     35  C   UNL A   1      41.530  25.968  27.883  1.00  0.00     0.031 A 
ATOM     36  C   UNL A   1      42.942  26.270  27.465  1.00  0.00     0.074 A 
ATOM     37  C   UNL A   1      40.801  26.889  28.539  1.00  0.00     0.049 A 
ATOM     38  N   UNL A   1      43.624  27.376  27.603  1.00  0.00    -0.248 NA
ATOM     39  C   UNL A   1      43.688  25.180  26.812  1.00  0.00     0.031 C 
ATOM     40  C   UNL A   1      39.438  26.687  29.032  1.00  0.00     0.029 A 
ATOM     41  N   UNL A   1      41.113  28.166  28.926  1.00  0.00    -0.354 N 
ATOM     42  C   UNL A   1      44.884  27.113  27.078  1.00  0.00     0.074 A 
ATOM     43  C   UNL A   1      44.878  25.737  26.630  1.00  0.00     0.031 C 
ATOM     44  C   UNL A   1      39.042  27.795  29.682  1.00  0.00     0.029 A 
ATOM     45  C   UNL A   1      40.124  28.777  29.658  1.00  0.00     0.049 A 
ATOM     46  H   UNL A   1      41.966  28.604  28.702  1.00  0.00     0.167 HD
ATOM     47  C   UNL A   1      45.942  27.949  26.964  1.00  0.00     0.034 A 
ATOM     48  C   UNL A   1      40.097  29.989  30.247  1.00  0.00     0.034 A 
ATOM     49  C   UNL A   1      45.929  29.324  27.384  1.00  0.00     0.049 A 
ATOM     50  C   UNL A   1      41.274  30.910  30.073  1.00  0.00     0.074 A 
ATOM     51  C   UNL A   1      46.920  30.279  27.236  1.00  0.00     0.029 A 
ATOM     52  N   UNL A   1      44.879  29.937  28.049  1.00  0.00    -0.354 N 
ATOM     53  N   UNL A   1      42.393  30.704  29.419  1.00  0.00    -0.248 NA
ATOM     54  C   UNL A   1      41.172  32.245  30.680  1.00  0.00     0.031 C 
ATOM     55  C   UNL A   1      46.475  31.465  27.830  1.00  0.00     0.029 A 
ATOM     56  C   UNL A   1      45.201  31.252  28.333  1.00  0.00     0.049 A 
ATOM     57  H   UNL A   1      44.028  29.500  28.285  1.00  0.00     0.167 HD
ATOM     58  C   UNL A   1      43.115  31.889  29.512  1.00  0.00     0.074 A 
ATOM     59  C   UNL A   1      42.293  32.818  30.261  1.00  0.00     0.031 C 
ATOM     60  C   UNL A   1      44.351  32.178  29.036  1.00  0.00     0.034 A 
BRANCH  47  61
ATOM     61  C   UNL A   1      47.194  27.416  26.322  1.00  0.00     0.023 A 
ATOM     62  C   UNL A   1      47.470  27.726  24.974  1.00  0.00     0.012 A 
ATOM     63  C   UNL A   1      48.129  26.670  27.066  1.00  0.00     0.148 A 
ATOM     64  C   UNL A   1      48.648  27.285  24.372  1.00  0.00     0.002 A 
ATOM     65  C   UNL A   1      49.317  26.266  26.469  1.00  0.00     0.091 A 
ATOM     66  F   UNL A   1      47.835  26.366  28.338  1.00  0.00    -0.205 F 
ATOM     67  C   UNL A   1      49.575  26.565  25.121  1.00  0.00     0.022 A 
BRANCH  65  68
ATOM     68  S   UNL A   1      50.605  25.392  27.368  1.00  0.00     0.127 S 
ATOM     69  O   UNL A   1      51.002  26.393  28.359  1.00  0.00    -0.237 OA
ATOM     70  O   UNL A   1      49.876  24.248  27.916  1.00  0.00    -0.237 OA
ATOM     71  O   UNL A   1      51.621  25.050  26.383  1.00  0.00    -0.744 OA
ENDBRANCH  65  68
ENDBRANCH  47  61
BRANCH  48  72
ATOM     72  C   UNL A   1      38.891  30.413  31.012  1.00  0.00     0.023 A 
ATOM     73  C   UNL A   1      38.833  30.199  32.402  1.00  0.00     0.012 A 
ATOM     74  C   UNL A   1      37.817  31.063  30.373  1.00  0.00     0.148 A 
ATOM     75  C   UNL A   1      37.715  30.598  33.138  1.00  0.00     0.002 A 
ATOM     76  C   UNL A   1      36.732  31.509  31.120  1.00  0.00     0.091 A 
ATOM     77  F   UNL A   1      37.878  31.240  29.046  1.00  0.00    -0.205 F 
ATOM     78  C   UNL A   1      36.671  31.263  32.500  1.00  0.00     0.022 A 
BRANCH  76  79
ATOM     79  S   UNL A   1      35.421  32.498  30.391  1.00  0.00     0.127 S 
ATOM     80  O   UNL A   1      36.129  33.726  30.042  1.00  0.00    -0.237 OA
ATOM     81  O   UNL A   1      35.013  31.676  29.250  1.00  0.00    -0.237 OA
ATOM     82  O   UNL A   1      34.406  32.615  31.429  1.00  0.00    -0.744 OA
ENDBRANCH  76  79
ENDBRANCH  48  72
BRANCH  60  83
ATOM     83  C   UNL A   1      44.892  33.559  29.294  1.00  0.00     0.023 A 
ATOM     84  C   UNL A   1      45.601  33.814  30.484  1.00  0.00     0.012 A 
ATOM     85  C   UNL A   1      44.764  34.577  28.331  1.00  0.00     0.148 A 
ATOM     86  C   UNL A   1      46.151  35.073  30.723  1.00  0.00     0.002 A 
ATOM     87  C   UNL A   1      45.354  35.816  28.556  1.00  0.00     0.091 A 
ATOM     88  F   UNL A   1      44.067  34.321  27.214  1.00  0.00    -0.205 F 
ATOM     89  C   UNL A   1      46.039  36.068  29.756  1.00  0.00     0.022 A 
BRANCH  87  90
ATOM     90  S   UNL A   1      45.337  37.121  27.321  1.00  0.00     0.127 S 
ATOM     91  O   UNL A   1      46.012  38.208  28.026  1.00  0.00    -0.237 OA
ATOM     92  O   UNL A   1      46.110  36.530  26.227  1.00  0.00    -0.237 OA
ATOM     93  O   UNL A   1      43.932  37.349  27.006  1.00  0.00    -0.744 OA
ENDBRANCH  87  90
ENDBRANCH  60  83
ENDBRANCH  34  35
ENDBRANCH  27  29
ENDBRANCH  26  27
ENDBRANCH  25  26
ENDBRANCH   1  25
TORSDOF 19
ENDMDL
