MODEL 1
REMARK VINA RESULT:     -10.5      0.000      0.000
REMARK SMILES CCCCCN(C)S(=O)(=O)c1cc(Cl)cc(C(=O)OCCOCCOC(=O)c2ccc(-c3c4nc(c(-c5cccc(S(=O)(=O)[O-])c5F)c5ccc([nH]5)c(-c5cccc(S(=O)(=O)[O-])c5F)c5nc(c(-c6cccc(S(=O)(=O)[O-])c6F)c6ccc3[nH]6)C=C5)C=C4)cc2)c1F
REMARK SMILES IDX 20 1 19 2 17 3 18 4 16 5 11 6 12 7 91 8 13 9 92 10 14 11
REMARK SMILES IDX 15 12 8 13 9 14 10 15 6 16 7 17 5 18 4 19 3 20 2 21 1 22
REMARK SMILES IDX 21 23 22 24 23 25 24 26 25 27 26 28 27 29 28 30 29 31 90 32
REMARK SMILES IDX 30 33 89 34 31 35 32 36 33 37 83 38 34 39 88 40 82 41 84 42
REMARK SMILES IDX 35 43 87 44 81 45 80 46 36 48 68 49 48 50 67 51 49 52 52 53
REMARK SMILES IDX 66 54 85 55 50 56 51 57 65 59 86 60 53 61 37 62 38 63 46 64
REMARK SMILES IDX 39 65 41 66 47 67 40 68 42 69 43 70 44 71 45 72 69 73 70 74
REMARK SMILES IDX 78 75 71 76 73 77 79 78 72 79 74 80 75 81 76 82 77 83 54 84
REMARK SMILES IDX 55 85 63 86 56 87 58 88 64 89 57 90 59 91 60 92 61 93 62 94
REMARK H PARENT 84 47 52 58
REMARK Flexibility Score: inf
ROOT
ATOM      1  C   UNL A   1      32.864  22.189  27.916  1.00  0.00     0.261 C 
ENDROOT
BRANCH   1   2
ATOM      2  O   UNL A   1      32.184  23.410  27.568  1.00  0.00    -0.460 OA
BRANCH   2   3
ATOM      3  C   UNL A   1      30.976  23.266  26.984  1.00  0.00     0.341 C 
ATOM      4  O   UNL A   1      29.900  23.099  27.531  1.00  0.00    -0.246 OA
BRANCH   3   5
ATOM      5  C   UNL A   1      31.089  23.619  25.559  1.00  0.00     0.098 A 
ATOM      6  C   UNL A   1      30.959  25.140  23.707  1.00  0.00     0.120 A 
ATOM      7  C   UNL A   1      31.331  24.112  22.826  1.00  0.00     0.045 A 
ATOM      8  C   UNL A   1      30.826  24.900  25.071  1.00  0.00     0.157 A 
ATOM      9  C   UNL A   1      31.594  22.843  23.327  1.00  0.00     0.043 A 
ATOM     10  F   UNL A   1      30.484  25.884  25.912  1.00  0.00    -0.205 F 
ATOM     11  Cl  UNL A   1      32.086  21.588  22.262  1.00  0.00    -0.084 Cl
ATOM     12  C   UNL A   1      31.484  22.590  24.689  1.00  0.00     0.039 A 
BRANCH   6  13
ATOM     13  S   UNL A   1      30.866  26.784  23.072  1.00  0.00     0.245 S 
ATOM     14  O   UNL A   1      29.605  27.339  23.530  1.00  0.00    -0.207 OA
ATOM     15  O   UNL A   1      31.129  26.648  21.660  1.00  0.00    -0.207 OA
BRANCH  13  16
ATOM     16  N   UNL A   1      32.098  27.686  23.847  1.00  0.00    -0.201 NA
ATOM     17  C   UNL A   1      32.335  29.021  23.231  1.00  0.00     0.124 C 
BRANCH  16  18
ATOM     18  C   UNL A   1      33.409  26.949  23.968  1.00  0.00     0.102 C 
BRANCH  18  19
ATOM     19  C   UNL A   1      33.864  26.744  25.413  1.00  0.00     0.017 C 
BRANCH  19  20
ATOM     20  C   UNL A   1      33.276  27.673  26.481  1.00  0.00     0.001 C 
BRANCH  20  21
ATOM     21  C   UNL A   1      33.902  29.068  26.593  1.00  0.00    -0.003 C 
ATOM     22  C   UNL A   1      35.180  29.105  27.412  1.00  0.00     0.004 C 
ENDBRANCH  20  21
ENDBRANCH  19  20
ENDBRANCH  18  19
ENDBRANCH  16  18
ENDBRANCH  13  16
ENDBRANCH   6  13
ENDBRANCH   3   5
ENDBRANCH   2   3
ENDBRANCH   1   2
BRANCH   1  23
ATOM     23  C   UNL A   1      34.173  22.108  27.129  1.00  0.00     0.202 C 
BRANCH  23  24
ATOM     24  O   UNL A   1      34.238  20.962  26.272  1.00  0.00    -0.374 OA
BRANCH  24  25
ATOM     25  C   UNL A   1      34.972  21.142  25.058  1.00  0.00     0.202 C 
BRANCH  25  26
ATOM     26  C   UNL A   1      36.383  20.547  25.097  1.00  0.00     0.261 C 
BRANCH  26  27
ATOM     27  O   UNL A   1      37.363  21.593  25.216  1.00  0.00    -0.460 OA
BRANCH  27  28
ATOM     28  C   UNL A   1      38.537  21.223  25.785  1.00  0.00     0.338 C 
ATOM     29  O   UNL A   1      39.074  20.131  25.708  1.00  0.00    -0.246 OA
BRANCH  28  30
ATOM     30  C   UNL A   1      39.188  22.400  26.400  1.00  0.00     0.060 A 
ATOM     31  C   UNL A   1      38.675  23.663  26.076  1.00  0.00     0.016 A 
ATOM     32  C   UNL A   1      40.287  22.285  27.257  1.00  0.00     0.016 A 
ATOM     33  C   UNL A   1      39.287  24.814  26.569  1.00  0.00     0.010 A 
ATOM     34  C   UNL A   1      40.904  23.441  27.746  1.00  0.00     0.010 A 
ATOM     35  C   UNL A   1      40.425  24.710  27.378  1.00  0.00    -0.014 A 
BRANCH  35  36
ATOM     36  C   UNL A   1      41.194  25.927  27.726  1.00  0.00     0.031 A 
ATOM     37  C   UNL A   1      40.514  27.017  28.508  1.00  0.00     0.074 A 
ATOM     38  C   UNL A   1      42.478  26.064  27.350  1.00  0.00     0.049 A 
ATOM     39  N   UNL A   1      40.992  28.162  28.916  1.00  0.00    -0.248 NA
ATOM     40  C   UNL A   1      39.108  26.784  28.880  1.00  0.00     0.031 C 
ATOM     41  C   UNL A   1      43.243  25.080  26.586  1.00  0.00     0.029 A 
ATOM     42  N   UNL A   1      43.356  27.101  27.543  1.00  0.00    -0.354 N 
ATOM     43  C   UNL A   1      39.948  28.793  29.579  1.00  0.00     0.074 A 
ATOM     44  C   UNL A   1      38.804  27.910  29.509  1.00  0.00     0.031 C 
ATOM     45  C   UNL A   1      44.472  25.572  26.353  1.00  0.00     0.029 A 
ATOM     46  C   UNL A   1      44.575  26.908  26.939  1.00  0.00     0.049 A 
ATOM     47  H   UNL A   1      43.133  27.905  28.066  1.00  0.00     0.167 HD
ATOM     48  C   UNL A   1      39.946  29.990  30.212  1.00  0.00     0.034 A 
ATOM     49  C   UNL A   1      45.646  27.722  26.862  1.00  0.00     0.034 A 
ATOM     50  C   UNL A   1      41.085  30.860  30.302  1.00  0.00     0.049 A 
ATOM     51  C   UNL A   1      45.609  29.062  27.550  1.00  0.00     0.074 A 
ATOM     52  C   UNL A   1      41.191  32.074  30.957  1.00  0.00     0.029 A 
ATOM     53  N   UNL A   1      42.316  30.613  29.714  1.00  0.00    -0.354 N 
ATOM     54  N   UNL A   1      44.658  29.585  28.285  1.00  0.00    -0.248 NA
ATOM     55  C   UNL A   1      46.805  29.910  27.425  1.00  0.00     0.031 C 
ATOM     56  C   UNL A   1      42.486  32.566  30.759  1.00  0.00     0.029 A 
ATOM     57  C   UNL A   1      43.185  31.656  29.982  1.00  0.00     0.049 A 
ATOM     58  H   UNL A   1      42.538  29.814  29.183  1.00  0.00     0.167 HD
ATOM     59  C   UNL A   1      45.149  30.807  28.732  1.00  0.00     0.074 A 
ATOM     60  C   UNL A   1      46.490  30.940  28.200  1.00  0.00     0.031 C 
ATOM     61  C   UNL A   1      44.538  31.744  29.498  1.00  0.00     0.034 A 
BRANCH  48  62
ATOM     62  C   UNL A   1      38.679  30.403  30.904  1.00  0.00     0.023 A 
ATOM     63  C   UNL A   1      38.477  30.020  32.245  1.00  0.00     0.012 A 
ATOM     64  C   UNL A   1      37.718  31.201  30.257  1.00  0.00     0.148 A 
ATOM     65  C   UNL A   1      37.326  30.411  32.927  1.00  0.00     0.002 A 
ATOM     66  C   UNL A   1      36.586  31.611  30.953  1.00  0.00     0.091 A 
ATOM     67  F   UNL A   1      37.914  31.525  28.971  1.00  0.00    -0.205 F 
ATOM     68  C   UNL A   1      36.387  31.214  32.286  1.00  0.00     0.022 A 
BRANCH  66  69
ATOM     69  S   UNL A   1      35.353  32.689  30.217  1.00  0.00     0.127 S 
ATOM     70  O   UNL A   1      36.117  33.920  30.020  1.00  0.00    -0.237 OA
ATOM     71  O   UNL A   1      35.011  31.980  28.983  1.00  0.00    -0.237 OA
ATOM     72  O   UNL A   1      34.269  32.765  31.186  1.00  0.00    -0.744 OA
ENDBRANCH  66  69
ENDBRANCH  48  62
BRANCH  49  73
ATOM     73  C   UNL A   1      46.868  27.272  26.140  1.00  0.00     0.023 A 
ATOM     74  C   UNL A   1      46.967  27.480  24.751  1.00  0.00     0.012 A 
ATOM     75  C   UNL A   1      47.939  26.663  26.821  1.00  0.00     0.148 A 
ATOM     76  C   UNL A   1      48.104  27.075  24.051  1.00  0.00     0.002 A 
ATOM     77  C   UNL A   1      49.087  26.303  26.126  1.00  0.00     0.091 A 
ATOM     78  F   UNL A   1      47.815  26.445  28.139  1.00  0.00    -0.205 F 
ATOM     79  C   UNL A   1      49.168  26.497  24.738  1.00  0.00     0.022 A 
BRANCH  77  80
ATOM     80  S   UNL A   1      50.541  25.666  26.969  1.00  0.00     0.127 S 
ATOM     81  O   UNL A   1      50.757  26.678  27.999  1.00  0.00    -0.237 OA
ATOM     82  O   UNL A   1      50.072  24.371  27.463  1.00  0.00    -0.237 OA
ATOM     83  O   UNL A   1      51.566  25.572  25.937  1.00  0.00    -0.744 OA
ENDBRANCH  77  80
ENDBRANCH  49  73
BRANCH  61  84
ATOM     84  C   UNL A   1      45.308  32.993  29.828  1.00  0.00     0.023 A 
ATOM     85  C   UNL A   1      46.103  33.027  30.990  1.00  0.00     0.012 A 
ATOM     86  C   UNL A   1      45.323  34.090  28.944  1.00  0.00     0.148 A 
ATOM     87  C   UNL A   1      46.890  34.141  31.277  1.00  0.00     0.002 A 
ATOM     88  C   UNL A   1      46.139  35.183  29.219  1.00  0.00     0.091 A 
ATOM     89  F   UNL A   1      44.543  34.049  27.855  1.00  0.00    -0.205 F 
ATOM     90  C   UNL A   1      46.918  35.213  30.386  1.00  0.00     0.022 A 
BRANCH  88  91
ATOM     91  S   UNL A   1      46.295  36.564  28.079  1.00  0.00     0.127 S 
ATOM     92  O   UNL A   1      47.522  37.203  28.548  1.00  0.00    -0.237 OA
ATOM     93  O   UNL A   1      46.412  35.893  26.783  1.00  0.00    -0.237 OA
ATOM     94  O   UNL A   1      45.074  37.344  28.240  1.00  0.00    -0.744 OA
ENDBRANCH  88  91
ENDBRANCH  61  84
ENDBRANCH  35  36
ENDBRANCH  28  30
ENDBRANCH  27  28
ENDBRANCH  26  27
ENDBRANCH  25  26
ENDBRANCH  24  25
ENDBRANCH  23  24
ENDBRANCH   1  23
TORSDOF 23
ENDMDL
MODEL 2
REMARK VINA RESULT:      -9.8      2.027      7.407
REMARK SMILES CCCCCN(C)S(=O)(=O)c1cc(Cl)cc(C(=O)OCCOCCOC(=O)c2ccc(-c3c4nc(c(-c5cccc(S(=O)(=O)[O-])c5F)c5ccc([nH]5)c(-c5cccc(S(=O)(=O)[O-])c5F)c5nc(c(-c6cccc(S(=O)(=O)[O-])c6F)c6ccc3[nH]6)C=C5)C=C4)cc2)c1F
REMARK SMILES IDX 20 1 19 2 17 3 18 4 16 5 11 6 12 7 91 8 13 9 92 10 14 11
REMARK SMILES IDX 15 12 8 13 9 14 10 15 6 16 7 17 5 18 4 19 3 20 2 21 1 22
REMARK SMILES IDX 21 23 22 24 23 25 24 26 25 27 26 28 27 29 28 30 29 31 90 32
REMARK SMILES IDX 30 33 89 34 31 35 32 36 33 37 83 38 34 39 88 40 82 41 84 42
REMARK SMILES IDX 35 43 87 44 81 45 80 46 36 48 68 49 48 50 67 51 49 52 52 53
REMARK SMILES IDX 66 54 85 55 50 56 51 57 65 59 86 60 53 61 37 62 38 63 46 64
REMARK SMILES IDX 39 65 41 66 47 67 40 68 42 69 43 70 44 71 45 72 69 73 70 74
REMARK SMILES IDX 78 75 71 76 73 77 79 78 72 79 74 80 75 81 76 82 77 83 54 84
REMARK SMILES IDX 55 85 63 86 56 87 58 88 64 89 57 90 59 91 60 92 61 93 62 94
REMARK H PARENT 84 47 52 58
REMARK Flexibility Score: inf
ROOT
ATOM      1  C   UNL A   1      33.030  22.247  27.414  1.00  0.00     0.261 C 
ENDROOT
BRANCH   1   2
ATOM      2  O   UNL A   1      32.187  23.375  27.111  1.00  0.00    -0.460 OA
BRANCH   2   3
ATOM      3  C   UNL A   1      31.165  23.135  26.264  1.00  0.00     0.341 C 
ATOM      4  O   UNL A   1      30.101  22.596  26.515  1.00  0.00    -0.246 OA
BRANCH   3   5
ATOM      5  C   UNL A   1      31.396  23.875  25.013  1.00  0.00     0.098 A 
ATOM      6  C   UNL A   1      31.214  25.802  23.592  1.00  0.00     0.120 A 
ATOM      7  C   UNL A   1      31.902  25.125  22.573  1.00  0.00     0.045 A 
ATOM      8  C   UNL A   1      30.949  25.181  24.810  1.00  0.00     0.157 A 
ATOM      9  C   UNL A   1      32.345  23.826  22.791  1.00  0.00     0.043 A 
ATOM     10  F   UNL A   1      30.304  25.832  25.786  1.00  0.00    -0.205 F 
ATOM     11  Cl  UNL A   1      33.221  23.003  21.563  1.00  0.00    -0.084 Cl
ATOM     12  C   UNL A   1      32.105  23.199  24.008  1.00  0.00     0.039 A 
BRANCH   6  13
ATOM     13  S   UNL A   1      30.878  27.519  23.369  1.00  0.00     0.245 S 
ATOM     14  O   UNL A   1      29.780  27.851  24.259  1.00  0.00    -0.207 OA
ATOM     15  O   UNL A   1      30.730  27.683  21.943  1.00  0.00    -0.207 OA
BRANCH  13  16
ATOM     16  N   UNL A   1      32.244  28.373  23.950  1.00  0.00    -0.201 NA
ATOM     17  C   UNL A   1      33.388  27.490  24.313  1.00  0.00     0.124 C 
BRANCH  16  18
ATOM     18  C   UNL A   1      31.939  29.298  25.103  1.00  0.00     0.102 C 
BRANCH  18  19
ATOM     19  C   UNL A   1      32.612  28.884  26.413  1.00  0.00     0.017 C 
BRANCH  19  20
ATOM     20  C   UNL A   1      33.639  29.847  27.018  1.00  0.00     0.001 C 
BRANCH  20  21
ATOM     21  C   UNL A   1      34.931  29.219  27.555  1.00  0.00    -0.003 C 
ATOM     22  C   UNL A   1      36.092  30.192  27.657  1.00  0.00     0.004 C 
ENDBRANCH  20  21
ENDBRANCH  19  20
ENDBRANCH  18  19
ENDBRANCH  16  18
ENDBRANCH  13  16
ENDBRANCH   6  13
ENDBRANCH   3   5
ENDBRANCH   2   3
ENDBRANCH   1   2
BRANCH   1  23
ATOM     23  C   UNL A   1      34.353  22.398  26.660  1.00  0.00     0.202 C 
BRANCH  23  24
ATOM     24  O   UNL A   1      35.039  21.153  26.484  1.00  0.00    -0.374 OA
BRANCH  24  25
ATOM     25  C   UNL A   1      35.512  20.893  25.159  1.00  0.00     0.202 C 
BRANCH  25  26
ATOM     26  C   UNL A   1      37.038  20.870  25.043  1.00  0.00     0.261 C 
BRANCH  26  27
ATOM     27  O   UNL A   1      37.621  21.845  25.925  1.00  0.00    -0.460 OA
BRANCH  27  28
ATOM     28  C   UNL A   1      38.934  21.658  26.207  1.00  0.00     0.338 C 
ATOM     29  O   UNL A   1      39.599  20.665  25.966  1.00  0.00    -0.246 OA
BRANCH  28  30
ATOM     30  C   UNL A   1      39.520  22.917  26.719  1.00  0.00     0.060 A 
ATOM     31  C   UNL A   1      39.002  24.119  26.221  1.00  0.00     0.016 A 
ATOM     32  C   UNL A   1      40.567  22.931  27.646  1.00  0.00     0.016 A 
ATOM     33  C   UNL A   1      39.557  25.336  26.612  1.00  0.00     0.010 A 
ATOM     34  C   UNL A   1      41.128  24.153  28.033  1.00  0.00     0.010 A 
ATOM     35  C   UNL A   1      40.645  25.357  27.493  1.00  0.00    -0.014 A 
BRANCH  35  36
ATOM     36  C   UNL A   1      41.365  26.628  27.742  1.00  0.00     0.031 A 
ATOM     37  C   UNL A   1      42.774  26.776  27.236  1.00  0.00     0.074 A 
ATOM     38  C   UNL A   1      40.776  27.635  28.410  1.00  0.00     0.049 A 
ATOM     39  N   UNL A   1      43.587  27.793  27.344  1.00  0.00    -0.248 NA
ATOM     40  C   UNL A   1      43.340  25.625  26.514  1.00  0.00     0.031 C 
ATOM     41  C   UNL A   1      39.418  27.609  28.952  1.00  0.00     0.029 A 
ATOM     42  N   UNL A   1      41.258  28.869  28.765  1.00  0.00    -0.354 N 
ATOM     43  C   UNL A   1      44.763  27.405  26.718  1.00  0.00     0.074 A 
ATOM     44  C   UNL A   1      44.566  26.052  26.243  1.00  0.00     0.031 C 
ATOM     45  C   UNL A   1      39.185  28.766  29.594  1.00  0.00     0.029 A 
ATOM     46  C   UNL A   1      40.379  29.607  29.520  1.00  0.00     0.049 A 
ATOM     47  H   UNL A   1      42.150  29.196  28.503  1.00  0.00     0.167 HD
ATOM     48  C   UNL A   1      45.899  28.116  26.533  1.00  0.00     0.034 A 
ATOM     49  C   UNL A   1      40.526  30.819  30.092  1.00  0.00     0.034 A 
ATOM     50  C   UNL A   1      46.093  29.466  26.984  1.00  0.00     0.049 A 
ATOM     51  C   UNL A   1      41.811  31.580  29.894  1.00  0.00     0.074 A 
ATOM     52  C   UNL A   1      47.195  30.283  26.806  1.00  0.00     0.029 A 
ATOM     53  N   UNL A   1      45.164  30.196  27.708  1.00  0.00    -0.354 N 
ATOM     54  N   UNL A   1      42.864  31.249  29.187  1.00  0.00    -0.248 NA
ATOM     55  C   UNL A   1      41.917  32.893  30.549  1.00  0.00     0.031 C 
ATOM     56  C   UNL A   1      46.935  31.508  27.431  1.00  0.00     0.029 A 
ATOM     57  C   UNL A   1      45.670  31.452  27.995  1.00  0.00     0.049 A 
ATOM     58  H   UNL A   1      44.276  29.870  27.980  1.00  0.00     0.167 HD
ATOM     59  C   UNL A   1      43.744  32.322  29.287  1.00  0.00     0.074 A 
ATOM     60  C   UNL A   1      43.093  33.321  30.109  1.00  0.00     0.031 C 
ATOM     61  C   UNL A   1      44.985  32.460  28.761  1.00  0.00     0.034 A 
BRANCH  48  62
ATOM     62  C   UNL A   1      47.007  27.460  25.759  1.00  0.00     0.023 A 
ATOM     63  C   UNL A   1      47.784  26.465  26.388  1.00  0.00     0.012 A 
ATOM     64  C   UNL A   1      47.253  27.786  24.412  1.00  0.00     0.148 A 
ATOM     65  C   UNL A   1      48.801  25.816  25.690  1.00  0.00     0.002 A 
ATOM     66  C   UNL A   1      48.251  27.113  23.715  1.00  0.00     0.091 A 
ATOM     67  F   UNL A   1      46.527  28.760  23.845  1.00  0.00    -0.205 F 
ATOM     68  C   UNL A   1      49.027  26.132  24.354  1.00  0.00     0.022 A 
BRANCH  66  69
ATOM     69  S   UNL A   1      48.573  27.423  21.977  1.00  0.00     0.127 S 
ATOM     70  O   UNL A   1      47.367  28.148  21.578  1.00  0.00    -0.237 OA
ATOM     71  O   UNL A   1      49.787  28.239  22.021  1.00  0.00    -0.237 OA
ATOM     72  O   UNL A   1      48.752  26.112  21.370  1.00  0.00    -0.744 OA
ENDBRANCH  66  69
ENDBRANCH  48  62
BRANCH  49  73
ATOM     73  C   UNL A   1      39.403  31.412  30.870  1.00  0.00     0.023 A 
ATOM     74  C   UNL A   1      38.332  32.018  30.186  1.00  0.00     0.012 A 
ATOM     75  C   UNL A   1      39.378  31.358  32.277  1.00  0.00     0.148 A 
ATOM     76  C   UNL A   1      37.264  32.575  30.890  1.00  0.00     0.002 A 
ATOM     77  C   UNL A   1      38.289  31.874  32.970  1.00  0.00     0.091 A 
ATOM     78  F   UNL A   1      40.421  30.804  32.912  1.00  0.00    -0.205 F 
ATOM     79  C   UNL A   1      37.235  32.493  32.280  1.00  0.00     0.022 A 
BRANCH  77  80
ATOM     80  S   UNL A   1      38.132  31.693  34.751  1.00  0.00     0.127 S 
ATOM     81  O   UNL A   1      36.873  32.384  35.012  1.00  0.00    -0.237 OA
ATOM     82  O   UNL A   1      38.085  30.240  34.914  1.00  0.00    -0.237 OA
ATOM     83  O   UNL A   1      39.330  32.314  35.301  1.00  0.00    -0.744 OA
ENDBRANCH  77  80
ENDBRANCH  49  73
BRANCH  61  84
ATOM     84  C   UNL A   1      45.728  33.738  29.038  1.00  0.00     0.023 A 
ATOM     85  C   UNL A   1      46.612  33.799  30.132  1.00  0.00     0.012 A 
ATOM     86  C   UNL A   1      45.626  34.840  28.166  1.00  0.00     0.148 A 
ATOM     87  C   UNL A   1      47.373  34.944  30.365  1.00  0.00     0.002 A 
ATOM     88  C   UNL A   1      46.416  35.964  28.383  1.00  0.00     0.091 A 
ATOM     89  F   UNL A   1      44.762  34.772  27.143  1.00  0.00    -0.205 F 
ATOM     90  C   UNL A   1      47.285  36.020  29.485  1.00  0.00     0.022 A 
BRANCH  88  91
ATOM     91  S   UNL A   1      46.422  37.356  27.247  1.00  0.00     0.127 S 
ATOM     92  O   UNL A   1      47.387  38.254  27.877  1.00  0.00    -0.237 OA
ATOM     93  O   UNL A   1      46.882  36.745  25.999  1.00  0.00    -0.237 OA
ATOM     94  O   UNL A   1      45.046  37.834  27.206  1.00  0.00    -0.744 OA
ENDBRANCH  88  91
ENDBRANCH  61  84
ENDBRANCH  35  36
ENDBRANCH  28  30
ENDBRANCH  27  28
ENDBRANCH  26  27
ENDBRANCH  25  26
ENDBRANCH  24  25
ENDBRANCH  23  24
ENDBRANCH   1  23
TORSDOF 23
ENDMDL
MODEL 3
REMARK VINA RESULT:      -9.7      6.026      9.850
REMARK SMILES CCCCCN(C)S(=O)(=O)c1cc(Cl)cc(C(=O)OCCOCCOC(=O)c2ccc(-c3c4nc(c(-c5cccc(S(=O)(=O)[O-])c5F)c5ccc([nH]5)c(-c5cccc(S(=O)(=O)[O-])c5F)c5nc(c(-c6cccc(S(=O)(=O)[O-])c6F)c6ccc3[nH]6)C=C5)C=C4)cc2)c1F
REMARK SMILES IDX 20 1 19 2 17 3 18 4 16 5 11 6 12 7 91 8 13 9 92 10 14 11
REMARK SMILES IDX 15 12 8 13 9 14 10 15 6 16 7 17 5 18 4 19 3 20 2 21 1 22
REMARK SMILES IDX 21 23 22 24 23 25 24 26 25 27 26 28 27 29 28 30 29 31 90 32
REMARK SMILES IDX 30 33 89 34 31 35 32 36 33 37 83 38 34 39 88 40 82 41 84 42
REMARK SMILES IDX 35 43 87 44 81 45 80 46 36 48 68 49 48 50 67 51 49 52 52 53
REMARK SMILES IDX 66 54 85 55 50 56 51 57 65 59 86 60 53 61 37 62 38 63 46 64
REMARK SMILES IDX 39 65 41 66 47 67 40 68 42 69 43 70 44 71 45 72 69 73 70 74
REMARK SMILES IDX 78 75 71 76 73 77 79 78 72 79 74 80 75 81 76 82 77 83 54 84
REMARK SMILES IDX 55 85 63 86 56 87 58 88 64 89 57 90 59 91 60 92 61 93 62 94
REMARK H PARENT 84 47 52 58
REMARK Flexibility Score: inf
ROOT
ATOM      1  C   UNL A   1      34.323  31.523  27.629  1.00  0.00     0.261 C 
ENDROOT
BRANCH   1   2
ATOM      2  O   UNL A   1      33.429  30.395  27.673  1.00  0.00    -0.460 OA
BRANCH   2   3
ATOM      3  C   UNL A   1      32.390  30.434  26.813  1.00  0.00     0.341 C 
ATOM      4  O   UNL A   1      31.651  31.375  26.580  1.00  0.00    -0.246 OA
BRANCH   3   5
ATOM      5  C   UNL A   1      32.427  29.233  25.963  1.00  0.00     0.098 A 
ATOM      6  C   UNL A   1      31.894  26.950  25.446  1.00  0.00     0.120 A 
ATOM      7  C   UNL A   1      32.615  27.046  24.246  1.00  0.00     0.045 A 
ATOM      8  C   UNL A   1      31.804  28.035  26.314  1.00  0.00     0.157 A 
ATOM      9  C   UNL A   1      33.227  28.246  23.908  1.00  0.00     0.043 A 
ATOM     10  F   UNL A   1      31.105  27.947  27.452  1.00  0.00    -0.205 F 
ATOM     11  Cl  UNL A   1      34.081  28.384  22.423  1.00  0.00    -0.084 Cl
ATOM     12  C   UNL A   1      33.131  29.344  24.754  1.00  0.00     0.039 A 
BRANCH   6  13
ATOM     13  S   UNL A   1      30.937  25.495  25.726  1.00  0.00     0.245 S 
ATOM     14  O   UNL A   1      29.542  25.883  25.621  1.00  0.00    -0.207 OA
ATOM     15  O   UNL A   1      31.447  24.951  26.961  1.00  0.00    -0.207 OA
BRANCH  13  16
ATOM     16  N   UNL A   1      31.243  24.439  24.413  1.00  0.00    -0.201 NA
ATOM     17  C   UNL A   1      30.254  24.562  23.307  1.00  0.00     0.124 C 
BRANCH  16  18
ATOM     18  C   UNL A   1      31.369  22.989  24.813  1.00  0.00     0.102 C 
BRANCH  18  19
ATOM     19  C   UNL A   1      32.597  22.296  24.220  1.00  0.00     0.017 C 
BRANCH  19  20
ATOM     20  C   UNL A   1      32.360  21.058  23.348  1.00  0.00     0.001 C 
BRANCH  20  21
ATOM     21  C   UNL A   1      32.867  19.722  23.905  1.00  0.00    -0.003 C 
ATOM     22  C   UNL A   1      32.812  19.628  25.419  1.00  0.00     0.004 C 
ENDBRANCH  20  21
ENDBRANCH  19  20
ENDBRANCH  18  19
ENDBRANCH  16  18
ENDBRANCH  13  16
ENDBRANCH   6  13
ENDBRANCH   3   5
ENDBRANCH   2   3
ENDBRANCH   1   2
BRANCH   1  23
ATOM     23  C   UNL A   1      34.414  32.141  29.026  1.00  0.00     0.202 C 
BRANCH  23  24
ATOM     24  O   UNL A   1      34.658  33.552  28.997  1.00  0.00    -0.374 OA
BRANCH  24  25
ATOM     25  C   UNL A   1      33.656  34.336  28.345  1.00  0.00     0.202 C 
BRANCH  25  26
ATOM     26  C   UNL A   1      33.115  35.483  29.205  1.00  0.00     0.261 C 
BRANCH  26  27
ATOM     27  O   UNL A   1      32.531  34.969  30.413  1.00  0.00    -0.460 OA
BRANCH  27  28
ATOM     28  C   UNL A   1      32.899  35.608  31.551  1.00  0.00     0.338 C 
ATOM     29  O   UNL A   1      32.329  36.547  32.079  1.00  0.00    -0.246 OA
BRANCH  28  30
ATOM     30  C   UNL A   1      34.033  34.895  32.181  1.00  0.00     0.060 A 
ATOM     31  C   UNL A   1      35.304  35.471  32.058  1.00  0.00     0.016 A 
ATOM     32  C   UNL A   1      33.871  33.682  32.858  1.00  0.00     0.016 A 
ATOM     33  C   UNL A   1      36.422  34.814  32.571  1.00  0.00     0.010 A 
ATOM     34  C   UNL A   1      34.994  33.021  33.366  1.00  0.00     0.010 A 
ATOM     35  C   UNL A   1      36.276  33.569  33.196  1.00  0.00    -0.014 A 
BRANCH  35  36
ATOM     36  C   UNL A   1      37.479  32.779  33.550  1.00  0.00     0.031 A 
ATOM     37  C   UNL A   1      38.264  33.160  34.775  1.00  0.00     0.074 A 
ATOM     38  C   UNL A   1      37.869  31.740  32.792  1.00  0.00     0.049 A 
ATOM     39  N   UNL A   1      39.344  32.614  35.266  1.00  0.00    -0.248 NA
ATOM     40  C   UNL A   1      37.764  34.311  35.547  1.00  0.00     0.031 C 
ATOM     41  C   UNL A   1      37.194  31.277  31.581  1.00  0.00     0.029 A 
ATOM     42  N   UNL A   1      38.946  30.899  32.921  1.00  0.00    -0.354 N 
ATOM     43  C   UNL A   1      39.663  33.357  36.395  1.00  0.00     0.074 A 
ATOM     44  C   UNL A   1      38.671  34.403  36.510  1.00  0.00     0.031 C 
ATOM     45  C   UNL A   1      37.888  30.250  31.062  1.00  0.00     0.029 A 
ATOM     46  C   UNL A   1      39.061  29.991  31.896  1.00  0.00     0.049 A 
ATOM     47  H   UNL A   1      39.576  30.942  33.677  1.00  0.00     0.167 HD
ATOM     48  C   UNL A   1      40.677  33.171  37.272  1.00  0.00     0.034 A 
ATOM     49  C   UNL A   1      40.009  29.064  31.656  1.00  0.00     0.034 A 
ATOM     50  C   UNL A   1      41.652  32.122  37.173  1.00  0.00     0.049 A 
ATOM     51  C   UNL A   1      41.144  28.896  32.633  1.00  0.00     0.074 A 
ATOM     52  C   UNL A   1      42.692  31.829  38.038  1.00  0.00     0.029 A 
ATOM     53  N   UNL A   1      41.711  31.194  36.145  1.00  0.00    -0.354 N 
ATOM     54  N   UNL A   1      41.356  29.522  33.766  1.00  0.00    -0.248 NA
ATOM     55  C   UNL A   1      42.153  27.874  32.315  1.00  0.00     0.031 C 
ATOM     56  C   UNL A   1      43.387  30.727  37.527  1.00  0.00     0.029 A 
ATOM     57  C   UNL A   1      42.776  30.334  36.347  1.00  0.00     0.049 A 
ATOM     58  H   UNL A   1      41.089  31.154  35.384  1.00  0.00     0.167 HD
ATOM     59  C   UNL A   1      42.503  28.952  34.308  1.00  0.00     0.074 A 
ATOM     60  C   UNL A   1      42.932  27.918  33.389  1.00  0.00     0.031 C 
ATOM     61  C   UNL A   1      43.153  29.269  35.455  1.00  0.00     0.034 A 
BRANCH  48  62
ATOM     62  C   UNL A   1      40.749  34.100  38.450  1.00  0.00     0.023 A 
ATOM     63  C   UNL A   1      41.530  35.269  38.352  1.00  0.00     0.012 A 
ATOM     64  C   UNL A   1      40.019  33.849  39.627  1.00  0.00     0.148 A 
ATOM     65  C   UNL A   1      41.597  36.167  39.416  1.00  0.00     0.002 A 
ATOM     66  C   UNL A   1      40.069  34.764  40.673  1.00  0.00     0.091 A 
ATOM     67  F   UNL A   1      39.312  32.713  39.713  1.00  0.00    -0.205 F 
ATOM     68  C   UNL A   1      40.860  35.921  40.570  1.00  0.00     0.022 A 
BRANCH  66  69
ATOM     69  S   UNL A   1      39.109  34.547  42.175  1.00  0.00     0.127 S 
ATOM     70  O   UNL A   1      40.127  34.070  43.110  1.00  0.00    -0.237 OA
ATOM     71  O   UNL A   1      38.626  35.903  42.440  1.00  0.00    -0.237 OA
ATOM     72  O   UNL A   1      38.063  33.592  41.837  1.00  0.00    -0.744 OA
ENDBRANCH  66  69
ENDBRANCH  48  62
BRANCH  49  73
ATOM     73  C   UNL A   1      39.901  28.187  30.459  1.00  0.00     0.023 A 
ATOM     74  C   UNL A   1      39.054  27.063  30.499  1.00  0.00     0.012 A 
ATOM     75  C   UNL A   1      40.611  28.470  29.276  1.00  0.00     0.148 A 
ATOM     76  C   UNL A   1      38.928  26.227  29.388  1.00  0.00     0.002 A 
ATOM     77  C   UNL A   1      40.445  27.660  28.158  1.00  0.00     0.091 A 
ATOM     78  F   UNL A   1      41.436  29.527  29.265  1.00  0.00    -0.205 F 
ATOM     79  C   UNL A   1      39.613  26.532  28.215  1.00  0.00     0.022 A 
BRANCH  77  80
ATOM     80  S   UNL A   1      41.204  28.064  26.579  1.00  0.00     0.127 S 
ATOM     81  O   UNL A   1      40.507  29.295  26.219  1.00  0.00    -0.237 OA
ATOM     82  O   UNL A   1      42.610  28.234  26.945  1.00  0.00    -0.237 OA
ATOM     83  O   UNL A   1      40.946  26.909  25.729  1.00  0.00    -0.744 OA
ENDBRANCH  77  80
ENDBRANCH  49  73
BRANCH  61  84
ATOM     84  C   UNL A   1      44.391  28.486  35.799  1.00  0.00     0.023 A 
ATOM     85  C   UNL A   1      45.647  28.961  35.377  1.00  0.00     0.012 A 
ATOM     86  C   UNL A   1      44.321  27.342  36.618  1.00  0.00     0.148 A 
ATOM     87  C   UNL A   1      46.816  28.300  35.751  1.00  0.00     0.002 A 
ATOM     88  C   UNL A   1      45.494  26.709  37.017  1.00  0.00     0.091 A 
ATOM     89  F   UNL A   1      43.114  26.892  36.992  1.00  0.00    -0.205 F 
ATOM     90  C   UNL A   1      46.741  27.183  36.580  1.00  0.00     0.022 A 
BRANCH  88  91
ATOM     91  S   UNL A   1      45.484  25.317  38.153  1.00  0.00     0.127 S 
ATOM     92  O   UNL A   1      44.808  25.884  39.318  1.00  0.00    -0.237 OA
ATOM     93  O   UNL A   1      44.704  24.317  37.422  1.00  0.00    -0.237 OA
ATOM     94  O   UNL A   1      46.884  24.959  38.346  1.00  0.00    -0.744 OA
ENDBRANCH  88  91
ENDBRANCH  61  84
ENDBRANCH  35  36
ENDBRANCH  28  30
ENDBRANCH  27  28
ENDBRANCH  26  27
ENDBRANCH  25  26
ENDBRANCH  24  25
ENDBRANCH  23  24
ENDBRANCH   1  23
TORSDOF 23
ENDMDL
