MODEL 1
REMARK VINA RESULT:      -9.5      0.000      0.000
REMARK SMILES CC(C)(C)N(CC(=O)OCCOCCOC(=O)c1ccc(-c2c3nc(c(-c4cccc(S(=O)(=O)[O-])c4F)c4ccc([nH]4)c(-c4cccc(S(=O)(=O)[O-])c4F)c4nc(c(-c5cccc(S(=O)(=O)[O-])c5F)c5ccc2[nH]5)C=C4)C=C3)cc1)C(=O)C1C[NH2+]C1
REMARK SMILES IDX 12 1 11 2 10 3 9 4 7 5 8 6 6 7 5 8 2 9 1 10 3 11 4 12 81 13
REMARK SMILES IDX 82 14 83 15 84 16 86 17 85 18 13 21 14 22 15 23 16 24 17 25
REMARK SMILES IDX 18 26 19 27 80 28 20 29 79 30 21 31 22 32 23 33 73 34 24 35
REMARK SMILES IDX 78 36 72 37 74 38 25 39 77 40 71 41 70 42 26 44 58 45 38 46
REMARK SMILES IDX 57 47 39 48 42 49 56 50 75 51 40 52 41 53 55 55 76 56 43 57
REMARK SMILES IDX 27 58 28 59 36 60 29 61 31 62 37 63 30 64 32 65 33 66 34 67
REMARK SMILES IDX 35 68 59 69 60 70 68 71 61 72 63 73 69 74 62 75 64 76 65 77
REMARK SMILES IDX 66 78 67 79 44 80 45 81 53 82 46 83 48 84 54 85 47 86 49 87
REMARK SMILES IDX 50 88 51 89 52 90
REMARK H PARENT 85 19 85 20 74 43 42 54
REMARK Flexibility Score: inf
ROOT
ATOM      1  O   UNL A   1      35.571  20.263  25.036  1.00  0.00    -0.374 OA
ENDROOT
BRANCH   1   2
ATOM      2  C   UNL A   1      34.561  21.123  25.574  1.00  0.00     0.202 C 
BRANCH   2   3
ATOM      3  C   UNL A   1      35.010  22.264  26.497  1.00  0.00     0.261 C 
BRANCH   3   4
ATOM      4  O   UNL A   1      34.253  23.487  26.308  1.00  0.00    -0.462 OA
BRANCH   4   5
ATOM      5  C   UNL A   1      34.908  24.445  25.599  1.00  0.00     0.325 C 
ATOM      6  O   UNL A   1      35.962  24.255  24.994  1.00  0.00    -0.250 OA
BRANCH   5   7
ATOM      7  C   UNL A   1      34.190  25.796  25.492  1.00  0.00     0.242 C 
BRANCH   7   8
ATOM      8  N   UNL A   1      33.417  26.233  24.312  1.00  0.00    -0.326 N 
BRANCH   8   9
ATOM      9  C   UNL A   1      33.014  27.689  24.188  1.00  0.00     0.035 C 
ATOM     10  C   UNL A   1      32.951  28.189  22.722  1.00  0.00     0.034 C 
ATOM     11  C   UNL A   1      34.027  28.591  24.920  1.00  0.00     0.034 C 
ATOM     12  C   UNL A   1      31.595  27.920  24.768  1.00  0.00     0.034 C 
ENDBRANCH   8   9
BRANCH   8  13
ATOM     13  C   UNL A   1      33.116  25.336  23.258  1.00  0.00     0.238 C 
ATOM     14  O   UNL A   1      33.857  25.234  22.270  1.00  0.00    -0.274 OA
BRANCH  13  15
ATOM     15  C   UNL A   1      31.814  24.519  23.309  1.00  0.00     0.188 C 
ATOM     16  C   UNL A   1      31.948  22.975  23.432  1.00  0.00     0.280 C 
ATOM     17  C   UNL A   1      30.980  24.366  24.593  1.00  0.00     0.280 C 
ATOM     18  N   UNL A   1      30.654  22.977  24.163  1.00  0.00    -0.345 N 
ATOM     19  H   UNL A   1      30.593  22.299  24.923  1.00  0.00     0.346 HD
ATOM     20  H   UNL A   1      29.774  22.749  23.701  1.00  0.00     0.346 HD
ENDBRANCH  13  15
ENDBRANCH   8  13
ENDBRANCH   7   8
ENDBRANCH   5   7
ENDBRANCH   4   5
ENDBRANCH   3   4
ENDBRANCH   2   3
ENDBRANCH   1   2
BRANCH   1  21
ATOM     21  C   UNL A   1      36.699  20.888  24.444  1.00  0.00     0.202 C 
BRANCH  21  22
ATOM     22  C   UNL A   1      38.094  20.536  24.984  1.00  0.00     0.261 C 
BRANCH  22  23
ATOM     23  O   UNL A   1      38.424  21.176  26.210  1.00  0.00    -0.460 OA
BRANCH  23  24
ATOM     24  C   UNL A   1      39.743  21.102  26.506  1.00  0.00     0.338 C 
ATOM     25  O   UNL A   1      40.521  20.209  26.227  1.00  0.00    -0.246 OA
BRANCH  24  26
ATOM     26  C   UNL A   1      40.156  22.387  27.078  1.00  0.00     0.060 A 
ATOM     27  C   UNL A   1      39.437  23.516  26.674  1.00  0.00     0.016 A 
ATOM     28  C   UNL A   1      41.233  22.484  27.965  1.00  0.00     0.016 A 
ATOM     29  C   UNL A   1      39.849  24.770  27.092  1.00  0.00     0.010 A 
ATOM     30  C   UNL A   1      41.646  23.745  28.383  1.00  0.00     0.010 A 
ATOM     31  C   UNL A   1      40.988  24.888  27.899  1.00  0.00    -0.014 A 
BRANCH  31  32
ATOM     32  C   UNL A   1      41.600  26.221  28.047  1.00  0.00     0.031 A 
ATOM     33  C   UNL A   1      40.789  27.303  28.701  1.00  0.00     0.074 A 
ATOM     34  C   UNL A   1      42.867  26.428  27.657  1.00  0.00     0.049 A 
ATOM     35  N   UNL A   1      41.132  28.527  28.997  1.00  0.00    -0.248 NA
ATOM     36  C   UNL A   1      39.405  26.960  29.072  1.00  0.00     0.031 C 
ATOM     37  C   UNL A   1      43.725  25.431  27.016  1.00  0.00     0.029 A 
ATOM     38  N   UNL A   1      43.648  27.548  27.738  1.00  0.00    -0.354 N 
ATOM     39  C   UNL A   1      40.002  29.107  29.561  1.00  0.00     0.074 A 
ATOM     40  C   UNL A   1      38.956  28.110  29.550  1.00  0.00     0.031 C 
ATOM     41  C   UNL A   1      44.915  25.992  26.745  1.00  0.00     0.029 A 
ATOM     42  C   UNL A   1      44.893  27.387  27.180  1.00  0.00     0.049 A 
ATOM     43  H   UNL A   1      43.348  28.387  28.155  1.00  0.00     0.167 HD
ATOM     44  C   UNL A   1      39.858  30.355  30.062  1.00  0.00     0.034 A 
ATOM     45  C   UNL A   1      45.893  28.277  27.032  1.00  0.00     0.034 A 
ATOM     46  C   UNL A   1      40.918  31.325  30.076  1.00  0.00     0.049 A 
ATOM     47  C   UNL A   1      45.711  29.658  27.601  1.00  0.00     0.074 A 
ATOM     48  C   UNL A   1      40.905  32.609  30.587  1.00  0.00     0.029 A 
ATOM     49  N   UNL A   1      42.181  31.116  29.541  1.00  0.00    -0.354 N 
ATOM     50  N   UNL A   1      44.675  30.162  28.231  1.00  0.00    -0.248 NA
ATOM     51  C   UNL A   1      46.847  30.581  27.479  1.00  0.00     0.031 C 
ATOM     52  C   UNL A   1      42.155  33.186  30.335  1.00  0.00     0.029 A 
ATOM     53  C   UNL A   1      42.957  32.248  29.702  1.00  0.00     0.049 A 
ATOM     54  H   UNL A   1      42.480  30.283  29.111  1.00  0.00     0.167 HD
ATOM     55  C   UNL A   1      45.046  31.444  28.615  1.00  0.00     0.074 A 
ATOM     56  C   UNL A   1      46.410  31.633  28.158  1.00  0.00     0.031 C 
ATOM     57  C   UNL A   1      44.328  32.385  29.277  1.00  0.00     0.034 A 
BRANCH  44  58
ATOM     58  C   UNL A   1      38.516  30.727  30.636  1.00  0.00     0.023 A 
ATOM     59  C   UNL A   1      38.236  30.471  31.995  1.00  0.00     0.012 A 
ATOM     60  C   UNL A   1      37.537  31.345  29.835  1.00  0.00     0.148 A 
ATOM     61  C   UNL A   1      36.991  30.791  32.537  1.00  0.00     0.002 A 
ATOM     62  C   UNL A   1      36.316  31.703  30.394  1.00  0.00     0.091 A 
ATOM     63  F   UNL A   1      37.809  31.553  28.539  1.00  0.00    -0.205 F 
ATOM     64  C   UNL A   1      36.036  31.415  31.740  1.00  0.00     0.022 A 
BRANCH  62  65
ATOM     65  S   UNL A   1      35.049  32.580  29.469  1.00  0.00     0.127 S 
ATOM     66  O   UNL A   1      34.658  31.576  28.480  1.00  0.00    -0.237 OA
ATOM     67  O   UNL A   1      34.044  32.844  30.499  1.00  0.00    -0.237 OA
ATOM     68  O   UNL A   1      35.695  33.769  28.932  1.00  0.00    -0.744 OA
ENDBRANCH  62  65
ENDBRANCH  44  58
BRANCH  45  69
ATOM     69  C   UNL A   1      47.159  27.862  26.369  1.00  0.00     0.023 A 
ATOM     70  C   UNL A   1      48.227  27.368  27.141  1.00  0.00     0.012 A 
ATOM     71  C   UNL A   1      47.290  27.908  24.966  1.00  0.00     0.148 A 
ATOM     72  C   UNL A   1      49.412  26.951  26.532  1.00  0.00     0.002 A 
ATOM     73  C   UNL A   1      48.450  27.439  24.362  1.00  0.00     0.091 A 
ATOM     74  F   UNL A   1      46.266  28.391  24.249  1.00  0.00    -0.205 F 
ATOM     75  C   UNL A   1      49.520  26.976  25.144  1.00  0.00     0.022 A 
BRANCH  73  76
ATOM     76  S   UNL A   1      48.621  27.307  22.579  1.00  0.00     0.127 S 
ATOM     77  O   UNL A   1      48.278  25.906  22.348  1.00  0.00    -0.237 OA
ATOM     78  O   UNL A   1      47.628  28.272  22.108  1.00  0.00    -0.237 OA
ATOM     79  O   UNL A   1      50.001  27.676  22.288  1.00  0.00    -0.744 OA
ENDBRANCH  73  76
ENDBRANCH  45  69
BRANCH  57  80
ATOM     80  C   UNL A   1      45.015  33.687  29.591  1.00  0.00     0.023 A 
ATOM     81  C   UNL A   1      45.758  33.824  30.779  1.00  0.00     0.012 A 
ATOM     82  C   UNL A   1      44.984  34.748  28.665  1.00  0.00     0.148 A 
ATOM     83  C   UNL A   1      46.430  35.013  31.059  1.00  0.00     0.002 A 
ATOM     84  C   UNL A   1      45.700  35.908  28.925  1.00  0.00     0.091 A 
ATOM     85  F   UNL A   1      44.255  34.602  27.548  1.00  0.00    -0.205 F 
ATOM     86  C   UNL A   1      46.411  36.049  30.127  1.00  0.00     0.022 A 
BRANCH  84  87
ATOM     87  S   UNL A   1      45.814  37.248  27.734  1.00  0.00     0.127 S 
ATOM     88  O   UNL A   1      46.692  38.189  28.429  1.00  0.00    -0.237 OA
ATOM     89  O   UNL A   1      46.423  36.585  26.579  1.00  0.00    -0.237 OA
ATOM     90  O   UNL A   1      44.450  37.707  27.516  1.00  0.00    -0.744 OA
ENDBRANCH  84  87
ENDBRANCH  57  80
ENDBRANCH  31  32
ENDBRANCH  24  26
ENDBRANCH  23  24
ENDBRANCH  22  23
ENDBRANCH  21  22
ENDBRANCH   1  21
TORSDOF 21
ENDMDL
MODEL 2
REMARK VINA RESULT:      -9.3      2.566      8.071
REMARK SMILES CC(C)(C)N(CC(=O)OCCOCCOC(=O)c1ccc(-c2c3nc(c(-c4cccc(S(=O)(=O)[O-])c4F)c4ccc([nH]4)c(-c4cccc(S(=O)(=O)[O-])c4F)c4nc(c(-c5cccc(S(=O)(=O)[O-])c5F)c5ccc2[nH]5)C=C4)C=C3)cc1)C(=O)C1C[NH2+]C1
REMARK SMILES IDX 12 1 11 2 10 3 9 4 7 5 8 6 6 7 5 8 2 9 1 10 3 11 4 12 81 13
REMARK SMILES IDX 82 14 83 15 84 16 86 17 85 18 13 21 14 22 15 23 16 24 17 25
REMARK SMILES IDX 18 26 19 27 80 28 20 29 79 30 21 31 22 32 23 33 73 34 24 35
REMARK SMILES IDX 78 36 72 37 74 38 25 39 77 40 71 41 70 42 26 44 58 45 38 46
REMARK SMILES IDX 57 47 39 48 42 49 56 50 75 51 40 52 41 53 55 55 76 56 43 57
REMARK SMILES IDX 27 58 28 59 36 60 29 61 31 62 37 63 30 64 32 65 33 66 34 67
REMARK SMILES IDX 35 68 59 69 60 70 68 71 61 72 63 73 69 74 62 75 64 76 65 77
REMARK SMILES IDX 66 78 67 79 44 80 45 81 53 82 46 83 48 84 54 85 47 86 49 87
REMARK SMILES IDX 50 88 51 89 52 90
REMARK H PARENT 85 19 85 20 74 43 42 54
REMARK Flexibility Score: inf
ROOT
ATOM      1  O   UNL A   1      35.054  20.888  24.826  1.00  0.00    -0.374 OA
ENDROOT
BRANCH   1   2
ATOM      2  C   UNL A   1      33.648  20.839  25.090  1.00  0.00     0.202 C 
BRANCH   2   3
ATOM      3  C   UNL A   1      32.733  21.756  24.267  1.00  0.00     0.261 C 
BRANCH   3   4
ATOM      4  O   UNL A   1      33.365  22.269  23.067  1.00  0.00    -0.462 OA
BRANCH   4   5
ATOM      5  C   UNL A   1      33.517  23.621  23.050  1.00  0.00     0.325 C 
ATOM      6  O   UNL A   1      34.466  24.202  22.527  1.00  0.00    -0.250 OA
BRANCH   5   7
ATOM      7  C   UNL A   1      32.350  24.425  23.639  1.00  0.00     0.242 C 
BRANCH   7   8
ATOM      8  N   UNL A   1      32.481  25.779  24.211  1.00  0.00    -0.326 N 
BRANCH   8   9
ATOM      9  C   UNL A   1      32.809  25.935  25.682  1.00  0.00     0.035 C 
ATOM     10  C   UNL A   1      33.778  27.108  25.978  1.00  0.00     0.034 C 
ATOM     11  C   UNL A   1      33.483  24.657  26.220  1.00  0.00     0.034 C 
ATOM     12  C   UNL A   1      31.529  26.235  26.504  1.00  0.00     0.034 C 
ENDBRANCH   8   9
BRANCH   8  13
ATOM     13  C   UNL A   1      32.386  26.934  23.395  1.00  0.00     0.238 C 
ATOM     14  O   UNL A   1      33.282  27.228  22.591  1.00  0.00    -0.274 OA
BRANCH  13  15
ATOM     15  C   UNL A   1      31.178  27.874  23.552  1.00  0.00     0.188 C 
ATOM     16  C   UNL A   1      31.425  29.237  24.257  1.00  0.00     0.280 C 
ATOM     17  C   UNL A   1      30.666  28.765  22.407  1.00  0.00     0.280 C 
ATOM     18  N   UNL A   1      30.331  29.802  23.425  1.00  0.00    -0.345 N 
ATOM     19  H   UNL A   1      30.482  30.764  23.119  1.00  0.00     0.346 HD
ATOM     20  H   UNL A   1      29.384  29.917  23.785  1.00  0.00     0.346 HD
ENDBRANCH  13  15
ENDBRANCH   8  13
ENDBRANCH   7   8
ENDBRANCH   5   7
ENDBRANCH   4   5
ENDBRANCH   3   4
ENDBRANCH   2   3
ENDBRANCH   1   2
BRANCH   1  21
ATOM     21  C   UNL A   1      35.843  21.689  25.692  1.00  0.00     0.202 C 
BRANCH  21  22
ATOM     22  C   UNL A   1      37.227  22.142  25.204  1.00  0.00     0.261 C 
BRANCH  22  23
ATOM     23  O   UNL A   1      37.837  23.137  26.016  1.00  0.00    -0.460 OA
BRANCH  23  24
ATOM     24  C   UNL A   1      39.056  22.770  26.476  1.00  0.00     0.338 C 
ATOM     25  O   UNL A   1      39.549  21.658  26.477  1.00  0.00    -0.246 OA
BRANCH  24  26
ATOM     26  C   UNL A   1      39.799  23.986  26.823  1.00  0.00     0.060 A 
ATOM     27  C   UNL A   1      40.323  24.055  28.117  1.00  0.00     0.016 A 
ATOM     28  C   UNL A   1      39.953  25.036  25.913  1.00  0.00     0.016 A 
ATOM     29  C   UNL A   1      40.938  25.222  28.540  1.00  0.00     0.010 A 
ATOM     30  C   UNL A   1      40.569  26.209  26.341  1.00  0.00     0.010 A 
ATOM     31  C   UNL A   1      41.008  26.318  27.671  1.00  0.00    -0.014 A 
BRANCH  31  32
ATOM     32  C   UNL A   1      41.348  27.635  28.240  1.00  0.00     0.031 A 
ATOM     33  C   UNL A   1      42.791  28.051  28.249  1.00  0.00     0.074 A 
ATOM     34  C   UNL A   1      40.376  28.450  28.678  1.00  0.00     0.049 A 
ATOM     35  N   UNL A   1      43.322  29.178  28.635  1.00  0.00    -0.248 NA
ATOM     36  C   UNL A   1      43.767  27.063  27.757  1.00  0.00     0.031 C 
ATOM     37  C   UNL A   1      38.950  28.124  28.702  1.00  0.00     0.029 A 
ATOM     38  N   UNL A   1      40.445  29.716  29.193  1.00  0.00    -0.354 N 
ATOM     39  C   UNL A   1      44.693  29.027  28.459  1.00  0.00     0.074 A 
ATOM     40  C   UNL A   1      44.915  27.693  27.950  1.00  0.00     0.031 C 
ATOM     41  C   UNL A   1      38.276  29.163  29.223  1.00  0.00     0.029 A 
ATOM     42  C   UNL A   1      39.226  30.215  29.582  1.00  0.00     0.049 A 
ATOM     43  H   UNL A   1      41.286  30.220  29.276  1.00  0.00     0.167 HD
ATOM     44  C   UNL A   1      45.675  29.929  28.685  1.00  0.00     0.034 A 
ATOM     45  C   UNL A   1      38.923  31.387  30.170  1.00  0.00     0.034 A 
ATOM     46  C   UNL A   1      45.427  31.256  29.177  1.00  0.00     0.049 A 
ATOM     47  C   UNL A   1      40.032  32.376  30.407  1.00  0.00     0.074 A 
ATOM     48  C   UNL A   1      46.334  32.272  29.412  1.00  0.00     0.029 A 
ATOM     49  N   UNL A   1      44.175  31.745  29.521  1.00  0.00    -0.354 N 
ATOM     50  N   UNL A   1      41.311  32.264  30.135  1.00  0.00    -0.248 NA
ATOM     51  C   UNL A   1      39.653  33.670  30.991  1.00  0.00     0.031 C 
ATOM     52  C   UNL A   1      45.631  33.367  29.926  1.00  0.00     0.029 A 
ATOM     53  C   UNL A   1      44.282  33.047  29.974  1.00  0.00     0.049 A 
ATOM     54  H   UNL A   1      43.333  31.239  29.452  1.00  0.00     0.167 HD
ATOM     55  C   UNL A   1      41.885  33.482  30.476  1.00  0.00     0.074 A 
ATOM     56  C   UNL A   1      40.807  34.323  30.962  1.00  0.00     0.031 C 
ATOM     57  C   UNL A   1      43.182  33.871  30.405  1.00  0.00     0.034 A 
BRANCH  44  58
ATOM     58  C   UNL A   1      47.090  29.508  28.392  1.00  0.00     0.023 A 
ATOM     59  C   UNL A   1      47.652  29.756  27.122  1.00  0.00     0.012 A 
ATOM     60  C   UNL A   1      47.873  28.880  29.380  1.00  0.00     0.148 A 
ATOM     61  C   UNL A   1      48.954  29.354  26.828  1.00  0.00     0.002 A 
ATOM     62  C   UNL A   1      49.187  28.525  29.095  1.00  0.00     0.091 A 
ATOM     63  F   UNL A   1      47.315  28.625  30.571  1.00  0.00    -0.205 F 
ATOM     64  C   UNL A   1      49.724  28.748  27.816  1.00  0.00     0.022 A 
BRANCH  62  65
ATOM     65  S   UNL A   1      50.283  27.808  30.325  1.00  0.00     0.127 S 
ATOM     66  O   UNL A   1      51.360  27.280  29.489  1.00  0.00    -0.237 OA
ATOM     67  O   UNL A   1      50.650  28.976  31.126  1.00  0.00    -0.237 OA
ATOM     68  O   UNL A   1      49.494  26.810  31.033  1.00  0.00    -0.744 OA
ENDBRANCH  62  65
ENDBRANCH  44  58
BRANCH  45  69
ATOM     69  C   UNL A   1      37.508  31.696  30.516  1.00  0.00     0.023 A 
ATOM     70  C   UNL A   1      37.000  31.334  31.778  1.00  0.00     0.012 A 
ATOM     71  C   UNL A   1      36.679  32.394  29.616  1.00  0.00     0.148 A 
ATOM     72  C   UNL A   1      35.684  31.638  32.128  1.00  0.00     0.002 A 
ATOM     73  C   UNL A   1      35.388  32.744  29.991  1.00  0.00     0.091 A 
ATOM     74  F   UNL A   1      37.178  32.721  28.416  1.00  0.00    -0.205 F 
ATOM     75  C   UNL A   1      34.881  32.352  31.240  1.00  0.00     0.022 A 
BRANCH  73  76
ATOM     76  S   UNL A   1      34.334  33.779  28.969  1.00  0.00     0.127 S 
ATOM     77  O   UNL A   1      35.283  34.766  28.462  1.00  0.00    -0.237 OA
ATOM     78  O   UNL A   1      33.847  32.823  27.974  1.00  0.00    -0.237 OA
ATOM     79  O   UNL A   1      33.302  34.293  29.861  1.00  0.00    -0.744 OA
ENDBRANCH  73  76
ENDBRANCH  45  69
BRANCH  57  80
ATOM     80  C   UNL A   1      43.504  35.283  30.816  1.00  0.00     0.023 A 
ATOM     81  C   UNL A   1      43.903  35.558  32.138  1.00  0.00     0.012 A 
ATOM     82  C   UNL A   1      43.484  36.323  29.865  1.00  0.00     0.148 A 
ATOM     83  C   UNL A   1      44.242  36.857  32.517  1.00  0.00     0.002 A 
ATOM     84  C   UNL A   1      43.874  37.602  30.237  1.00  0.00     0.091 A 
ATOM     85  F   UNL A   1      43.083  36.041  28.616  1.00  0.00    -0.205 F 
ATOM     86  C   UNL A   1      44.239  37.874  31.565  1.00  0.00     0.022 A 
BRANCH  84  87
ATOM     87  S   UNL A   1      44.000  38.945  29.052  1.00  0.00     0.127 S 
ATOM     88  O   UNL A   1      42.596  39.187  28.726  1.00  0.00    -0.237 OA
ATOM     89  O   UNL A   1      44.632  40.000  29.846  1.00  0.00    -0.237 OA
ATOM     90  O   UNL A   1      44.820  38.440  27.960  1.00  0.00    -0.744 OA
ENDBRANCH  84  87
ENDBRANCH  57  80
ENDBRANCH  31  32
ENDBRANCH  24  26
ENDBRANCH  23  24
ENDBRANCH  22  23
ENDBRANCH  21  22
ENDBRANCH   1  21
TORSDOF 21
ENDMDL
MODEL 3
REMARK VINA RESULT:      -8.7      5.868     10.495
REMARK SMILES CC(C)(C)N(CC(=O)OCCOCCOC(=O)c1ccc(-c2c3nc(c(-c4cccc(S(=O)(=O)[O-])c4F)c4ccc([nH]4)c(-c4cccc(S(=O)(=O)[O-])c4F)c4nc(c(-c5cccc(S(=O)(=O)[O-])c5F)c5ccc2[nH]5)C=C4)C=C3)cc1)C(=O)C1C[NH2+]C1
REMARK SMILES IDX 12 1 11 2 10 3 9 4 7 5 8 6 6 7 5 8 2 9 1 10 3 11 4 12 81 13
REMARK SMILES IDX 82 14 83 15 84 16 86 17 85 18 13 21 14 22 15 23 16 24 17 25
REMARK SMILES IDX 18 26 19 27 80 28 20 29 79 30 21 31 22 32 23 33 73 34 24 35
REMARK SMILES IDX 78 36 72 37 74 38 25 39 77 40 71 41 70 42 26 44 58 45 38 46
REMARK SMILES IDX 57 47 39 48 42 49 56 50 75 51 40 52 41 53 55 55 76 56 43 57
REMARK SMILES IDX 27 58 28 59 36 60 29 61 31 62 37 63 30 64 32 65 33 66 34 67
REMARK SMILES IDX 35 68 59 69 60 70 68 71 61 72 63 73 69 74 62 75 64 76 65 77
REMARK SMILES IDX 66 78 67 79 44 80 45 81 53 82 46 83 48 84 54 85 47 86 49 87
REMARK SMILES IDX 50 88 51 89 52 90
REMARK H PARENT 85 19 85 20 74 43 42 54
REMARK Flexibility Score: inf
ROOT
ATOM      1  O   UNL A   1      34.487  29.148  27.365  1.00  0.00    -0.374 OA
ENDROOT
BRANCH   1   2
ATOM      2  C   UNL A   1      34.427  28.170  26.321  1.00  0.00     0.202 C 
BRANCH   2   3
ATOM      3  C   UNL A   1      33.346  28.339  25.245  1.00  0.00     0.261 C 
BRANCH   3   4
ATOM      4  O   UNL A   1      33.772  27.904  23.929  1.00  0.00    -0.462 OA
BRANCH   4   5
ATOM      5  C   UNL A   1      33.293  26.685  23.563  1.00  0.00     0.325 C 
ATOM      6  O   UNL A   1      33.511  26.158  22.473  1.00  0.00    -0.250 OA
BRANCH   5   7
ATOM      7  C   UNL A   1      32.532  25.918  24.652  1.00  0.00     0.242 C 
BRANCH   7   8
ATOM      8  N   UNL A   1      32.740  24.489  24.960  1.00  0.00    -0.326 N 
BRANCH   8   9
ATOM      9  C   UNL A   1      31.755  23.465  24.434  1.00  0.00     0.035 C 
ATOM     10  C   UNL A   1      30.809  24.023  23.340  1.00  0.00     0.034 C 
ATOM     11  C   UNL A   1      30.855  22.950  25.576  1.00  0.00     0.034 C 
ATOM     12  C   UNL A   1      32.496  22.274  23.776  1.00  0.00     0.034 C 
ENDBRANCH   8   9
BRANCH   8  13
ATOM     13  C   UNL A   1      33.886  24.050  25.669  1.00  0.00     0.238 C 
ATOM     14  O   UNL A   1      33.791  23.555  26.800  1.00  0.00    -0.274 OA
BRANCH  13  15
ATOM     15  C   UNL A   1      35.280  24.248  25.049  1.00  0.00     0.188 C 
ATOM     16  C   UNL A   1      36.454  23.435  25.665  1.00  0.00     0.280 C 
ATOM     17  C   UNL A   1      35.718  23.549  23.750  1.00  0.00     0.280 C 
ATOM     18  N   UNL A   1      37.091  23.443  24.322  1.00  0.00    -0.345 N 
ATOM     19  H   UNL A   1      37.588  22.585  24.080  1.00  0.00     0.346 HD
ATOM     20  H   UNL A   1      37.827  24.106  24.079  1.00  0.00     0.346 HD
ENDBRANCH  13  15
ENDBRANCH   8  13
ENDBRANCH   7   8
ENDBRANCH   5   7
ENDBRANCH   4   5
ENDBRANCH   3   4
ENDBRANCH   2   3
ENDBRANCH   1   2
BRANCH   1  21
ATOM     21  C   UNL A   1      33.619  30.264  27.252  1.00  0.00     0.202 C 
BRANCH  21  22
ATOM     22  C   UNL A   1      34.209  31.668  27.450  1.00  0.00     0.261 C 
BRANCH  22  23
ATOM     23  O   UNL A   1      33.277  32.633  27.921  1.00  0.00    -0.460 OA
BRANCH  23  24
ATOM     24  C   UNL A   1      33.867  33.773  28.352  1.00  0.00     0.338 C 
ATOM     25  O   UNL A   1      33.549  34.919  28.099  1.00  0.00    -0.246 OA
BRANCH  24  26
ATOM     26  C   UNL A   1      34.877  33.414  29.353  1.00  0.00     0.060 A 
ATOM     27  C   UNL A   1      36.192  33.810  29.090  1.00  0.00     0.016 A 
ATOM     28  C   UNL A   1      34.546  32.690  30.501  1.00  0.00     0.016 A 
ATOM     29  C   UNL A   1      37.207  33.406  29.940  1.00  0.00     0.010 A 
ATOM     30  C   UNL A   1      35.568  32.282  31.355  1.00  0.00     0.010 A 
ATOM     31  C   UNL A   1      36.902  32.593  31.040  1.00  0.00    -0.014 A 
BRANCH  31  32
ATOM     32  C   UNL A   1      38.011  31.902  31.722  1.00  0.00     0.031 A 
ATOM     33  C   UNL A   1      38.701  30.784  30.996  1.00  0.00     0.074 A 
ATOM     34  C   UNL A   1      38.417  32.314  32.934  1.00  0.00     0.049 A 
ATOM     35  N   UNL A   1      39.734  30.076  31.362  1.00  0.00    -0.248 NA
ATOM     36  C   UNL A   1      38.153  30.413  29.679  1.00  0.00     0.031 C 
ATOM     37  C   UNL A   1      37.803  33.394  33.707  1.00  0.00     0.029 A 
ATOM     38  N   UNL A   1      39.438  31.865  33.726  1.00  0.00    -0.354 N 
ATOM     39  C   UNL A   1      39.943  29.160  30.338  1.00  0.00     0.074 A 
ATOM     40  C   UNL A   1      38.920  29.387  29.343  1.00  0.00     0.031 C 
ATOM     41  C   UNL A   1      38.453  33.514  34.876  1.00  0.00     0.029 A 
ATOM     42  C   UNL A   1      39.515  32.510  34.936  1.00  0.00     0.049 A 
ATOM     43  H   UNL A   1      40.057  31.150  33.455  1.00  0.00     0.167 HD
ATOM     44  C   UNL A   1      40.916  28.226  30.230  1.00  0.00     0.034 A 
ATOM     45  C   UNL A   1      40.346  32.301  35.974  1.00  0.00     0.034 A 
ATOM     46  C   UNL A   1      41.933  28.029  31.225  1.00  0.00     0.049 A 
ATOM     47  C   UNL A   1      41.422  31.258  35.828  1.00  0.00     0.074 A 
ATOM     48  C   UNL A   1      42.990  27.140  31.213  1.00  0.00     0.029 A 
ATOM     49  N   UNL A   1      42.007  28.729  32.421  1.00  0.00    -0.354 N 
ATOM     50  N   UNL A   1      41.678  30.473  34.808  1.00  0.00    -0.248 NA
ATOM     51  C   UNL A   1      42.351  31.103  36.955  1.00  0.00     0.031 C 
ATOM     52  C   UNL A   1      43.689  27.285  32.417  1.00  0.00     0.029 A 
ATOM     53  C   UNL A   1      43.089  28.290  33.161  1.00  0.00     0.049 A 
ATOM     54  H   UNL A   1      41.381  29.436  32.701  1.00  0.00     0.167 HD
ATOM     55  C   UNL A   1      42.818  29.757  35.152  1.00  0.00     0.074 A 
ATOM     56  C   UNL A   1      43.211  30.216  36.471  1.00  0.00     0.031 C 
ATOM     57  C   UNL A   1      43.479  28.803  34.450  1.00  0.00     0.034 A 
BRANCH  44  58
ATOM     58  C   UNL A   1      40.922  27.365  28.995  1.00  0.00     0.023 A 
ATOM     59  C   UNL A   1      40.002  26.302  28.871  1.00  0.00     0.012 A 
ATOM     60  C   UNL A   1      41.828  27.616  27.946  1.00  0.00     0.148 A 
ATOM     61  C   UNL A   1      40.007  25.483  27.742  1.00  0.00     0.002 A 
ATOM     62  C   UNL A   1      41.796  26.824  26.804  1.00  0.00     0.091 A 
ATOM     63  F   UNL A   1      42.715  28.610  28.093  1.00  0.00    -0.205 F 
ATOM     64  C   UNL A   1      40.897  25.749  26.706  1.00  0.00     0.022 A 
BRANCH  62  65
ATOM     65  S   UNL A   1      42.850  27.136  25.383  1.00  0.00     0.127 S 
ATOM     66  O   UNL A   1      44.154  27.328  26.019  1.00  0.00    -0.237 OA
ATOM     67  O   UNL A   1      42.720  25.891  24.625  1.00  0.00    -0.237 OA
ATOM     68  O   UNL A   1      42.297  28.309  24.722  1.00  0.00    -0.744 OA
ENDBRANCH  62  65
ENDBRANCH  44  58
BRANCH  45  69
ATOM     69  C   UNL A   1      40.219  33.131  37.203  1.00  0.00     0.023 A 
ATOM     70  C   UNL A   1      39.238  32.818  38.162  1.00  0.00     0.012 A 
ATOM     71  C   UNL A   1      41.102  34.202  37.447  1.00  0.00     0.148 A 
ATOM     72  C   UNL A   1      39.121  33.571  39.331  1.00  0.00     0.002 A 
ATOM     73  C   UNL A   1      41.018  34.912  38.638  1.00  0.00     0.091 A 
ATOM     74  F   UNL A   1      42.022  34.490  36.516  1.00  0.00    -0.205 F 
ATOM     75  C   UNL A   1      40.017  34.610  39.575  1.00  0.00     0.022 A 
BRANCH  73  76
ATOM     76  S   UNL A   1      42.213  36.173  39.095  1.00  0.00     0.127 S 
ATOM     77  O   UNL A   1      41.748  37.321  38.322  1.00  0.00    -0.237 OA
ATOM     78  O   UNL A   1      42.005  36.275  40.540  1.00  0.00    -0.237 OA
ATOM     79  O   UNL A   1      43.514  35.638  38.713  1.00  0.00    -0.744 OA
ENDBRANCH  73  76
ENDBRANCH  45  69
BRANCH  57  80
ATOM     80  C   UNL A   1      44.721  28.223  35.070  1.00  0.00     0.023 A 
ATOM     81  C   UNL A   1      45.962  28.864  34.895  1.00  0.00     0.012 A 
ATOM     82  C   UNL A   1      44.640  27.081  35.891  1.00  0.00     0.148 A 
ATOM     83  C   UNL A   1      47.112  28.356  35.499  1.00  0.00     0.002 A 
ATOM     84  C   UNL A   1      45.778  26.612  36.532  1.00  0.00     0.091 A 
ATOM     85  F   UNL A   1      43.450  26.475  36.029  1.00  0.00    -0.205 F 
ATOM     86  C   UNL A   1      47.017  27.238  36.326  1.00  0.00     0.022 A 
BRANCH  84  87
ATOM     87  S   UNL A   1      45.726  25.245  37.696  1.00  0.00     0.127 S 
ATOM     88  O   UNL A   1      44.366  25.352  38.221  1.00  0.00    -0.237 OA
ATOM     89  O   UNL A   1      45.954  24.089  36.826  1.00  0.00    -0.237 OA
ATOM     90  O   UNL A   1      46.791  25.496  38.656  1.00  0.00    -0.744 OA
ENDBRANCH  84  87
ENDBRANCH  57  80
ENDBRANCH  31  32
ENDBRANCH  24  26
ENDBRANCH  23  24
ENDBRANCH  22  23
ENDBRANCH  21  22
ENDBRANCH   1  21
TORSDOF 21
ENDMDL
