MODEL 1
REMARK VINA RESULT:     -11.2      0.000      0.000
REMARK SMILES Cc1csc(NC(=O)[C@@H]2CC=CC[C@H]2C(=O)OCCOCCOC(=O)c2ccc(-c3c4nc(c(-c5cccc(S(=O)(=O)[O-])c5F)c5ccc([nH]5)c(-c5cccc(S(=O)(=O)[O-])c5F)c5nc(c(-c6cccc(S(=O)(=O)[O-])c6F)c6ccc3[nH]6)C=C5)C=C4)cc2)n1
REMARK SMILES IDX 21 1 20 2 19 3 18 4 17 5 15 6 16 7 14 8 9 9 10 10 11 11
REMARK SMILES IDX 13 12 12 13 7 14 6 15 8 17 5 18 1 19 2 20 3 21 89 22 4 23
REMARK SMILES IDX 22 24 23 25 24 26 25 27 26 28 27 29 88 30 28 31 87 32 29 33
REMARK SMILES IDX 30 34 31 35 81 36 32 37 86 38 80 39 82 40 33 41 85 42 79 43
REMARK SMILES IDX 78 44 34 46 66 47 46 48 65 49 47 50 50 51 64 52 83 53 48 54
REMARK SMILES IDX 49 55 63 57 84 58 51 59 35 60 36 61 44 62 37 63 39 64 45 65
REMARK SMILES IDX 38 66 40 67 41 68 42 69 43 70 67 71 68 72 76 73 69 74 71 75
REMARK SMILES IDX 77 76 70 77 72 78 73 79 74 80 75 81 52 82 53 83 61 84 54 85
REMARK SMILES IDX 56 86 62 87 55 88 57 89 58 90 59 91 60 92
REMARK H PARENT 6 16 82 45 50 56
REMARK Flexibility Score: inf
ROOT
ATOM      1  C   UNL A   1      31.829  30.862  26.327  1.00  0.00     0.202 C 
ENDROOT
BRANCH   1   2
ATOM      2  O   UNL A   1      31.754  29.776  27.245  1.00  0.00    -0.374 OA
BRANCH   2   3
ATOM      3  C   UNL A   1      32.647  28.685  27.023  1.00  0.00     0.202 C 
BRANCH   3   4
ATOM      4  C   UNL A   1      33.788  28.882  26.021  1.00  0.00     0.261 C 
BRANCH   4   5
ATOM      5  O   UNL A   1      33.832  27.885  24.978  1.00  0.00    -0.463 OA
BRANCH   5   6
ATOM      6  C   UNL A   1      33.315  28.276  23.777  1.00  0.00     0.310 C 
ATOM      7  O   UNL A   1      33.608  29.315  23.195  1.00  0.00    -0.252 OA
BRANCH   6   8
ATOM      8  C   UNL A   1      32.171  27.387  23.323  1.00  0.00     0.116 C 
ATOM      9  C   UNL A   1      32.264  25.871  23.672  1.00  0.00     0.097 C 
ATOM     10  C   UNL A   1      30.912  25.210  23.382  1.00  0.00     0.041 C 
ATOM     11  C   UNL A   1      29.663  25.998  23.591  1.00  0.00    -0.030 C 
ATOM     12  C   UNL A   1      30.917  28.104  23.862  1.00  0.00     0.043 C 
ATOM     13  C   UNL A   1      29.660  27.312  23.803  1.00  0.00    -0.030 C 
BRANCH   9  14
ATOM     14  C   UNL A   1      33.465  25.220  22.921  1.00  0.00     0.230 C 
ATOM     15  N   UNL A   1      34.380  24.343  23.421  1.00  0.00    -0.302 N 
ATOM     16  H   UNL A   1      35.312  24.501  23.148  1.00  0.00     0.172 HD
ATOM     17  O   UNL A   1      33.746  25.612  21.778  1.00  0.00    -0.274 OA
BRANCH  15  18
ATOM     18  C   UNL A   1      34.183  23.274  24.245  1.00  0.00     0.189 A 
ATOM     19  C   UNL A   1      34.072  21.879  27.527  1.00  0.00     0.068 C 
ATOM     20  C   UNL A   1      33.875  22.063  26.068  1.00  0.00     0.051 A 
ATOM     21  C   UNL A   1      33.062  21.359  25.203  1.00  0.00     0.092 A 
ATOM     22  N   UNL A   1      34.544  23.111  25.481  1.00  0.00    -0.225 NA
ATOM     23  S   UNL A   1      33.140  22.065  23.630  1.00  0.00    -0.105 S 
ENDBRANCH  15  18
ENDBRANCH   9  14
ENDBRANCH   6   8
ENDBRANCH   5   6
ENDBRANCH   4   5
ENDBRANCH   3   4
ENDBRANCH   2   3
ENDBRANCH   1   2
BRANCH   1  24
ATOM     24  C   UNL A   1      31.557  32.268  26.872  1.00  0.00     0.261 C 
BRANCH  24  25
ATOM     25  O   UNL A   1      32.684  33.150  26.750  1.00  0.00    -0.460 OA
BRANCH  25  26
ATOM     26  C   UNL A   1      33.187  33.568  27.938  1.00  0.00     0.338 C 
ATOM     27  O   UNL A   1      32.646  34.301  28.749  1.00  0.00    -0.246 OA
BRANCH  26  28
ATOM     28  C   UNL A   1      34.461  32.882  28.226  1.00  0.00     0.060 A 
ATOM     29  C   UNL A   1      34.386  31.552  28.660  1.00  0.00     0.016 A 
ATOM     30  C   UNL A   1      35.691  33.540  28.156  1.00  0.00     0.016 A 
ATOM     31  C   UNL A   1      35.534  30.895  29.091  1.00  0.00     0.010 A 
ATOM     32  C   UNL A   1      36.843  32.879  28.596  1.00  0.00     0.010 A 
ATOM     33  C   UNL A   1      36.760  31.571  29.106  1.00  0.00    -0.014 A 
BRANCH  33  34
ATOM     34  C   UNL A   1      37.915  30.957  29.803  1.00  0.00     0.031 A 
ATOM     35  C   UNL A   1      38.204  31.361  31.224  1.00  0.00     0.074 A 
ATOM     36  C   UNL A   1      38.676  30.037  29.187  1.00  0.00     0.049 A 
ATOM     37  N   UNL A   1      39.141  30.936  32.030  1.00  0.00    -0.248 NA
ATOM     38  C   UNL A   1      37.320  32.381  31.814  1.00  0.00     0.031 C 
ATOM     39  C   UNL A   1      38.488  29.571  27.813  1.00  0.00     0.029 A 
ATOM     40  N   UNL A   1      39.772  29.343  29.632  1.00  0.00    -0.354 N 
ATOM     41  C   UNL A   1      38.979  31.653  33.209  1.00  0.00     0.074 A 
ATOM     42  C   UNL A   1      37.862  32.550  33.011  1.00  0.00     0.031 C 
ATOM     43  C   UNL A   1      39.453  28.681  27.520  1.00  0.00     0.029 A 
ATOM     44  C   UNL A   1      40.331  28.527  28.678  1.00  0.00     0.049 A 
ATOM     45  H   UNL A   1      40.124  29.423  30.548  1.00  0.00     0.167 HD
ATOM     46  C   UNL A   1      39.686  31.561  34.360  1.00  0.00     0.034 A 
ATOM     47  C   UNL A   1      41.434  27.754  28.732  1.00  0.00     0.034 A 
ATOM     48  C   UNL A   1      40.779  30.648  34.559  1.00  0.00     0.049 A 
ATOM     49  C   UNL A   1      42.208  27.676  30.023  1.00  0.00     0.074 A 
ATOM     50  C   UNL A   1      41.523  30.433  35.705  1.00  0.00     0.029 A 
ATOM     51  N   UNL A   1      41.292  29.807  33.583  1.00  0.00    -0.354 N 
ATOM     52  N   UNL A   1      41.962  28.260  31.171  1.00  0.00    -0.248 NA
ATOM     53  C   UNL A   1      43.391  26.803  30.036  1.00  0.00     0.031 C 
ATOM     54  C   UNL A   1      42.505  29.481  35.414  1.00  0.00     0.029 A 
ATOM     55  C   UNL A   1      42.354  29.083  34.094  1.00  0.00     0.049 A 
ATOM     56  H   UNL A   1      40.952  29.737  32.663  1.00  0.00     0.167 HD
ATOM     57  C   UNL A   1      42.935  27.801  32.051  1.00  0.00     0.074 A 
ATOM     58  C   UNL A   1      43.763  26.873  31.307  1.00  0.00     0.031 C 
ATOM     59  C   UNL A   1      43.135  28.125  33.353  1.00  0.00     0.034 A 
BRANCH  46  60
ATOM     60  C   UNL A   1      39.282  32.454  35.504  1.00  0.00     0.023 A 
ATOM     61  C   UNL A   1      38.391  31.972  36.485  1.00  0.00     0.012 A 
ATOM     62  C   UNL A   1      39.818  33.750  35.634  1.00  0.00     0.148 A 
ATOM     63  C   UNL A   1      38.018  32.776  37.561  1.00  0.00     0.002 A 
ATOM     64  C   UNL A   1      39.473  34.530  36.731  1.00  0.00     0.091 A 
ATOM     65  F   UNL A   1      40.643  34.199  34.678  1.00  0.00    -0.205 F 
ATOM     66  C   UNL A   1      38.566  34.050  37.690  1.00  0.00     0.022 A 
BRANCH  64  67
ATOM     67  S   UNL A   1      40.180  36.155  37.022  1.00  0.00     0.127 S 
ATOM     68  O   UNL A   1      41.598  35.836  37.182  1.00  0.00    -0.237 OA
ATOM     69  O   UNL A   1      39.850  36.863  35.785  1.00  0.00    -0.237 OA
ATOM     70  O   UNL A   1      39.517  36.675  38.211  1.00  0.00    -0.744 OA
ENDBRANCH  64  67
ENDBRANCH  46  60
BRANCH  47  71
ATOM     71  C   UNL A   1      41.841  26.955  27.542  1.00  0.00     0.023 A 
ATOM     72  C   UNL A   1      42.489  27.592  26.466  1.00  0.00     0.012 A 
ATOM     73  C   UNL A   1      41.617  25.566  27.482  1.00  0.00     0.148 A 
ATOM     74  C   UNL A   1      42.882  26.865  25.342  1.00  0.00     0.002 A 
ATOM     75  C   UNL A   1      42.060  24.838  26.384  1.00  0.00     0.091 A 
ATOM     76  F   UNL A   1      40.981  24.980  28.508  1.00  0.00    -0.205 F 
ATOM     77  C   UNL A   1      42.678  25.488  25.305  1.00  0.00     0.022 A 
BRANCH  75  78
ATOM     78  S   UNL A   1      41.954  23.046  26.311  1.00  0.00     0.127 S 
ATOM     79  O   UNL A   1      40.510  22.831  26.302  1.00  0.00    -0.237 OA
ATOM     80  O   UNL A   1      42.629  22.755  25.045  1.00  0.00    -0.237 OA
ATOM     81  O   UNL A   1      42.660  22.563  27.490  1.00  0.00    -0.744 OA
ENDBRANCH  75  78
ENDBRANCH  47  71
BRANCH  59  82
ATOM     82  C   UNL A   1      44.275  27.454  34.074  1.00  0.00     0.023 A 
ATOM     83  C   UNL A   1      45.562  28.023  34.031  1.00  0.00     0.012 A 
ATOM     84  C   UNL A   1      44.052  26.306  34.860  1.00  0.00     0.148 A 
ATOM     85  C   UNL A   1      46.617  27.444  34.735  1.00  0.00     0.002 A 
ATOM     86  C   UNL A   1      45.096  25.763  35.598  1.00  0.00     0.091 A 
ATOM     87  F   UNL A   1      42.823  25.768  34.873  1.00  0.00    -0.205 F 
ATOM     88  C   UNL A   1      46.382  26.323  35.527  1.00  0.00     0.022 A 
BRANCH  86  89
ATOM     89  S   UNL A   1      44.863  24.379  36.720  1.00  0.00     0.127 S 
ATOM     90  O   UNL A   1      43.869  24.912  37.649  1.00  0.00    -0.237 OA
ATOM     91  O   UNL A   1      44.364  23.333  35.826  1.00  0.00    -0.237 OA
ATOM     92  O   UNL A   1      46.174  24.104  37.294  1.00  0.00    -0.744 OA
ENDBRANCH  86  89
ENDBRANCH  59  82
ENDBRANCH  33  34
ENDBRANCH  26  28
ENDBRANCH  25  26
ENDBRANCH  24  25
ENDBRANCH   1  24
TORSDOF 19
ENDMDL
MODEL 2
REMARK VINA RESULT:     -11.1      4.754     10.145
REMARK SMILES Cc1csc(NC(=O)[C@@H]2CC=CC[C@H]2C(=O)OCCOCCOC(=O)c2ccc(-c3c4nc(c(-c5cccc(S(=O)(=O)[O-])c5F)c5ccc([nH]5)c(-c5cccc(S(=O)(=O)[O-])c5F)c5nc(c(-c6cccc(S(=O)(=O)[O-])c6F)c6ccc3[nH]6)C=C5)C=C4)cc2)n1
REMARK SMILES IDX 21 1 20 2 19 3 18 4 17 5 15 6 16 7 14 8 9 9 10 10 11 11
REMARK SMILES IDX 13 12 12 13 7 14 6 15 8 17 5 18 1 19 2 20 3 21 89 22 4 23
REMARK SMILES IDX 22 24 23 25 24 26 25 27 26 28 27 29 88 30 28 31 87 32 29 33
REMARK SMILES IDX 30 34 31 35 81 36 32 37 86 38 80 39 82 40 33 41 85 42 79 43
REMARK SMILES IDX 78 44 34 46 66 47 46 48 65 49 47 50 50 51 64 52 83 53 48 54
REMARK SMILES IDX 49 55 63 57 84 58 51 59 35 60 36 61 44 62 37 63 39 64 45 65
REMARK SMILES IDX 38 66 40 67 41 68 42 69 43 70 67 71 68 72 76 73 69 74 71 75
REMARK SMILES IDX 77 76 70 77 72 78 73 79 74 80 75 81 52 82 53 83 61 84 54 85
REMARK SMILES IDX 56 86 62 87 55 88 57 89 58 90 59 91 60 92
REMARK H PARENT 6 16 82 45 50 56
REMARK Flexibility Score: inf
ROOT
ATOM      1  C   UNL A   1      35.829  20.599  24.978  1.00  0.00     0.202 C 
ENDROOT
BRANCH   1   2
ATOM      2  O   UNL A   1      35.411  21.641  25.853  1.00  0.00    -0.374 OA
BRANCH   2   3
ATOM      3  C   UNL A   1      34.731  22.746  25.257  1.00  0.00     0.202 C 
BRANCH   3   4
ATOM      4  C   UNL A   1      33.201  22.767  25.317  1.00  0.00     0.261 C 
BRANCH   4   5
ATOM      5  O   UNL A   1      32.626  24.083  25.170  1.00  0.00    -0.463 OA
BRANCH   5   6
ATOM      6  C   UNL A   1      32.020  24.322  23.971  1.00  0.00     0.310 C 
ATOM      7  O   UNL A   1      32.125  23.607  22.980  1.00  0.00    -0.252 OA
BRANCH   6   8
ATOM      8  C   UNL A   1      31.362  25.690  23.918  1.00  0.00     0.116 C 
ATOM      9  C   UNL A   1      31.628  26.560  22.652  1.00  0.00     0.097 C 
ATOM     10  C   UNL A   1      30.671  27.758  22.662  1.00  0.00     0.041 C 
ATOM     11  C   UNL A   1      29.305  27.586  23.235  1.00  0.00    -0.030 C 
ATOM     12  C   UNL A   1      29.876  25.390  24.202  1.00  0.00     0.043 C 
ATOM     13  C   UNL A   1      28.942  26.516  23.940  1.00  0.00    -0.030 C 
BRANCH   9  14
ATOM     14  C   UNL A   1      33.136  26.950  22.577  1.00  0.00     0.230 C 
ATOM     15  N   UNL A   1      33.751  28.006  23.178  1.00  0.00    -0.302 N 
ATOM     16  H   UNL A   1      34.411  28.483  22.624  1.00  0.00     0.172 HD
ATOM     17  O   UNL A   1      33.876  26.343  21.788  1.00  0.00    -0.274 OA
BRANCH  15  18
ATOM     18  C   UNL A   1      33.583  28.494  24.440  1.00  0.00     0.189 A 
ATOM     19  C   UNL A   1      31.956  30.720  26.704  1.00  0.00     0.068 C 
ATOM     20  C   UNL A   1      32.743  29.581  26.172  1.00  0.00     0.051 A 
ATOM     21  C   UNL A   1      33.194  28.451  26.825  1.00  0.00     0.092 A 
ATOM     22  N   UNL A   1      33.030  29.602  24.827  1.00  0.00    -0.225 NA
ATOM     23  S   UNL A   1      33.970  27.400  25.698  1.00  0.00    -0.105 S 
ENDBRANCH  15  18
ENDBRANCH   9  14
ENDBRANCH   6   8
ENDBRANCH   5   6
ENDBRANCH   4   5
ENDBRANCH   3   4
ENDBRANCH   2   3
ENDBRANCH   1   2
BRANCH   1  24
ATOM     24  C   UNL A   1      37.311  20.212  24.997  1.00  0.00     0.261 C 
BRANCH  24  25
ATOM     25  O   UNL A   1      38.188  21.339  25.155  1.00  0.00    -0.460 OA
BRANCH  25  26
ATOM     26  C   UNL A   1      39.237  21.108  25.983  1.00  0.00     0.338 C 
ATOM     27  O   UNL A   1      39.879  20.077  26.088  1.00  0.00    -0.246 OA
BRANCH  26  28
ATOM     28  C   UNL A   1      39.634  22.354  26.668  1.00  0.00     0.060 A 
ATOM     29  C   UNL A   1      38.996  23.534  26.265  1.00  0.00     0.016 A 
ATOM     30  C   UNL A   1      40.658  22.386  27.617  1.00  0.00     0.016 A 
ATOM     31  C   UNL A   1      39.426  24.762  26.761  1.00  0.00     0.010 A 
ATOM     32  C   UNL A   1      41.092  23.621  28.109  1.00  0.00     0.010 A 
ATOM     33  C   UNL A   1      40.507  24.814  27.649  1.00  0.00    -0.014 A 
BRANCH  33  34
ATOM     34  C   UNL A   1      41.119  26.126  27.964  1.00  0.00     0.031 A 
ATOM     35  C   UNL A   1      42.517  26.410  27.484  1.00  0.00     0.074 A 
ATOM     36  C   UNL A   1      40.430  27.056  28.647  1.00  0.00     0.049 A 
ATOM     37  N   UNL A   1      43.235  27.494  27.622  1.00  0.00    -0.248 NA
ATOM     38  C   UNL A   1      43.197  25.328  26.751  1.00  0.00     0.031 C 
ATOM     39  C   UNL A   1      39.071  26.890  29.160  1.00  0.00     0.029 A 
ATOM     40  N   UNL A   1      40.787  28.322  29.039  1.00  0.00    -0.354 N 
ATOM     41  C   UNL A   1      44.457  27.217  27.022  1.00  0.00     0.074 A 
ATOM     42  C   UNL A   1      44.390  25.859  26.528  1.00  0.00     0.031 C 
ATOM     43  C   UNL A   1      38.716  28.006  29.821  1.00  0.00     0.029 A 
ATOM     44  C   UNL A   1      39.826  28.956  29.789  1.00  0.00     0.049 A 
ATOM     45  H   UNL A   1      41.650  28.734  28.806  1.00  0.00     0.167 HD
ATOM     46  C   UNL A   1      45.533  28.027  26.878  1.00  0.00     0.034 A 
ATOM     47  C   UNL A   1      39.847  30.163  30.389  1.00  0.00     0.034 A 
ATOM     48  C   UNL A   1      45.584  29.384  27.350  1.00  0.00     0.049 A 
ATOM     49  C   UNL A   1      41.060  31.041  30.221  1.00  0.00     0.074 A 
ATOM     50  C   UNL A   1      46.602  30.308  27.203  1.00  0.00     0.029 A 
ATOM     51  N   UNL A   1      44.575  30.007  28.069  1.00  0.00    -0.354 N 
ATOM     52  N   UNL A   1      42.156  30.815  29.536  1.00  0.00    -0.248 NA
ATOM     53  C   UNL A   1      41.025  32.355  30.878  1.00  0.00     0.031 C 
ATOM     54  C   UNL A   1      46.221  31.484  27.859  1.00  0.00     0.029 A 
ATOM     55  C   UNL A   1      44.953  31.300  28.389  1.00  0.00     0.049 A 
ATOM     56  H   UNL A   1      43.719  29.592  28.316  1.00  0.00     0.167 HD
ATOM     57  C   UNL A   1      42.924  31.968  29.651  1.00  0.00     0.074 A 
ATOM     58  C   UNL A   1      42.158  32.899  30.454  1.00  0.00     0.031 C 
ATOM     59  C   UNL A   1      44.156  32.230  29.147  1.00  0.00     0.034 A 
BRANCH  46  60
ATOM     60  C   UNL A   1      46.736  27.472  26.161  1.00  0.00     0.023 A 
ATOM     61  C   UNL A   1      46.866  27.659  24.770  1.00  0.00     0.012 A 
ATOM     62  C   UNL A   1      47.758  26.810  26.868  1.00  0.00     0.148 A 
ATOM     63  C   UNL A   1      47.980  27.170  24.089  1.00  0.00     0.002 A 
ATOM     64  C   UNL A   1      48.884  26.360  26.189  1.00  0.00     0.091 A 
ATOM     65  F   UNL A   1      47.604  26.619  28.185  1.00  0.00    -0.205 F 
ATOM     66  C   UNL A   1      48.993  26.529  24.799  1.00  0.00     0.022 A 
BRANCH  64  67
ATOM     67  S   UNL A   1      50.274  25.589  27.026  1.00  0.00     0.127 S 
ATOM     68  O   UNL A   1      50.623  26.605  28.017  1.00  0.00    -0.237 OA
ATOM     69  O   UNL A   1      49.668  24.378  27.580  1.00  0.00    -0.237 OA
ATOM     70  O   UNL A   1      51.278  25.346  25.998  1.00  0.00    -0.744 OA
ENDBRANCH  64  67
ENDBRANCH  46  60
BRANCH  47  71
ATOM     71  C   UNL A   1      38.661  30.630  31.162  1.00  0.00     0.023 A 
ATOM     72  C   UNL A   1      38.615  30.426  32.555  1.00  0.00     0.012 A 
ATOM     73  C   UNL A   1      37.595  31.299  30.531  1.00  0.00     0.148 A 
ATOM     74  C   UNL A   1      37.518  30.856  33.300  1.00  0.00     0.002 A 
ATOM     75  C   UNL A   1      36.529  31.774  31.287  1.00  0.00     0.091 A 
ATOM     76  F   UNL A   1      37.647  31.467  29.201  1.00  0.00    -0.205 F 
ATOM     77  C   UNL A   1      36.480  31.539  32.670  1.00  0.00     0.022 A 
BRANCH  75  78
ATOM     78  S   UNL A   1      35.216  32.774  30.578  1.00  0.00     0.127 S 
ATOM     79  O   UNL A   1      34.303  32.915  31.709  1.00  0.00    -0.237 OA
ATOM     80  O   UNL A   1      35.933  33.995  30.207  1.00  0.00    -0.237 OA
ATOM     81  O   UNL A   1      34.710  32.010  29.445  1.00  0.00    -0.744 OA
ENDBRANCH  75  78
ENDBRANCH  47  71
BRANCH  59  82
ATOM     82  C   UNL A   1      44.749  33.587  29.422  1.00  0.00     0.023 A 
ATOM     83  C   UNL A   1      45.561  33.779  30.555  1.00  0.00     0.012 A 
ATOM     84  C   UNL A   1      44.568  34.649  28.512  1.00  0.00     0.148 A 
ATOM     85  C   UNL A   1      46.161  35.015  30.796  1.00  0.00     0.002 A 
ATOM     86  C   UNL A   1      45.208  35.862  28.733  1.00  0.00     0.091 A 
ATOM     87  F   UNL A   1      43.776  34.451  27.447  1.00  0.00    -0.205 F 
ATOM     88  C   UNL A   1      45.995  36.051  29.880  1.00  0.00     0.022 A 
BRANCH  86  89
ATOM     89  S   UNL A   1      45.129  37.218  27.557  1.00  0.00     0.127 S 
ATOM     90  O   UNL A   1      45.714  36.613  26.363  1.00  0.00    -0.237 OA
ATOM     91  O   UNL A   1      43.691  37.473  27.471  1.00  0.00    -0.237 OA
ATOM     92  O   UNL A   1      45.897  38.306  28.149  1.00  0.00    -0.744 OA
ENDBRANCH  86  89
ENDBRANCH  59  82
ENDBRANCH  33  34
ENDBRANCH  26  28
ENDBRANCH  25  26
ENDBRANCH  24  25
ENDBRANCH   1  24
TORSDOF 19
ENDMDL
MODEL 3
REMARK VINA RESULT:     -11.1      4.890     10.257
REMARK SMILES Cc1csc(NC(=O)[C@@H]2CC=CC[C@H]2C(=O)OCCOCCOC(=O)c2ccc(-c3c4nc(c(-c5cccc(S(=O)(=O)[O-])c5F)c5ccc([nH]5)c(-c5cccc(S(=O)(=O)[O-])c5F)c5nc(c(-c6cccc(S(=O)(=O)[O-])c6F)c6ccc3[nH]6)C=C5)C=C4)cc2)n1
REMARK SMILES IDX 21 1 20 2 19 3 18 4 17 5 15 6 16 7 14 8 9 9 10 10 11 11
REMARK SMILES IDX 13 12 12 13 7 14 6 15 8 17 5 18 1 19 2 20 3 21 89 22 4 23
REMARK SMILES IDX 22 24 23 25 24 26 25 27 26 28 27 29 88 30 28 31 87 32 29 33
REMARK SMILES IDX 30 34 31 35 81 36 32 37 86 38 80 39 82 40 33 41 85 42 79 43
REMARK SMILES IDX 78 44 34 46 66 47 46 48 65 49 47 50 50 51 64 52 83 53 48 54
REMARK SMILES IDX 49 55 63 57 84 58 51 59 35 60 36 61 44 62 37 63 39 64 45 65
REMARK SMILES IDX 38 66 40 67 41 68 42 69 43 70 67 71 68 72 76 73 69 74 71 75
REMARK SMILES IDX 77 76 70 77 72 78 73 79 74 80 75 81 52 82 53 83 61 84 54 85
REMARK SMILES IDX 56 86 62 87 55 88 57 89 58 90 59 91 60 92
REMARK H PARENT 6 16 82 45 50 56
REMARK Flexibility Score: inf
ROOT
ATOM      1  C   UNL A   1      35.531  20.867  25.044  1.00  0.00     0.202 C 
ENDROOT
BRANCH   1   2
ATOM      2  O   UNL A   1      35.277  22.231  25.366  1.00  0.00    -0.374 OA
BRANCH   2   3
ATOM      3  C   UNL A   1      34.803  23.062  24.308  1.00  0.00     0.202 C 
BRANCH   3   4
ATOM      4  C   UNL A   1      33.541  23.895  24.555  1.00  0.00     0.261 C 
BRANCH   4   5
ATOM      5  O   UNL A   1      33.802  25.220  25.064  1.00  0.00    -0.463 OA
BRANCH   5   6
ATOM      6  C   UNL A   1      33.538  26.239  24.197  1.00  0.00     0.310 C 
ATOM      7  O   UNL A   1      33.631  26.160  22.976  1.00  0.00    -0.252 OA
BRANCH   6   8
ATOM      8  C   UNL A   1      33.314  27.562  24.908  1.00  0.00     0.116 C 
ATOM      9  C   UNL A   1      32.034  28.367  24.530  1.00  0.00     0.097 C 
ATOM     10  C   UNL A   1      31.848  29.507  25.537  1.00  0.00     0.041 C 
ATOM     11  C   UNL A   1      32.263  29.295  26.954  1.00  0.00    -0.030 C 
ATOM     12  C   UNL A   1      33.438  27.197  26.401  1.00  0.00     0.043 C 
ATOM     13  C   UNL A   1      32.990  28.252  27.349  1.00  0.00    -0.030 C 
BRANCH   9  14
ATOM     14  C   UNL A   1      32.113  28.835  23.045  1.00  0.00     0.230 C 
ATOM     15  N   UNL A   1      31.150  28.726  22.088  1.00  0.00    -0.302 N 
ATOM     16  H   UNL A   1      31.467  28.455  21.196  1.00  0.00     0.172 HD
ATOM     17  O   UNL A   1      33.198  29.236  22.596  1.00  0.00    -0.274 OA
BRANCH  15  18
ATOM     18  C   UNL A   1      29.807  28.943  22.192  1.00  0.00     0.189 A 
ATOM     19  C   UNL A   1      26.657  28.176  23.682  1.00  0.00     0.068 C 
ATOM     20  C   UNL A   1      27.727  28.884  22.936  1.00  0.00     0.051 A 
ATOM     21  C   UNL A   1      27.753  30.185  22.473  1.00  0.00     0.092 A 
ATOM     22  N   UNL A   1      28.889  28.185  22.710  1.00  0.00    -0.225 NA
ATOM     23  S   UNL A   1      29.291  30.517  21.765  1.00  0.00    -0.105 S 
ENDBRANCH  15  18
ENDBRANCH   9  14
ENDBRANCH   6   8
ENDBRANCH   5   6
ENDBRANCH   4   5
ENDBRANCH   3   4
ENDBRANCH   2   3
ENDBRANCH   1   2
BRANCH   1  24
ATOM     24  C   UNL A   1      36.991  20.401  25.049  1.00  0.00     0.261 C 
BRANCH  24  25
ATOM     25  O   UNL A   1      37.932  21.486  25.073  1.00  0.00    -0.460 OA
BRANCH  25  26
ATOM     26  C   UNL A   1      39.018  21.255  25.851  1.00  0.00     0.338 C 
ATOM     27  O   UNL A   1      39.679  20.232  25.908  1.00  0.00    -0.246 OA
BRANCH  26  28
ATOM     28  C   UNL A   1      39.426  22.493  26.544  1.00  0.00     0.060 A 
ATOM     29  C   UNL A   1      38.833  23.688  26.116  1.00  0.00     0.016 A 
ATOM     30  C   UNL A   1      40.420  22.503  27.525  1.00  0.00     0.016 A 
ATOM     31  C   UNL A   1      39.279  24.906  26.620  1.00  0.00     0.010 A 
ATOM     32  C   UNL A   1      40.870  23.728  28.026  1.00  0.00     0.010 A 
ATOM     33  C   UNL A   1      40.333  24.935  27.542  1.00  0.00    -0.014 A 
BRANCH  33  34
ATOM     34  C   UNL A   1      40.969  26.232  27.872  1.00  0.00     0.031 A 
ATOM     35  C   UNL A   1      42.381  26.485  27.417  1.00  0.00     0.074 A 
ATOM     36  C   UNL A   1      40.289  27.175  28.545  1.00  0.00     0.049 A 
ATOM     37  N   UNL A   1      43.121  27.551  27.570  1.00  0.00    -0.248 NA
ATOM     38  C   UNL A   1      43.048  25.389  26.693  1.00  0.00     0.031 C 
ATOM     39  C   UNL A   1      38.918  27.039  29.035  1.00  0.00     0.029 A 
ATOM     40  N   UNL A   1      40.668  28.431  28.947  1.00  0.00    -0.354 N 
ATOM     41  C   UNL A   1      44.346  27.248  26.990  1.00  0.00     0.074 A 
ATOM     42  C   UNL A   1      44.257  25.894  26.492  1.00  0.00     0.031 C 
ATOM     43  C   UNL A   1      38.577  28.161  29.692  1.00  0.00     0.029 A 
ATOM     44  C   UNL A   1      39.708  29.086  29.682  1.00  0.00     0.049 A 
ATOM     45  H   UNL A   1      41.544  28.825  28.730  1.00  0.00     0.167 HD
ATOM     46  C   UNL A   1      45.442  28.034  26.867  1.00  0.00     0.034 A 
ATOM     47  C   UNL A   1      39.747  30.290  30.286  1.00  0.00     0.034 A 
ATOM     48  C   UNL A   1      45.516  29.388  27.344  1.00  0.00     0.049 A 
ATOM     49  C   UNL A   1      40.982  31.141  30.142  1.00  0.00     0.074 A 
ATOM     50  C   UNL A   1      46.557  30.290  27.217  1.00  0.00     0.029 A 
ATOM     51  N   UNL A   1      44.510  30.033  28.047  1.00  0.00    -0.354 N 
ATOM     52  N   UNL A   1      42.084  30.891  29.475  1.00  0.00    -0.248 NA
ATOM     53  C   UNL A   1      40.966  32.454  30.802  1.00  0.00     0.031 C 
ATOM     54  C   UNL A   1      46.191  31.472  27.869  1.00  0.00     0.029 A 
ATOM     55  C   UNL A   1      44.911  31.315  28.377  1.00  0.00     0.049 A 
ATOM     56  H   UNL A   1      43.640  29.637  28.278  1.00  0.00     0.167 HD
ATOM     57  C   UNL A   1      42.876  32.026  29.606  1.00  0.00     0.074 A 
ATOM     58  C   UNL A   1      42.118  32.973  30.399  1.00  0.00     0.031 C 
ATOM     59  C   UNL A   1      44.122  32.261  29.125  1.00  0.00     0.034 A 
BRANCH  46  60
ATOM     60  C   UNL A   1      46.644  27.454  26.169  1.00  0.00     0.023 A 
ATOM     61  C   UNL A   1      46.780  27.602  24.774  1.00  0.00     0.012 A 
ATOM     62  C   UNL A   1      47.662  26.806  26.897  1.00  0.00     0.148 A 
ATOM     63  C   UNL A   1      47.893  27.088  24.110  1.00  0.00     0.002 A 
ATOM     64  C   UNL A   1      48.787  26.332  26.234  1.00  0.00     0.091 A 
ATOM     65  F   UNL A   1      47.502  26.652  28.219  1.00  0.00    -0.205 F 
ATOM     66  C   UNL A   1      48.901  26.463  24.841  1.00  0.00     0.022 A 
BRANCH  64  67
ATOM     67  S   UNL A   1      50.171  25.577  27.096  1.00  0.00     0.127 S 
ATOM     68  O   UNL A   1      49.590  24.309  27.533  1.00  0.00    -0.237 OA
ATOM     69  O   UNL A   1      51.169  25.457  26.034  1.00  0.00    -0.237 OA
ATOM     70  O   UNL A   1      50.531  26.501  28.164  1.00  0.00    -0.744 OA
ENDBRANCH  64  67
ENDBRANCH  46  60
BRANCH  47  71
ATOM     71  C   UNL A   1      38.559  30.782  31.040  1.00  0.00     0.023 A 
ATOM     72  C   UNL A   1      38.509  30.625  32.438  1.00  0.00     0.012 A 
ATOM     73  C   UNL A   1      37.493  31.429  30.384  1.00  0.00     0.148 A 
ATOM     74  C   UNL A   1      37.409  31.079  33.166  1.00  0.00     0.002 A 
ATOM     75  C   UNL A   1      36.426  31.928  31.121  1.00  0.00     0.091 A 
ATOM     76  F   UNL A   1      37.550  31.553  29.050  1.00  0.00    -0.205 F 
ATOM     77  C   UNL A   1      36.373  31.740  32.511  1.00  0.00     0.022 A 
BRANCH  75  78
ATOM     78  S   UNL A   1      35.114  32.904  30.375  1.00  0.00     0.127 S 
ATOM     79  O   UNL A   1      34.289  33.232  31.534  1.00  0.00    -0.237 OA
ATOM     80  O   UNL A   1      35.859  34.029  29.809  1.00  0.00    -0.237 OA
ATOM     81  O   UNL A   1      34.496  32.035  29.383  1.00  0.00    -0.744 OA
ENDBRANCH  75  78
ENDBRANCH  47  71
BRANCH  59  82
ATOM     82  C   UNL A   1      44.741  33.604  29.413  1.00  0.00     0.023 A 
ATOM     83  C   UNL A   1      45.430  33.811  30.623  1.00  0.00     0.012 A 
ATOM     84  C   UNL A   1      44.710  34.633  28.450  1.00  0.00     0.148 A 
ATOM     85  C   UNL A   1      46.053  35.031  30.884  1.00  0.00     0.002 A 
ATOM     86  C   UNL A   1      45.375  35.827  28.696  1.00  0.00     0.091 A 
ATOM     87  F   UNL A   1      44.033  34.422  27.311  1.00  0.00    -0.205 F 
ATOM     88  C   UNL A   1      46.037  36.033  29.916  1.00  0.00     0.022 A 
BRANCH  86  89
ATOM     89  S   UNL A   1      45.487  37.135  27.468  1.00  0.00     0.127 S 
ATOM     90  O   UNL A   1      46.176  36.458  26.372  1.00  0.00    -0.237 OA
ATOM     91  O   UNL A   1      44.081  37.442  27.209  1.00  0.00    -0.237 OA
ATOM     92  O   UNL A   1      46.231  38.216  28.103  1.00  0.00    -0.744 OA
ENDBRANCH  86  89
ENDBRANCH  59  82
ENDBRANCH  33  34
ENDBRANCH  26  28
ENDBRANCH  25  26
ENDBRANCH  24  25
ENDBRANCH   1  24
TORSDOF 19
ENDMDL
