MODEL 1
REMARK VINA RESULT:     -11.8      0.000      0.000
REMARK SMILES O=C(OCCOCCOC(=O)[C@@H](c1ccccc1)[C@H](C(=O)c1ccccc1)c1ccccc1)c1ccc(-c2c3nc(c(-c4cccc(S(=O)(=O)[O-])c4F)c4ccc([nH]4)c(-c4cccc(S(=O)(=O)[O-])c4F)c4nc(c(-c5cccc(S(=O)(=O)[O-])c5F)c5ccc2[nH]5)C=C4)C=C3)cc1
REMARK SMILES IDX 6 1 5 2 4 3 3 4 2 5 1 6 34 7 35 8 96 9 36 10 95 11 37 12
REMARK SMILES IDX 38 13 39 14 89 15 40 16 94 17 88 18 90 19 41 20 93 21 87 22
REMARK SMILES IDX 86 23 42 25 74 26 54 27 73 28 55 29 58 30 72 31 91 32 56 33
REMARK SMILES IDX 57 34 71 36 92 37 59 38 43 39 44 40 52 41 45 42 47 43 53 44
REMARK SMILES IDX 46 45 48 46 49 47 50 48 51 49 75 50 76 51 84 52 77 53 79 54
REMARK SMILES IDX 85 55 78 56 80 57 81 58 82 59 83 60 60 61 61 62 69 63 62 64
REMARK SMILES IDX 64 65 70 66 63 67 65 68 66 69 67 70 68 71 7 72 8 73 9 74
REMARK SMILES IDX 10 75 11 76 12 77 13 78 14 79 18 80 15 81 17 82 16 83 19 84
REMARK SMILES IDX 28 85 29 86 33 87 30 88 32 89 31 90 20 91 21 92 22 93 23 94
REMARK SMILES IDX 27 95 24 96 26 97 25 98
REMARK H PARENT 90 24 58 35
REMARK Flexibility Score: inf
ROOT
ATOM      1  O   UNL A   1      34.308  20.961  25.896  1.00  0.00    -0.374 OA
ENDROOT
BRANCH   1   2
ATOM      2  C   UNL A   1      35.238  21.278  24.880  1.00  0.00     0.202 C 
BRANCH   2   3
ATOM      3  C   UNL A   1      36.691  20.872  25.100  1.00  0.00     0.261 C 
BRANCH   3   4
ATOM      4  O   UNL A   1      37.480  21.961  25.609  1.00  0.00    -0.460 OA
BRANCH   4   5
ATOM      5  C   UNL A   1      38.785  21.878  25.984  1.00  0.00     0.338 C 
ATOM      6  O   UNL A   1      39.397  20.824  25.848  1.00  0.00    -0.246 OA
BRANCH   5   7
ATOM      7  C   UNL A   1      39.482  23.053  26.568  1.00  0.00     0.060 A 
ATOM      8  C   UNL A   1      39.207  24.359  26.172  1.00  0.00     0.016 A 
ATOM      9  C   UNL A   1      40.395  22.860  27.600  1.00  0.00     0.016 A 
ATOM     10  C   UNL A   1      39.892  25.443  26.637  1.00  0.00     0.010 A 
ATOM     11  C   UNL A   1      41.032  23.966  28.170  1.00  0.00     0.010 A 
ATOM     12  C   UNL A   1      40.783  25.252  27.666  1.00  0.00    -0.014 A 
BRANCH  12  13
ATOM     13  C   UNL A   1      41.514  26.445  28.078  1.00  0.00     0.031 A 
ATOM     14  C   UNL A   1      40.783  27.417  28.931  1.00  0.00     0.074 A 
ATOM     15  C   UNL A   1      42.830  26.534  27.812  1.00  0.00     0.049 A 
ATOM     16  N   UNL A   1      41.127  28.619  29.275  1.00  0.00    -0.248 NA
ATOM     17  C   UNL A   1      39.482  26.974  29.473  1.00  0.00     0.031 C 
ATOM     18  C   UNL A   1      43.637  25.497  27.151  1.00  0.00     0.029 A 
ATOM     19  N   UNL A   1      43.724  27.531  28.069  1.00  0.00    -0.354 N 
ATOM     20  C   UNL A   1      40.036  29.122  29.968  1.00  0.00     0.074 A 
ATOM     21  C   UNL A   1      39.046  28.077  30.057  1.00  0.00     0.031 C 
ATOM     22  C   UNL A   1      44.902  25.926  27.039  1.00  0.00     0.029 A 
ATOM     23  C   UNL A   1      44.959  27.300  27.511  1.00  0.00     0.049 A 
ATOM     24  H   UNL A   1      43.506  28.332  28.599  1.00  0.00     0.167 HD
ATOM     25  C   UNL A   1      39.890  30.377  30.438  1.00  0.00     0.034 A 
ATOM     26  C   UNL A   1      45.979  28.154  27.323  1.00  0.00     0.034 A 
ATOM     27  C   UNL A   1      40.930  31.356  30.322  1.00  0.00     0.049 A 
ATOM     28  C   UNL A   1      45.765  29.563  27.801  1.00  0.00     0.074 A 
ATOM     29  C   UNL A   1      40.924  32.677  30.715  1.00  0.00     0.029 A 
ATOM     30  N   UNL A   1      42.172  31.105  29.746  1.00  0.00    -0.354 N 
ATOM     31  N   UNL A   1      44.725  30.068  28.428  1.00  0.00    -0.248 NA
ATOM     32  C   UNL A   1      46.843  30.521  27.548  1.00  0.00     0.031 C 
ATOM     33  C   UNL A   1      42.152  33.234  30.340  1.00  0.00     0.029 A 
ATOM     34  C   UNL A   1      42.939  32.249  29.756  1.00  0.00     0.049 A 
ATOM     35  H   UNL A   1      42.460  30.236  29.384  1.00  0.00     0.167 HD
ATOM     36  C   UNL A   1      45.032  31.398  28.666  1.00  0.00     0.074 A 
ATOM     37  C   UNL A   1      46.368  31.610  28.136  1.00  0.00     0.031 C 
ATOM     38  C   UNL A   1      44.285  32.368  29.250  1.00  0.00     0.034 A 
BRANCH  25  39
ATOM     39  C   UNL A   1      38.549  30.745  30.999  1.00  0.00     0.023 A 
ATOM     40  C   UNL A   1      38.133  30.266  32.257  1.00  0.00     0.012 A 
ATOM     41  C   UNL A   1      37.672  31.543  30.238  1.00  0.00     0.148 A 
ATOM     42  C   UNL A   1      36.851  30.546  32.731  1.00  0.00     0.002 A 
ATOM     43  C   UNL A   1      36.418  31.859  30.738  1.00  0.00     0.091 A 
ATOM     44  F   UNL A   1      38.073  31.950  29.025  1.00  0.00    -0.205 F 
ATOM     45  C   UNL A   1      35.998  31.349  31.977  1.00  0.00     0.022 A 
BRANCH  43  46
ATOM     46  S   UNL A   1      35.272  32.934  29.870  1.00  0.00     0.127 S 
ATOM     47  O   UNL A   1      34.411  31.965  29.194  1.00  0.00    -0.237 OA
ATOM     48  O   UNL A   1      34.636  33.651  30.974  1.00  0.00    -0.237 OA
ATOM     49  O   UNL A   1      36.083  33.762  28.987  1.00  0.00    -0.744 OA
ENDBRANCH  43  46
ENDBRANCH  25  39
BRANCH  26  50
ATOM     50  C   UNL A   1      47.215  27.728  26.609  1.00  0.00     0.023 A 
ATOM     51  C   UNL A   1      48.278  27.155  27.333  1.00  0.00     0.012 A 
ATOM     52  C   UNL A   1      47.344  27.871  25.210  1.00  0.00     0.148 A 
ATOM     53  C   UNL A   1      49.454  26.770  26.688  1.00  0.00     0.002 A 
ATOM     54  C   UNL A   1      48.495  27.432  24.566  1.00  0.00     0.091 A 
ATOM     55  F   UNL A   1      46.332  28.431  24.532  1.00  0.00    -0.205 F 
ATOM     56  C   UNL A   1      49.560  26.899  25.305  1.00  0.00     0.022 A 
BRANCH  54  57
ATOM     57  S   UNL A   1      48.663  27.444  22.777  1.00  0.00     0.127 S 
ATOM     58  O   UNL A   1      49.965  28.085  22.604  1.00  0.00    -0.237 OA
ATOM     59  O   UNL A   1      48.633  26.016  22.460  1.00  0.00    -0.237 OA
ATOM     60  O   UNL A   1      47.517  28.192  22.279  1.00  0.00    -0.744 OA
ENDBRANCH  54  57
ENDBRANCH  26  50
BRANCH  38  61
ATOM     61  C   UNL A   1      44.922  33.719  29.386  1.00  0.00     0.023 A 
ATOM     62  C   UNL A   1      45.661  34.034  30.540  1.00  0.00     0.012 A 
ATOM     63  C   UNL A   1      44.875  34.622  28.308  1.00  0.00     0.148 A 
ATOM     64  C   UNL A   1      46.334  35.250  30.627  1.00  0.00     0.002 A 
ATOM     65  C   UNL A   1      45.597  35.801  28.378  1.00  0.00     0.091 A 
ATOM     66  F   UNL A   1      44.145  34.295  27.232  1.00  0.00    -0.205 F 
ATOM     67  C   UNL A   1      46.315  36.124  29.541  1.00  0.00     0.022 A 
BRANCH  65  68
ATOM     68  S   UNL A   1      45.730  36.922  26.984  1.00  0.00     0.127 S 
ATOM     69  O   UNL A   1      44.354  37.398  26.854  1.00  0.00    -0.237 OA
ATOM     70  O   UNL A   1      46.678  37.918  27.482  1.00  0.00    -0.237 OA
ATOM     71  O   UNL A   1      46.219  36.124  25.867  1.00  0.00    -0.744 OA
ENDBRANCH  65  68
ENDBRANCH  38  61
ENDBRANCH  12  13
ENDBRANCH   5   7
ENDBRANCH   4   5
ENDBRANCH   3   4
ENDBRANCH   2   3
ENDBRANCH   1   2
BRANCH   1  72
ATOM     72  C   UNL A   1      34.360  21.633  27.151  1.00  0.00     0.202 C 
BRANCH  72  73
ATOM     73  C   UNL A   1      32.920  21.800  27.591  1.00  0.00     0.261 C 
BRANCH  73  74
ATOM     74  O   UNL A   1      32.736  23.201  27.776  1.00  0.00    -0.463 OA
BRANCH  74  75
ATOM     75  C   UNL A   1      31.669  23.760  27.138  1.00  0.00     0.314 C 
ATOM     76  O   UNL A   1      30.480  23.492  27.280  1.00  0.00    -0.252 OA
BRANCH  75  77
ATOM     77  C   UNL A   1      32.177  24.797  26.181  1.00  0.00     0.144 C 
BRANCH  77  78
ATOM     78  C   UNL A   1      32.511  24.087  24.846  1.00  0.00    -0.033 A 
ATOM     79  C   UNL A   1      31.659  23.087  24.336  1.00  0.00     0.004 A 
ATOM     80  C   UNL A   1      33.603  24.474  24.042  1.00  0.00     0.004 A 
ATOM     81  C   UNL A   1      31.910  22.486  23.093  1.00  0.00     0.000 A 
ATOM     82  C   UNL A   1      33.866  23.859  22.814  1.00  0.00     0.000 A 
ATOM     83  C   UNL A   1      33.019  22.865  22.337  1.00  0.00     0.000 A 
ENDBRANCH  77  78
BRANCH  77  84
ATOM     84  C   UNL A   1      31.269  26.102  26.254  1.00  0.00     0.110 C 
BRANCH  84  85
ATOM     85  C   UNL A   1      32.126  27.329  26.641  1.00  0.00    -0.036 A 
ATOM     86  C   UNL A   1      33.500  27.304  26.312  1.00  0.00     0.004 A 
ATOM     87  C   UNL A   1      31.595  28.543  27.103  1.00  0.00     0.004 A 
ATOM     88  C   UNL A   1      34.267  28.472  26.315  1.00  0.00     0.000 A 
ATOM     89  C   UNL A   1      32.381  29.699  27.163  1.00  0.00     0.000 A 
ATOM     90  C   UNL A   1      33.704  29.671  26.735  1.00  0.00     0.000 A 
ENDBRANCH  84  85
BRANCH  84  91
ATOM     91  C   UNL A   1      30.223  26.316  25.082  1.00  0.00     0.171 C 
ATOM     92  O   UNL A   1      29.158  25.703  24.988  1.00  0.00    -0.293 OA
BRANCH  91  93
ATOM     93  C   UNL A   1      30.481  27.301  23.972  1.00  0.00     0.018 A 
ATOM     94  C   UNL A   1      29.480  28.252  23.686  1.00  0.00     0.012 A 
ATOM     95  C   UNL A   1      31.707  27.381  23.308  1.00  0.00     0.012 A 
ATOM     96  C   UNL A   1      29.734  29.316  22.817  1.00  0.00     0.001 A 
ATOM     97  C   UNL A   1      31.948  28.439  22.421  1.00  0.00     0.001 A 
ATOM     98  C   UNL A   1      30.975  29.415  22.193  1.00  0.00     0.000 A 
ENDBRANCH  91  93
ENDBRANCH  84  91
ENDBRANCH  77  84
ENDBRANCH  75  77
ENDBRANCH  74  75
ENDBRANCH  73  74
ENDBRANCH  72  73
ENDBRANCH   1  72
TORSDOF 22
ENDMDL
MODEL 2
REMARK VINA RESULT:     -11.7      1.548      3.052
REMARK SMILES O=C(OCCOCCOC(=O)[C@@H](c1ccccc1)[C@H](C(=O)c1ccccc1)c1ccccc1)c1ccc(-c2c3nc(c(-c4cccc(S(=O)(=O)[O-])c4F)c4ccc([nH]4)c(-c4cccc(S(=O)(=O)[O-])c4F)c4nc(c(-c5cccc(S(=O)(=O)[O-])c5F)c5ccc2[nH]5)C=C4)C=C3)cc1
REMARK SMILES IDX 6 1 5 2 4 3 3 4 2 5 1 6 34 7 35 8 96 9 36 10 95 11 37 12
REMARK SMILES IDX 38 13 39 14 89 15 40 16 94 17 88 18 90 19 41 20 93 21 87 22
REMARK SMILES IDX 86 23 42 25 74 26 54 27 73 28 55 29 58 30 72 31 91 32 56 33
REMARK SMILES IDX 57 34 71 36 92 37 59 38 43 39 44 40 52 41 45 42 47 43 53 44
REMARK SMILES IDX 46 45 48 46 49 47 50 48 51 49 75 50 76 51 84 52 77 53 79 54
REMARK SMILES IDX 85 55 78 56 80 57 81 58 82 59 83 60 60 61 61 62 69 63 62 64
REMARK SMILES IDX 64 65 70 66 63 67 65 68 66 69 67 70 68 71 7 72 8 73 9 74
REMARK SMILES IDX 10 75 11 76 12 77 13 78 14 79 18 80 15 81 17 82 16 83 19 84
REMARK SMILES IDX 28 85 29 86 33 87 30 88 32 89 31 90 20 91 21 92 22 93 23 94
REMARK SMILES IDX 27 95 24 96 26 97 25 98
REMARK H PARENT 90 24 58 35
REMARK Flexibility Score: inf
ROOT
ATOM      1  O   UNL A   1      34.069  20.762  25.961  1.00  0.00    -0.374 OA
ENDROOT
BRANCH   1   2
ATOM      2  C   UNL A   1      34.920  21.088  24.881  1.00  0.00     0.202 C 
BRANCH   2   3
ATOM      3  C   UNL A   1      36.383  20.671  24.982  1.00  0.00     0.261 C 
BRANCH   3   4
ATOM      4  O   UNL A   1      37.201  21.717  25.534  1.00  0.00    -0.460 OA
BRANCH   4   5
ATOM      5  C   UNL A   1      38.520  21.602  25.842  1.00  0.00     0.338 C 
ATOM      6  O   UNL A   1      39.109  20.544  25.644  1.00  0.00    -0.246 OA
BRANCH   5   7
ATOM      7  C   UNL A   1      39.264  22.748  26.427  1.00  0.00     0.060 A 
ATOM      8  C   UNL A   1      39.016  24.067  26.059  1.00  0.00     0.016 A 
ATOM      9  C   UNL A   1      40.198  22.513  27.432  1.00  0.00     0.016 A 
ATOM     10  C   UNL A   1      39.743  25.124  26.524  1.00  0.00     0.010 A 
ATOM     11  C   UNL A   1      40.879  23.591  28.003  1.00  0.00     0.010 A 
ATOM     12  C   UNL A   1      40.654  24.892  27.527  1.00  0.00    -0.014 A 
BRANCH  12  13
ATOM     13  C   UNL A   1      41.428  26.057  27.939  1.00  0.00     0.031 A 
ATOM     14  C   UNL A   1      40.737  27.047  28.804  1.00  0.00     0.074 A 
ATOM     15  C   UNL A   1      42.743  26.104  27.661  1.00  0.00     0.049 A 
ATOM     16  N   UNL A   1      41.124  28.235  29.152  1.00  0.00    -0.248 NA
ATOM     17  C   UNL A   1      39.426  26.645  29.355  1.00  0.00     0.031 C 
ATOM     18  C   UNL A   1      43.510  25.044  26.988  1.00  0.00     0.029 A 
ATOM     19  N   UNL A   1      43.672  27.068  27.917  1.00  0.00    -0.354 N 
ATOM     20  C   UNL A   1      40.057  28.771  29.857  1.00  0.00     0.074 A 
ATOM     21  C   UNL A   1      39.033  27.759  29.949  1.00  0.00     0.031 C 
ATOM     22  C   UNL A   1      44.787  25.431  26.867  1.00  0.00     0.029 A 
ATOM     23  C   UNL A   1      44.894  26.800  27.346  1.00  0.00     0.049 A 
ATOM     24  H   UNL A   1      43.486  27.874  28.453  1.00  0.00     0.167 HD
ATOM     25  C   UNL A   1      39.956  30.027  30.336  1.00  0.00     0.034 A 
ATOM     26  C   UNL A   1      45.940  27.621  27.154  1.00  0.00     0.034 A 
ATOM     27  C   UNL A   1      41.028  30.971  30.216  1.00  0.00     0.049 A 
ATOM     28  C   UNL A   1      45.778  29.034  27.641  1.00  0.00     0.074 A 
ATOM     29  C   UNL A   1      41.070  32.289  30.617  1.00  0.00     0.029 A 
ATOM     30  N   UNL A   1      42.255  30.682  29.627  1.00  0.00    -0.354 N 
ATOM     31  N   UNL A   1      44.761  29.569  28.281  1.00  0.00    -0.248 NA
ATOM     32  C   UNL A   1      46.885  29.956  27.384  1.00  0.00     0.031 C 
ATOM     33  C   UNL A   1      42.312  32.807  30.234  1.00  0.00     0.029 A 
ATOM     34  C   UNL A   1      43.060  31.800  29.638  1.00  0.00     0.049 A 
ATOM     35  H   UNL A   1      42.511  29.806  29.258  1.00  0.00     0.167 HD
ATOM     36  C   UNL A   1      45.114  30.886  28.524  1.00  0.00     0.074 A 
ATOM     37  C   UNL A   1      46.452  31.057  27.983  1.00  0.00     0.031 C 
ATOM     38  C   UNL A   1      44.405  31.878  29.120  1.00  0.00     0.034 A 
BRANCH  25  39
ATOM     39  C   UNL A   1      38.633  30.436  30.911  1.00  0.00     0.023 A 
ATOM     40  C   UNL A   1      38.282  30.096  32.232  1.00  0.00     0.012 A 
ATOM     41  C   UNL A   1      37.710  31.130  30.104  1.00  0.00     0.148 A 
ATOM     42  C   UNL A   1      37.015  30.409  32.728  1.00  0.00     0.002 A 
ATOM     43  C   UNL A   1      36.472  31.482  30.621  1.00  0.00     0.091 A 
ATOM     44  F   UNL A   1      38.050  31.402  28.837  1.00  0.00    -0.205 F 
ATOM     45  C   UNL A   1      36.115  31.109  31.927  1.00  0.00     0.022 A 
BRANCH  43  46
ATOM     46  S   UNL A   1      35.269  32.434  29.689  1.00  0.00     0.127 S 
ATOM     47  O   UNL A   1      34.260  32.716  30.709  1.00  0.00    -0.237 OA
ATOM     48  O   UNL A   1      36.059  33.592  29.274  1.00  0.00    -0.237 OA
ATOM     49  O   UNL A   1      34.825  31.573  28.602  1.00  0.00    -0.744 OA
ENDBRANCH  43  46
ENDBRANCH  25  39
BRANCH  26  50
ATOM     50  C   UNL A   1      47.156  27.158  26.426  1.00  0.00     0.023 A 
ATOM     51  C   UNL A   1      47.280  27.405  25.046  1.00  0.00     0.012 A 
ATOM     52  C   UNL A   1      48.202  26.484  27.094  1.00  0.00     0.148 A 
ATOM     53  C   UNL A   1      48.399  26.961  24.340  1.00  0.00     0.002 A 
ATOM     54  C   UNL A   1      49.340  26.096  26.396  1.00  0.00     0.091 A 
ATOM     55  F   UNL A   1      48.067  26.241  28.405  1.00  0.00    -0.205 F 
ATOM     56  C   UNL A   1      49.432  26.315  25.015  1.00  0.00     0.022 A 
BRANCH  54  57
ATOM     57  S   UNL A   1      50.770  25.372  27.209  1.00  0.00     0.127 S 
ATOM     58  O   UNL A   1      51.186  26.453  28.099  1.00  0.00    -0.237 OA
ATOM     59  O   UNL A   1      50.182  24.213  27.881  1.00  0.00    -0.237 OA
ATOM     60  O   UNL A   1      51.701  25.035  26.141  1.00  0.00    -0.744 OA
ENDBRANCH  54  57
ENDBRANCH  26  50
BRANCH  38  61
ATOM     61  C   UNL A   1      45.088  33.205  29.258  1.00  0.00     0.023 A 
ATOM     62  C   UNL A   1      45.940  33.447  30.351  1.00  0.00     0.012 A 
ATOM     63  C   UNL A   1      44.965  34.160  28.232  1.00  0.00     0.148 A 
ATOM     64  C   UNL A   1      46.650  34.642  30.430  1.00  0.00     0.002 A 
ATOM     65  C   UNL A   1      45.722  35.318  28.289  1.00  0.00     0.091 A 
ATOM     66  F   UNL A   1      44.130  33.903  27.215  1.00  0.00    -0.205 F 
ATOM     67  C   UNL A   1      46.554  35.568  29.392  1.00  0.00     0.022 A 
BRANCH  65  68
ATOM     68  S   UNL A   1      45.755  36.503  26.942  1.00  0.00     0.127 S 
ATOM     69  O   UNL A   1      44.331  36.759  26.737  1.00  0.00    -0.237 OA
ATOM     70  O   UNL A   1      46.500  37.615  27.531  1.00  0.00    -0.237 OA
ATOM     71  O   UNL A   1      46.433  35.839  25.835  1.00  0.00    -0.744 OA
ENDBRANCH  65  68
ENDBRANCH  38  61
ENDBRANCH  12  13
ENDBRANCH   5   7
ENDBRANCH   4   5
ENDBRANCH   3   4
ENDBRANCH   2   3
ENDBRANCH   1   2
BRANCH   1  72
ATOM     72  C   UNL A   1      34.060  21.569  27.135  1.00  0.00     0.202 C 
BRANCH  72  73
ATOM     73  C   UNL A   1      33.165  22.751  26.818  1.00  0.00     0.261 C 
BRANCH  73  74
ATOM     74  O   UNL A   1      33.987  23.905  26.970  1.00  0.00    -0.463 OA
BRANCH  74  75
ATOM     75  C   UNL A   1      34.400  24.508  25.819  1.00  0.00     0.314 C 
ATOM     76  O   UNL A   1      35.522  24.498  25.323  1.00  0.00    -0.252 OA
BRANCH  75  77
ATOM     77  C   UNL A   1      33.233  25.232  25.216  1.00  0.00     0.144 C 
BRANCH  77  78
ATOM     78  C   UNL A   1      33.027  26.545  26.012  1.00  0.00    -0.033 A 
ATOM     79  C   UNL A   1      34.036  27.527  26.042  1.00  0.00     0.004 A 
ATOM     80  C   UNL A   1      31.805  26.857  26.643  1.00  0.00     0.004 A 
ATOM     81  C   UNL A   1      33.835  28.752  26.699  1.00  0.00     0.000 A 
ATOM     82  C   UNL A   1      31.613  28.068  27.317  1.00  0.00     0.000 A 
ATOM     83  C   UNL A   1      32.628  29.017  27.345  1.00  0.00     0.000 A 
ENDBRANCH  77  78
BRANCH  77  84
ATOM     84  C   UNL A   1      33.328  25.199  23.628  1.00  0.00     0.110 C 
BRANCH  84  85
ATOM     85  C   UNL A   1      32.674  23.910  23.080  1.00  0.00    -0.036 A 
ATOM     86  C   UNL A   1      33.041  23.485  21.783  1.00  0.00     0.004 A 
ATOM     87  C   UNL A   1      31.909  23.027  23.856  1.00  0.00     0.004 A 
ATOM     88  C   UNL A   1      32.771  22.187  21.343  1.00  0.00     0.000 A 
ATOM     89  C   UNL A   1      31.588  21.747  23.389  1.00  0.00     0.000 A 
ATOM     90  C   UNL A   1      32.050  21.315  22.151  1.00  0.00     0.000 A 
ENDBRANCH  84  85
BRANCH  84  91
ATOM     91  C   UNL A   1      32.986  26.543  22.860  1.00  0.00     0.171 C 
ATOM     92  O   UNL A   1      33.709  27.047  21.997  1.00  0.00    -0.293 OA
BRANCH  91  93
ATOM     93  C   UNL A   1      31.728  27.316  23.154  1.00  0.00     0.018 A 
ATOM     94  C   UNL A   1      31.829  28.716  23.292  1.00  0.00     0.012 A 
ATOM     95  C   UNL A   1      30.467  26.718  23.175  1.00  0.00     0.012 A 
ATOM     96  C   UNL A   1      30.682  29.511  23.360  1.00  0.00     0.001 A 
ATOM     97  C   UNL A   1      29.320  27.520  23.264  1.00  0.00     0.001 A 
ATOM     98  C   UNL A   1      29.425  28.911  23.334  1.00  0.00     0.000 A 
ENDBRANCH  91  93
ENDBRANCH  84  91
ENDBRANCH  77  84
ENDBRANCH  75  77
ENDBRANCH  74  75
ENDBRANCH  73  74
ENDBRANCH  72  73
ENDBRANCH   1  72
TORSDOF 22
ENDMDL
MODEL 3
REMARK VINA RESULT:     -11.3      1.255      7.492
REMARK SMILES O=C(OCCOCCOC(=O)[C@@H](c1ccccc1)[C@H](C(=O)c1ccccc1)c1ccccc1)c1ccc(-c2c3nc(c(-c4cccc(S(=O)(=O)[O-])c4F)c4ccc([nH]4)c(-c4cccc(S(=O)(=O)[O-])c4F)c4nc(c(-c5cccc(S(=O)(=O)[O-])c5F)c5ccc2[nH]5)C=C4)C=C3)cc1
REMARK SMILES IDX 6 1 5 2 4 3 3 4 2 5 1 6 34 7 35 8 96 9 36 10 95 11 37 12
REMARK SMILES IDX 38 13 39 14 89 15 40 16 94 17 88 18 90 19 41 20 93 21 87 22
REMARK SMILES IDX 86 23 42 25 74 26 54 27 73 28 55 29 58 30 72 31 91 32 56 33
REMARK SMILES IDX 57 34 71 36 92 37 59 38 43 39 44 40 52 41 45 42 47 43 53 44
REMARK SMILES IDX 46 45 48 46 49 47 50 48 51 49 75 50 76 51 84 52 77 53 79 54
REMARK SMILES IDX 85 55 78 56 80 57 81 58 82 59 83 60 60 61 61 62 69 63 62 64
REMARK SMILES IDX 64 65 70 66 63 67 65 68 66 69 67 70 68 71 7 72 8 73 9 74
REMARK SMILES IDX 10 75 11 76 12 77 13 78 14 79 18 80 15 81 17 82 16 83 19 84
REMARK SMILES IDX 28 85 29 86 33 87 30 88 32 89 31 90 20 91 21 92 22 93 23 94
REMARK SMILES IDX 27 95 24 96 26 97 25 98
REMARK H PARENT 90 24 58 35
REMARK Flexibility Score: inf
ROOT
ATOM      1  O   UNL A   1      36.741  20.707  25.379  1.00  0.00    -0.374 OA
ENDROOT
BRANCH   1   2
ATOM      2  C   UNL A   1      38.151  20.685  25.303  1.00  0.00     0.202 C 
BRANCH   2   3
ATOM      3  C   UNL A   1      38.851  19.348  25.524  1.00  0.00     0.261 C 
BRANCH   3   4
ATOM      4  O   UNL A   1      40.250  19.516  25.809  1.00  0.00    -0.460 OA
BRANCH   4   5
ATOM      5  C   UNL A   1      40.762  20.046  26.951  1.00  0.00     0.338 C 
ATOM      6  O   UNL A   1      40.849  19.359  27.963  1.00  0.00    -0.246 OA
BRANCH   5   7
ATOM      7  C   UNL A   1      41.213  21.461  26.995  1.00  0.00     0.060 A 
ATOM      8  C   UNL A   1      41.639  22.075  28.169  1.00  0.00     0.016 A 
ATOM      9  C   UNL A   1      41.284  22.191  25.812  1.00  0.00     0.016 A 
ATOM     10  C   UNL A   1      41.979  23.394  28.246  1.00  0.00     0.010 A 
ATOM     11  C   UNL A   1      41.734  23.514  25.847  1.00  0.00     0.010 A 
ATOM     12  C   UNL A   1      42.063  24.109  27.074  1.00  0.00    -0.014 A 
BRANCH  12  13
ATOM     13  C   UNL A   1      42.383  25.522  27.236  1.00  0.00     0.031 A 
ATOM     14  C   UNL A   1      43.638  26.001  26.603  1.00  0.00     0.074 A 
ATOM     15  C   UNL A   1      41.475  26.342  27.796  1.00  0.00     0.049 A 
ATOM     16  N   UNL A   1      44.240  27.141  26.746  1.00  0.00    -0.248 NA
ATOM     17  C   UNL A   1      44.312  25.065  25.679  1.00  0.00     0.031 C 
ATOM     18  C   UNL A   1      40.132  25.944  28.247  1.00  0.00     0.029 A 
ATOM     19  N   UNL A   1      41.532  27.675  28.073  1.00  0.00    -0.354 N 
ATOM     20  C   UNL A   1      45.422  27.018  26.032  1.00  0.00     0.074 A 
ATOM     21  C   UNL A   1      45.425  25.721  25.400  1.00  0.00     0.031 C 
ATOM     22  C   UNL A   1      39.505  27.010  28.763  1.00  0.00     0.029 A 
ATOM     23  C   UNL A   1      40.441  28.123  28.782  1.00  0.00     0.049 A 
ATOM     24  H   UNL A   1      42.276  28.257  27.794  1.00  0.00     0.167 HD
ATOM     25  C   UNL A   1      46.423  27.918  25.969  1.00  0.00     0.034 A 
ATOM     26  C   UNL A   1      40.279  29.277  29.450  1.00  0.00     0.034 A 
ATOM     27  C   UNL A   1      46.337  29.194  26.617  1.00  0.00     0.049 A 
ATOM     28  C   UNL A   1      41.435  30.236  29.416  1.00  0.00     0.074 A 
ATOM     29  C   UNL A   1      47.276  30.200  26.677  1.00  0.00     0.029 A 
ATOM     30  N   UNL A   1      45.226  29.625  27.337  1.00  0.00    -0.354 N 
ATOM     31  N   UNL A   1      42.577  30.122  28.774  1.00  0.00    -0.248 NA
ATOM     32  C   UNL A   1      41.297  31.471  30.191  1.00  0.00     0.031 C 
ATOM     33  C   UNL A   1      46.746  31.225  27.468  1.00  0.00     0.029 A 
ATOM     34  C   UNL A   1      45.459  30.877  27.861  1.00  0.00     0.049 A 
ATOM     35  H   UNL A   1      44.396  29.110  27.454  1.00  0.00     0.167 HD
ATOM     36  C   UNL A   1      43.286  31.281  29.048  1.00  0.00     0.074 A 
ATOM     37  C   UNL A   1      42.430  32.093  29.895  1.00  0.00     0.031 C 
ATOM     38  C   UNL A   1      44.533  31.645  28.659  1.00  0.00     0.034 A 
BRANCH  25  39
ATOM     39  C   UNL A   1      47.684  27.492  25.279  1.00  0.00     0.023 A 
ATOM     40  C   UNL A   1      48.740  26.899  25.999  1.00  0.00     0.012 A 
ATOM     41  C   UNL A   1      47.835  27.730  23.898  1.00  0.00     0.148 A 
ATOM     42  C   UNL A   1      49.941  26.585  25.361  1.00  0.00     0.002 A 
ATOM     43  C   UNL A   1      49.012  27.368  23.261  1.00  0.00     0.091 A 
ATOM     44  F   UNL A   1      46.834  28.335  23.244  1.00  0.00    -0.205 F 
ATOM     45  C   UNL A   1      50.073  26.810  23.992  1.00  0.00     0.022 A 
BRANCH  43  46
ATOM     46  S   UNL A   1      49.256  27.562  21.493  1.00  0.00     0.127 S 
ATOM     47  O   UNL A   1      49.465  29.005  21.380  1.00  0.00    -0.237 OA
ATOM     48  O   UNL A   1      50.450  26.751  21.263  1.00  0.00    -0.237 OA
ATOM     49  O   UNL A   1      48.043  27.062  20.860  1.00  0.00    -0.744 OA
ENDBRANCH  43  46
ENDBRANCH  25  39
BRANCH  26  50
ATOM     50  C   UNL A   1      39.042  29.538  30.240  1.00  0.00     0.023 A 
ATOM     51  C   UNL A   1      38.836  28.862  31.458  1.00  0.00     0.012 A 
ATOM     52  C   UNL A   1      38.071  30.464  29.803  1.00  0.00     0.148 A 
ATOM     53  C   UNL A   1      37.675  29.074  32.203  1.00  0.00     0.002 A 
ATOM     54  C   UNL A   1      36.944  30.714  30.579  1.00  0.00     0.091 A 
ATOM     55  F   UNL A   1      38.270  31.091  28.635  1.00  0.00    -0.205 F 
ATOM     56  C   UNL A   1      36.734  30.005  31.769  1.00  0.00     0.022 A 
BRANCH  54  57
ATOM     57  S   UNL A   1      35.747  31.986  30.159  1.00  0.00     0.127 S 
ATOM     58  O   UNL A   1      35.095  31.407  28.987  1.00  0.00    -0.237 OA
ATOM     59  O   UNL A   1      34.919  32.032  31.365  1.00  0.00    -0.237 OA
ATOM     60  O   UNL A   1      36.523  33.195  29.921  1.00  0.00    -0.744 OA
ENDBRANCH  54  57
ENDBRANCH  26  50
BRANCH  38  61
ATOM     61  C   UNL A   1      45.011  32.994  29.105  1.00  0.00     0.023 A 
ATOM     62  C   UNL A   1      45.752  33.119  30.294  1.00  0.00     0.012 A 
ATOM     63  C   UNL A   1      44.815  34.112  28.273  1.00  0.00     0.148 A 
ATOM     64  C   UNL A   1      46.278  34.355  30.661  1.00  0.00     0.002 A 
ATOM     65  C   UNL A   1      45.395  35.322  28.614  1.00  0.00     0.091 A 
ATOM     66  F   UNL A   1      44.088  33.958  27.157  1.00  0.00    -0.205 F 
ATOM     67  C   UNL A   1      46.114  35.450  29.813  1.00  0.00     0.022 A 
BRANCH  65  68
ATOM     68  S   UNL A   1      45.340  36.746  27.525  1.00  0.00     0.127 S 
ATOM     69  O   UNL A   1      46.022  36.237  26.336  1.00  0.00    -0.237 OA
ATOM     70  O   UNL A   1      43.901  36.953  27.363  1.00  0.00    -0.237 OA
ATOM     71  O   UNL A   1      46.032  37.820  28.226  1.00  0.00    -0.744 OA
ENDBRANCH  65  68
ENDBRANCH  38  61
ENDBRANCH  12  13
ENDBRANCH   5   7
ENDBRANCH   4   5
ENDBRANCH   3   4
ENDBRANCH   2   3
ENDBRANCH   1   2
BRANCH   1  72
ATOM     72  C   UNL A   1      36.040  21.947  25.353  1.00  0.00     0.202 C 
BRANCH  72  73
ATOM     73  C   UNL A   1      35.130  21.934  26.565  1.00  0.00     0.261 C 
BRANCH  73  74
ATOM     74  O   UNL A   1      34.728  23.287  26.757  1.00  0.00    -0.463 OA
BRANCH  74  75
ATOM     75  C   UNL A   1      33.386  23.512  26.843  1.00  0.00     0.314 C 
ATOM     76  O   UNL A   1      32.586  23.007  27.625  1.00  0.00    -0.252 OA
BRANCH  75  77
ATOM     77  C   UNL A   1      33.001  24.506  25.789  1.00  0.00     0.144 C 
BRANCH  77  78
ATOM     78  C   UNL A   1      32.875  23.746  24.444  1.00  0.00    -0.033 A 
ATOM     79  C   UNL A   1      33.551  24.207  23.297  1.00  0.00     0.004 A 
ATOM     80  C   UNL A   1      32.177  22.526  24.334  1.00  0.00     0.004 A 
ATOM     81  C   UNL A   1      33.504  23.489  22.092  1.00  0.00     0.000 A 
ATOM     82  C   UNL A   1      32.112  21.823  23.127  1.00  0.00     0.000 A 
ATOM     83  C   UNL A   1      32.776  22.303  22.004  1.00  0.00     0.000 A 
ENDBRANCH  77  78
BRANCH  77  84
ATOM     84  C   UNL A   1      31.863  25.474  26.336  1.00  0.00     0.110 C 
BRANCH  84  85
ATOM     85  C   UNL A   1      32.444  26.879  26.615  1.00  0.00    -0.036 A 
ATOM     86  C   UNL A   1      33.662  27.226  25.988  1.00  0.00     0.004 A 
ATOM     87  C   UNL A   1      31.744  27.900  27.275  1.00  0.00     0.004 A 
ATOM     88  C   UNL A   1      34.083  28.555  25.910  1.00  0.00     0.000 A 
ATOM     89  C   UNL A   1      32.200  29.223  27.246  1.00  0.00     0.000 A 
ATOM     90  C   UNL A   1      33.347  29.555  26.534  1.00  0.00     0.000 A 
ENDBRANCH  84  85
BRANCH  84  91
ATOM     91  C   UNL A   1      30.462  25.427  25.595  1.00  0.00     0.171 C 
ATOM     92  O   UNL A   1      29.553  24.648  25.890  1.00  0.00    -0.293 OA
BRANCH  91  93
ATOM     93  C   UNL A   1      30.153  26.347  24.445  1.00  0.00     0.018 A 
ATOM     94  C   UNL A   1      28.825  26.800  24.299  1.00  0.00     0.012 A 
ATOM     95  C   UNL A   1      31.143  26.856  23.603  1.00  0.00     0.012 A 
ATOM     96  C   UNL A   1      28.512  27.810  23.385  1.00  0.00     0.001 A 
ATOM     97  C   UNL A   1      30.819  27.854  22.673  1.00  0.00     0.001 A 
ATOM     98  C   UNL A   1      29.514  28.345  22.580  1.00  0.00     0.000 A 
ENDBRANCH  91  93
ENDBRANCH  84  91
ENDBRANCH  77  84
ENDBRANCH  75  77
ENDBRANCH  74  75
ENDBRANCH  73  74
ENDBRANCH  72  73
ENDBRANCH   1  72
TORSDOF 22
ENDMDL
