MODEL 1
REMARK VINA RESULT:     -13.2      0.000      0.000
REMARK SMILES Cc1ccccc1NC(=S)NN1C(=O)CS[C@H]1c1ccccc1C(=O)OCCOCCOC(=O)c1ccc(-c2c3nc(c(-c4cccc(S(=O)(=O)[O-])c4F)c4ccc([nH]4)c(-c4cccc(S(=O)(=O)[O-])c4F)c4nc(c(-c5cccc(S(=O)(=O)[O-])c5F)c5ccc2[nH]5)C=C4)C=C3)cc1
REMARK SMILES IDX 28 1 27 2 26 3 24 4 25 5 23 6 18 7 19 8 20 9 22 10 21 11
REMARK SMILES IDX 17 12 12 13 13 14 14 15 15 16 16 17 11 18 9 20 10 21 8 22
REMARK SMILES IDX 7 24 1 25 2 26 3 27 4 28 6 29 5 30 29 31 30 32 31 33 32 34
REMARK SMILES IDX 33 35 34 36 35 37 36 38 97 39 37 40 96 41 38 42 39 43 40 44
REMARK SMILES IDX 90 45 41 46 95 47 89 48 91 49 42 50 94 51 88 52 87 53 43 55
REMARK SMILES IDX 75 56 55 57 74 58 56 59 59 60 73 61 92 62 57 63 58 64 72 66
REMARK SMILES IDX 93 67 60 68 44 69 45 70 53 71 46 72 48 73 54 74 47 75 49 76
REMARK SMILES IDX 50 77 51 78 52 79 76 80 77 81 85 82 78 83 80 84 86 85 79 86
REMARK SMILES IDX 81 87 82 88 83 89 84 90 61 91 62 92 70 93 63 94 65 95 71 96
REMARK SMILES IDX 64 97 66 98 67 99 68 100 69 101
REMARK H PARENT 11 19 8 23 91 54 59 65
REMARK Flexibility Score: inf
ROOT
ATOM      1  C   UNL A   1      36.901  22.401  25.293  1.00  0.00     0.202 C 
ENDROOT
BRANCH   1   2
ATOM      2  C   UNL A   1      36.491  23.361  23.628  1.00  0.00     0.261 C 
BRANCH   2   3
ATOM      3  O   UNL A   1      34.936  23.392  22.765  1.00  0.00    -0.460 OA
BRANCH   3   4
ATOM      4  C   UNL A   1      33.835  24.166  22.270  1.00  0.00     0.338 C 
ATOM      5  O   UNL A   1      33.139  23.696  21.367  1.00  0.00    -0.246 OA
BRANCH   4   6
ATOM      6  C   UNL A   1      33.260  25.602  22.658  1.00  0.00     0.066 A 
ATOM      7  C   UNL A   1      32.364  25.933  23.710  1.00  0.00     0.001 A 
ATOM      8  C   UNL A   1      32.372  27.202  24.310  1.00  0.00     0.008 A 
ATOM      9  C   UNL A   1      32.917  28.264  23.622  1.00  0.00     0.000 A 
ATOM     10  C   UNL A   1      33.717  26.716  21.928  1.00  0.00     0.016 A 
ATOM     11  C   UNL A   1      33.481  28.033  22.371  1.00  0.00     0.001 A 
BRANCH   7  12
ATOM     12  C   UNL A   1      31.076  25.154  23.845  1.00  0.00     0.197 C 
ATOM     13  N   UNL A   1      31.205  24.454  25.053  1.00  0.00    -0.236 N 
ATOM     14  C   UNL A   1      31.003  25.585  26.060  1.00  0.00     0.252 C 
ATOM     15  O   UNL A   1      31.665  26.082  26.960  1.00  0.00    -0.272 OA
ATOM     16  C   UNL A   1      29.607  26.060  25.830  1.00  0.00     0.174 C 
ATOM     17  S   UNL A   1      29.548  26.155  24.036  1.00  0.00    -0.120 SA
BRANCH  13  18
ATOM     18  N   UNL A   1      32.278  23.036  24.922  1.00  0.00    -0.270 N 
ATOM     19  H   UNL A   1      32.927  23.170  24.195  1.00  0.00     0.191 HD
BRANCH  18  20
ATOM     20  C   UNL A   1      32.508  21.655  25.595  1.00  0.00     0.189 C 
ATOM     21  S   UNL A   1      33.507  22.059  26.907  1.00  0.00    -0.039 S 
BRANCH  20  22
ATOM     22  N   UNL A   1      32.049  20.151  25.183  1.00  0.00    -0.331 N 
ATOM     23  H   UNL A   1      31.065  20.167  25.147  1.00  0.00     0.169 HD
BRANCH  22  24
ATOM     24  C   UNL A   1      32.514  18.535  24.777  1.00  0.00     0.043 A 
ATOM     25  C   UNL A   1      32.596  18.307  22.037  1.00  0.00     0.046 C 
ATOM     26  C   UNL A   1      32.786  17.944  23.483  1.00  0.00    -0.028 A 
ATOM     27  C   UNL A   1      33.555  16.677  23.342  1.00  0.00     0.005 A 
ATOM     28  C   UNL A   1      33.983  15.877  24.366  1.00  0.00     0.000 A 
ATOM     29  C   UNL A   1      32.929  17.534  25.727  1.00  0.00     0.026 A 
ATOM     30  C   UNL A   1      33.577  16.279  25.583  1.00  0.00     0.002 A 
ENDBRANCH  22  24
ENDBRANCH  20  22
ENDBRANCH  18  20
ENDBRANCH  13  18
ENDBRANCH   7  12
ENDBRANCH   4   6
ENDBRANCH   3   4
ENDBRANCH   2   3
ENDBRANCH   1   2
BRANCH   1  31
ATOM     31  O   UNL A   1      38.234  21.839  25.658  1.00  0.00    -0.374 OA
BRANCH  31  32
ATOM     32  C   UNL A   1      38.544  20.449  25.402  1.00  0.00     0.202 C 
BRANCH  32  33
ATOM     33  C   UNL A   1      39.872  20.060  26.078  1.00  0.00     0.261 C 
BRANCH  33  34
ATOM     34  O   UNL A   1      40.800  21.167  25.986  1.00  0.00    -0.460 OA
BRANCH  34  35
ATOM     35  C   UNL A   1      42.130  20.850  25.944  1.00  0.00     0.338 C 
ATOM     36  O   UNL A   1      42.615  19.950  25.308  1.00  0.00    -0.246 OA
BRANCH  35  37
ATOM     37  C   UNL A   1      42.851  21.670  26.990  1.00  0.00     0.060 A 
ATOM     38  C   UNL A   1      42.138  22.169  28.071  1.00  0.00     0.016 A 
ATOM     39  C   UNL A   1      44.127  22.170  26.821  1.00  0.00     0.016 A 
ATOM     40  C   UNL A   1      42.513  23.397  28.705  1.00  0.00     0.010 A 
ATOM     41  C   UNL A   1      44.493  23.369  27.477  1.00  0.00     0.010 A 
ATOM     42  C   UNL A   1      43.579  24.131  28.241  1.00  0.00    -0.014 A 
BRANCH  42  43
ATOM     43  C   UNL A   1      43.793  25.630  28.408  1.00  0.00     0.031 A 
ATOM     44  C   UNL A   1      42.529  26.477  28.429  1.00  0.00     0.074 A 
ATOM     45  C   UNL A   1      44.904  26.374  28.798  1.00  0.00     0.049 A 
ATOM     46  N   UNL A   1      42.488  27.762  28.623  1.00  0.00    -0.248 NA
ATOM     47  C   UNL A   1      41.188  25.926  28.221  1.00  0.00     0.031 C 
ATOM     48  C   UNL A   1      44.702  27.369  29.870  1.00  0.00     0.029 A 
ATOM     49  N   UNL A   1      46.330  26.431  28.694  1.00  0.00    -0.354 N 
ATOM     50  C   UNL A   1      41.224  28.052  29.063  1.00  0.00     0.074 A 
ATOM     51  C   UNL A   1      40.421  26.966  28.568  1.00  0.00     0.031 C 
ATOM     52  C   UNL A   1      45.789  28.100  30.080  1.00  0.00     0.029 A 
ATOM     53  C   UNL A   1      46.837  27.690  29.193  1.00  0.00     0.049 A 
ATOM     54  H   UNL A   1      46.892  25.709  28.331  1.00  0.00     0.167 HD
ATOM     55  C   UNL A   1      41.027  29.049  29.972  1.00  0.00     0.034 A 
ATOM     56  C   UNL A   1      47.909  28.519  28.917  1.00  0.00     0.034 A 
ATOM     57  C   UNL A   1      42.226  29.872  30.244  1.00  0.00     0.049 A 
ATOM     58  C   UNL A   1      47.665  30.002  29.059  1.00  0.00     0.074 A 
ATOM     59  C   UNL A   1      42.928  30.163  31.403  1.00  0.00     0.029 A 
ATOM     60  N   UNL A   1      42.942  30.468  29.204  1.00  0.00    -0.354 N 
ATOM     61  N   UNL A   1      46.711  30.551  29.744  1.00  0.00    -0.248 NA
ATOM     62  C   UNL A   1      48.359  30.991  28.211  1.00  0.00     0.031 C 
ATOM     63  C   UNL A   1      44.050  30.959  31.057  1.00  0.00     0.029 A 
ATOM     64  C   UNL A   1      44.045  31.160  29.686  1.00  0.00     0.049 A 
ATOM     65  H   UNL A   1      42.695  30.406  28.252  1.00  0.00     0.167 HD
ATOM     66  C   UNL A   1      46.290  31.595  28.962  1.00  0.00     0.074 A 
ATOM     67  C   UNL A   1      47.468  31.990  28.217  1.00  0.00     0.031 C 
ATOM     68  C   UNL A   1      44.961  31.862  28.784  1.00  0.00     0.034 A 
BRANCH  55  69
ATOM     69  C   UNL A   1      39.754  29.240  30.794  1.00  0.00     0.023 A 
ATOM     70  C   UNL A   1      39.421  28.218  31.716  1.00  0.00     0.012 A 
ATOM     71  C   UNL A   1      38.819  30.300  30.691  1.00  0.00     0.148 A 
ATOM     72  C   UNL A   1      38.259  28.250  32.494  1.00  0.00     0.002 A 
ATOM     73  C   UNL A   1      37.712  30.383  31.543  1.00  0.00     0.091 A 
ATOM     74  F   UNL A   1      38.916  31.191  29.700  1.00  0.00    -0.205 F 
ATOM     75  C   UNL A   1      37.419  29.349  32.434  1.00  0.00     0.022 A 
BRANCH  73  76
ATOM     76  S   UNL A   1      36.628  31.824  31.585  1.00  0.00     0.127 S 
ATOM     77  O   UNL A   1      35.901  31.703  30.321  1.00  0.00    -0.237 OA
ATOM     78  O   UNL A   1      35.817  31.571  32.776  1.00  0.00    -0.237 OA
ATOM     79  O   UNL A   1      37.498  32.989  31.686  1.00  0.00    -0.744 OA
ENDBRANCH  73  76
ENDBRANCH  55  69
BRANCH  56  80
ATOM     80  C   UNL A   1      48.975  28.117  27.963  1.00  0.00     0.023 A 
ATOM     81  C   UNL A   1      49.877  27.178  28.460  1.00  0.00     0.012 A 
ATOM     82  C   UNL A   1      48.491  28.046  26.658  1.00  0.00     0.148 A 
ATOM     83  C   UNL A   1      49.842  25.938  27.869  1.00  0.00     0.002 A 
ATOM     84  C   UNL A   1      48.262  26.792  26.195  1.00  0.00     0.091 A 
ATOM     85  F   UNL A   1      48.001  29.141  26.065  1.00  0.00    -0.205 F 
ATOM     86  C   UNL A   1      48.920  25.741  26.834  1.00  0.00     0.022 A 
BRANCH  84  87
ATOM     87  S   UNL A   1      46.819  26.488  25.173  1.00  0.00     0.127 S 
ATOM     88  O   UNL A   1      47.329  26.825  23.846  1.00  0.00    -0.237 OA
ATOM     89  O   UNL A   1      46.564  25.066  25.376  1.00  0.00    -0.237 OA
ATOM     90  O   UNL A   1      45.778  27.367  25.687  1.00  0.00    -0.744 OA
ENDBRANCH  84  87
ENDBRANCH  56  80
BRANCH  68  91
ATOM     91  C   UNL A   1      44.470  32.813  27.723  1.00  0.00     0.023 A 
ATOM     92  C   UNL A   1      44.271  32.426  26.379  1.00  0.00     0.012 A 
ATOM     93  C   UNL A   1      44.165  34.147  28.057  1.00  0.00     0.148 A 
ATOM     94  C   UNL A   1      43.965  33.356  25.381  1.00  0.00     0.002 A 
ATOM     95  C   UNL A   1      43.755  35.047  27.080  1.00  0.00     0.091 A 
ATOM     96  F   UNL A   1      44.318  34.561  29.324  1.00  0.00    -0.205 F 
ATOM     97  C   UNL A   1      43.709  34.672  25.734  1.00  0.00     0.022 A 
BRANCH  95  98
ATOM     98  S   UNL A   1      43.191  36.693  27.515  1.00  0.00     0.127 S 
ATOM     99  O   UNL A   1      42.391  36.433  28.710  1.00  0.00    -0.237 OA
ATOM    100  O   UNL A   1      44.447  37.403  27.768  1.00  0.00    -0.237 OA
ATOM    101  O   UNL A   1      42.461  37.174  26.349  1.00  0.00    -0.744 OA
ENDBRANCH  95  98
ENDBRANCH  68  91
ENDBRANCH  42  43
ENDBRANCH  35  37
ENDBRANCH  34  35
ENDBRANCH  33  34
ENDBRANCH  32  33
ENDBRANCH  31  32
ENDBRANCH   1  31
TORSDOF 22
ENDMDL
MODEL 2
REMARK VINA RESULT:     -13.1      2.397      5.107
REMARK SMILES Cc1ccccc1NC(=S)NN1C(=O)CS[C@H]1c1ccccc1C(=O)OCCOCCOC(=O)c1ccc(-c2c3nc(c(-c4cccc(S(=O)(=O)[O-])c4F)c4ccc([nH]4)c(-c4cccc(S(=O)(=O)[O-])c4F)c4nc(c(-c5cccc(S(=O)(=O)[O-])c5F)c5ccc2[nH]5)C=C4)C=C3)cc1
REMARK SMILES IDX 28 1 27 2 26 3 24 4 25 5 23 6 18 7 19 8 20 9 22 10 21 11
REMARK SMILES IDX 17 12 12 13 13 14 14 15 15 16 16 17 11 18 9 20 10 21 8 22
REMARK SMILES IDX 7 24 1 25 2 26 3 27 4 28 6 29 5 30 29 31 30 32 31 33 32 34
REMARK SMILES IDX 33 35 34 36 35 37 36 38 97 39 37 40 96 41 38 42 39 43 40 44
REMARK SMILES IDX 90 45 41 46 95 47 89 48 91 49 42 50 94 51 88 52 87 53 43 55
REMARK SMILES IDX 75 56 55 57 74 58 56 59 59 60 73 61 92 62 57 63 58 64 72 66
REMARK SMILES IDX 93 67 60 68 44 69 45 70 53 71 46 72 48 73 54 74 47 75 49 76
REMARK SMILES IDX 50 77 51 78 52 79 76 80 77 81 85 82 78 83 80 84 86 85 79 86
REMARK SMILES IDX 81 87 82 88 83 89 84 90 61 91 62 92 70 93 63 94 65 95 71 96
REMARK SMILES IDX 64 97 66 98 67 99 68 100 69 101
REMARK H PARENT 11 19 8 23 91 54 59 65
REMARK Flexibility Score: inf
ROOT
ATOM      1  C   UNL A   1      39.049  21.798  26.067  1.00  0.00     0.202 C 
ENDROOT
BRANCH   1   2
ATOM      2  C   UNL A   1      37.659  20.879  25.024  1.00  0.00     0.261 C 
BRANCH   2   3
ATOM      3  O   UNL A   1      35.900  20.978  25.264  1.00  0.00    -0.460 OA
BRANCH   3   4
ATOM      4  C   UNL A   1      34.613  21.289  24.714  1.00  0.00     0.338 C 
ATOM      5  O   UNL A   1      33.767  20.395  24.640  1.00  0.00    -0.246 OA
BRANCH   4   6
ATOM      6  C   UNL A   1      33.978  22.635  24.139  1.00  0.00     0.066 A 
ATOM      7  C   UNL A   1      34.138  23.959  24.631  1.00  0.00     0.001 A 
ATOM      8  C   UNL A   1      34.037  25.074  23.784  1.00  0.00     0.008 A 
ATOM      9  C   UNL A   1      33.362  24.948  22.589  1.00  0.00     0.000 A 
ATOM     10  C   UNL A   1      33.204  22.553  22.967  1.00  0.00     0.016 A 
ATOM     11  C   UNL A   1      32.839  23.706  22.243  1.00  0.00     0.001 A 
BRANCH   7  12
ATOM     12  C   UNL A   1      33.896  24.229  26.097  1.00  0.00     0.197 C 
ATOM     13  N   UNL A   1      32.873  25.188  26.121  1.00  0.00    -0.236 N 
ATOM     14  C   UNL A   1      31.667  24.327  25.750  1.00  0.00     0.252 C 
ATOM     15  O   UNL A   1      30.838  24.325  24.851  1.00  0.00    -0.272 OA
ATOM     16  C   UNL A   1      31.542  23.341  26.863  1.00  0.00     0.174 C 
ATOM     17  S   UNL A   1      33.247  22.817  27.078  1.00  0.00    -0.120 SA
BRANCH  13  18
ATOM     18  N   UNL A   1      33.448  26.826  25.714  1.00  0.00    -0.270 N 
ATOM     19  H   UNL A   1      33.946  26.807  24.865  1.00  0.00     0.191 HD
BRANCH  18  20
ATOM     20  C   UNL A   1      33.409  28.272  26.279  1.00  0.00     0.189 C 
ATOM     21  S   UNL A   1      32.481  29.087  25.114  1.00  0.00    -0.039 S 
BRANCH  20  22
ATOM     22  N   UNL A   1      34.115  28.955  27.574  1.00  0.00    -0.331 N 
ATOM     23  H   UNL A   1      34.056  28.291  28.298  1.00  0.00     0.169 HD
BRANCH  22  24
ATOM     24  C   UNL A   1      34.926  30.327  28.249  1.00  0.00     0.043 A 
ATOM     25  C   UNL A   1      36.657  29.451  30.198  1.00  0.00     0.046 C 
ATOM     26  C   UNL A   1      35.987  30.387  29.232  1.00  0.00    -0.028 A 
ATOM     27  C   UNL A   1      36.837  31.598  29.401  1.00  0.00     0.005 A 
ATOM     28  C   UNL A   1      36.662  32.798  28.768  1.00  0.00     0.000 A 
ATOM     29  C   UNL A   1      34.809  31.677  27.759  1.00  0.00     0.026 A 
ATOM     30  C   UNL A   1      35.563  32.857  27.996  1.00  0.00     0.002 A 
ENDBRANCH  22  24
ENDBRANCH  20  22
ENDBRANCH  18  20
ENDBRANCH  13  18
ENDBRANCH   7  12
ENDBRANCH   4   6
ENDBRANCH   3   4
ENDBRANCH   2   3
ENDBRANCH   1   2
BRANCH   1  31
ATOM     31  O   UNL A   1      40.043  21.130  26.955  1.00  0.00    -0.374 OA
BRANCH  31  32
ATOM     32  C   UNL A   1      40.830  20.015  26.473  1.00  0.00     0.202 C 
BRANCH  32  33
ATOM     33  C   UNL A   1      42.267  20.469  26.152  1.00  0.00     0.261 C 
BRANCH  33  34
ATOM     34  O   UNL A   1      42.456  21.828  26.612  1.00  0.00    -0.460 OA
BRANCH  34  35
ATOM     35  C   UNL A   1      42.580  22.790  25.649  1.00  0.00     0.338 C 
ATOM     36  O   UNL A   1      43.203  22.678  24.625  1.00  0.00    -0.246 OA
BRANCH  35  37
ATOM     37  C   UNL A   1      41.995  24.079  26.179  1.00  0.00     0.060 A 
ATOM     38  C   UNL A   1      42.052  25.223  25.394  1.00  0.00     0.016 A 
ATOM     39  C   UNL A   1      41.622  24.264  27.496  1.00  0.00     0.016 A 
ATOM     40  C   UNL A   1      42.140  26.524  25.986  1.00  0.00     0.010 A 
ATOM     41  C   UNL A   1      41.685  25.560  28.058  1.00  0.00     0.010 A 
ATOM     42  C   UNL A   1      42.195  26.675  27.351  1.00  0.00    -0.014 A 
BRANCH  42  43
ATOM     43  C   UNL A   1      42.801  27.846  28.114  1.00  0.00     0.031 A 
ATOM     44  C   UNL A   1      41.826  28.938  28.528  1.00  0.00     0.074 A 
ATOM     45  C   UNL A   1      44.037  28.012  28.736  1.00  0.00     0.049 A 
ATOM     46  N   UNL A   1      42.127  29.986  29.235  1.00  0.00    -0.248 NA
ATOM     47  C   UNL A   1      40.408  28.931  28.159  1.00  0.00     0.031 C 
ATOM     48  C   UNL A   1      44.026  28.501  30.129  1.00  0.00     0.029 A 
ATOM     49  N   UNL A   1      45.426  27.691  28.613  1.00  0.00    -0.354 N 
ATOM     50  C   UNL A   1      40.960  30.425  29.801  1.00  0.00     0.074 A 
ATOM     51  C   UNL A   1      39.932  29.915  28.931  1.00  0.00     0.031 C 
ATOM     52  C   UNL A   1      45.250  28.736  30.582  1.00  0.00     0.029 A 
ATOM     53  C   UNL A   1      46.216  28.436  29.568  1.00  0.00     0.049 A 
ATOM     54  H   UNL A   1      45.795  27.049  27.965  1.00  0.00     0.167 HD
ATOM     55  C   UNL A   1      40.968  30.980  31.046  1.00  0.00     0.034 A 
ATOM     56  C   UNL A   1      47.497  28.957  29.620  1.00  0.00     0.034 A 
ATOM     57  C   UNL A   1      42.319  31.236  31.590  1.00  0.00     0.049 A 
ATOM     58  C   UNL A   1      47.663  30.257  30.369  1.00  0.00     0.074 A 
ATOM     59  C   UNL A   1      42.970  30.818  32.740  1.00  0.00     0.029 A 
ATOM     60  N   UNL A   1      43.261  31.968  30.864  1.00  0.00    -0.354 N 
ATOM     61  N   UNL A   1      46.843  30.731  31.253  1.00  0.00    -0.248 NA
ATOM     62  C   UNL A   1      48.676  31.256  29.980  1.00  0.00     0.031 C 
ATOM     63  C   UNL A   1      44.294  31.324  32.713  1.00  0.00     0.029 A 
ATOM     64  C   UNL A   1      44.466  32.055  31.548  1.00  0.00     0.049 A 
ATOM     65  H   UNL A   1      43.091  32.370  29.980  1.00  0.00     0.167 HD
ATOM     66  C   UNL A   1      46.798  32.076  30.987  1.00  0.00     0.074 A 
ATOM     67  C   UNL A   1      48.100  32.379  30.429  1.00  0.00     0.031 C 
ATOM     68  C   UNL A   1      45.617  32.763  30.983  1.00  0.00     0.034 A 
BRANCH  55  69
ATOM     69  C   UNL A   1      39.730  31.181  31.919  1.00  0.00     0.023 A 
ATOM     70  C   UNL A   1      39.275  30.064  32.661  1.00  0.00     0.012 A 
ATOM     71  C   UNL A   1      38.936  32.350  32.022  1.00  0.00     0.148 A 
ATOM     72  C   UNL A   1      38.127  30.103  33.461  1.00  0.00     0.002 A 
ATOM     73  C   UNL A   1      37.850  32.420  32.902  1.00  0.00     0.091 A 
ATOM     74  F   UNL A   1      39.141  33.379  31.196  1.00  0.00    -0.205 F 
ATOM     75  C   UNL A   1      37.432  31.292  33.610  1.00  0.00     0.022 A 
BRANCH  73  76
ATOM     76  S   UNL A   1      36.955  33.954  33.215  1.00  0.00     0.127 S 
ATOM     77  O   UNL A   1      36.057  33.573  34.305  1.00  0.00    -0.237 OA
ATOM     78  O   UNL A   1      38.027  34.869  33.605  1.00  0.00    -0.237 OA
ATOM     79  O   UNL A   1      36.292  34.304  31.965  1.00  0.00    -0.744 OA
ENDBRANCH  73  76
ENDBRANCH  55  69
BRANCH  56  80
ATOM     80  C   UNL A   1      48.489  28.686  28.547  1.00  0.00     0.023 A 
ATOM     81  C   UNL A   1      49.156  27.468  28.666  1.00  0.00     0.012 A 
ATOM     82  C   UNL A   1      48.048  29.160  27.313  1.00  0.00     0.148 A 
ATOM     83  C   UNL A   1      48.884  26.535  27.694  1.00  0.00     0.002 A 
ATOM     84  C   UNL A   1      47.579  28.212  26.465  1.00  0.00     0.091 A 
ATOM     85  F   UNL A   1      47.820  30.467  27.141  1.00  0.00    -0.205 F 
ATOM     86  C   UNL A   1      47.979  26.895  26.688  1.00  0.00     0.022 A 
BRANCH  84  87
ATOM     87  S   UNL A   1      46.142  28.579  25.455  1.00  0.00     0.127 S 
ATOM     88  O   UNL A   1      46.766  28.939  24.184  1.00  0.00    -0.237 OA
ATOM     89  O   UNL A   1      45.421  27.310  25.432  1.00  0.00    -0.237 OA
ATOM     90  O   UNL A   1      45.442  29.657  26.138  1.00  0.00    -0.744 OA
ENDBRANCH  84  87
ENDBRANCH  56  80
BRANCH  68  91
ATOM     91  C   UNL A   1      45.505  34.160  30.427  1.00  0.00     0.023 A 
ATOM     92  C   UNL A   1      45.677  35.316  31.220  1.00  0.00     0.012 A 
ATOM     93  C   UNL A   1      45.241  34.356  29.057  1.00  0.00     0.148 A 
ATOM     94  C   UNL A   1      45.418  36.597  30.723  1.00  0.00     0.002 A 
ATOM     95  C   UNL A   1      45.091  35.638  28.541  1.00  0.00     0.091 A 
ATOM     96  F   UNL A   1      45.089  33.291  28.257  1.00  0.00    -0.205 F 
ATOM     97  C   UNL A   1      45.121  36.757  29.379  1.00  0.00     0.022 A 
BRANCH  95  98
ATOM     98  S   UNL A   1      44.935  35.913  26.775  1.00  0.00     0.127 S 
ATOM     99  O   UNL A   1      45.085  37.364  26.681  1.00  0.00    -0.237 OA
ATOM    100  O   UNL A   1      46.063  35.151  26.234  1.00  0.00    -0.237 OA
ATOM    101  O   UNL A   1      43.629  35.379  26.413  1.00  0.00    -0.744 OA
ENDBRANCH  95  98
ENDBRANCH  68  91
ENDBRANCH  42  43
ENDBRANCH  35  37
ENDBRANCH  34  35
ENDBRANCH  33  34
ENDBRANCH  32  33
ENDBRANCH  31  32
ENDBRANCH   1  31
TORSDOF 22
ENDMDL
MODEL 3
REMARK VINA RESULT:     -12.6      4.073      9.176
REMARK SMILES Cc1ccccc1NC(=S)NN1C(=O)CS[C@H]1c1ccccc1C(=O)OCCOCCOC(=O)c1ccc(-c2c3nc(c(-c4cccc(S(=O)(=O)[O-])c4F)c4ccc([nH]4)c(-c4cccc(S(=O)(=O)[O-])c4F)c4nc(c(-c5cccc(S(=O)(=O)[O-])c5F)c5ccc2[nH]5)C=C4)C=C3)cc1
REMARK SMILES IDX 28 1 27 2 26 3 24 4 25 5 23 6 18 7 19 8 20 9 22 10 21 11
REMARK SMILES IDX 17 12 12 13 13 14 14 15 15 16 16 17 11 18 9 20 10 21 8 22
REMARK SMILES IDX 7 24 1 25 2 26 3 27 4 28 6 29 5 30 29 31 30 32 31 33 32 34
REMARK SMILES IDX 33 35 34 36 35 37 36 38 97 39 37 40 96 41 38 42 39 43 40 44
REMARK SMILES IDX 90 45 41 46 95 47 89 48 91 49 42 50 94 51 88 52 87 53 43 55
REMARK SMILES IDX 75 56 55 57 74 58 56 59 59 60 73 61 92 62 57 63 58 64 72 66
REMARK SMILES IDX 93 67 60 68 44 69 45 70 53 71 46 72 48 73 54 74 47 75 49 76
REMARK SMILES IDX 50 77 51 78 52 79 76 80 77 81 85 82 78 83 80 84 86 85 79 86
REMARK SMILES IDX 81 87 82 88 83 89 84 90 61 91 62 92 70 93 63 94 65 95 71 96
REMARK SMILES IDX 64 97 66 98 67 99 68 100 69 101
REMARK H PARENT 11 19 8 23 91 54 59 65
REMARK Flexibility Score: inf
ROOT
ATOM      1  C   UNL A   1      38.978  22.756  26.308  1.00  0.00     0.202 C 
ENDROOT
BRANCH   1   2
ATOM      2  C   UNL A   1      37.933  21.393  25.351  1.00  0.00     0.261 C 
BRANCH   2   3
ATOM      3  O   UNL A   1      36.212  21.008  25.580  1.00  0.00    -0.460 OA
BRANCH   3   4
ATOM      4  C   UNL A   1      34.892  20.959  25.022  1.00  0.00     0.338 C 
ATOM      5  O   UNL A   1      34.271  19.895  25.060  1.00  0.00    -0.246 OA
BRANCH   4   6
ATOM      6  C   UNL A   1      33.974  22.057  24.317  1.00  0.00     0.066 A 
ATOM      7  C   UNL A   1      33.995  23.466  24.500  1.00  0.00     0.001 A 
ATOM      8  C   UNL A   1      33.593  24.345  23.482  1.00  0.00     0.008 A 
ATOM      9  C   UNL A   1      32.774  23.875  22.478  1.00  0.00     0.000 A 
ATOM     10  C   UNL A   1      33.054  21.623  23.344  1.00  0.00     0.016 A 
ATOM     11  C   UNL A   1      32.407  22.534  22.485  1.00  0.00     0.001 A 
BRANCH   7  12
ATOM     12  C   UNL A   1      33.937  24.022  25.903  1.00  0.00     0.197 C 
ATOM     13  N   UNL A   1      32.766  24.792  25.936  1.00  0.00    -0.236 N 
ATOM     14  C   UNL A   1      31.705  23.694  25.982  1.00  0.00     0.252 C 
ATOM     15  O   UNL A   1      30.762  23.359  25.279  1.00  0.00    -0.272 OA
ATOM     16  C   UNL A   1      31.947  22.980  27.270  1.00  0.00     0.174 C 
ATOM     17  S   UNL A   1      33.733  22.789  27.249  1.00  0.00    -0.120 SA
BRANCH  13  18
ATOM     18  N   UNL A   1      32.945  26.363  25.111  1.00  0.00    -0.270 N 
ATOM     19  H   UNL A   1      32.814  26.252  24.142  1.00  0.00     0.191 HD
BRANCH  18  20
ATOM     20  C   UNL A   1      33.241  27.851  25.442  1.00  0.00     0.189 C 
ATOM     21  S   UNL A   1      32.714  28.643  24.036  1.00  0.00    -0.039 S 
BRANCH  20  22
ATOM     22  N   UNL A   1      33.956  28.562  26.718  1.00  0.00    -0.331 N 
ATOM     23  H   UNL A   1      34.103  27.848  27.380  1.00  0.00     0.169 HD
BRANCH  22  24
ATOM     24  C   UNL A   1      34.574  30.010  27.433  1.00  0.00     0.043 A 
ATOM     25  C   UNL A   1      37.293  29.741  27.748  1.00  0.00     0.046 C 
ATOM     26  C   UNL A   1      35.941  30.397  27.714  1.00  0.00    -0.028 A 
ATOM     27  C   UNL A   1      36.326  31.815  27.952  1.00  0.00     0.005 A 
ATOM     28  C   UNL A   1      35.468  32.876  28.052  1.00  0.00     0.000 A 
ATOM     29  C   UNL A   1      33.803  31.202  27.679  1.00  0.00     0.026 A 
ATOM     30  C   UNL A   1      34.168  32.537  28.001  1.00  0.00     0.002 A 
ENDBRANCH  22  24
ENDBRANCH  20  22
ENDBRANCH  18  20
ENDBRANCH  13  18
ENDBRANCH   7  12
ENDBRANCH   4   6
ENDBRANCH   3   4
ENDBRANCH   2   3
ENDBRANCH   1   2
BRANCH   1  31
ATOM     31  O   UNL A   1      40.205  22.493  27.113  1.00  0.00    -0.374 OA
BRANCH  31  32
ATOM     32  C   UNL A   1      41.402  21.974  26.486  1.00  0.00     0.202 C 
BRANCH  32  33
ATOM     33  C   UNL A   1      42.377  23.119  26.155  1.00  0.00     0.261 C 
BRANCH  33  34
ATOM     34  O   UNL A   1      41.950  24.324  26.833  1.00  0.00    -0.460 OA
BRANCH  34  35
ATOM     35  C   UNL A   1      41.846  25.454  26.069  1.00  0.00     0.338 C 
ATOM     36  O   UNL A   1      42.447  25.665  25.047  1.00  0.00    -0.246 OA
BRANCH  35  37
ATOM     37  C   UNL A   1      41.028  26.473  26.828  1.00  0.00     0.060 A 
ATOM     38  C   UNL A   1      40.813  27.724  26.266  1.00  0.00     0.016 A 
ATOM     39  C   UNL A   1      40.681  26.337  28.158  1.00  0.00     0.016 A 
ATOM     40  C   UNL A   1      40.652  28.888  27.085  1.00  0.00     0.010 A 
ATOM     41  C   UNL A   1      40.496  27.496  28.947  1.00  0.00     0.010 A 
ATOM     42  C   UNL A   1      40.732  28.801  28.454  1.00  0.00    -0.014 A 
BRANCH  42  43
ATOM     43  C   UNL A   1      41.113  29.919  29.417  1.00  0.00     0.031 A 
ATOM     44  C   UNL A   1      42.603  30.084  29.676  1.00  0.00     0.074 A 
ATOM     45  C   UNL A   1      40.391  30.996  29.926  1.00  0.00     0.049 A 
ATOM     46  N   UNL A   1      43.139  31.012  30.413  1.00  0.00    -0.248 NA
ATOM     47  C   UNL A   1      43.621  29.190  29.118  1.00  0.00     0.031 C 
ATOM     48  C   UNL A   1      41.013  32.330  29.822  1.00  0.00     0.029 A 
ATOM     49  N   UNL A   1      39.090  31.381  30.382  1.00  0.00    -0.354 N 
ATOM     50  C   UNL A   1      44.441  31.134  30.003  1.00  0.00     0.074 A 
ATOM     51  C   UNL A   1      44.743  29.860  29.406  1.00  0.00     0.031 C 
ATOM     52  C   UNL A   1      40.298  33.261  30.440  1.00  0.00     0.029 A 
ATOM     53  C   UNL A   1      39.128  32.676  31.023  1.00  0.00     0.049 A 
ATOM     54  H   UNL A   1      38.277  30.836  30.273  1.00  0.00     0.167 HD
ATOM     55  C   UNL A   1      45.050  32.354  30.012  1.00  0.00     0.034 A 
ATOM     56  C   UNL A   1      38.438  33.313  32.040  1.00  0.00     0.034 A 
ATOM     57  C   UNL A   1      44.271  33.420  30.677  1.00  0.00     0.049 A 
ATOM     58  C   UNL A   1      39.235  34.265  32.898  1.00  0.00     0.074 A 
ATOM     59  C   UNL A   1      43.795  34.649  30.250  1.00  0.00     0.029 A 
ATOM     60  N   UNL A   1      43.781  33.252  31.974  1.00  0.00    -0.354 N 
ATOM     61  N   UNL A   1      40.360  34.818  32.571  1.00  0.00    -0.248 NA
ATOM     62  C   UNL A   1      38.924  34.473  34.325  1.00  0.00     0.031 C 
ATOM     63  C   UNL A   1      43.044  35.228  31.303  1.00  0.00     0.029 A 
ATOM     64  C   UNL A   1      43.051  34.360  32.384  1.00  0.00     0.049 A 
ATOM     65  H   UNL A   1      43.934  32.450  32.527  1.00  0.00     0.167 HD
ATOM     66  C   UNL A   1      41.105  34.776  33.722  1.00  0.00     0.074 A 
ATOM     67  C   UNL A   1      40.127  34.833  34.789  1.00  0.00     0.031 C 
ATOM     68  C   UNL A   1      42.423  34.417  33.705  1.00  0.00     0.034 A 
BRANCH  55  69
ATOM     69  C   UNL A   1      46.343  32.688  29.269  1.00  0.00     0.023 A 
ATOM     70  C   UNL A   1      46.218  33.201  27.956  1.00  0.00     0.012 A 
ATOM     71  C   UNL A   1      47.669  32.477  29.721  1.00  0.00     0.148 A 
ATOM     72  C   UNL A   1      47.324  33.503  27.152  1.00  0.00     0.002 A 
ATOM     73  C   UNL A   1      48.773  32.876  28.959  1.00  0.00     0.091 A 
ATOM     74  F   UNL A   1      47.898  31.790  30.844  1.00  0.00    -0.205 F 
ATOM     75  C   UNL A   1      48.603  33.372  27.665  1.00  0.00     0.022 A 
BRANCH  73  76
ATOM     76  S   UNL A   1      50.460  32.821  29.594  1.00  0.00     0.127 S 
ATOM     77  O   UNL A   1      50.708  31.382  29.694  1.00  0.00    -0.237 OA
ATOM     78  O   UNL A   1      51.215  33.494  28.537  1.00  0.00    -0.237 OA
ATOM     79  O   UNL A   1      50.443  33.533  30.866  1.00  0.00    -0.744 OA
ENDBRANCH  73  76
ENDBRANCH  55  69
BRANCH  56  80
ATOM     80  C   UNL A   1      37.249  32.689  32.679  1.00  0.00     0.023 A 
ATOM     81  C   UNL A   1      36.039  32.956  32.041  1.00  0.00     0.012 A 
ATOM     82  C   UNL A   1      37.547  31.425  33.183  1.00  0.00     0.148 A 
ATOM     83  C   UNL A   1      35.421  31.881  31.449  1.00  0.00     0.002 A 
ATOM     84  C   UNL A   1      37.099  30.386  32.436  1.00  0.00     0.091 A 
ATOM     85  F   UNL A   1      38.469  31.287  34.143  1.00  0.00    -0.205 F 
ATOM     86  C   UNL A   1      36.055  30.637  31.546  1.00  0.00     0.022 A 
BRANCH  84  87
ATOM     87  S   UNL A   1      38.134  28.932  32.254  1.00  0.00     0.127 S 
ATOM     88  O   UNL A   1      39.452  29.472  32.582  1.00  0.00    -0.237 OA
ATOM     89  O   UNL A   1      37.595  28.014  33.253  1.00  0.00    -0.237 OA
ATOM     90  O   UNL A   1      37.961  28.493  30.876  1.00  0.00    -0.744 OA
ENDBRANCH  84  87
ENDBRANCH  56  80
BRANCH  68  91
ATOM     91  C   UNL A   1      43.182  34.095  34.968  1.00  0.00     0.023 A 
ATOM     92  C   UNL A   1      44.007  35.033  35.627  1.00  0.00     0.012 A 
ATOM     93  C   UNL A   1      43.067  32.819  35.555  1.00  0.00     0.148 A 
ATOM     94  C   UNL A   1      44.820  34.672  36.705  1.00  0.00     0.002 A 
ATOM     95  C   UNL A   1      43.795  32.494  36.693  1.00  0.00     0.091 A 
ATOM     96  F   UNL A   1      42.280  31.898  34.980  1.00  0.00    -0.205 F 
ATOM     97  C   UNL A   1      44.716  33.396  37.237  1.00  0.00     0.022 A 
BRANCH  95  98
ATOM     98  S   UNL A   1      43.526  30.945  37.555  1.00  0.00     0.127 S 
ATOM     99  O   UNL A   1      44.833  30.707  38.165  1.00  0.00    -0.237 OA
ATOM    100  O   UNL A   1      42.467  31.290  38.506  1.00  0.00    -0.237 OA
ATOM    101  O   UNL A   1      43.117  29.996  36.528  1.00  0.00    -0.744 OA
ENDBRANCH  95  98
ENDBRANCH  68  91
ENDBRANCH  42  43
ENDBRANCH  35  37
ENDBRANCH  34  35
ENDBRANCH  33  34
ENDBRANCH  32  33
ENDBRANCH  31  32
ENDBRANCH   1  31
TORSDOF 22
ENDMDL
