MODEL 1
REMARK VINA RESULT:     -11.7      0.000      0.000
REMARK SMILES CC(=O)[NH+]1CCC2(CC1)C[C@H](C(=O)OCCOCCOC(=O)c1ccc(-c3c4nc(c(-c5cccc(S(=O)(=O)[O-])c5F)c5ccc([nH]5)c(-c5cccc(S(=O)(=O)[O-])c5F)c5nc(c(-c6cccc(S(=O)(=O)[O-])c6F)c6ccc3[nH]6)C=C5)C=C4)cc1)[N@H+](Cc1ncc[nH]1)C2
REMARK SMILES IDX 18 1 17 2 16 3 15 4 14 5 12 6 13 7 11 8 4 9 5 10 9 11 6 13
REMARK SMILES IDX 8 14 7 15 10 16 93 17 86 18 2 20 1 21 3 22 87 23 88 24 89 25
REMARK SMILES IDX 92 26 90 27 91 28 19 30 20 31 21 32 22 33 23 34 24 35 85 36
REMARK SMILES IDX 25 37 84 38 26 39 27 40 28 41 78 42 29 43 83 44 77 45 79 46
REMARK SMILES IDX 30 47 82 48 76 49 75 50 31 52 63 53 43 54 62 55 44 56 47 57
REMARK SMILES IDX 61 58 80 59 45 60 46 61 60 63 81 64 48 65 32 66 33 67 41 68
REMARK SMILES IDX 34 69 36 70 42 71 35 72 37 73 38 74 39 75 40 76 64 77 65 78
REMARK SMILES IDX 73 79 66 80 68 81 74 82 67 83 69 84 70 85 71 86 72 87 49 88
REMARK SMILES IDX 50 89 58 90 51 91 53 92 59 93 52 94 54 95 55 96 56 97 57 98
REMARK H PARENT 4 12 86 19 92 29 79 51 47 62
REMARK Flexibility Score: inf
ROOT
ATOM      1  C   UNL A   1      31.565  31.048  26.796  1.00  0.00     0.202 C 
ENDROOT
BRANCH   1   2
ATOM      2  O   UNL A   1      32.197  30.415  25.686  1.00  0.00    -0.374 OA
BRANCH   2   3
ATOM      3  C   UNL A   1      33.051  29.301  25.936  1.00  0.00     0.202 C 
BRANCH   3   4
ATOM      4  C   UNL A   1      32.459  28.033  26.559  1.00  0.00     0.261 C 
BRANCH   4   5
ATOM      5  O   UNL A   1      33.251  26.859  26.341  1.00  0.00    -0.459 OA
BRANCH   5   6
ATOM      6  C   UNL A   1      32.547  25.695  26.458  1.00  0.00     0.365 C 
ATOM      7  O   UNL A   1      31.357  25.639  26.767  1.00  0.00    -0.245 OA
BRANCH   6   8
ATOM      8  C   UNL A   1      33.348  24.487  25.949  1.00  0.00     0.296 C 
ATOM      9  N   UNL A   1      33.338  19.337  24.351  1.00  0.00    -0.272 N 
ATOM     10  C   UNL A   1      32.326  20.284  23.932  1.00  0.00     0.270 C 
ATOM     11  C   UNL A   1      34.618  19.913  24.764  1.00  0.00     0.270 C 
ATOM     12  H   UNL A   1      32.883  18.648  24.887  1.00  0.00     0.356 HD
ATOM     13  C   UNL A   1      32.100  21.272  25.068  1.00  0.00     0.075 C 
ATOM     14  C   UNL A   1      34.445  21.023  25.812  1.00  0.00     0.075 C 
ATOM     15  C   UNL A   1      33.373  22.073  25.413  1.00  0.00     0.036 C 
ATOM     16  C   UNL A   1      33.112  23.093  26.555  1.00  0.00     0.091 C 
ATOM     17  C   UNL A   1      33.841  22.968  24.248  1.00  0.00     0.270 C 
ATOM     18  N   UNL A   1      33.310  24.308  24.477  1.00  0.00    -0.316 N 
ATOM     19  H   UNL A   1      33.889  25.012  24.018  1.00  0.00     0.349 HD
BRANCH   9  20
ATOM     20  C   UNL A   1      33.004  17.993  24.331  1.00  0.00     0.308 C 
ATOM     21  C   UNL A   1      33.892  17.085  23.530  1.00  0.00     0.164 C 
ATOM     22  O   UNL A   1      32.073  17.530  24.990  1.00  0.00    -0.231 OA
ENDBRANCH   9  20
BRANCH  18  23
ATOM     23  C   UNL A   1      32.054  24.659  23.781  1.00  0.00     0.339 C 
BRANCH  23  24
ATOM     24  C   UNL A   1      31.890  26.046  23.222  1.00  0.00     0.161 A 
ATOM     25  N   UNL A   1      32.834  26.905  22.883  1.00  0.00    -0.236 NA
ATOM     26  N   UNL A   1      30.652  26.609  23.004  1.00  0.00    -0.344 N 
ATOM     27  C   UNL A   1      32.198  28.068  22.539  1.00  0.00     0.131 A 
ATOM     28  C   UNL A   1      30.837  27.908  22.620  1.00  0.00     0.104 A 
ATOM     29  H   UNL A   1      29.785  26.155  23.107  1.00  0.00     0.167 HD
ENDBRANCH  23  24
ENDBRANCH  18  23
ENDBRANCH   6   8
ENDBRANCH   5   6
ENDBRANCH   4   5
ENDBRANCH   3   4
ENDBRANCH   2   3
ENDBRANCH   1   2
BRANCH   1  30
ATOM     30  C   UNL A   1      31.514  32.580  26.830  1.00  0.00     0.261 C 
BRANCH  30  31
ATOM     31  O   UNL A   1      32.814  33.188  26.761  1.00  0.00    -0.460 OA
BRANCH  31  32
ATOM     32  C   UNL A   1      33.321  33.559  27.959  1.00  0.00     0.338 C 
ATOM     33  O   UNL A   1      32.768  34.245  28.814  1.00  0.00    -0.246 OA
BRANCH  32  34
ATOM     34  C   UNL A   1      34.597  32.873  28.218  1.00  0.00     0.060 A 
ATOM     35  C   UNL A   1      34.533  31.562  28.711  1.00  0.00     0.016 A 
ATOM     36  C   UNL A   1      35.823  33.525  28.086  1.00  0.00     0.016 A 
ATOM     37  C   UNL A   1      35.693  30.920  29.130  1.00  0.00     0.010 A 
ATOM     38  C   UNL A   1      36.988  32.881  28.519  1.00  0.00     0.010 A 
ATOM     39  C   UNL A   1      36.921  31.594  29.082  1.00  0.00    -0.014 A 
BRANCH  39  40
ATOM     40  C   UNL A   1      38.088  30.998  29.772  1.00  0.00     0.031 A 
ATOM     41  C   UNL A   1      38.387  31.410  31.189  1.00  0.00     0.074 A 
ATOM     42  C   UNL A   1      38.837  30.061  29.163  1.00  0.00     0.049 A 
ATOM     43  N   UNL A   1      39.327  30.987  31.993  1.00  0.00    -0.248 NA
ATOM     44  C   UNL A   1      37.507  32.433  31.782  1.00  0.00     0.031 C 
ATOM     45  C   UNL A   1      38.641  29.580  27.797  1.00  0.00     0.029 A 
ATOM     46  N   UNL A   1      39.924  29.357  29.617  1.00  0.00    -0.354 N 
ATOM     47  C   UNL A   1      39.157  31.689  33.180  1.00  0.00     0.074 A 
ATOM     48  C   UNL A   1      38.042  32.589  32.985  1.00  0.00     0.031 C 
ATOM     49  C   UNL A   1      39.594  28.676  27.513  1.00  0.00     0.029 A 
ATOM     50  C   UNL A   1      40.471  28.523  28.671  1.00  0.00     0.049 A 
ATOM     51  H   UNL A   1      40.277  29.440  30.532  1.00  0.00     0.167 HD
ATOM     52  C   UNL A   1      39.848  31.576  34.339  1.00  0.00     0.034 A 
ATOM     53  C   UNL A   1      41.565  27.737  28.734  1.00  0.00     0.034 A 
ATOM     54  C   UNL A   1      40.950  30.674  34.536  1.00  0.00     0.049 A 
ATOM     55  C   UNL A   1      42.330  27.650  30.029  1.00  0.00     0.074 A 
ATOM     56  C   UNL A   1      41.712  30.480  35.675  1.00  0.00     0.029 A 
ATOM     57  N   UNL A   1      41.447  29.812  33.571  1.00  0.00    -0.354 N 
ATOM     58  N   UNL A   1      42.089  28.242  31.175  1.00  0.00    -0.248 NA
ATOM     59  C   UNL A   1      43.497  26.753  30.053  1.00  0.00     0.031 C 
ATOM     60  C   UNL A   1      42.678  29.508  35.394  1.00  0.00     0.029 A 
ATOM     61  C   UNL A   1      42.504  29.083  34.087  1.00  0.00     0.049 A 
ATOM     62  H   UNL A   1      41.099  29.732  32.653  1.00  0.00     0.167 HD
ATOM     63  C   UNL A   1      43.048  27.763  32.062  1.00  0.00     0.074 A 
ATOM     64  C   UNL A   1      43.856  26.811  31.328  1.00  0.00     0.031 C 
ATOM     65  C   UNL A   1      43.257  28.095  33.359  1.00  0.00     0.034 A 
BRANCH  52  66
ATOM     66  C   UNL A   1      39.400  32.416  35.506  1.00  0.00     0.023 A 
ATOM     67  C   UNL A   1      38.489  31.871  36.434  1.00  0.00     0.012 A 
ATOM     68  C   UNL A   1      39.926  33.703  35.726  1.00  0.00     0.148 A 
ATOM     69  C   UNL A   1      38.091  32.603  37.552  1.00  0.00     0.002 A 
ATOM     70  C   UNL A   1      39.554  34.412  36.864  1.00  0.00     0.091 A 
ATOM     71  F   UNL A   1      40.775  34.210  34.822  1.00  0.00    -0.205 F 
ATOM     72  C   UNL A   1      38.632  33.867  37.773  1.00  0.00     0.022 A 
BRANCH  70  73
ATOM     73  S   UNL A   1      40.243  36.018  37.278  1.00  0.00     0.127 S 
ATOM     74  O   UNL A   1      39.851  36.816  36.117  1.00  0.00    -0.237 OA
ATOM     75  O   UNL A   1      39.531  36.349  38.513  1.00  0.00    -0.237 OA
ATOM     76  O   UNL A   1      41.676  35.814  37.436  1.00  0.00    -0.744 OA
ENDBRANCH  70  73
ENDBRANCH  52  66
BRANCH  53  77
ATOM     77  C   UNL A   1      41.986  26.941  27.545  1.00  0.00     0.023 A 
ATOM     78  C   UNL A   1      42.605  27.583  26.456  1.00  0.00     0.012 A 
ATOM     79  C   UNL A   1      41.765  25.551  27.487  1.00  0.00     0.148 A 
ATOM     80  C   UNL A   1      42.960  26.863  25.314  1.00  0.00     0.002 A 
ATOM     81  C   UNL A   1      42.174  24.831  26.369  1.00  0.00     0.091 A 
ATOM     82  F   UNL A   1      41.152  24.958  28.520  1.00  0.00    -0.205 F 
ATOM     83  C   UNL A   1      42.753  25.488  25.274  1.00  0.00     0.022 A 
BRANCH  81  84
ATOM     84  S   UNL A   1      42.061  23.039  26.305  1.00  0.00     0.127 S 
ATOM     85  O   UNL A   1      42.700  22.744  25.026  1.00  0.00    -0.237 OA
ATOM     86  O   UNL A   1      42.829  22.640  27.485  1.00  0.00    -0.237 OA
ATOM     87  O   UNL A   1      40.638  22.742  26.395  1.00  0.00    -0.744 OA
ENDBRANCH  81  84
ENDBRANCH  53  77
BRANCH  65  88
ATOM     88  C   UNL A   1      44.382  27.401  34.083  1.00  0.00     0.023 A 
ATOM     89  C   UNL A   1      45.677  27.956  34.056  1.00  0.00     0.012 A 
ATOM     90  C   UNL A   1      44.146  26.234  34.836  1.00  0.00     0.148 A 
ATOM     91  C   UNL A   1      46.727  27.340  34.737  1.00  0.00     0.002 A 
ATOM     92  C   UNL A   1      45.186  25.652  35.550  1.00  0.00     0.091 A 
ATOM     93  F   UNL A   1      42.911  25.710  34.835  1.00  0.00    -0.205 F 
ATOM     94  C   UNL A   1      46.479  26.196  35.491  1.00  0.00     0.022 A 
BRANCH  92  95
ATOM     95  S   UNL A   1      44.938  24.232  36.621  1.00  0.00     0.127 S 
ATOM     96  O   UNL A   1      46.265  24.065  37.209  1.00  0.00    -0.237 OA
ATOM     97  O   UNL A   1      43.915  24.715  37.551  1.00  0.00    -0.237 OA
ATOM     98  O   UNL A   1      44.495  23.150  35.751  1.00  0.00    -0.744 OA
ENDBRANCH  92  95
ENDBRANCH  65  88
ENDBRANCH  39  40
ENDBRANCH  32  34
ENDBRANCH  31  32
ENDBRANCH  30  31
ENDBRANCH   1  30
TORSDOF 20
ENDMDL
MODEL 2
REMARK VINA RESULT:     -11.3      4.770     10.429
REMARK SMILES CC(=O)[NH+]1CCC2(CC1)C[C@H](C(=O)OCCOCCOC(=O)c1ccc(-c3c4nc(c(-c5cccc(S(=O)(=O)[O-])c5F)c5ccc([nH]5)c(-c5cccc(S(=O)(=O)[O-])c5F)c5nc(c(-c6cccc(S(=O)(=O)[O-])c6F)c6ccc3[nH]6)C=C5)C=C4)cc1)[N@H+](Cc1ncc[nH]1)C2
REMARK SMILES IDX 18 1 17 2 16 3 15 4 14 5 12 6 13 7 11 8 4 9 5 10 9 11 6 13
REMARK SMILES IDX 8 14 7 15 10 16 93 17 86 18 2 20 1 21 3 22 87 23 88 24 89 25
REMARK SMILES IDX 92 26 90 27 91 28 19 30 20 31 21 32 22 33 23 34 24 35 85 36
REMARK SMILES IDX 25 37 84 38 26 39 27 40 28 41 78 42 29 43 83 44 77 45 79 46
REMARK SMILES IDX 30 47 82 48 76 49 75 50 31 52 63 53 43 54 62 55 44 56 47 57
REMARK SMILES IDX 61 58 80 59 45 60 46 61 60 63 81 64 48 65 32 66 33 67 41 68
REMARK SMILES IDX 34 69 36 70 42 71 35 72 37 73 38 74 39 75 40 76 64 77 65 78
REMARK SMILES IDX 73 79 66 80 68 81 74 82 67 83 69 84 70 85 71 86 72 87 49 88
REMARK SMILES IDX 50 89 58 90 51 91 53 92 59 93 52 94 54 95 55 96 56 97 57 98
REMARK H PARENT 4 12 86 19 92 29 79 51 47 62
REMARK Flexibility Score: inf
ROOT
ATOM      1  C   UNL A   1      36.005  21.341  24.245  1.00  0.00     0.202 C 
ENDROOT
BRANCH   1   2
ATOM      2  O   UNL A   1      34.948  22.205  24.655  1.00  0.00    -0.374 OA
BRANCH   2   3
ATOM      3  C   UNL A   1      33.608  21.842  24.328  1.00  0.00     0.202 C 
BRANCH   3   4
ATOM      4  C   UNL A   1      32.633  22.931  23.867  1.00  0.00     0.261 C 
BRANCH   4   5
ATOM      5  O   UNL A   1      32.933  23.463  22.572  1.00  0.00    -0.459 OA
BRANCH   5   6
ATOM      6  C   UNL A   1      33.308  24.775  22.594  1.00  0.00     0.365 C 
ATOM      7  O   UNL A   1      33.794  25.368  21.631  1.00  0.00    -0.245 OA
BRANCH   6   8
ATOM      8  C   UNL A   1      32.852  25.481  23.880  1.00  0.00     0.296 C 
ATOM      9  N   UNL A   1      32.439  30.071  26.680  1.00  0.00    -0.272 N 
ATOM     10  C   UNL A   1      32.145  29.994  25.264  1.00  0.00     0.270 C 
ATOM     11  C   UNL A   1      32.331  28.815  27.423  1.00  0.00     0.270 C 
ATOM     12  H   UNL A   1      33.217  30.667  26.781  1.00  0.00     0.356 HD
ATOM     13  C   UNL A   1      33.065  28.951  24.644  1.00  0.00     0.075 C 
ATOM     14  C   UNL A   1      33.127  27.679  26.764  1.00  0.00     0.075 C 
ATOM     15  C   UNL A   1      32.849  27.545  25.243  1.00  0.00     0.036 C 
ATOM     16  C   UNL A   1      33.777  26.493  24.575  1.00  0.00     0.091 C 
ATOM     17  C   UNL A   1      31.437  26.993  24.956  1.00  0.00     0.270 C 
ATOM     18  N   UNL A   1      31.526  26.139  23.776  1.00  0.00    -0.316 N 
ATOM     19  H   UNL A   1      30.782  25.441  23.776  1.00  0.00     0.349 HD
BRANCH   9  20
ATOM     20  C   UNL A   1      32.799  31.306  27.193  1.00  0.00     0.308 C 
ATOM     21  C   UNL A   1      31.749  32.379  27.179  1.00  0.00     0.164 C 
ATOM     22  O   UNL A   1      33.897  31.517  27.708  1.00  0.00    -0.231 OA
ENDBRANCH   9  20
BRANCH  18  23
ATOM     23  C   UNL A   1      31.170  26.750  22.479  1.00  0.00     0.339 C 
BRANCH  23  24
ATOM     24  C   UNL A   1      30.285  27.966  22.460  1.00  0.00     0.161 A 
ATOM     25  N   UNL A   1      29.030  28.066  22.858  1.00  0.00    -0.236 NA
ATOM     26  N   UNL A   1      30.717  29.182  21.979  1.00  0.00    -0.344 N 
ATOM     27  C   UNL A   1      28.618  29.333  22.536  1.00  0.00     0.131 A 
ATOM     28  C   UNL A   1      29.652  30.040  21.975  1.00  0.00     0.104 A 
ATOM     29  H   UNL A   1      31.633  29.396  21.688  1.00  0.00     0.167 HD
ENDBRANCH  23  24
ENDBRANCH  18  23
ENDBRANCH   6   8
ENDBRANCH   5   6
ENDBRANCH   4   5
ENDBRANCH   3   4
ENDBRANCH   2   3
ENDBRANCH   1   2
BRANCH   1  30
ATOM     30  C   UNL A   1      37.071  20.952  25.275  1.00  0.00     0.261 C 
BRANCH  30  31
ATOM     31  O   UNL A   1      38.279  21.720  25.151  1.00  0.00    -0.460 OA
BRANCH  31  32
ATOM     32  C   UNL A   1      39.226  21.423  26.071  1.00  0.00     0.338 C 
ATOM     33  O   UNL A   1      39.786  20.342  26.231  1.00  0.00    -0.246 OA
BRANCH  32  34
ATOM     34  C   UNL A   1      39.661  22.638  26.778  1.00  0.00     0.060 A 
ATOM     35  C   UNL A   1      39.050  23.846  26.414  1.00  0.00     0.016 A 
ATOM     36  C   UNL A   1      40.711  22.619  27.696  1.00  0.00     0.016 A 
ATOM     37  C   UNL A   1      39.529  25.048  26.924  1.00  0.00     0.010 A 
ATOM     38  C   UNL A   1      41.199  23.831  28.198  1.00  0.00     0.010 A 
ATOM     39  C   UNL A   1      40.638  25.051  27.780  1.00  0.00    -0.014 A 
BRANCH  39  40
ATOM     40  C   UNL A   1      41.290  26.343  28.097  1.00  0.00     0.031 A 
ATOM     41  C   UNL A   1      42.691  26.592  27.605  1.00  0.00     0.074 A 
ATOM     42  C   UNL A   1      40.623  27.301  28.764  1.00  0.00     0.049 A 
ATOM     43  N   UNL A   1      43.434  27.661  27.730  1.00  0.00    -0.248 NA
ATOM     44  C   UNL A   1      43.342  25.492  26.871  1.00  0.00     0.031 C 
ATOM     45  C   UNL A   1      39.262  27.175  29.285  1.00  0.00     0.029 A 
ATOM     46  N   UNL A   1      41.008  28.566  29.128  1.00  0.00    -0.354 N 
ATOM     47  C   UNL A   1      44.636  27.365  27.097  1.00  0.00     0.074 A 
ATOM     48  C   UNL A   1      44.537  26.006  26.614  1.00  0.00     0.031 C 
ATOM     49  C   UNL A   1      38.935  28.310  29.926  1.00  0.00     0.029 A 
ATOM     50  C   UNL A   1      40.064  29.236  29.869  1.00  0.00     0.049 A 
ATOM     51  H   UNL A   1      41.877  28.957  28.882  1.00  0.00     0.167 HD
ATOM     52  C   UNL A   1      45.714  28.162  26.910  1.00  0.00     0.034 A 
ATOM     53  C   UNL A   1      40.115  30.454  30.446  1.00  0.00     0.034 A 
ATOM     54  C   UNL A   1      45.807  29.517  27.381  1.00  0.00     0.049 A 
ATOM     55  C   UNL A   1      41.338  31.309  30.242  1.00  0.00     0.074 A 
ATOM     56  C   UNL A   1      46.855  30.410  27.237  1.00  0.00     0.029 A 
ATOM     57  N   UNL A   1      44.814  30.177  28.088  1.00  0.00    -0.354 N 
ATOM     58  N   UNL A   1      42.422  31.052  29.549  1.00  0.00    -0.248 NA
ATOM     59  C   UNL A   1      41.329  32.642  30.866  1.00  0.00     0.031 C 
ATOM     60  C   UNL A   1      46.499  31.607  27.867  1.00  0.00     0.029 A 
ATOM     61  C   UNL A   1      45.222  31.465  28.386  1.00  0.00     0.049 A 
ATOM     62  H   UNL A   1      43.946  29.786  28.340  1.00  0.00     0.167 HD
ATOM     63  C   UNL A   1      43.205  32.200  29.624  1.00  0.00     0.074 A 
ATOM     64  C   UNL A   1      42.458  33.164  30.406  1.00  0.00     0.031 C 
ATOM     65  C   UNL A   1      44.438  32.431  29.112  1.00  0.00     0.034 A 
BRANCH  52  66
ATOM     66  C   UNL A   1      46.866  27.606  26.116  1.00  0.00     0.023 A 
ATOM     67  C   UNL A   1      46.906  27.819  24.723  1.00  0.00     0.012 A 
ATOM     68  C   UNL A   1      47.935  26.940  26.745  1.00  0.00     0.148 A 
ATOM     69  C   UNL A   1      47.983  27.360  23.965  1.00  0.00     0.002 A 
ATOM     70  C   UNL A   1      49.023  26.519  25.988  1.00  0.00     0.091 A 
ATOM     71  F   UNL A   1      47.867  26.730  28.067  1.00  0.00    -0.205 F 
ATOM     72  C   UNL A   1      49.045  26.721  24.599  1.00  0.00     0.022 A 
BRANCH  70  73
ATOM     73  S   UNL A   1      50.474  25.748  26.715  1.00  0.00     0.127 S 
ATOM     74  O   UNL A   1      51.320  25.544  25.540  1.00  0.00    -0.237 OA
ATOM     75  O   UNL A   1      50.947  26.785  27.633  1.00  0.00    -0.237 OA
ATOM     76  O   UNL A   1      50.004  24.531  27.361  1.00  0.00    -0.744 OA
ENDBRANCH  70  73
ENDBRANCH  52  66
BRANCH  53  77
ATOM     77  C   UNL A   1      38.959  30.955  31.244  1.00  0.00     0.023 A 
ATOM     78  C   UNL A   1      38.880  30.665  32.619  1.00  0.00     0.012 A 
ATOM     79  C   UNL A   1      37.934  31.709  30.642  1.00  0.00     0.148 A 
ATOM     80  C   UNL A   1      37.781  31.082  33.372  1.00  0.00     0.002 A 
ATOM     81  C   UNL A   1      36.870  32.171  31.411  1.00  0.00     0.091 A 
ATOM     82  F   UNL A   1      38.010  31.956  29.327  1.00  0.00    -0.205 F 
ATOM     83  C   UNL A   1      36.782  31.842  32.771  1.00  0.00     0.022 A 
BRANCH  81  84
ATOM     84  S   UNL A   1      35.618  33.266  30.733  1.00  0.00     0.127 S 
ATOM     85  O   UNL A   1      35.780  34.457  31.562  1.00  0.00    -0.237 OA
ATOM     86  O   UNL A   1      36.058  33.415  29.346  1.00  0.00    -0.237 OA
ATOM     87  O   UNL A   1      34.360  32.547  30.882  1.00  0.00    -0.744 OA
ENDBRANCH  81  84
ENDBRANCH  53  77
BRANCH  65  88
ATOM     88  C   UNL A   1      45.048  33.789  29.349  1.00  0.00     0.023 A 
ATOM     89  C   UNL A   1      45.798  34.023  30.519  1.00  0.00     0.012 A 
ATOM     90  C   UNL A   1      44.927  34.813  28.389  1.00  0.00     0.148 A 
ATOM     91  C   UNL A   1      46.387  35.266  30.747  1.00  0.00     0.002 A 
ATOM     92  C   UNL A   1      45.557  36.034  28.600  1.00  0.00     0.091 A 
ATOM     93  F   UNL A   1      44.194  34.578  27.291  1.00  0.00    -0.205 F 
ATOM     94  C   UNL A   1      46.275  36.267  29.784  1.00  0.00     0.022 A 
BRANCH  92  95
ATOM     95  S   UNL A   1      45.542  37.345  27.374  1.00  0.00     0.127 S 
ATOM     96  O   UNL A   1      46.171  38.444  28.104  1.00  0.00    -0.237 OA
ATOM     97  O   UNL A   1      46.362  36.779  26.300  1.00  0.00    -0.237 OA
ATOM     98  O   UNL A   1      44.144  37.545  27.020  1.00  0.00    -0.744 OA
ENDBRANCH  92  95
ENDBRANCH  65  88
ENDBRANCH  39  40
ENDBRANCH  32  34
ENDBRANCH  31  32
ENDBRANCH  30  31
ENDBRANCH   1  30
TORSDOF 20
ENDMDL
MODEL 3
REMARK VINA RESULT:     -11.2      4.928     10.464
REMARK SMILES CC(=O)[NH+]1CCC2(CC1)C[C@H](C(=O)OCCOCCOC(=O)c1ccc(-c3c4nc(c(-c5cccc(S(=O)(=O)[O-])c5F)c5ccc([nH]5)c(-c5cccc(S(=O)(=O)[O-])c5F)c5nc(c(-c6cccc(S(=O)(=O)[O-])c6F)c6ccc3[nH]6)C=C5)C=C4)cc1)[N@H+](Cc1ncc[nH]1)C2
REMARK SMILES IDX 18 1 17 2 16 3 15 4 14 5 12 6 13 7 11 8 4 9 5 10 9 11 6 13
REMARK SMILES IDX 8 14 7 15 10 16 93 17 86 18 2 20 1 21 3 22 87 23 88 24 89 25
REMARK SMILES IDX 92 26 90 27 91 28 19 30 20 31 21 32 22 33 23 34 24 35 85 36
REMARK SMILES IDX 25 37 84 38 26 39 27 40 28 41 78 42 29 43 83 44 77 45 79 46
REMARK SMILES IDX 30 47 82 48 76 49 75 50 31 52 63 53 43 54 62 55 44 56 47 57
REMARK SMILES IDX 61 58 80 59 45 60 46 61 60 63 81 64 48 65 32 66 33 67 41 68
REMARK SMILES IDX 34 69 36 70 42 71 35 72 37 73 38 74 39 75 40 76 64 77 65 78
REMARK SMILES IDX 73 79 66 80 68 81 74 82 67 83 69 84 70 85 71 86 72 87 49 88
REMARK SMILES IDX 50 89 58 90 51 91 53 92 59 93 52 94 54 95 55 96 56 97 57 98
REMARK H PARENT 4 12 86 19 92 29 79 51 47 62
REMARK Flexibility Score: inf
ROOT
ATOM      1  C   UNL A   1      35.856  21.003  25.297  1.00  0.00     0.202 C 
ENDROOT
BRANCH   1   2
ATOM      2  O   UNL A   1      35.334  22.307  25.542  1.00  0.00    -0.374 OA
BRANCH   2   3
ATOM      3  C   UNL A   1      34.239  22.760  24.750  1.00  0.00     0.202 C 
BRANCH   3   4
ATOM      4  C   UNL A   1      32.810  22.451  25.209  1.00  0.00     0.261 C 
BRANCH   4   5
ATOM      5  O   UNL A   1      32.134  23.574  25.787  1.00  0.00    -0.459 OA
BRANCH   5   6
ATOM      6  C   UNL A   1      31.339  24.247  24.905  1.00  0.00     0.365 C 
ATOM      7  O   UNL A   1      30.600  23.699  24.088  1.00  0.00    -0.245 OA
BRANCH   6   8
ATOM      8  C   UNL A   1      31.307  25.756  25.197  1.00  0.00     0.296 C 
ATOM      9  N   UNL A   1      33.893  30.115  27.038  1.00  0.00    -0.272 N 
ATOM     10  C   UNL A   1      34.526  29.142  26.173  1.00  0.00     0.270 C 
ATOM     11  C   UNL A   1      32.432  30.177  26.967  1.00  0.00     0.270 C 
ATOM     12  H   UNL A   1      34.368  30.087  27.899  1.00  0.00     0.356 HD
ATOM     13  C   UNL A   1      33.940  27.772  26.489  1.00  0.00     0.075 C 
ATOM     14  C   UNL A   1      31.783  28.795  27.136  1.00  0.00     0.075 C 
ATOM     15  C   UNL A   1      32.420  27.708  26.228  1.00  0.00     0.036 C 
ATOM     16  C   UNL A   1      31.850  26.295  26.531  1.00  0.00     0.091 C 
ATOM     17  C   UNL A   1      32.067  27.914  24.741  1.00  0.00     0.270 C 
ATOM     18  N   UNL A   1      31.914  26.594  24.135  1.00  0.00    -0.316 N 
ATOM     19  H   UNL A   1      31.300  26.638  23.322  1.00  0.00     0.349 HD
BRANCH   9  20
ATOM     20  C   UNL A   1      34.713  30.882  27.847  1.00  0.00     0.308 C 
ATOM     21  C   UNL A   1      35.608  30.144  28.800  1.00  0.00     0.164 C 
ATOM     22  O   UNL A   1      34.778  32.109  27.756  1.00  0.00    -0.231 OA
ENDBRANCH   9  20
BRANCH  18  23
ATOM     23  C   UNL A   1      33.085  26.045  23.421  1.00  0.00     0.339 C 
BRANCH  23  24
ATOM     24  C   UNL A   1      32.908  25.516  22.024  1.00  0.00     0.161 A 
ATOM     25  N   UNL A   1      33.332  24.367  21.529  1.00  0.00    -0.236 NA
ATOM     26  N   UNL A   1      32.255  26.230  21.044  1.00  0.00    -0.344 N 
ATOM     27  C   UNL A   1      33.037  24.387  20.191  1.00  0.00     0.131 A 
ATOM     28  C   UNL A   1      32.377  25.545  19.866  1.00  0.00     0.104 A 
ATOM     29  H   UNL A   1      31.784  27.084  21.169  1.00  0.00     0.167 HD
ENDBRANCH  23  24
ENDBRANCH  18  23
ENDBRANCH   6   8
ENDBRANCH   5   6
ENDBRANCH   4   5
ENDBRANCH   3   4
ENDBRANCH   2   3
ENDBRANCH   1   2
BRANCH   1  30
ATOM     30  C   UNL A   1      37.352  20.860  24.993  1.00  0.00     0.261 C 
BRANCH  30  31
ATOM     31  O   UNL A   1      38.118  22.009  25.388  1.00  0.00    -0.460 OA
BRANCH  31  32
ATOM     32  C   UNL A   1      39.218  21.720  26.121  1.00  0.00     0.338 C 
ATOM     33  O   UNL A   1      39.837  20.659  26.137  1.00  0.00    -0.246 OA
BRANCH  32  34
ATOM     34  C   UNL A   1      39.724  22.926  26.795  1.00  0.00     0.060 A 
ATOM     35  C   UNL A   1      39.190  24.158  26.393  1.00  0.00     0.016 A 
ATOM     36  C   UNL A   1      40.766  22.870  27.721  1.00  0.00     0.016 A 
ATOM     37  C   UNL A   1      39.739  25.342  26.871  1.00  0.00     0.010 A 
ATOM     38  C   UNL A   1      41.326  24.064  28.190  1.00  0.00     0.010 A 
ATOM     39  C   UNL A   1      40.843  25.303  27.734  1.00  0.00    -0.014 A 
BRANCH  39  40
ATOM     40  C   UNL A   1      41.571  26.561  28.017  1.00  0.00     0.031 A 
ATOM     41  C   UNL A   1      43.006  26.688  27.576  1.00  0.00     0.074 A 
ATOM     42  C   UNL A   1      40.947  27.595  28.609  1.00  0.00     0.049 A 
ATOM     43  N   UNL A   1      43.817  27.708  27.683  1.00  0.00    -0.248 NA
ATOM     44  C   UNL A   1      43.605  25.511  26.924  1.00  0.00     0.031 C 
ATOM     45  C   UNL A   1      39.562  27.589  29.075  1.00  0.00     0.029 A 
ATOM     46  N   UNL A   1      41.407  28.847  28.929  1.00  0.00    -0.354 N 
ATOM     47  C   UNL A   1      45.019  27.299  27.118  1.00  0.00     0.074 A 
ATOM     48  C   UNL A   1      44.843  25.927  26.696  1.00  0.00     0.031 C 
ATOM     49  C   UNL A   1      39.290  28.776  29.647  1.00  0.00     0.029 A 
ATOM     50  C   UNL A   1      40.483  29.617  29.596  1.00  0.00     0.049 A 
ATOM     51  H   UNL A   1      42.310  29.165  28.703  1.00  0.00     0.167 HD
ATOM     52  C   UNL A   1      46.157  28.009  26.940  1.00  0.00     0.034 A 
ATOM     53  C   UNL A   1      40.597  30.856  30.116  1.00  0.00     0.034 A 
ATOM     54  C   UNL A   1      46.327  29.376  27.351  1.00  0.00     0.049 A 
ATOM     55  C   UNL A   1      41.886  31.614  29.926  1.00  0.00     0.074 A 
ATOM     56  C   UNL A   1      47.441  30.186  27.211  1.00  0.00     0.029 A 
ATOM     57  N   UNL A   1      45.356  30.138  27.982  1.00  0.00    -0.354 N 
ATOM     58  N   UNL A   1      42.976  31.248  29.294  1.00  0.00    -0.248 NA
ATOM     59  C   UNL A   1      41.946  32.973  30.485  1.00  0.00     0.031 C 
ATOM     60  C   UNL A   1      47.146  31.435  27.767  1.00  0.00     0.029 A 
ATOM     61  C   UNL A   1      45.842  31.408  28.236  1.00  0.00     0.049 A 
ATOM     62  H   UNL A   1      44.453  29.821  28.214  1.00  0.00     0.167 HD
ATOM     63  C   UNL A   1      43.834  32.342  29.348  1.00  0.00     0.074 A 
ATOM     64  C   UNL A   1      43.126  33.392  30.050  1.00  0.00     0.031 C 
ATOM     65  C   UNL A   1      45.100  32.461  28.881  1.00  0.00     0.034 A 
BRANCH  52  66
ATOM     66  C   UNL A   1      47.298  27.335  26.225  1.00  0.00     0.023 A 
ATOM     67  C   UNL A   1      47.393  27.449  24.823  1.00  0.00     0.012 A 
ATOM     68  C   UNL A   1      48.308  26.656  26.933  1.00  0.00     0.148 A 
ATOM     69  C   UNL A   1      48.463  26.879  24.134  1.00  0.00     0.002 A 
ATOM     70  C   UNL A   1      49.391  26.123  26.244  1.00  0.00     0.091 A 
ATOM     71  F   UNL A   1      48.188  26.542  28.263  1.00  0.00    -0.205 F 
ATOM     72  C   UNL A   1      49.467  26.227  24.845  1.00  0.00     0.022 A 
BRANCH  70  73
ATOM     73  S   UNL A   1      50.772  25.324  27.069  1.00  0.00     0.127 S 
ATOM     74  O   UNL A   1      50.103  24.229  27.772  1.00  0.00    -0.237 OA
ATOM     75  O   UNL A   1      51.605  24.905  25.941  1.00  0.00    -0.237 OA
ATOM     76  O   UNL A   1      51.372  26.337  27.926  1.00  0.00    -0.744 OA
ENDBRANCH  70  73
ENDBRANCH  52  66
BRANCH  53  77
ATOM     77  C   UNL A   1      39.449  31.475  30.838  1.00  0.00     0.023 A 
ATOM     78  C   UNL A   1      38.439  32.135  30.113  1.00  0.00     0.012 A 
ATOM     79  C   UNL A   1      39.360  31.419  32.243  1.00  0.00     0.148 A 
ATOM     80  C   UNL A   1      37.383  32.765  30.775  1.00  0.00     0.002 A 
ATOM     81  C   UNL A   1      38.275  31.999  32.892  1.00  0.00     0.091 A 
ATOM     82  F   UNL A   1      40.341  30.809  32.921  1.00  0.00    -0.205 F 
ATOM     83  C   UNL A   1      37.297  32.689  32.162  1.00  0.00     0.022 A 
BRANCH  81  84
ATOM     84  S   UNL A   1      38.028  31.825  34.663  1.00  0.00     0.127 S 
ATOM     85  O   UNL A   1      38.069  30.375  34.831  1.00  0.00    -0.237 OA
ATOM     86  O   UNL A   1      39.183  32.542  35.206  1.00  0.00    -0.237 OA
ATOM     87  O   UNL A   1      36.749  32.468  34.935  1.00  0.00    -0.744 OA
ENDBRANCH  81  84
ENDBRANCH  53  77
BRANCH  65  88
ATOM     88  C   UNL A   1      45.795  33.784  29.080  1.00  0.00     0.023 A 
ATOM     89  C   UNL A   1      46.660  33.960  30.178  1.00  0.00     0.012 A 
ATOM     90  C   UNL A   1      45.636  34.830  28.150  1.00  0.00     0.148 A 
ATOM     91  C   UNL A   1      47.328  35.169  30.368  1.00  0.00     0.002 A 
ATOM     92  C   UNL A   1      46.341  36.016  28.319  1.00  0.00     0.091 A 
ATOM     93  F   UNL A   1      44.794  34.651  27.121  1.00  0.00    -0.205 F 
ATOM     94  C   UNL A   1      47.176  36.192  29.435  1.00  0.00     0.022 A 
BRANCH  92  95
ATOM     95  S   UNL A   1      46.278  37.350  27.119  1.00  0.00     0.127 S 
ATOM     96  O   UNL A   1      47.044  38.396  27.793  1.00  0.00    -0.237 OA
ATOM     97  O   UNL A   1      46.945  36.758  25.958  1.00  0.00    -0.237 OA
ATOM     98  O   UNL A   1      44.864  37.637  26.917  1.00  0.00    -0.744 OA
ENDBRANCH  92  95
ENDBRANCH  65  88
ENDBRANCH  39  40
ENDBRANCH  32  34
ENDBRANCH  31  32
ENDBRANCH  30  31
ENDBRANCH   1  30
TORSDOF 20
ENDMDL
