MODEL 1
REMARK VINA RESULT:      -9.8      0.000      0.000
REMARK SMILES C[C@H](C(=O)OCCOCCOC(=O)c1ccc(-c2c3nc(c(-c4cccc(S(=O)(=O)[O-])c4F)c4ccc([nH]4)c(-c4cccc(S(=O)(=O)[O-])c4F)c4nc(c(-c5cccc(S(=O)(=O)[O-])c5F)c5ccc2[nH]5)C=C4)C=C3)cc1)[C@H](C)[S@@](=O)C(C)(C)C
REMARK SMILES IDX 8 1 7 2 6 3 5 4 3 5 4 6 2 7 1 8 77 9 78 10 79 11 80 12 81 13
REMARK SMILES IDX 82 14 83 15 84 16 9 17 10 18 11 19 12 20 13 21 14 22 15 23
REMARK SMILES IDX 76 24 16 25 75 26 17 27 18 28 19 29 69 30 20 31 74 32 68 33
REMARK SMILES IDX 70 34 21 35 73 36 67 37 66 38 22 40 54 41 34 42 53 43 35 44
REMARK SMILES IDX 38 45 52 46 71 47 36 48 37 49 51 51 72 52 39 53 23 54 24 55
REMARK SMILES IDX 32 56 25 57 27 58 33 59 26 60 28 61 29 62 30 63 31 64 55 65
REMARK SMILES IDX 56 66 64 67 57 68 59 69 65 70 58 71 60 72 61 73 62 74 63 75
REMARK SMILES IDX 40 76 41 77 49 78 42 79 44 80 50 81 43 82 45 83 46 84 47 85
REMARK SMILES IDX 48 86
REMARK H PARENT 70 39 38 50
REMARK Flexibility Score: inf
ROOT
ATOM      1  O   UNL A   1      32.699  28.454  24.736  1.00  0.00    -0.374 OA
ENDROOT
BRANCH   1   2
ATOM      2  C   UNL A   1      32.463  27.176  25.296  1.00  0.00     0.202 C 
BRANCH   2   3
ATOM      3  C   UNL A   1      33.566  26.121  25.078  1.00  0.00     0.261 C 
BRANCH   3   4
ATOM      4  O   UNL A   1      33.128  24.821  24.597  1.00  0.00    -0.463 OA
BRANCH   4   5
ATOM      5  C   UNL A   1      33.964  24.141  23.756  1.00  0.00     0.309 C 
ATOM      6  O   UNL A   1      34.158  24.473  22.595  1.00  0.00    -0.252 OA
BRANCH   5   7
ATOM      7  C   UNL A   1      34.463  22.820  24.379  1.00  0.00     0.111 C 
ATOM      8  C   UNL A   1      35.749  23.180  25.144  1.00  0.00     0.021 C 
BRANCH   7   9
ATOM      9  C   UNL A   1      33.594  21.777  25.194  1.00  0.00     0.090 C 
ATOM     10  C   UNL A   1      34.190  21.463  26.556  1.00  0.00     0.023 C 
BRANCH   9  11
ATOM     11  S   UNL A   1      32.526  20.556  24.366  1.00  0.00     0.030 S 
ATOM     12  O   UNL A   1      32.124  21.003  23.000  1.00  0.00    -0.259 OA
BRANCH  11  13
ATOM     13  C   UNL A   1      33.028  18.765  24.370  1.00  0.00     0.038 C 
ATOM     14  C   UNL A   1      32.598  18.039  25.668  1.00  0.00     0.025 C 
ATOM     15  C   UNL A   1      32.695  17.975  23.104  1.00  0.00     0.025 C 
ATOM     16  C   UNL A   1      34.575  18.718  24.480  1.00  0.00     0.025 C 
ENDBRANCH  11  13
ENDBRANCH   9  11
ENDBRANCH   7   9
ENDBRANCH   5   7
ENDBRANCH   4   5
ENDBRANCH   3   4
ENDBRANCH   2   3
ENDBRANCH   1   2
BRANCH   1  17
ATOM     17  C   UNL A   1      31.867  29.527  25.165  1.00  0.00     0.202 C 
BRANCH  17  18
ATOM     18  C   UNL A   1      32.235  30.280  26.445  1.00  0.00     0.261 C 
BRANCH  18  19
ATOM     19  O   UNL A   1      33.640  30.359  26.621  1.00  0.00    -0.460 OA
BRANCH  19  20
ATOM     20  C   UNL A   1      34.027  31.450  27.304  1.00  0.00     0.338 C 
ATOM     21  O   UNL A   1      33.678  32.604  27.184  1.00  0.00    -0.246 OA
BRANCH  20  22
ATOM     22  C   UNL A   1      35.174  31.079  28.097  1.00  0.00     0.060 A 
ATOM     23  C   UNL A   1      36.239  31.967  28.206  1.00  0.00     0.016 A 
ATOM     24  C   UNL A   1      35.162  29.803  28.668  1.00  0.00     0.016 A 
ATOM     25  C   UNL A   1      37.382  31.520  28.826  1.00  0.00     0.010 A 
ATOM     26  C   UNL A   1      36.288  29.375  29.327  1.00  0.00     0.010 A 
ATOM     27  C   UNL A   1      37.401  30.224  29.365  1.00  0.00    -0.014 A 
BRANCH  27  28
ATOM     28  C   UNL A   1      38.601  29.758  30.045  1.00  0.00     0.031 A 
ATOM     29  C   UNL A   1      38.936  30.314  31.386  1.00  0.00     0.074 A 
ATOM     30  C   UNL A   1      39.367  28.900  29.358  1.00  0.00     0.049 A 
ATOM     31  N   UNL A   1      39.961  30.050  32.140  1.00  0.00    -0.248 NA
ATOM     32  C   UNL A   1      38.014  31.321  31.947  1.00  0.00     0.031 C 
ATOM     33  C   UNL A   1      39.078  28.428  27.997  1.00  0.00     0.029 A 
ATOM     34  N   UNL A   1      40.544  28.302  29.678  1.00  0.00    -0.354 N 
ATOM     35  C   UNL A   1      39.830  30.871  33.252  1.00  0.00     0.074 A 
ATOM     36  C   UNL A   1      38.633  31.660  33.069  1.00  0.00     0.031 C 
ATOM     37  C   UNL A   1      40.066  27.619  27.595  1.00  0.00     0.029 A 
ATOM     38  C   UNL A   1      41.056  27.539  28.658  1.00  0.00     0.049 A 
ATOM     39  H   UNL A   1      40.986  28.406  30.553  1.00  0.00     0.167 HD
ATOM     40  C   UNL A   1      40.649  30.932  34.325  1.00  0.00     0.034 A 
ATOM     41  C   UNL A   1      42.211  26.859  28.608  1.00  0.00     0.034 A 
ATOM     42  C   UNL A   1      41.824  30.107  34.434  1.00  0.00     0.049 A 
ATOM     43  C   UNL A   1      43.046  26.869  29.852  1.00  0.00     0.074 A 
ATOM     44  C   UNL A   1      42.720  30.006  35.478  1.00  0.00     0.029 A 
ATOM     45  N   UNL A   1      42.259  29.237  33.439  1.00  0.00    -0.354 N 
ATOM     46  N   UNL A   1      42.849  27.544  30.962  1.00  0.00    -0.248 NA
ATOM     47  C   UNL A   1      44.221  25.998  29.868  1.00  0.00     0.031 C 
ATOM     48  C   UNL A   1      43.705  29.081  35.108  1.00  0.00     0.029 A 
ATOM     49  C   UNL A   1      43.410  28.589  33.842  1.00  0.00     0.049 A 
ATOM     50  H   UNL A   1      41.812  29.102  32.572  1.00  0.00     0.167 HD
ATOM     51  C   UNL A   1      43.863  27.166  31.825  1.00  0.00     0.074 A 
ATOM     52  C   UNL A   1      44.657  26.180  31.109  1.00  0.00     0.031 C 
ATOM     53  C   UNL A   1      44.134  27.598  33.082  1.00  0.00     0.034 A 
BRANCH  40  54
ATOM     54  C   UNL A   1      40.281  31.875  35.441  1.00  0.00     0.023 A 
ATOM     55  C   UNL A   1      41.019  33.065  35.620  1.00  0.00     0.012 A 
ATOM     56  C   UNL A   1      39.198  31.605  36.301  1.00  0.00     0.148 A 
ATOM     57  C   UNL A   1      40.710  33.950  36.655  1.00  0.00     0.002 A 
ATOM     58  C   UNL A   1      38.870  32.512  37.305  1.00  0.00     0.091 A 
ATOM     59  F   UNL A   1      38.522  30.459  36.137  1.00  0.00    -0.205 F 
ATOM     60  C   UNL A   1      39.631  33.678  37.490  1.00  0.00     0.022 A 
BRANCH  58  61
ATOM     61  S   UNL A   1      37.461  32.288  38.398  1.00  0.00     0.127 S 
ATOM     62  O   UNL A   1      37.938  32.918  39.629  1.00  0.00    -0.237 OA
ATOM     63  O   UNL A   1      36.412  33.032  37.701  1.00  0.00    -0.237 OA
ATOM     64  O   UNL A   1      37.238  30.852  38.478  1.00  0.00    -0.744 OA
ENDBRANCH  58  61
ENDBRANCH  40  54
BRANCH  41  65
ATOM     65  C   UNL A   1      42.536  26.070  27.391  1.00  0.00     0.023 A 
ATOM     66  C   UNL A   1      43.383  26.624  26.415  1.00  0.00     0.012 A 
ATOM     67  C   UNL A   1      42.130  24.726  27.267  1.00  0.00     0.148 A 
ATOM     68  C   UNL A   1      43.804  25.861  25.324  1.00  0.00     0.002 A 
ATOM     69  C   UNL A   1      42.596  23.956  26.207  1.00  0.00     0.091 A 
ATOM     70  F   UNL A   1      41.328  24.213  28.211  1.00  0.00    -0.205 F 
ATOM     71  C   UNL A   1      43.423  24.525  25.227  1.00  0.00     0.022 A 
BRANCH  69  72
ATOM     72  S   UNL A   1      42.282  22.189  26.105  1.00  0.00     0.127 S 
ATOM     73  O   UNL A   1      43.055  21.814  24.925  1.00  0.00    -0.237 OA
ATOM     74  O   UNL A   1      42.824  21.703  27.376  1.00  0.00    -0.237 OA
ATOM     75  O   UNL A   1      40.834  22.059  25.992  1.00  0.00    -0.744 OA
ENDBRANCH  69  72
ENDBRANCH  41  65
BRANCH  53  76
ATOM     76  C   UNL A   1      45.335  26.989  33.742  1.00  0.00     0.023 A 
ATOM     77  C   UNL A   1      46.591  27.610  33.601  1.00  0.00     0.012 A 
ATOM     78  C   UNL A   1      45.201  25.845  34.548  1.00  0.00     0.148 A 
ATOM     79  C   UNL A   1      47.710  27.076  34.231  1.00  0.00     0.002 A 
ATOM     80  C   UNL A   1      46.312  25.349  35.213  1.00  0.00     0.091 A 
ATOM     81  F   UNL A   1      43.997  25.264  34.642  1.00  0.00    -0.205 F 
ATOM     82  C   UNL A   1      47.569  25.955  35.047  1.00  0.00     0.022 A 
BRANCH  80  83
ATOM     83  S   UNL A   1      46.199  23.971  36.356  1.00  0.00     0.127 S 
ATOM     84  O   UNL A   1      45.917  22.858  35.453  1.00  0.00    -0.237 OA
ATOM     85  O   UNL A   1      47.535  23.952  36.953  1.00  0.00    -0.237 OA
ATOM     86  O   UNL A   1      45.130  24.311  37.286  1.00  0.00    -0.744 OA
ENDBRANCH  80  83
ENDBRANCH  53  76
ENDBRANCH  27  28
ENDBRANCH  20  22
ENDBRANCH  19  20
ENDBRANCH  18  19
ENDBRANCH  17  18
ENDBRANCH   1  17
TORSDOF 20
ENDMDL
MODEL 2
REMARK VINA RESULT:      -9.6      1.615      2.301
REMARK SMILES C[C@H](C(=O)OCCOCCOC(=O)c1ccc(-c2c3nc(c(-c4cccc(S(=O)(=O)[O-])c4F)c4ccc([nH]4)c(-c4cccc(S(=O)(=O)[O-])c4F)c4nc(c(-c5cccc(S(=O)(=O)[O-])c5F)c5ccc2[nH]5)C=C4)C=C3)cc1)[C@H](C)[S@@](=O)C(C)(C)C
REMARK SMILES IDX 8 1 7 2 6 3 5 4 3 5 4 6 2 7 1 8 77 9 78 10 79 11 80 12 81 13
REMARK SMILES IDX 82 14 83 15 84 16 9 17 10 18 11 19 12 20 13 21 14 22 15 23
REMARK SMILES IDX 76 24 16 25 75 26 17 27 18 28 19 29 69 30 20 31 74 32 68 33
REMARK SMILES IDX 70 34 21 35 73 36 67 37 66 38 22 40 54 41 34 42 53 43 35 44
REMARK SMILES IDX 38 45 52 46 71 47 36 48 37 49 51 51 72 52 39 53 23 54 24 55
REMARK SMILES IDX 32 56 25 57 27 58 33 59 26 60 28 61 29 62 30 63 31 64 55 65
REMARK SMILES IDX 56 66 64 67 57 68 59 69 65 70 58 71 60 72 61 73 62 74 63 75
REMARK SMILES IDX 40 76 41 77 49 78 42 79 44 80 50 81 43 82 45 83 46 84 47 85
REMARK SMILES IDX 48 86
REMARK H PARENT 70 39 38 50
REMARK Flexibility Score: inf
ROOT
ATOM      1  O   UNL A   1      31.801  30.503  25.703  1.00  0.00    -0.374 OA
ENDROOT
BRANCH   1   2
ATOM      2  C   UNL A   1      32.217  29.154  25.809  1.00  0.00     0.202 C 
BRANCH   2   3
ATOM      3  C   UNL A   1      31.399  28.122  25.009  1.00  0.00     0.261 C 
BRANCH   3   4
ATOM      4  O   UNL A   1      32.024  27.597  23.805  1.00  0.00    -0.463 OA
BRANCH   4   5
ATOM      5  C   UNL A   1      31.230  26.919  22.923  1.00  0.00     0.309 C 
ATOM      6  O   UNL A   1      30.109  27.295  22.607  1.00  0.00    -0.252 OA
BRANCH   5   7
ATOM      7  C   UNL A   1      31.829  25.549  22.541  1.00  0.00     0.111 C 
ATOM      8  C   UNL A   1      33.010  25.859  21.604  1.00  0.00     0.021 C 
BRANCH   7   9
ATOM      9  C   UNL A   1      32.190  24.369  23.534  1.00  0.00     0.090 C 
ATOM     10  C   UNL A   1      31.076  23.341  23.644  1.00  0.00     0.023 C 
BRANCH   9  11
ATOM     11  S   UNL A   1      33.361  24.593  24.910  1.00  0.00     0.030 S 
ATOM     12  O   UNL A   1      32.673  25.010  26.166  1.00  0.00    -0.259 OA
BRANCH  11  13
ATOM     13  C   UNL A   1      34.629  23.272  25.242  1.00  0.00     0.038 C 
ATOM     14  C   UNL A   1      34.724  22.918  26.747  1.00  0.00     0.025 C 
ATOM     15  C   UNL A   1      34.562  22.040  24.341  1.00  0.00     0.025 C 
ATOM     16  C   UNL A   1      36.025  23.893  24.975  1.00  0.00     0.025 C 
ENDBRANCH  11  13
ENDBRANCH   9  11
ENDBRANCH   7   9
ENDBRANCH   5   7
ENDBRANCH   4   5
ENDBRANCH   3   4
ENDBRANCH   2   3
ENDBRANCH   1   2
BRANCH   1  17
ATOM     17  C   UNL A   1      31.750  31.273  26.899  1.00  0.00     0.202 C 
BRANCH  17  18
ATOM     18  C   UNL A   1      32.392  32.662  26.910  1.00  0.00     0.261 C 
BRANCH  18  19
ATOM     19  O   UNL A   1      33.120  32.892  28.105  1.00  0.00    -0.460 OA
BRANCH  19  20
ATOM     20  C   UNL A   1      34.247  33.598  27.910  1.00  0.00     0.338 C 
ATOM     21  O   UNL A   1      34.435  34.586  27.233  1.00  0.00    -0.246 OA
BRANCH  20  22
ATOM     22  C   UNL A   1      35.339  32.832  28.460  1.00  0.00     0.060 A 
ATOM     23  C   UNL A   1      35.071  31.622  29.092  1.00  0.00     0.016 A 
ATOM     24  C   UNL A   1      36.615  33.397  28.370  1.00  0.00     0.016 A 
ATOM     25  C   UNL A   1      36.105  31.001  29.749  1.00  0.00     0.010 A 
ATOM     26  C   UNL A   1      37.657  32.751  28.989  1.00  0.00     0.010 A 
ATOM     27  C   UNL A   1      37.383  31.580  29.707  1.00  0.00    -0.014 A 
BRANCH  27  28
ATOM     28  C   UNL A   1      38.486  30.909  30.380  1.00  0.00     0.031 A 
ATOM     29  C   UNL A   1      38.829  31.302  31.775  1.00  0.00     0.074 A 
ATOM     30  C   UNL A   1      39.169  30.023  29.643  1.00  0.00     0.049 A 
ATOM     31  N   UNL A   1      39.781  30.846  32.535  1.00  0.00    -0.248 NA
ATOM     32  C   UNL A   1      38.015  32.365  32.396  1.00  0.00     0.031 C 
ATOM     33  C   UNL A   1      38.882  29.710  28.236  1.00  0.00     0.029 A 
ATOM     34  N   UNL A   1      40.249  29.256  29.945  1.00  0.00    -0.354 N 
ATOM     35  C   UNL A   1      39.705  31.579  33.712  1.00  0.00     0.074 A 
ATOM     36  C   UNL A   1      38.623  32.525  33.563  1.00  0.00     0.031 C 
ATOM     37  C   UNL A   1      39.780  28.821  27.794  1.00  0.00     0.029 A 
ATOM     38  C   UNL A   1      40.706  28.524  28.877  1.00  0.00     0.049 A 
ATOM     39  H   UNL A   1      40.662  29.227  30.839  1.00  0.00     0.167 HD
ATOM     40  C   UNL A   1      40.478  31.443  34.812  1.00  0.00     0.034 A 
ATOM     41  C   UNL A   1      41.769  27.710  28.802  1.00  0.00     0.034 A 
ATOM     42  C   UNL A   1      41.536  30.470  34.884  1.00  0.00     0.049 A 
ATOM     43  C   UNL A   1      42.545  27.508  30.068  1.00  0.00     0.074 A 
ATOM     44  C   UNL A   1      42.367  30.166  35.941  1.00  0.00     0.029 A 
ATOM     45  N   UNL A   1      41.903  29.640  33.828  1.00  0.00    -0.354 N 
ATOM     46  N   UNL A   1      42.385  28.105  31.228  1.00  0.00    -0.248 NA
ATOM     47  C   UNL A   1      43.602  26.497  30.043  1.00  0.00     0.031 C 
ATOM     48  C   UNL A   1      43.245  29.159  35.521  1.00  0.00     0.029 A 
ATOM     49  C   UNL A   1      42.947  28.819  34.207  1.00  0.00     0.049 A 
ATOM     50  H   UNL A   1      41.480  29.638  32.939  1.00  0.00     0.167 HD
ATOM     51  C   UNL A   1      43.307  27.528  32.085  1.00  0.00     0.074 A 
ATOM     52  C   UNL A   1      44.003  26.515  31.308  1.00  0.00     0.031 C 
ATOM     53  C   UNL A   1      43.574  27.813  33.384  1.00  0.00     0.034 A 
BRANCH  40  54
ATOM     54  C   UNL A   1      40.182  32.326  35.996  1.00  0.00     0.023 A 
ATOM     55  C   UNL A   1      40.976  33.469  36.230  1.00  0.00     0.012 A 
ATOM     56  C   UNL A   1      39.111  32.046  36.868  1.00  0.00     0.148 A 
ATOM     57  C   UNL A   1      40.733  34.297  37.327  1.00  0.00     0.002 A 
ATOM     58  C   UNL A   1      38.850  32.899  37.937  1.00  0.00     0.091 A 
ATOM     59  F   UNL A   1      38.381  30.943  36.651  1.00  0.00    -0.205 F 
ATOM     60  C   UNL A   1      39.666  34.017  38.175  1.00  0.00     0.022 A 
BRANCH  58  61
ATOM     61  S   UNL A   1      37.462  32.664  39.055  1.00  0.00     0.127 S 
ATOM     62  O   UNL A   1      37.628  31.264  39.443  1.00  0.00    -0.237 OA
ATOM     63  O   UNL A   1      37.755  33.629  40.114  1.00  0.00    -0.237 OA
ATOM     64  O   UNL A   1      36.266  32.958  38.278  1.00  0.00    -0.744 OA
ENDBRANCH  58  61
ENDBRANCH  40  54
BRANCH  41  65
ATOM     65  C   UNL A   1      42.046  26.994  27.530  1.00  0.00     0.023 A 
ATOM     66  C   UNL A   1      42.669  27.680  26.473  1.00  0.00     0.012 A 
ATOM     67  C   UNL A   1      41.830  25.605  27.416  1.00  0.00     0.148 A 
ATOM     68  C   UNL A   1      43.053  27.002  25.314  1.00  0.00     0.002 A 
ATOM     69  C   UNL A   1      42.263  24.927  26.283  1.00  0.00     0.091 A 
ATOM     70  F   UNL A   1      41.242  24.967  28.438  1.00  0.00    -0.205 F 
ATOM     71  C   UNL A   1      42.863  25.626  25.224  1.00  0.00     0.022 A 
BRANCH  69  72
ATOM     72  S   UNL A   1      42.202  23.134  26.166  1.00  0.00     0.127 S 
ATOM     73  O   UNL A   1      43.013  22.732  27.312  1.00  0.00    -0.237 OA
ATOM     74  O   UNL A   1      40.770  22.862  26.300  1.00  0.00    -0.237 OA
ATOM     75  O   UNL A   1      42.745  22.813  24.852  1.00  0.00    -0.744 OA
ENDBRANCH  69  72
ENDBRANCH  41  65
BRANCH  53  76
ATOM     76  C   UNL A   1      44.662  27.002  34.024  1.00  0.00     0.023 A 
ATOM     77  C   UNL A   1      46.005  27.393  33.858  1.00  0.00     0.012 A 
ATOM     78  C   UNL A   1      44.344  25.900  34.836  1.00  0.00     0.148 A 
ATOM     79  C   UNL A   1      47.024  26.671  34.470  1.00  0.00     0.002 A 
ATOM     80  C   UNL A   1      45.362  25.216  35.483  1.00  0.00     0.091 A 
ATOM     81  F   UNL A   1      43.058  25.539  34.953  1.00  0.00    -0.205 F 
ATOM     82  C   UNL A   1      46.702  25.592  35.292  1.00  0.00     0.022 A 
BRANCH  80  83
ATOM     83  S   UNL A   1      45.030  23.880  36.632  1.00  0.00     0.127 S 
ATOM     84  O   UNL A   1      44.325  22.925  35.781  1.00  0.00    -0.237 OA
ATOM     85  O   UNL A   1      46.377  23.469  37.028  1.00  0.00    -0.237 OA
ATOM     86  O   UNL A   1      44.239  24.466  37.707  1.00  0.00    -0.744 OA
ENDBRANCH  80  83
ENDBRANCH  53  76
ENDBRANCH  27  28
ENDBRANCH  20  22
ENDBRANCH  19  20
ENDBRANCH  18  19
ENDBRANCH  17  18
ENDBRANCH   1  17
TORSDOF 20
ENDMDL
MODEL 3
REMARK VINA RESULT:      -9.5      2.376      3.032
REMARK SMILES C[C@H](C(=O)OCCOCCOC(=O)c1ccc(-c2c3nc(c(-c4cccc(S(=O)(=O)[O-])c4F)c4ccc([nH]4)c(-c4cccc(S(=O)(=O)[O-])c4F)c4nc(c(-c5cccc(S(=O)(=O)[O-])c5F)c5ccc2[nH]5)C=C4)C=C3)cc1)[C@H](C)[S@@](=O)C(C)(C)C
REMARK SMILES IDX 8 1 7 2 6 3 5 4 3 5 4 6 2 7 1 8 77 9 78 10 79 11 80 12 81 13
REMARK SMILES IDX 82 14 83 15 84 16 9 17 10 18 11 19 12 20 13 21 14 22 15 23
REMARK SMILES IDX 76 24 16 25 75 26 17 27 18 28 19 29 69 30 20 31 74 32 68 33
REMARK SMILES IDX 70 34 21 35 73 36 67 37 66 38 22 40 54 41 34 42 53 43 35 44
REMARK SMILES IDX 38 45 52 46 71 47 36 48 37 49 51 51 72 52 39 53 23 54 24 55
REMARK SMILES IDX 32 56 25 57 27 58 33 59 26 60 28 61 29 62 30 63 31 64 55 65
REMARK SMILES IDX 56 66 64 67 57 68 59 69 65 70 58 71 60 72 61 73 62 74 63 75
REMARK SMILES IDX 40 76 41 77 49 78 42 79 44 80 50 81 43 82 45 83 46 84 47 85
REMARK SMILES IDX 48 86
REMARK H PARENT 70 39 38 50
REMARK Flexibility Score: inf
ROOT
ATOM      1  O   UNL A   1      32.243  28.004  26.784  1.00  0.00    -0.374 OA
ENDROOT
BRANCH   1   2
ATOM      2  C   UNL A   1      31.357  27.509  25.798  1.00  0.00     0.202 C 
BRANCH   2   3
ATOM      3  C   UNL A   1      30.841  26.070  26.004  1.00  0.00     0.261 C 
BRANCH   3   4
ATOM      4  O   UNL A   1      31.552  25.265  26.983  1.00  0.00    -0.463 OA
BRANCH   4   5
ATOM      5  C   UNL A   1      31.338  23.915  26.968  1.00  0.00     0.309 C 
ATOM      6  O   UNL A   1      30.267  23.405  27.267  1.00  0.00    -0.252 OA
BRANCH   5   7
ATOM      7  C   UNL A   1      32.642  23.124  26.729  1.00  0.00     0.111 C 
ATOM      8  C   UNL A   1      32.844  22.264  27.990  1.00  0.00     0.021 C 
BRANCH   7   9
ATOM      9  C   UNL A   1      33.025  22.312  25.424  1.00  0.00     0.090 C 
ATOM     10  C   UNL A   1      32.915  20.809  25.622  1.00  0.00     0.023 C 
BRANCH   9  11
ATOM     11  S   UNL A   1      34.162  22.984  24.171  1.00  0.00     0.030 S 
ATOM     12  O   UNL A   1      33.936  24.440  23.936  1.00  0.00    -0.259 OA
BRANCH  11  13
ATOM     13  C   UNL A   1      35.977  22.593  24.294  1.00  0.00     0.038 C 
ATOM     14  C   UNL A   1      36.234  21.205  24.930  1.00  0.00     0.025 C 
ATOM     15  C   UNL A   1      36.799  22.833  23.028  1.00  0.00     0.025 C 
ATOM     16  C   UNL A   1      36.584  23.546  25.357  1.00  0.00     0.025 C 
ENDBRANCH  11  13
ENDBRANCH   9  11
ENDBRANCH   7   9
ENDBRANCH   5   7
ENDBRANCH   4   5
ENDBRANCH   3   4
ENDBRANCH   2   3
ENDBRANCH   1   2
BRANCH   1  17
ATOM     17  C   UNL A   1      32.065  29.348  27.216  1.00  0.00     0.202 C 
BRANCH  17  18
ATOM     18  C   UNL A   1      33.034  30.420  26.715  1.00  0.00     0.261 C 
BRANCH  18  19
ATOM     19  O   UNL A   1      34.354  30.191  27.179  1.00  0.00    -0.460 OA
BRANCH  19  20
ATOM     20  C   UNL A   1      34.899  31.264  27.776  1.00  0.00     0.338 C 
ATOM     21  O   UNL A   1      34.608  32.437  27.679  1.00  0.00    -0.246 OA
BRANCH  20  22
ATOM     22  C   UNL A   1      36.121  30.833  28.411  1.00  0.00     0.060 A 
ATOM     23  C   UNL A   1      37.267  31.610  28.278  1.00  0.00     0.016 A 
ATOM     24  C   UNL A   1      36.084  29.608  29.085  1.00  0.00     0.016 A 
ATOM     25  C   UNL A   1      38.449  31.092  28.750  1.00  0.00     0.010 A 
ATOM     26  C   UNL A   1      37.258  29.113  29.597  1.00  0.00     0.010 A 
ATOM     27  C   UNL A   1      38.436  29.841  29.389  1.00  0.00    -0.014 A 
BRANCH  27  28
ATOM     28  C   UNL A   1      39.683  29.302  29.913  1.00  0.00     0.031 A 
ATOM     29  C   UNL A   1      40.334  29.978  31.070  1.00  0.00     0.074 A 
ATOM     30  C   UNL A   1      40.195  28.259  29.246  1.00  0.00     0.049 A 
ATOM     31  N   UNL A   1      41.449  29.671  31.665  1.00  0.00    -0.248 NA
ATOM     32  C   UNL A   1      39.663  31.172  31.618  1.00  0.00     0.031 C 
ATOM     33  C   UNL A   1      39.593  27.657  28.048  1.00  0.00     0.029 A 
ATOM     34  N   UNL A   1      41.334  27.546  29.445  1.00  0.00    -0.354 N 
ATOM     35  C   UNL A   1      41.633  30.642  32.639  1.00  0.00     0.074 A 
ATOM     36  C   UNL A   1      40.523  31.564  32.548  1.00  0.00     0.031 C 
ATOM     37  C   UNL A   1      40.384  26.669  27.611  1.00  0.00     0.029 A 
ATOM     38  C   UNL A   1      41.545  26.589  28.484  1.00  0.00     0.049 A 
ATOM     39  H   UNL A   1      41.946  27.700  30.201  1.00  0.00     0.167 HD
ATOM     40  C   UNL A   1      42.647  30.727  33.529  1.00  0.00     0.034 A 
ATOM     41  C   UNL A   1      42.581  25.748  28.340  1.00  0.00     0.034 A 
ATOM     42  C   UNL A   1      43.715  29.763  33.560  1.00  0.00     0.049 A 
ATOM     43  C   UNL A   1      43.637  25.803  29.401  1.00  0.00     0.074 A 
ATOM     44  C   UNL A   1      44.779  29.673  34.433  1.00  0.00     0.029 A 
ATOM     45  N   UNL A   1      43.845  28.715  32.653  1.00  0.00    -0.354 N 
ATOM     46  N   UNL A   1      43.740  26.641  30.409  1.00  0.00    -0.248 NA
ATOM     47  C   UNL A   1      44.684  24.782  29.348  1.00  0.00     0.031 C 
ATOM     48  C   UNL A   1      45.559  28.575  34.046  1.00  0.00     0.029 A 
ATOM     49  C   UNL A   1      44.968  27.967  32.945  1.00  0.00     0.049 A 
ATOM     50  H   UNL A   1      43.224  28.532  31.910  1.00  0.00     0.167 HD
ATOM     51  C   UNL A   1      44.851  26.239  31.129  1.00  0.00     0.074 A 
ATOM     52  C   UNL A   1      45.370  25.063  30.448  1.00  0.00     0.031 C 
ATOM     53  C   UNL A   1      45.410  26.790  32.236  1.00  0.00     0.034 A 
BRANCH  40  54
ATOM     54  C   UNL A   1      42.615  31.852  34.530  1.00  0.00     0.023 A 
ATOM     55  C   UNL A   1      43.254  33.073  34.226  1.00  0.00     0.012 A 
ATOM     56  C   UNL A   1      41.940  31.720  35.760  1.00  0.00     0.148 A 
ATOM     57  C   UNL A   1      43.254  34.128  35.140  1.00  0.00     0.002 A 
ATOM     58  C   UNL A   1      41.910  32.791  36.650  1.00  0.00     0.091 A 
ATOM     59  F   UNL A   1      41.361  30.547  36.048  1.00  0.00    -0.205 F 
ATOM     60  C   UNL A   1      42.575  33.990  36.347  1.00  0.00     0.022 A 
BRANCH  58  61
ATOM     61  S   UNL A   1      41.011  32.739  38.205  1.00  0.00     0.127 S 
ATOM     62  O   UNL A   1      41.823  31.806  38.986  1.00  0.00    -0.237 OA
ATOM     63  O   UNL A   1      41.088  34.131  38.649  1.00  0.00    -0.237 OA
ATOM     64  O   UNL A   1      39.669  32.277  37.880  1.00  0.00    -0.744 OA
ENDBRANCH  58  61
ENDBRANCH  40  54
BRANCH  41  65
ATOM     65  C   UNL A   1      42.569  24.767  27.224  1.00  0.00     0.023 A 
ATOM     66  C   UNL A   1      43.266  25.060  26.039  1.00  0.00     0.012 A 
ATOM     67  C   UNL A   1      41.995  23.489  27.387  1.00  0.00     0.148 A 
ATOM     68  C   UNL A   1      43.375  24.106  25.025  1.00  0.00     0.002 A 
ATOM     69  C   UNL A   1      42.153  22.527  26.396  1.00  0.00     0.091 A 
ATOM     70  F   UNL A   1      41.340  23.226  28.527  1.00  0.00    -0.205 F 
ATOM     71  C   UNL A   1      42.832  22.838  25.208  1.00  0.00     0.022 A 
BRANCH  69  72
ATOM     72  S   UNL A   1      41.625  20.825  26.631  1.00  0.00     0.127 S 
ATOM     73  O   UNL A   1      42.195  20.512  27.938  1.00  0.00    -0.237 OA
ATOM     74  O   UNL A   1      40.167  20.946  26.608  1.00  0.00    -0.237 OA
ATOM     75  O   UNL A   1      42.175  20.090  25.498  1.00  0.00    -0.744 OA
ENDBRANCH  69  72
ENDBRANCH  41  65
BRANCH  53  76
ATOM     76  C   UNL A   1      46.637  26.107  32.762  1.00  0.00     0.023 A 
ATOM     77  C   UNL A   1      46.501  25.063  33.697  1.00  0.00     0.012 A 
ATOM     78  C   UNL A   1      47.909  26.460  32.279  1.00  0.00     0.148 A 
ATOM     79  C   UNL A   1      47.626  24.398  34.172  1.00  0.00     0.002 A 
ATOM     80  C   UNL A   1      49.021  25.759  32.720  1.00  0.00     0.091 A 
ATOM     81  F   UNL A   1      48.007  27.475  31.408  1.00  0.00    -0.205 F 
ATOM     82  C   UNL A   1      48.884  24.737  33.674  1.00  0.00     0.022 A 
BRANCH  80  83
ATOM     83  S   UNL A   1      50.661  26.064  32.060  1.00  0.00     0.127 S 
ATOM     84  O   UNL A   1      50.459  25.812  30.635  1.00  0.00    -0.237 OA
ATOM     85  O   UNL A   1      50.880  27.468  32.409  1.00  0.00    -0.237 OA
ATOM     86  O   UNL A   1      51.545  25.129  32.744  1.00  0.00    -0.744 OA
ENDBRANCH  80  83
ENDBRANCH  53  76
ENDBRANCH  27  28
ENDBRANCH  20  22
ENDBRANCH  19  20
ENDBRANCH  18  19
ENDBRANCH  17  18
ENDBRANCH   1  17
TORSDOF 20
ENDMDL
