MODEL 1
REMARK VINA RESULT:     -11.8      0.000      0.000
REMARK SMILES O=C1CCCC2=C1[C@H](c1ccc([N+](=O)[O-])cc1)CC(=O)N2c1ccccc1C(=O)OCCOCCOC(=O)c1ccc(-c2c3nc(c(-c4cccc(S(=O)(=O)[O-])c4F)c4ccc([nH]4)c(-c4cccc(S(=O)(=O)[O-])c4F)c4nc(c(-c5cccc(S(=O)(=O)[O-])c5F)c5ccc2[nH]5)C=C4)C=C3)cc1
REMARK SMILES IDX 33 1 32 2 31 3 30 4 28 5 29 6 27 7 22 8 23 9 24 10 26 11
REMARK SMILES IDX 25 12 21 13 1 14 2 15 3 16 7 17 4 18 6 19 8 20 5 21 18 22
REMARK SMILES IDX 19 23 20 24 9 25 10 26 17 27 11 28 16 29 12 30 13 31 14 32
REMARK SMILES IDX 15 33 34 34 35 35 36 36 37 37 38 38 39 39 40 40 101 41 41 42
REMARK SMILES IDX 100 43 42 44 43 45 44 46 94 47 45 48 99 49 93 50 95 51 46 52
REMARK SMILES IDX 98 53 92 54 91 55 47 57 79 58 59 59 78 60 60 61 63 62 77 63
REMARK SMILES IDX 96 64 61 65 62 66 76 68 97 69 64 70 48 71 49 72 57 73 50 74
REMARK SMILES IDX 52 75 58 76 51 77 53 78 54 79 55 80 56 81 80 82 81 83 89 84
REMARK SMILES IDX 82 85 84 86 90 87 83 88 85 89 86 90 87 91 88 92 65 93 66 94
REMARK SMILES IDX 74 95 67 96 69 97 75 98 68 99 70 100 71 101 72 102 73 103
REMARK H PARENT 95 56 63 67
REMARK Flexibility Score: inf
ROOT
ATOM      1  O   UNL A   1      35.046  31.182  28.937  1.00  0.00    -0.374 OA
ENDROOT
BRANCH   1   2
ATOM      2  C   UNL A   1      35.094  30.614  27.636  1.00  0.00     0.202 C 
BRANCH   2   3
ATOM      3  C   UNL A   1      34.433  29.262  27.335  1.00  0.00     0.261 C 
BRANCH   3   4
ATOM      4  O   UNL A   1      33.828  29.134  26.044  1.00  0.00    -0.460 OA
BRANCH   4   5
ATOM      5  C   UNL A   1      32.923  28.127  25.983  1.00  0.00     0.340 C 
ATOM      6  O   UNL A   1      32.956  27.097  26.643  1.00  0.00    -0.246 OA
BRANCH   5   7
ATOM      7  C   UNL A   1      31.804  28.395  25.055  1.00  0.00     0.084 A 
ATOM      8  C   UNL A   1      31.125  27.470  24.240  1.00  0.00     0.063 A 
ATOM      9  C   UNL A   1      30.040  27.962  23.474  1.00  0.00     0.027 A 
ATOM     10  C   UNL A   1      29.664  29.308  23.479  1.00  0.00     0.002 A 
ATOM     11  C   UNL A   1      31.423  29.759  25.036  1.00  0.00     0.018 A 
ATOM     12  C   UNL A   1      30.370  30.214  24.250  1.00  0.00     0.001 A 
BRANCH   8  13
ATOM     13  N   UNL A   1      31.437  26.066  24.069  1.00  0.00    -0.284 N 
ATOM     14  O   UNL A   1      31.254  21.495  25.349  1.00  0.00    -0.294 OA
ATOM     15  C   UNL A   1      31.048  22.668  25.634  1.00  0.00     0.161 C 
ATOM     16  C   UNL A   1      30.570  23.080  26.999  1.00  0.00     0.081 C 
ATOM     17  C   UNL A   1      31.457  23.765  24.704  1.00  0.00     0.023 C 
ATOM     18  C   UNL A   1      29.498  24.130  26.836  1.00  0.00     0.015 C 
ATOM     19  C   UNL A   1      30.997  25.020  24.912  1.00  0.00     0.033 C 
ATOM     20  C   UNL A   1      32.403  23.377  23.589  1.00  0.00     0.064 C 
ATOM     21  C   UNL A   1      29.990  25.322  26.012  1.00  0.00     0.055 C 
ATOM     22  C   UNL A   1      32.155  24.338  22.440  1.00  0.00     0.114 C 
ATOM     23  C   UNL A   1      32.209  25.771  22.909  1.00  0.00     0.232 C 
ATOM     24  O   UNL A   1      32.811  26.610  22.234  1.00  0.00    -0.274 OA
BRANCH  20  25
ATOM     25  C   UNL A   1      33.870  23.325  24.046  1.00  0.00    -0.039 A 
ATOM     26  C   UNL A   1      34.297  23.707  25.738  1.00  0.00     0.011 A 
ATOM     27  C   UNL A   1      35.081  22.947  22.823  1.00  0.00     0.011 A 
ATOM     28  C   UNL A   1      35.954  23.714  26.354  1.00  0.00     0.086 A 
ATOM     29  C   UNL A   1      36.806  22.916  23.299  1.00  0.00     0.086 A 
ATOM     30  C   UNL A   1      37.306  23.331  25.217  1.00  0.00     0.269 A 
BRANCH  30  31
ATOM     31  N   UNL A   1      38.547  23.161  26.120  1.00  0.00     0.062 N 
ATOM     32  O   UNL A   1      38.819  21.991  26.430  1.00  0.00    -0.258 OA
ATOM     33  O   UNL A   1      39.135  24.155  26.564  1.00  0.00    -0.258 OA
ENDBRANCH  30  31
ENDBRANCH  20  25
ENDBRANCH   8  13
ENDBRANCH   5   7
ENDBRANCH   4   5
ENDBRANCH   3   4
ENDBRANCH   2   3
ENDBRANCH   1   2
BRANCH   1  34
ATOM     34  C   UNL A   1      36.239  31.362  29.692  1.00  0.00     0.202 C 
BRANCH  34  35
ATOM     35  C   UNL A   1      36.352  30.790  31.107  1.00  0.00     0.261 C 
BRANCH  35  36
ATOM     36  O   UNL A   1      36.626  29.393  31.129  1.00  0.00    -0.460 OA
BRANCH  36  37
ATOM     37  C   UNL A   1      37.540  29.000  32.043  1.00  0.00     0.338 C 
ATOM     38  O   UNL A   1      37.377  28.314  33.033  1.00  0.00    -0.246 OA
BRANCH  37  39
ATOM     39  C   UNL A   1      38.846  29.458  31.577  1.00  0.00     0.060 A 
ATOM     40  C   UNL A   1      39.799  30.607  32.533  1.00  0.00     0.016 A 
ATOM     41  C   UNL A   1      39.408  29.064  29.918  1.00  0.00     0.016 A 
ATOM     42  C   UNL A   1      41.274  31.414  31.907  1.00  0.00     0.010 A 
ATOM     43  C   UNL A   1      41.071  29.981  29.227  1.00  0.00     0.010 A 
ATOM     44  C   UNL A   1      41.922  31.146  30.288  1.00  0.00    -0.014 A 
BRANCH  44  45
ATOM     45  C   UNL A   1      43.079  31.858  29.720  1.00  0.00     0.031 A 
ATOM     46  C   UNL A   1      44.416  31.185  29.676  1.00  0.00     0.074 A 
ATOM     47  C   UNL A   1      42.980  33.169  29.442  1.00  0.00     0.049 A 
ATOM     48  N   UNL A   1      45.480  31.497  28.990  1.00  0.00    -0.248 NA
ATOM     49  C   UNL A   1      44.584  29.995  30.515  1.00  0.00     0.031 C 
ATOM     50  C   UNL A   1      41.780  33.988  29.605  1.00  0.00     0.029 A 
ATOM     51  N   UNL A   1      43.935  34.062  29.033  1.00  0.00    -0.354 N 
ATOM     52  C   UNL A   1      46.391  30.473  29.233  1.00  0.00     0.074 A 
ATOM     53  C   UNL A   1      45.778  29.554  30.156  1.00  0.00     0.031 C 
ATOM     54  C   UNL A   1      42.090  35.277  29.381  1.00  0.00     0.029 A 
ATOM     55  C   UNL A   1      43.494  35.363  28.998  1.00  0.00     0.049 A 
ATOM     56  H   UNL A   1      44.851  33.796  28.788  1.00  0.00     0.167 HD
ATOM     57  C   UNL A   1      47.643  30.326  28.745  1.00  0.00     0.034 A 
ATOM     58  C   UNL A   1      44.154  36.488  28.663  1.00  0.00     0.034 A 
ATOM     59  C   UNL A   1      48.310  31.378  28.037  1.00  0.00     0.049 A 
ATOM     60  C   UNL A   1      45.555  36.338  28.128  1.00  0.00     0.074 A 
ATOM     61  C   UNL A   1      49.560  31.382  27.452  1.00  0.00     0.029 A 
ATOM     62  N   UNL A   1      47.797  32.663  27.910  1.00  0.00    -0.354 N 
ATOM     63  N   UNL A   1      46.292  35.254  28.037  1.00  0.00    -0.248 NA
ATOM     64  C   UNL A   1      46.182  37.541  27.567  1.00  0.00     0.031 C 
ATOM     65  C   UNL A   1      49.827  32.689  27.026  1.00  0.00     0.029 A 
ATOM     66  C   UNL A   1      48.721  33.483  27.297  1.00  0.00     0.049 A 
ATOM     67  H   UNL A   1      46.905  32.946  28.213  1.00  0.00     0.167 HD
ATOM     68  C   UNL A   1      47.446  35.629  27.361  1.00  0.00     0.074 A 
ATOM     69  C   UNL A   1      47.304  37.042  27.063  1.00  0.00     0.031 C 
ATOM     70  C   UNL A   1      48.523  34.882  27.008  1.00  0.00     0.034 A 
BRANCH  57  71
ATOM     71  C   UNL A   1      48.333  29.009  28.977  1.00  0.00     0.023 A 
ATOM     72  C   UNL A   1      49.134  28.854  30.131  1.00  0.00     0.012 A 
ATOM     73  C   UNL A   1      48.191  27.924  28.093  1.00  0.00     0.148 A 
ATOM     74  C   UNL A   1      49.795  27.653  30.389  1.00  0.00     0.002 A 
ATOM     75  C   UNL A   1      48.828  26.718  28.372  1.00  0.00     0.091 A 
ATOM     76  F   UNL A   1      47.456  28.096  26.985  1.00  0.00    -0.205 F 
ATOM     77  C   UNL A   1      49.635  26.584  29.515  1.00  0.00     0.022 A 
BRANCH  75  78
ATOM     78  S   UNL A   1      48.658  25.260  27.336  1.00  0.00     0.127 S 
ATOM     79  O   UNL A   1      48.807  25.830  25.997  1.00  0.00    -0.237 OA
ATOM     80  O   UNL A   1      49.786  24.439  27.778  1.00  0.00    -0.237 OA
ATOM     81  O   UNL A   1      47.344  24.706  27.630  1.00  0.00    -0.744 OA
ENDBRANCH  75  78
ENDBRANCH  57  71
BRANCH  58  82
ATOM     82  C   UNL A   1      43.436  37.794  28.665  1.00  0.00     0.023 A 
ATOM     83  C   UNL A   1      42.638  38.136  27.555  1.00  0.00     0.012 A 
ATOM     84  C   UNL A   1      43.471  38.663  29.776  1.00  0.00     0.148 A 
ATOM     85  C   UNL A   1      41.910  39.327  27.536  1.00  0.00     0.002 A 
ATOM     86  C   UNL A   1      42.711  39.830  29.767  1.00  0.00     0.091 A 
ATOM     87  F   UNL A   1      44.236  38.325  30.822  1.00  0.00    -0.205 F 
ATOM     88  C   UNL A   1      41.940  40.168  28.643  1.00  0.00     0.022 A 
BRANCH  86  89
ATOM     89  S   UNL A   1      42.602  40.941  31.178  1.00  0.00     0.127 S 
ATOM     90  O   UNL A   1      42.971  40.058  32.283  1.00  0.00    -0.237 OA
ATOM     91  O   UNL A   1      43.604  41.955  30.845  1.00  0.00    -0.237 OA
ATOM     92  O   UNL A   1      41.231  41.430  31.201  1.00  0.00    -0.744 OA
ENDBRANCH  86  89
ENDBRANCH  58  82
BRANCH  70  93
ATOM     93  C   UNL A   1      49.621  35.572  26.249  1.00  0.00     0.023 A 
ATOM     94  C   UNL A   1      49.688  35.455  24.848  1.00  0.00     0.012 A 
ATOM     95  C   UNL A   1      50.528  36.411  26.925  1.00  0.00     0.148 A 
ATOM     96  C   UNL A   1      50.669  36.138  24.132  1.00  0.00     0.002 A 
ATOM     97  C   UNL A   1      51.464  37.133  26.200  1.00  0.00     0.091 A 
ATOM     98  F   UNL A   1      50.451  36.491  28.261  1.00  0.00    -0.205 F 
ATOM     99  C   UNL A   1      51.546  36.987  24.805  1.00  0.00     0.022 A 
BRANCH  97 100
ATOM    100  S   UNL A   1      52.555  38.331  26.971  1.00  0.00     0.127 S 
ATOM    101  O   UNL A   1      53.375  37.475  27.829  1.00  0.00    -0.237 OA
ATOM    102  O   UNL A   1      53.259  38.894  25.819  1.00  0.00    -0.237 OA
ATOM    103  O   UNL A   1      51.690  39.271  27.670  1.00  0.00    -0.744 OA
ENDBRANCH  97 100
ENDBRANCH  70  93
ENDBRANCH  44  45
ENDBRANCH  37  39
ENDBRANCH  36  37
ENDBRANCH  35  36
ENDBRANCH  34  35
ENDBRANCH   1  34
TORSDOF 20
ENDMDL
MODEL 2
REMARK VINA RESULT:     -11.7      6.539      8.821
REMARK SMILES O=C1CCCC2=C1[C@H](c1ccc([N+](=O)[O-])cc1)CC(=O)N2c1ccccc1C(=O)OCCOCCOC(=O)c1ccc(-c2c3nc(c(-c4cccc(S(=O)(=O)[O-])c4F)c4ccc([nH]4)c(-c4cccc(S(=O)(=O)[O-])c4F)c4nc(c(-c5cccc(S(=O)(=O)[O-])c5F)c5ccc2[nH]5)C=C4)C=C3)cc1
REMARK SMILES IDX 33 1 32 2 31 3 30 4 28 5 29 6 27 7 22 8 23 9 24 10 26 11
REMARK SMILES IDX 25 12 21 13 1 14 2 15 3 16 7 17 4 18 6 19 8 20 5 21 18 22
REMARK SMILES IDX 19 23 20 24 9 25 10 26 17 27 11 28 16 29 12 30 13 31 14 32
REMARK SMILES IDX 15 33 34 34 35 35 36 36 37 37 38 38 39 39 40 40 101 41 41 42
REMARK SMILES IDX 100 43 42 44 43 45 44 46 94 47 45 48 99 49 93 50 95 51 46 52
REMARK SMILES IDX 98 53 92 54 91 55 47 57 79 58 59 59 78 60 60 61 63 62 77 63
REMARK SMILES IDX 96 64 61 65 62 66 76 68 97 69 64 70 48 71 49 72 57 73 50 74
REMARK SMILES IDX 52 75 58 76 51 77 53 78 54 79 55 80 56 81 80 82 81 83 89 84
REMARK SMILES IDX 82 85 84 86 90 87 83 88 85 89 86 90 87 91 88 92 65 93 66 94
REMARK SMILES IDX 74 95 67 96 69 97 75 98 68 99 70 100 71 101 72 102 73 103
REMARK H PARENT 95 56 63 67
REMARK Flexibility Score: inf
ROOT
ATOM      1  O   UNL A   1      35.500  31.528  27.520  1.00  0.00    -0.374 OA
ENDROOT
BRANCH   1   2
ATOM      2  C   UNL A   1      34.270  30.821  27.592  1.00  0.00     0.202 C 
BRANCH   2   3
ATOM      3  C   UNL A   1      34.104  29.448  26.926  1.00  0.00     0.261 C 
BRANCH   3   4
ATOM      4  O   UNL A   1      32.763  29.069  26.598  1.00  0.00    -0.460 OA
BRANCH   4   5
ATOM      5  C   UNL A   1      32.705  28.092  25.661  1.00  0.00     0.340 C 
ATOM      6  O   UNL A   1      33.461  27.132  25.583  1.00  0.00    -0.246 OA
BRANCH   5   7
ATOM      7  C   UNL A   1      31.573  28.241  24.722  1.00  0.00     0.084 A 
ATOM      8  C   UNL A   1      30.933  27.229  23.982  1.00  0.00     0.063 A 
ATOM      9  C   UNL A   1      29.826  27.615  23.187  1.00  0.00     0.027 A 
ATOM     10  C   UNL A   1      29.393  28.940  23.093  1.00  0.00     0.002 A 
ATOM     11  C   UNL A   1      31.134  29.582  24.602  1.00  0.00     0.018 A 
ATOM     12  C   UNL A   1      30.060  29.931  23.790  1.00  0.00     0.001 A 
BRANCH   8  13
ATOM     13  N   UNL A   1      31.305  25.830  23.916  1.00  0.00    -0.284 N 
ATOM     14  O   UNL A   1      31.308  21.362  25.528  1.00  0.00    -0.294 OA
ATOM     15  C   UNL A   1      31.051  22.543  25.725  1.00  0.00     0.161 C 
ATOM     16  C   UNL A   1      30.548  23.033  27.055  1.00  0.00     0.081 C 
ATOM     17  C   UNL A   1      31.418  23.585  24.718  1.00  0.00     0.023 C 
ATOM     18  C   UNL A   1      29.433  24.022  26.812  1.00  0.00     0.015 C 
ATOM     19  C   UNL A   1      30.905  24.832  24.832  1.00  0.00     0.033 C 
ATOM     20  C   UNL A   1      32.386  23.157  23.637  1.00  0.00     0.064 C 
ATOM     21  C   UNL A   1      29.880  25.171  25.904  1.00  0.00     0.055 C 
ATOM     22  C   UNL A   1      32.105  24.020  22.420  1.00  0.00     0.114 C 
ATOM     23  C   UNL A   1      32.095  25.485  22.783  1.00  0.00     0.232 C 
ATOM     24  O   UNL A   1      32.665  26.297  22.049  1.00  0.00    -0.274 OA
BRANCH  20  25
ATOM     25  C   UNL A   1      33.851  23.201  24.100  1.00  0.00    -0.039 A 
ATOM     26  C   UNL A   1      34.251  23.705  25.768  1.00  0.00     0.011 A 
ATOM     27  C   UNL A   1      35.086  22.806  22.907  1.00  0.00     0.011 A 
ATOM     28  C   UNL A   1      35.902  23.826  26.387  1.00  0.00     0.086 A 
ATOM     29  C   UNL A   1      36.807  22.884  23.388  1.00  0.00     0.086 A 
ATOM     30  C   UNL A   1      37.277  23.438  25.279  1.00  0.00     0.269 A 
BRANCH  30  31
ATOM     31  N   UNL A   1      38.519  23.381  26.194  1.00  0.00     0.062 N 
ATOM     32  O   UNL A   1      38.920  24.479  26.610  1.00  0.00    -0.258 OA
ATOM     33  O   UNL A   1      39.103  22.307  26.386  1.00  0.00    -0.258 OA
ENDBRANCH  30  31
ENDBRANCH  20  25
ENDBRANCH   8  13
ENDBRANCH   5   7
ENDBRANCH   4   5
ENDBRANCH   3   4
ENDBRANCH   2   3
ENDBRANCH   1   2
BRANCH   1  34
ATOM     34  C   UNL A   1      36.423  31.489  28.603  1.00  0.00     0.202 C 
BRANCH  34  35
ATOM     35  C   UNL A   1      36.934  30.149  29.136  1.00  0.00     0.261 C 
BRANCH  35  36
ATOM     36  O   UNL A   1      36.291  29.740  30.340  1.00  0.00    -0.460 OA
BRANCH  36  37
ATOM     37  C   UNL A   1      36.625  30.448  31.440  1.00  0.00     0.338 C 
ATOM     38  O   UNL A   1      35.967  31.279  32.037  1.00  0.00    -0.246 OA
BRANCH  37  39
ATOM     39  C   UNL A   1      37.926  29.963  31.893  1.00  0.00     0.060 A 
ATOM     40  C   UNL A   1      39.385  30.947  31.687  1.00  0.00     0.016 A 
ATOM     41  C   UNL A   1      38.118  28.264  32.444  1.00  0.00     0.016 A 
ATOM     42  C   UNL A   1      41.040  30.315  31.971  1.00  0.00     0.010 A 
ATOM     43  C   UNL A   1      39.988  27.568  32.760  1.00  0.00     0.010 A 
ATOM     44  C   UNL A   1      41.379  28.661  32.483  1.00  0.00    -0.014 A 
BRANCH  44  45
ATOM     45  C   UNL A   1      42.729  28.093  32.640  1.00  0.00     0.031 A 
ATOM     46  C   UNL A   1      43.446  27.544  31.446  1.00  0.00     0.074 A 
ATOM     47  C   UNL A   1      43.219  27.877  33.872  1.00  0.00     0.049 A 
ATOM     48  N   UNL A   1      44.710  27.260  31.294  1.00  0.00    -0.248 NA
ATOM     49  C   UNL A   1      42.637  27.280  30.253  1.00  0.00     0.031 C 
ATOM     50  C   UNL A   1      42.545  28.206  35.128  1.00  0.00     0.029 A 
ATOM     51  N   UNL A   1      44.374  27.258  34.270  1.00  0.00    -0.354 N 
ATOM     52  C   UNL A   1      44.851  26.897  29.958  1.00  0.00     0.074 A 
ATOM     53  C   UNL A   1      43.547  26.956  29.351  1.00  0.00     0.031 C 
ATOM     54  C   UNL A   1      43.257  27.710  36.155  1.00  0.00     0.029 A 
ATOM     55  C   UNL A   1      44.466  27.085  35.631  1.00  0.00     0.049 A 
ATOM     56  H   UNL A   1      45.071  26.962  33.641  1.00  0.00     0.167 HD
ATOM     57  C   UNL A   1      45.972  26.524  29.301  1.00  0.00     0.034 A 
ATOM     58  C   UNL A   1      45.439  26.511  36.363  1.00  0.00     0.034 A 
ATOM     59  C   UNL A   1      47.195  26.234  29.989  1.00  0.00     0.049 A 
ATOM     60  C   UNL A   1      46.690  26.080  35.639  1.00  0.00     0.074 A 
ATOM     61  C   UNL A   1      48.423  25.875  29.473  1.00  0.00     0.029 A 
ATOM     62  N   UNL A   1      47.301  26.176  31.373  1.00  0.00    -0.354 N 
ATOM     63  N   UNL A   1      46.938  26.080  34.349  1.00  0.00    -0.248 NA
ATOM     64  C   UNL A   1      47.823  25.656  36.470  1.00  0.00     0.031 C 
ATOM     65  C   UNL A   1      49.256  25.541  30.549  1.00  0.00     0.029 A 
ATOM     66  C   UNL A   1      48.560  25.744  31.734  1.00  0.00     0.049 A 
ATOM     67  H   UNL A   1      46.583  26.410  32.004  1.00  0.00     0.167 HD
ATOM     68  C   UNL A   1      48.271  25.712  34.213  1.00  0.00     0.074 A 
ATOM     69  C   UNL A   1      48.775  25.500  35.558  1.00  0.00     0.031 C 
ATOM     70  C   UNL A   1      49.018  25.566  33.089  1.00  0.00     0.034 A 
BRANCH  57  71
ATOM     71  C   UNL A   1      45.897  26.410  27.802  1.00  0.00     0.023 A 
ATOM     72  C   UNL A   1      45.882  27.594  27.030  1.00  0.00     0.012 A 
ATOM     73  C   UNL A   1      45.860  25.166  27.147  1.00  0.00     0.148 A 
ATOM     74  C   UNL A   1      45.812  27.541  25.638  1.00  0.00     0.002 A 
ATOM     75  C   UNL A   1      45.822  25.119  25.756  1.00  0.00     0.091 A 
ATOM     76  F   UNL A   1      45.840  24.052  27.893  1.00  0.00    -0.205 F 
ATOM     77  C   UNL A   1      45.790  26.305  25.001  1.00  0.00     0.022 A 
BRANCH  75  78
ATOM     78  S   UNL A   1      45.833  23.581  24.828  1.00  0.00     0.127 S 
ATOM     79  O   UNL A   1      46.277  22.626  25.844  1.00  0.00    -0.237 OA
ATOM     80  O   UNL A   1      44.428  23.448  24.441  1.00  0.00    -0.237 OA
ATOM     81  O   UNL A   1      46.758  23.782  23.723  1.00  0.00    -0.744 OA
ENDBRANCH  75  78
ENDBRANCH  57  71
BRANCH  58  82
ATOM     82  C   UNL A   1      45.327  26.481  37.849  1.00  0.00     0.023 A 
ATOM     83  C   UNL A   1      45.099  25.248  38.492  1.00  0.00     0.012 A 
ATOM     84  C   UNL A   1      45.517  27.637  38.634  1.00  0.00     0.148 A 
ATOM     85  C   UNL A   1      45.036  25.168  39.883  1.00  0.00     0.002 A 
ATOM     86  C   UNL A   1      45.492  27.544  40.023  1.00  0.00     0.091 A 
ATOM     87  F   UNL A   1      45.729  28.803  38.007  1.00  0.00    -0.205 F 
ATOM     88  C   UNL A   1      45.241  26.312  40.648  1.00  0.00     0.022 A 
BRANCH  86  89
ATOM     89  S   UNL A   1      45.836  28.938  41.107  1.00  0.00     0.127 S 
ATOM     90  O   UNL A   1      45.867  28.297  42.420  1.00  0.00    -0.237 OA
ATOM     91  O   UNL A   1      47.140  29.390  40.617  1.00  0.00    -0.237 OA
ATOM     92  O   UNL A   1      44.751  29.886  40.900  1.00  0.00    -0.744 OA
ENDBRANCH  86  89
ENDBRANCH  58  82
BRANCH  70  93
ATOM     93  C   UNL A   1      50.458  25.177  33.265  1.00  0.00     0.023 A 
ATOM     94  C   UNL A   1      51.417  26.156  33.588  1.00  0.00     0.012 A 
ATOM     95  C   UNL A   1      50.837  23.822  33.200  1.00  0.00     0.148 A 
ATOM     96  C   UNL A   1      52.744  25.794  33.810  1.00  0.00     0.002 A 
ATOM     97  C   UNL A   1      52.147  23.463  33.478  1.00  0.00     0.091 A 
ATOM     98  F   UNL A   1      49.907  22.913  32.875  1.00  0.00    -0.205 F 
ATOM     99  C   UNL A   1      53.105  24.448  33.769  1.00  0.00     0.022 A 
BRANCH  97 100
ATOM    100  S   UNL A   1      52.673  21.749  33.559  1.00  0.00     0.127 S 
ATOM    101  O   UNL A   1      52.266  21.252  32.245  1.00  0.00    -0.237 OA
ATOM    102  O   UNL A   1      54.119  21.878  33.742  1.00  0.00    -0.237 OA
ATOM    103  O   UNL A   1      51.970  21.165  34.693  1.00  0.00    -0.744 OA
ENDBRANCH  97 100
ENDBRANCH  70  93
ENDBRANCH  44  45
ENDBRANCH  37  39
ENDBRANCH  36  37
ENDBRANCH  35  36
ENDBRANCH  34  35
ENDBRANCH   1  34
TORSDOF 20
ENDMDL
MODEL 3
REMARK VINA RESULT:     -11.1      5.956      8.775
REMARK SMILES O=C1CCCC2=C1[C@H](c1ccc([N+](=O)[O-])cc1)CC(=O)N2c1ccccc1C(=O)OCCOCCOC(=O)c1ccc(-c2c3nc(c(-c4cccc(S(=O)(=O)[O-])c4F)c4ccc([nH]4)c(-c4cccc(S(=O)(=O)[O-])c4F)c4nc(c(-c5cccc(S(=O)(=O)[O-])c5F)c5ccc2[nH]5)C=C4)C=C3)cc1
REMARK SMILES IDX 33 1 32 2 31 3 30 4 28 5 29 6 27 7 22 8 23 9 24 10 26 11
REMARK SMILES IDX 25 12 21 13 1 14 2 15 3 16 7 17 4 18 6 19 8 20 5 21 18 22
REMARK SMILES IDX 19 23 20 24 9 25 10 26 17 27 11 28 16 29 12 30 13 31 14 32
REMARK SMILES IDX 15 33 34 34 35 35 36 36 37 37 38 38 39 39 40 40 101 41 41 42
REMARK SMILES IDX 100 43 42 44 43 45 44 46 94 47 45 48 99 49 93 50 95 51 46 52
REMARK SMILES IDX 98 53 92 54 91 55 47 57 79 58 59 59 78 60 60 61 63 62 77 63
REMARK SMILES IDX 96 64 61 65 62 66 76 68 97 69 64 70 48 71 49 72 57 73 50 74
REMARK SMILES IDX 52 75 58 76 51 77 53 78 54 79 55 80 56 81 80 82 81 83 89 84
REMARK SMILES IDX 82 85 84 86 90 87 83 88 85 89 86 90 87 91 88 92 65 93 66 94
REMARK SMILES IDX 74 95 67 96 69 97 75 98 68 99 70 100 71 101 72 102 73 103
REMARK H PARENT 95 56 63 67
REMARK Flexibility Score: inf
ROOT
ATOM      1  O   UNL A   1      35.129  31.605  27.281  1.00  0.00    -0.374 OA
ENDROOT
BRANCH   1   2
ATOM      2  C   UNL A   1      34.036  30.743  27.560  1.00  0.00     0.202 C 
BRANCH   2   3
ATOM      3  C   UNL A   1      33.966  29.331  26.963  1.00  0.00     0.261 C 
BRANCH   3   4
ATOM      4  O   UNL A   1      32.666  28.883  26.564  1.00  0.00    -0.460 OA
BRANCH   4   5
ATOM      5  C   UNL A   1      32.697  28.065  25.485  1.00  0.00     0.340 C 
ATOM      6  O   UNL A   1      33.574  27.248  25.234  1.00  0.00    -0.246 OA
BRANCH   5   7
ATOM      7  C   UNL A   1      31.511  28.193  24.612  1.00  0.00     0.084 A 
ATOM      8  C   UNL A   1      30.829  27.164  23.936  1.00  0.00     0.063 A 
ATOM      9  C   UNL A   1      29.676  27.533  23.199  1.00  0.00     0.027 A 
ATOM     10  C   UNL A   1      29.237  28.856  23.100  1.00  0.00     0.002 A 
ATOM     11  C   UNL A   1      31.065  29.532  24.488  1.00  0.00     0.018 A 
ATOM     12  C   UNL A   1      29.945  29.862  23.733  1.00  0.00     0.001 A 
BRANCH   8  13
ATOM     13  N   UNL A   1      31.197  25.764  23.880  1.00  0.00    -0.284 N 
ATOM     14  O   UNL A   1      31.221  21.317  25.547  1.00  0.00    -0.294 OA
ATOM     15  C   UNL A   1      30.970  22.501  25.734  1.00  0.00     0.161 C 
ATOM     16  C   UNL A   1      30.494  23.009  27.068  1.00  0.00     0.081 C 
ATOM     17  C   UNL A   1      31.320  23.529  24.708  1.00  0.00     0.023 C 
ATOM     18  C   UNL A   1      29.376  23.997  26.833  1.00  0.00     0.015 C 
ATOM     19  C   UNL A   1      30.812  24.779  24.815  1.00  0.00     0.033 C 
ATOM     20  C   UNL A   1      32.267  23.085  23.614  1.00  0.00     0.064 C 
ATOM     21  C   UNL A   1      29.808  25.133  25.903  1.00  0.00     0.055 C 
ATOM     22  C   UNL A   1      31.964  23.934  22.392  1.00  0.00     0.114 C 
ATOM     23  C   UNL A   1      31.965  25.403  22.736  1.00  0.00     0.232 C 
ATOM     24  O   UNL A   1      32.523  26.204  21.982  1.00  0.00    -0.274 OA
BRANCH  20  25
ATOM     25  C   UNL A   1      33.741  23.132  24.049  1.00  0.00    -0.039 A 
ATOM     26  C   UNL A   1      34.166  23.530  25.739  1.00  0.00     0.011 A 
ATOM     27  C   UNL A   1      34.957  22.848  22.806  1.00  0.00     0.011 A 
ATOM     28  C   UNL A   1      35.827  23.648  26.330  1.00  0.00     0.086 A 
ATOM     29  C   UNL A   1      36.687  22.933  23.256  1.00  0.00     0.086 A 
ATOM     30  C   UNL A   1      37.186  23.368  25.170  1.00  0.00     0.269 A 
BRANCH  30  31
ATOM     31  N   UNL A   1      38.448  23.278  26.053  1.00  0.00     0.062 N 
ATOM     32  O   UNL A   1      38.808  22.127  26.347  1.00  0.00    -0.258 OA
ATOM     33  O   UNL A   1      38.971  24.307  26.501  1.00  0.00    -0.258 OA
ENDBRANCH  30  31
ENDBRANCH  20  25
ENDBRANCH   8  13
ENDBRANCH   5   7
ENDBRANCH   4   5
ENDBRANCH   3   4
ENDBRANCH   2   3
ENDBRANCH   1   2
BRANCH   1  34
ATOM     34  C   UNL A   1      35.485  32.641  28.190  1.00  0.00     0.202 C 
BRANCH  34  35
ATOM     35  C   UNL A   1      34.573  32.981  29.370  1.00  0.00     0.261 C 
BRANCH  35  36
ATOM     36  O   UNL A   1      34.814  32.175  30.520  1.00  0.00    -0.460 OA
BRANCH  36  37
ATOM     37  C   UNL A   1      35.272  32.840  31.603  1.00  0.00     0.338 C 
ATOM     38  O   UNL A   1      34.685  33.641  32.306  1.00  0.00    -0.246 OA
BRANCH  37  39
ATOM     39  C   UNL A   1      36.617  32.345  31.883  1.00  0.00     0.060 A 
ATOM     40  C   UNL A   1      38.030  33.046  31.075  1.00  0.00     0.016 A 
ATOM     41  C   UNL A   1      36.849  30.856  32.860  1.00  0.00     0.016 A 
ATOM     42  C   UNL A   1      39.668  32.321  31.164  1.00  0.00     0.010 A 
ATOM     43  C   UNL A   1      38.701  30.051  32.950  1.00  0.00     0.010 A 
ATOM     44  C   UNL A   1      40.036  30.845  32.060  1.00  0.00    -0.014 A 
BRANCH  44  45
ATOM     45  C   UNL A   1      41.351  30.183  32.078  1.00  0.00     0.031 A 
ATOM     46  C   UNL A   1      42.379  30.603  33.082  1.00  0.00     0.074 A 
ATOM     47  C   UNL A   1      41.695  29.362  31.072  1.00  0.00     0.049 A 
ATOM     48  N   UNL A   1      43.468  29.993  33.461  1.00  0.00    -0.248 NA
ATOM     49  C   UNL A   1      42.155  31.883  33.761  1.00  0.00     0.031 C 
ATOM     50  C   UNL A   1      40.847  29.004  29.935  1.00  0.00     0.029 A 
ATOM     51  N   UNL A   1      42.885  28.738  30.805  1.00  0.00    -0.354 N 
ATOM     52  C   UNL A   1      43.984  30.765  34.498  1.00  0.00     0.074 A 
ATOM     53  C   UNL A   1      43.120  31.904  34.665  1.00  0.00     0.031 C 
ATOM     54  C   UNL A   1      41.570  28.294  29.051  1.00  0.00     0.029 A 
ATOM     55  C   UNL A   1      42.910  28.096  29.590  1.00  0.00     0.049 A 
ATOM     56  H   UNL A   1      43.650  28.751  31.424  1.00  0.00     0.167 HD
ATOM     57  C   UNL A   1      45.100  30.553  35.231  1.00  0.00     0.034 A 
ATOM     58  C   UNL A   1      43.903  27.402  29.003  1.00  0.00     0.034 A 
ATOM     59  C   UNL A   1      46.065  29.556  34.873  1.00  0.00     0.049 A 
ATOM     60  C   UNL A   1      45.156  27.167  29.807  1.00  0.00     0.074 A 
ATOM     61  C   UNL A   1      47.227  29.192  35.523  1.00  0.00     0.029 A 
ATOM     62  N   UNL A   1      46.015  28.828  33.691  1.00  0.00    -0.354 N 
ATOM     63  N   UNL A   1      45.480  27.643  30.988  1.00  0.00    -0.248 NA
ATOM     64  C   UNL A   1      46.139  26.233  29.244  1.00  0.00     0.031 C 
ATOM     65  C   UNL A   1      47.910  28.288  34.700  1.00  0.00     0.029 A 
ATOM     66  C   UNL A   1      47.145  28.050  33.565  1.00  0.00     0.049 A 
ATOM     67  H   UNL A   1      45.279  28.864  33.038  1.00  0.00     0.167 HD
ATOM     68  C   UNL A   1      46.675  27.027  31.337  1.00  0.00     0.074 A 
ATOM     69  C   UNL A   1      47.013  26.139  30.239  1.00  0.00     0.031 C 
ATOM     70  C   UNL A   1      47.426  27.169  32.459  1.00  0.00     0.034 A 
BRANCH  57  71
ATOM     71  C   UNL A   1      45.308  31.411  36.449  1.00  0.00     0.023 A 
ATOM     72  C   UNL A   1      46.155  32.538  36.351  1.00  0.00     0.012 A 
ATOM     73  C   UNL A   1      44.673  31.137  37.675  1.00  0.00     0.148 A 
ATOM     74  C   UNL A   1      46.381  33.363  37.453  1.00  0.00     0.002 A 
ATOM     75  C   UNL A   1      44.879  31.982  38.762  1.00  0.00     0.091 A 
ATOM     76  F   UNL A   1      43.900  30.046  37.763  1.00  0.00    -0.205 F 
ATOM     77  C   UNL A   1      45.737  33.090  38.654  1.00  0.00     0.022 A 
BRANCH  75  78
ATOM     78  S   UNL A   1      44.067  31.750  40.348  1.00  0.00     0.127 S 
ATOM     79  O   UNL A   1      44.566  30.434  40.746  1.00  0.00    -0.237 OA
ATOM     80  O   UNL A   1      44.600  32.866  41.129  1.00  0.00    -0.237 OA
ATOM     81  O   UNL A   1      42.637  31.814  40.083  1.00  0.00    -0.744 OA
ENDBRANCH  75  78
ENDBRANCH  57  71
BRANCH  58  82
ATOM     82  C   UNL A   1      43.670  26.753  27.681  1.00  0.00     0.023 A 
ATOM     83  C   UNL A   1      43.733  27.541  26.514  1.00  0.00     0.012 A 
ATOM     84  C   UNL A   1      43.463  25.364  27.558  1.00  0.00     0.148 A 
ATOM     85  C   UNL A   1      43.570  26.966  25.253  1.00  0.00     0.002 A 
ATOM     86  C   UNL A   1      43.341  24.790  26.294  1.00  0.00     0.091 A 
ATOM     87  F   UNL A   1      43.403  24.630  28.677  1.00  0.00    -0.205 F 
ATOM     88  C   UNL A   1      43.382  25.592  25.143  1.00  0.00     0.022 A 
BRANCH  86  89
ATOM     89  S   UNL A   1      43.189  23.017  26.032  1.00  0.00     0.127 S 
ATOM     90  O   UNL A   1      41.946  22.715  26.739  1.00  0.00    -0.237 OA
ATOM     91  O   UNL A   1      43.098  22.932  24.573  1.00  0.00    -0.237 OA
ATOM     92  O   UNL A   1      44.390  22.421  26.600  1.00  0.00    -0.744 OA
ENDBRANCH  86  89
ENDBRANCH  58  82
BRANCH  70  93
ATOM     93  C   UNL A   1      48.672  26.337  32.563  1.00  0.00     0.023 A 
ATOM     94  C   UNL A   1      48.619  25.059  33.152  1.00  0.00     0.012 A 
ATOM     95  C   UNL A   1      49.875  26.792  31.989  1.00  0.00     0.148 A 
ATOM     96  C   UNL A   1      49.758  24.259  33.199  1.00  0.00     0.002 A 
ATOM     97  C   UNL A   1      50.990  25.967  31.990  1.00  0.00     0.091 A 
ATOM     98  F   UNL A   1      49.903  28.019  31.449  1.00  0.00    -0.205 F 
ATOM     99  C   UNL A   1      50.938  24.706  32.607  1.00  0.00     0.022 A 
BRANCH  97 100
ATOM    100  S   UNL A   1      52.513  26.415  31.153  1.00  0.00     0.127 S 
ATOM    101  O   UNL A   1      52.846  27.682  31.803  1.00  0.00    -0.237 OA
ATOM    102  O   UNL A   1      53.395  25.300  31.499  1.00  0.00    -0.237 OA
ATOM    103  O   UNL A   1      52.182  26.508  29.737  1.00  0.00    -0.744 OA
ENDBRANCH  97 100
ENDBRANCH  70  93
ENDBRANCH  44  45
ENDBRANCH  37  39
ENDBRANCH  36  37
ENDBRANCH  35  36
ENDBRANCH  34  35
ENDBRANCH   1  34
TORSDOF 20
ENDMDL
