MODEL 1
REMARK VINA RESULT:     -10.7      0.000      0.000
REMARK SMILES CSc1cccc(NC(=O)N[C@@H]2C=C[C@@H](C(=O)OCCOCCOC(=O)c3ccc(-c4c5nc(c(-c6cccc(S(=O)(=O)[O-])c6F)c6ccc([nH]6)c(-c6cccc(S(=O)(=O)[O-])c6F)c6nc(c(-c7cccc(S(=O)(=O)[O-])c7F)c7ccc4[nH]7)C=C6)C=C5)cc3)C2)c1
REMARK SMILES IDX 21 1 20 2 19 3 18 4 16 5 17 6 15 7 12 8 13 9 90 10 14 11
REMARK SMILES IDX 11 12 8 13 9 14 10 16 7 18 3 19 4 20 91 21 5 22 6 23 2 24
REMARK SMILES IDX 1 25 22 26 23 27 24 28 25 29 26 30 27 31 28 32 89 33 29 34
REMARK SMILES IDX 88 35 30 36 31 37 32 38 82 39 33 40 87 41 81 42 83 43 34 44
REMARK SMILES IDX 86 45 80 46 79 47 35 49 67 50 47 51 66 52 48 53 51 54 65 55
REMARK SMILES IDX 84 56 49 57 50 58 64 60 85 61 52 62 36 63 37 64 45 65 38 66
REMARK SMILES IDX 40 67 46 68 39 69 41 70 42 71 43 72 44 73 68 74 69 75 77 76
REMARK SMILES IDX 70 77 72 78 78 79 71 80 73 81 74 82 75 83 76 84 53 85 54 86
REMARK SMILES IDX 62 87 55 88 57 89 63 90 56 91 58 92 59 93 60 94 61 95
REMARK H PARENT 8 15 11 17 83 48 51 59
REMARK Flexibility Score: inf
ROOT
ATOM      1  O   UNL A   1      41.447  20.059  25.796  1.00  0.00    -0.374 OA
ENDROOT
BRANCH   1   2
ATOM      2  C   UNL A   1      40.294  20.500  26.513  1.00  0.00     0.202 C 
BRANCH   2   3
ATOM      3  C   UNL A   1      39.597  21.704  25.760  1.00  0.00     0.261 C 
BRANCH   3   4
ATOM      4  O   UNL A   1      38.254  21.982  26.299  1.00  0.00    -0.463 OA
BRANCH   4   5
ATOM      5  C   UNL A   1      37.202  22.186  25.432  1.00  0.00     0.312 C 
ATOM      6  O   UNL A   1      37.372  22.310  24.219  1.00  0.00    -0.252 OA
BRANCH   5   7
ATOM      7  C   UNL A   1      35.591  22.253  26.117  1.00  0.00     0.124 C 
ATOM      8  C   UNL A   1      32.378  22.952  25.365  1.00  0.00     0.107 C 
ATOM      9  C   UNL A   1      33.046  21.195  24.615  1.00  0.00    -0.006 C 
ATOM     10  C   UNL A   1      33.987  23.883  26.312  1.00  0.00     0.048 C 
ATOM     11  C   UNL A   1      34.643  20.873  24.929  1.00  0.00    -0.014 C 
BRANCH   8  12
ATOM     12  N   UNL A   1      31.385  22.639  26.432  1.00  0.00    -0.332 N 
ATOM     13  N   UNL A   1      29.991  24.629  26.491  1.00  0.00    -0.308 N 
ATOM     14  C   UNL A   1      30.288  23.336  26.881  1.00  0.00     0.319 C 
ATOM     15  H   UNL A   1      29.152  25.014  26.833  1.00  0.00     0.171 HD
ATOM     16  O   UNL A   1      29.481  22.739  27.601  1.00  0.00    -0.248 OA
ATOM     17  H   UNL A   1      31.541  21.785  26.895  1.00  0.00     0.165 HD
BRANCH  13  18
ATOM     18  C   UNL A   1      30.774  25.453  25.651  1.00  0.00     0.043 A 
ATOM     19  C   UNL A   1      31.550  28.193  25.536  1.00  0.00     0.009 A 
ATOM     20  C   UNL A   1      30.672  28.600  24.167  1.00  0.00     0.015 A 
ATOM     21  C   UNL A   1      31.544  26.717  26.254  1.00  0.00     0.041 A 
ATOM     22  C   UNL A   1      29.892  27.367  23.277  1.00  0.00     0.003 A 
ATOM     23  C   UNL A   1      30.082  25.600  24.223  1.00  0.00     0.026 A 
BRANCH  19  24
ATOM     24  S   UNL A   1      33.165  29.084  25.692  1.00  0.00    -0.130 SA
ATOM     25  C   UNL A   1      32.888  30.416  26.850  1.00  0.00     0.091 C 
ENDBRANCH  19  24
ENDBRANCH  13  18
ENDBRANCH   8  12
ENDBRANCH   5   7
ENDBRANCH   4   5
ENDBRANCH   3   4
ENDBRANCH   2   3
ENDBRANCH   1   2
BRANCH   1  26
ATOM     26  C   UNL A   1      42.287  18.956  26.160  1.00  0.00     0.202 C 
BRANCH  26  27
ATOM     27  C   UNL A   1      43.532  18.574  25.316  1.00  0.00     0.261 C 
BRANCH  27  28
ATOM     28  O   UNL A   1      43.857  19.514  24.297  1.00  0.00    -0.460 OA
BRANCH  28  29
ATOM     29  C   UNL A   1      45.092  20.037  24.442  1.00  0.00     0.338 C 
ATOM     30  O   UNL A   1      46.137  19.592  24.002  1.00  0.00    -0.246 OA
BRANCH  29  31
ATOM     31  C   UNL A   1      44.950  21.370  25.024  1.00  0.00     0.060 A 
ATOM     32  C   UNL A   1      44.688  22.416  24.135  1.00  0.00     0.016 A 
ATOM     33  C   UNL A   1      45.102  21.590  26.395  1.00  0.00     0.016 A 
ATOM     34  C   UNL A   1      44.673  23.716  24.604  1.00  0.00     0.010 A 
ATOM     35  C   UNL A   1      45.091  22.900  26.864  1.00  0.00     0.010 A 
ATOM     36  C   UNL A   1      44.938  23.962  25.957  1.00  0.00    -0.014 A 
BRANCH  36  37
ATOM     37  C   UNL A   1      45.244  25.344  26.362  1.00  0.00     0.031 A 
ATOM     38  C   UNL A   1      44.134  26.198  26.898  1.00  0.00     0.074 A 
ATOM     39  C   UNL A   1      46.504  25.798  26.300  1.00  0.00     0.049 A 
ATOM     40  N   UNL A   1      44.172  27.434  27.314  1.00  0.00    -0.248 NA
ATOM     41  C   UNL A   1      42.801  25.577  26.973  1.00  0.00     0.031 C 
ATOM     42  C   UNL A   1      47.649  25.033  25.810  1.00  0.00     0.029 A 
ATOM     43  N   UNL A   1      47.022  27.020  26.632  1.00  0.00    -0.354 N 
ATOM     44  C   UNL A   1      42.866  27.755  27.660  1.00  0.00     0.074 A 
ATOM     45  C   UNL A   1      42.056  26.587  27.394  1.00  0.00     0.031 C 
ATOM     46  C   UNL A   1      48.737  25.818  25.842  1.00  0.00     0.029 A 
ATOM     47  C   UNL A   1      48.350  27.146  26.313  1.00  0.00     0.049 A 
ATOM     48  H   UNL A   1      46.495  27.736  27.055  1.00  0.00     0.167 HD
ATOM     49  C   UNL A   1      42.388  28.919  28.159  1.00  0.00     0.034 A 
ATOM     50  C   UNL A   1      49.148  28.228  26.354  1.00  0.00     0.034 A 
ATOM     51  C   UNL A   1      43.212  30.069  28.413  1.00  0.00     0.049 A 
ATOM     52  C   UNL A   1      48.592  29.522  26.876  1.00  0.00     0.074 A 
ATOM     53  C   UNL A   1      42.847  31.282  28.965  1.00  0.00     0.029 A 
ATOM     54  N   UNL A   1      44.561  30.158  28.101  1.00  0.00    -0.354 N 
ATOM     55  N   UNL A   1      47.379  29.788  27.295  1.00  0.00    -0.248 NA
ATOM     56  C   UNL A   1      49.522  30.655  26.962  1.00  0.00     0.031 C 
ATOM     57  C   UNL A   1      43.960  32.128  28.925  1.00  0.00     0.029 A 
ATOM     58  C   UNL A   1      45.038  31.419  28.416  1.00  0.00     0.049 A 
ATOM     59  H   UNL A   1      45.100  29.432  27.712  1.00  0.00     0.167 HD
ATOM     60  C   UNL A   1      47.404  31.109  27.725  1.00  0.00     0.074 A 
ATOM     61  C   UNL A   1      48.761  31.581  27.529  1.00  0.00     0.031 C 
ATOM     62  C   UNL A   1      46.397  31.864  28.234  1.00  0.00     0.034 A 
BRANCH  49  63
ATOM     63  C   UNL A   1      40.907  29.006  28.420  1.00  0.00     0.023 A 
ATOM     64  C   UNL A   1      40.001  29.207  27.357  1.00  0.00     0.012 A 
ATOM     65  C   UNL A   1      40.410  28.882  29.732  1.00  0.00     0.148 A 
ATOM     66  C   UNL A   1      38.635  29.341  27.602  1.00  0.00     0.002 A 
ATOM     67  C   UNL A   1      39.043  28.958  29.962  1.00  0.00     0.091 A 
ATOM     68  F   UNL A   1      41.285  28.714  30.734  1.00  0.00    -0.205 F 
ATOM     69  C   UNL A   1      38.156  29.207  28.903  1.00  0.00     0.022 A 
BRANCH  67  70
ATOM     70  S   UNL A   1      38.324  28.716  31.590  1.00  0.00     0.127 S 
ATOM     71  O   UNL A   1      39.004  29.750  32.368  1.00  0.00    -0.237 OA
ATOM     72  O   UNL A   1      36.906  28.977  31.338  1.00  0.00    -0.237 OA
ATOM     73  O   UNL A   1      38.633  27.344  31.967  1.00  0.00    -0.744 OA
ENDBRANCH  67  70
ENDBRANCH  49  63
BRANCH  50  74
ATOM     74  C   UNL A   1      50.546  28.115  25.864  1.00  0.00     0.023 A 
ATOM     75  C   UNL A   1      50.850  28.376  24.516  1.00  0.00     0.012 A 
ATOM     76  C   UNL A   1      51.588  27.809  26.763  1.00  0.00     0.148 A 
ATOM     77  C   UNL A   1      52.170  28.315  24.066  1.00  0.00     0.002 A 
ATOM     78  C   UNL A   1      52.903  27.808  26.323  1.00  0.00     0.091 A 
ATOM     79  F   UNL A   1      51.267  27.560  28.041  1.00  0.00    -0.205 F 
ATOM     80  C   UNL A   1      53.196  28.044  24.971  1.00  0.00     0.022 A 
BRANCH  78  81
ATOM     81  S   UNL A   1      54.291  27.605  27.441  1.00  0.00     0.127 S 
ATOM     82  O   UNL A   1      54.227  28.838  28.223  1.00  0.00    -0.237 OA
ATOM     83  O   UNL A   1      53.912  26.393  28.168  1.00  0.00    -0.237 OA
ATOM     84  O   UNL A   1      55.467  27.460  26.595  1.00  0.00    -0.744 OA
ENDBRANCH  78  81
ENDBRANCH  50  74
BRANCH  62  85
ATOM     85  C   UNL A   1      46.730  33.269  28.662  1.00  0.00     0.023 A 
ATOM     86  C   UNL A   1      47.244  33.521  29.951  1.00  0.00     0.012 A 
ATOM     87  C   UNL A   1      46.594  34.336  27.752  1.00  0.00     0.148 A 
ATOM     88  C   UNL A   1      47.579  34.818  30.337  1.00  0.00     0.002 A 
ATOM     89  C   UNL A   1      46.986  35.615  28.123  1.00  0.00     0.091 A 
ATOM     90  F   UNL A   1      46.091  34.077  26.536  1.00  0.00    -0.205 F 
ATOM     91  C   UNL A   1      47.462  35.862  29.421  1.00  0.00     0.022 A 
BRANCH  89  92
ATOM     92  S   UNL A   1      46.966  36.999  26.979  1.00  0.00     0.127 S 
ATOM     93  O   UNL A   1      47.809  37.971  27.674  1.00  0.00    -0.237 OA
ATOM     94  O   UNL A   1      47.568  36.415  25.781  1.00  0.00    -0.237 OA
ATOM     95  O   UNL A   1      45.569  37.383  26.831  1.00  0.00    -0.744 OA
ENDBRANCH  89  92
ENDBRANCH  62  85
ENDBRANCH  36  37
ENDBRANCH  29  31
ENDBRANCH  28  29
ENDBRANCH  27  28
ENDBRANCH  26  27
ENDBRANCH   1  26
TORSDOF 20
ENDMDL
MODEL 2
REMARK VINA RESULT:     -10.5      1.811      2.139
REMARK SMILES CSc1cccc(NC(=O)N[C@@H]2C=C[C@@H](C(=O)OCCOCCOC(=O)c3ccc(-c4c5nc(c(-c6cccc(S(=O)(=O)[O-])c6F)c6ccc([nH]6)c(-c6cccc(S(=O)(=O)[O-])c6F)c6nc(c(-c7cccc(S(=O)(=O)[O-])c7F)c7ccc4[nH]7)C=C6)C=C5)cc3)C2)c1
REMARK SMILES IDX 21 1 20 2 19 3 18 4 16 5 17 6 15 7 12 8 13 9 90 10 14 11
REMARK SMILES IDX 11 12 8 13 9 14 10 16 7 18 3 19 4 20 91 21 5 22 6 23 2 24
REMARK SMILES IDX 1 25 22 26 23 27 24 28 25 29 26 30 27 31 28 32 89 33 29 34
REMARK SMILES IDX 88 35 30 36 31 37 32 38 82 39 33 40 87 41 81 42 83 43 34 44
REMARK SMILES IDX 86 45 80 46 79 47 35 49 67 50 47 51 66 52 48 53 51 54 65 55
REMARK SMILES IDX 84 56 49 57 50 58 64 60 85 61 52 62 36 63 37 64 45 65 38 66
REMARK SMILES IDX 40 67 46 68 39 69 41 70 42 71 43 72 44 73 68 74 69 75 77 76
REMARK SMILES IDX 70 77 72 78 78 79 71 80 73 81 74 82 75 83 76 84 53 85 54 86
REMARK SMILES IDX 62 87 55 88 57 89 63 90 56 91 58 92 59 93 60 94 61 95
REMARK H PARENT 8 15 11 17 83 48 51 59
REMARK Flexibility Score: inf
ROOT
ATOM      1  O   UNL A   1      41.491  20.129  26.251  1.00  0.00    -0.374 OA
ENDROOT
BRANCH   1   2
ATOM      2  C   UNL A   1      40.163  19.948  25.757  1.00  0.00     0.202 C 
BRANCH   2   3
ATOM      3  C   UNL A   1      39.289  21.241  26.024  1.00  0.00     0.261 C 
BRANCH   3   4
ATOM      4  O   UNL A   1      37.850  20.968  25.874  1.00  0.00    -0.463 OA
BRANCH   4   5
ATOM      5  C   UNL A   1      37.018  21.953  25.385  1.00  0.00     0.312 C 
ATOM      6  O   UNL A   1      37.367  22.709  24.478  1.00  0.00    -0.252 OA
BRANCH   5   7
ATOM      7  C   UNL A   1      35.423  22.090  26.095  1.00  0.00     0.124 C 
ATOM      8  C   UNL A   1      32.236  22.948  25.397  1.00  0.00     0.107 C 
ATOM      9  C   UNL A   1      32.808  21.168  24.624  1.00  0.00    -0.006 C 
ATOM     10  C   UNL A   1      33.902  23.794  26.326  1.00  0.00     0.048 C 
ATOM     11  C   UNL A   1      34.392  20.768  24.912  1.00  0.00    -0.014 C 
BRANCH   8  12
ATOM     12  N   UNL A   1      31.245  22.675  26.477  1.00  0.00    -0.332 N 
ATOM     13  N   UNL A   1      29.873  24.681  26.491  1.00  0.00    -0.308 N 
ATOM     14  C   UNL A   1      30.158  23.395  26.913  1.00  0.00     0.319 C 
ATOM     15  H   UNL A   1      29.040  25.083  26.826  1.00  0.00     0.171 HD
ATOM     16  O   UNL A   1      29.348  22.826  27.652  1.00  0.00    -0.248 OA
ATOM     17  H   UNL A   1      31.395  21.831  26.961  1.00  0.00     0.165 HD
BRANCH  13  18
ATOM     18  C   UNL A   1      30.661  25.473  25.626  1.00  0.00     0.043 A 
ATOM     19  C   UNL A   1      31.554  28.176  25.493  1.00  0.00     0.009 A 
ATOM     20  C   UNL A   1      30.645  28.631  24.159  1.00  0.00     0.015 A 
ATOM     21  C   UNL A   1      31.509  26.698  26.204  1.00  0.00     0.041 A 
ATOM     22  C   UNL A   1      29.778  27.439  23.293  1.00  0.00     0.003 A 
ATOM     23  C   UNL A   1      29.923  25.659  24.225  1.00  0.00     0.026 A 
BRANCH  19  24
ATOM     24  S   UNL A   1      33.212  28.994  25.592  1.00  0.00    -0.130 SA
ATOM     25  C   UNL A   1      33.138  30.099  26.994  1.00  0.00     0.091 C 
ENDBRANCH  19  24
ENDBRANCH  13  18
ENDBRANCH   8  12
ENDBRANCH   5   7
ENDBRANCH   4   5
ENDBRANCH   3   4
ENDBRANCH   2   3
ENDBRANCH   1   2
BRANCH   1  26
ATOM     26  C   UNL A   1      42.423  19.081  26.546  1.00  0.00     0.202 C 
BRANCH  26  27
ATOM     27  C   UNL A   1      43.393  18.533  25.466  1.00  0.00     0.261 C 
BRANCH  27  28
ATOM     28  O   UNL A   1      43.695  19.460  24.429  1.00  0.00    -0.460 OA
BRANCH  28  29
ATOM     29  C   UNL A   1      44.934  19.980  24.535  1.00  0.00     0.338 C 
ATOM     30  O   UNL A   1      45.967  19.525  24.074  1.00  0.00    -0.246 OA
BRANCH  29  31
ATOM     31  C   UNL A   1      44.812  21.322  25.103  1.00  0.00     0.060 A 
ATOM     32  C   UNL A   1      44.619  22.369  24.198  1.00  0.00     0.016 A 
ATOM     33  C   UNL A   1      44.917  21.547  26.477  1.00  0.00     0.016 A 
ATOM     34  C   UNL A   1      44.628  23.672  24.658  1.00  0.00     0.010 A 
ATOM     35  C   UNL A   1      44.929  22.860  26.938  1.00  0.00     0.010 A 
ATOM     36  C   UNL A   1      44.846  23.919  26.018  1.00  0.00    -0.014 A 
BRANCH  36  37
ATOM     37  C   UNL A   1      45.180  25.294  26.428  1.00  0.00     0.031 A 
ATOM     38  C   UNL A   1      44.084  26.175  26.947  1.00  0.00     0.074 A 
ATOM     39  C   UNL A   1      46.451  25.718  26.383  1.00  0.00     0.049 A 
ATOM     40  N   UNL A   1      44.146  27.410  27.363  1.00  0.00    -0.248 NA
ATOM     41  C   UNL A   1      42.735  25.587  27.004  1.00  0.00     0.031 C 
ATOM     42  C   UNL A   1      47.584  24.925  25.910  1.00  0.00     0.029 A 
ATOM     43  N   UNL A   1      46.994  26.927  26.721  1.00  0.00    -0.354 N 
ATOM     44  C   UNL A   1      42.842  27.763  27.690  1.00  0.00     0.074 A 
ATOM     45  C   UNL A   1      42.009  26.614  27.413  1.00  0.00     0.031 C 
ATOM     46  C   UNL A   1      48.691  25.683  25.956  1.00  0.00     0.029 A 
ATOM     47  C   UNL A   1      48.329  27.020  26.421  1.00  0.00     0.049 A 
ATOM     48  H   UNL A   1      46.478  27.656  27.137  1.00  0.00     0.167 HD
ATOM     49  C   UNL A   1      42.386  28.939  28.181  1.00  0.00     0.034 A 
ATOM     50  C   UNL A   1      49.152  28.083  26.473  1.00  0.00     0.034 A 
ATOM     51  C   UNL A   1      43.234  30.068  28.447  1.00  0.00     0.049 A 
ATOM     52  C   UNL A   1      48.620  29.390  26.986  1.00  0.00     0.074 A 
ATOM     53  C   UNL A   1      42.891  31.291  28.993  1.00  0.00     0.029 A 
ATOM     54  N   UNL A   1      44.589  30.125  28.154  1.00  0.00    -0.354 N 
ATOM     55  N   UNL A   1      47.408  29.686  27.388  1.00  0.00    -0.248 NA
ATOM     56  C   UNL A   1      49.576  30.501  27.085  1.00  0.00     0.031 C 
ATOM     57  C   UNL A   1      44.024  32.110  28.967  1.00  0.00     0.029 A 
ATOM     58  C   UNL A   1      45.091  31.374  28.475  1.00  0.00     0.049 A 
ATOM     59  H   UNL A   1      45.116  29.386  27.772  1.00  0.00     0.167 HD
ATOM     60  C   UNL A   1      47.459  31.007  27.817  1.00  0.00     0.074 A 
ATOM     61  C   UNL A   1      48.829  31.445  27.640  1.00  0.00     0.031 C 
ATOM     62  C   UNL A   1      46.464  31.786  28.312  1.00  0.00     0.034 A 
BRANCH  49  63
ATOM     63  C   UNL A   1      40.904  29.062  28.421  1.00  0.00     0.023 A 
ATOM     64  C   UNL A   1      40.019  29.288  27.345  1.00  0.00     0.012 A 
ATOM     65  C   UNL A   1      40.385  28.947  29.726  1.00  0.00     0.148 A 
ATOM     66  C   UNL A   1      38.653  29.455  27.572  1.00  0.00     0.002 A 
ATOM     67  C   UNL A   1      39.017  29.057  29.936  1.00  0.00     0.091 A 
ATOM     68  F   UNL A   1      41.241  28.755  30.739  1.00  0.00    -0.205 F 
ATOM     69  C   UNL A   1      38.152  29.330  28.865  1.00  0.00     0.022 A 
BRANCH  67  70
ATOM     70  S   UNL A   1      38.269  28.829  31.552  1.00  0.00     0.127 S 
ATOM     71  O   UNL A   1      36.859  29.086  31.263  1.00  0.00    -0.237 OA
ATOM     72  O   UNL A   1      38.587  27.429  31.840  1.00  0.00    -0.237 OA
ATOM     73  O   UNL A   1      38.912  29.793  32.434  1.00  0.00    -0.744 OA
ENDBRANCH  67  70
ENDBRANCH  49  63
BRANCH  50  74
ATOM     74  C   UNL A   1      50.554  27.936  26.003  1.00  0.00     0.023 A 
ATOM     75  C   UNL A   1      51.589  27.689  26.922  1.00  0.00     0.012 A 
ATOM     76  C   UNL A   1      50.846  27.977  24.624  1.00  0.00     0.148 A 
ATOM     77  C   UNL A   1      52.898  27.504  26.476  1.00  0.00     0.002 A 
ATOM     78  C   UNL A   1      52.138  27.734  24.184  1.00  0.00     0.091 A 
ATOM     79  F   UNL A   1      49.839  28.219  23.772  1.00  0.00    -0.205 F 
ATOM     80  C   UNL A   1      53.171  27.514  25.108  1.00  0.00     0.022 A 
BRANCH  78  81
ATOM     81  S   UNL A   1      52.550  27.593  22.443  1.00  0.00     0.127 S 
ATOM     82  O   UNL A   1      52.547  28.993  22.022  1.00  0.00    -0.237 OA
ATOM     83  O   UNL A   1      53.871  26.968  22.500  1.00  0.00    -0.237 OA
ATOM     84  O   UNL A   1      51.511  26.759  21.854  1.00  0.00    -0.744 OA
ENDBRANCH  78  81
ENDBRANCH  50  74
BRANCH  62  85
ATOM     85  C   UNL A   1      46.825  33.183  28.743  1.00  0.00     0.023 A 
ATOM     86  C   UNL A   1      46.717  34.260  27.840  1.00  0.00     0.012 A 
ATOM     87  C   UNL A   1      47.209  33.434  30.076  1.00  0.00     0.148 A 
ATOM     88  C   UNL A   1      47.024  35.558  28.248  1.00  0.00     0.002 A 
ATOM     89  C   UNL A   1      47.455  34.736  30.490  1.00  0.00     0.091 A 
ATOM     90  F   UNL A   1      47.319  32.394  30.915  1.00  0.00    -0.205 F 
ATOM     91  C   UNL A   1      47.380  35.797  29.574  1.00  0.00     0.022 A 
BRANCH  89  92
ATOM     92  S   UNL A   1      47.821  35.150  32.199  1.00  0.00     0.127 S 
ATOM     93  O   UNL A   1      47.935  36.606  32.133  1.00  0.00    -0.237 OA
ATOM     94  O   UNL A   1      46.630  34.662  32.894  1.00  0.00    -0.237 OA
ATOM     95  O   UNL A   1      49.050  34.445  32.533  1.00  0.00    -0.744 OA
ENDBRANCH  89  92
ENDBRANCH  62  85
ENDBRANCH  36  37
ENDBRANCH  29  31
ENDBRANCH  28  29
ENDBRANCH  27  28
ENDBRANCH  26  27
ENDBRANCH   1  26
TORSDOF 20
ENDMDL
MODEL 3
REMARK VINA RESULT:     -10.5      0.878      7.463
REMARK SMILES CSc1cccc(NC(=O)N[C@@H]2C=C[C@@H](C(=O)OCCOCCOC(=O)c3ccc(-c4c5nc(c(-c6cccc(S(=O)(=O)[O-])c6F)c6ccc([nH]6)c(-c6cccc(S(=O)(=O)[O-])c6F)c6nc(c(-c7cccc(S(=O)(=O)[O-])c7F)c7ccc4[nH]7)C=C6)C=C5)cc3)C2)c1
REMARK SMILES IDX 21 1 20 2 19 3 18 4 16 5 17 6 15 7 12 8 13 9 90 10 14 11
REMARK SMILES IDX 11 12 8 13 9 14 10 16 7 18 3 19 4 20 91 21 5 22 6 23 2 24
REMARK SMILES IDX 1 25 22 26 23 27 24 28 25 29 26 30 27 31 28 32 89 33 29 34
REMARK SMILES IDX 88 35 30 36 31 37 32 38 82 39 33 40 87 41 81 42 83 43 34 44
REMARK SMILES IDX 86 45 80 46 79 47 35 49 67 50 47 51 66 52 48 53 51 54 65 55
REMARK SMILES IDX 84 56 49 57 50 58 64 60 85 61 52 62 36 63 37 64 45 65 38 66
REMARK SMILES IDX 40 67 46 68 39 69 41 70 42 71 43 72 44 73 68 74 69 75 77 76
REMARK SMILES IDX 70 77 72 78 78 79 71 80 73 81 74 82 75 83 76 84 53 85 54 86
REMARK SMILES IDX 62 87 55 88 57 89 63 90 56 91 58 92 59 93 60 94 61 95
REMARK H PARENT 8 15 11 17 83 48 51 59
REMARK Flexibility Score: inf
ROOT
ATOM      1  O   UNL A   1      41.678  20.051  26.263  1.00  0.00    -0.374 OA
ENDROOT
BRANCH   1   2
ATOM      2  C   UNL A   1      40.340  19.943  25.775  1.00  0.00     0.202 C 
BRANCH   2   3
ATOM      3  C   UNL A   1      39.562  21.307  25.976  1.00  0.00     0.261 C 
BRANCH   3   4
ATOM      4  O   UNL A   1      38.112  21.092  26.127  1.00  0.00    -0.463 OA
BRANCH   4   5
ATOM      5  C   UNL A   1      37.230  21.964  25.526  1.00  0.00     0.312 C 
ATOM      6  O   UNL A   1      37.551  22.649  24.555  1.00  0.00    -0.252 OA
BRANCH   5   7
ATOM      7  C   UNL A   1      35.611  22.060  26.188  1.00  0.00     0.124 C 
ATOM      8  C   UNL A   1      32.422  22.821  25.390  1.00  0.00     0.107 C 
ATOM      9  C   UNL A   1      33.068  21.053  24.647  1.00  0.00    -0.006 C 
ATOM     10  C   UNL A   1      34.035  23.720  26.362  1.00  0.00     0.048 C 
ATOM     11  C   UNL A   1      34.654  20.701  24.984  1.00  0.00    -0.014 C 
BRANCH   8  12
ATOM     12  N   UNL A   1      31.408  22.526  26.443  1.00  0.00    -0.332 N 
ATOM     13  N   UNL A   1      30.070  24.553  26.506  1.00  0.00    -0.308 N 
ATOM     14  C   UNL A   1      30.327  23.248  26.886  1.00  0.00     0.319 C 
ATOM     15  H   UNL A   1      29.238  24.958  26.842  1.00  0.00     0.171 HD
ATOM     16  O   UNL A   1      29.494  22.666  27.590  1.00  0.00    -0.248 OA
ATOM     17  H   UNL A   1      31.535  21.663  26.898  1.00  0.00     0.165 HD
BRANCH  13  18
ATOM     18  C   UNL A   1      30.887  25.363  25.684  1.00  0.00     0.043 A 
ATOM     19  C   UNL A   1      31.401  28.144  25.333  1.00  0.00     0.009 A 
ATOM     20  C   UNL A   1      30.702  28.295  23.816  1.00  0.00     0.015 A 
ATOM     21  C   UNL A   1      31.432  26.765  26.222  1.00  0.00     0.041 A 
ATOM     22  C   UNL A   1      30.186  26.890  22.990  1.00  0.00     0.003 A 
ATOM     23  C   UNL A   1      30.403  25.271  24.168  1.00  0.00     0.026 A 
BRANCH  19  24
ATOM     24  S   UNL A   1      32.881  29.225  25.594  1.00  0.00    -0.130 SA
ATOM     25  C   UNL A   1      32.534  30.199  27.051  1.00  0.00     0.091 C 
ENDBRANCH  19  24
ENDBRANCH  13  18
ENDBRANCH   8  12
ENDBRANCH   5   7
ENDBRANCH   4   5
ENDBRANCH   3   4
ENDBRANCH   2   3
ENDBRANCH   1   2
BRANCH   1  26
ATOM     26  C   UNL A   1      42.673  19.022  26.208  1.00  0.00     0.202 C 
BRANCH  26  27
ATOM     27  C   UNL A   1      43.569  18.829  24.956  1.00  0.00     0.261 C 
BRANCH  27  28
ATOM     28  O   UNL A   1      44.023  20.045  24.370  1.00  0.00    -0.460 OA
BRANCH  28  29
ATOM     29  C   UNL A   1      45.149  20.514  24.944  1.00  0.00     0.338 C 
ATOM     30  O   UNL A   1      46.271  20.046  24.857  1.00  0.00    -0.246 OA
BRANCH  29  31
ATOM     31  C   UNL A   1      44.852  21.829  25.509  1.00  0.00     0.060 A 
ATOM     32  C   UNL A   1      44.490  22.831  24.604  1.00  0.00     0.016 A 
ATOM     33  C   UNL A   1      44.959  22.078  26.879  1.00  0.00     0.016 A 
ATOM     34  C   UNL A   1      44.325  24.126  25.059  1.00  0.00     0.010 A 
ATOM     35  C   UNL A   1      44.795  23.383  27.334  1.00  0.00     0.010 A 
ATOM     36  C   UNL A   1      44.540  24.412  26.412  1.00  0.00    -0.014 A 
BRANCH  36  37
ATOM     37  C   UNL A   1      44.686  25.824  26.807  1.00  0.00     0.031 A 
ATOM     38  C   UNL A   1      46.039  26.462  26.708  1.00  0.00     0.074 A 
ATOM     39  C   UNL A   1      43.611  26.527  27.192  1.00  0.00     0.049 A 
ATOM     40  N   UNL A   1      46.398  27.682  26.997  1.00  0.00    -0.248 NA
ATOM     41  C   UNL A   1      47.137  25.609  26.220  1.00  0.00     0.031 C 
ATOM     42  C   UNL A   1      42.254  25.995  27.300  1.00  0.00     0.029 A 
ATOM     43  N   UNL A   1      43.501  27.833  27.582  1.00  0.00    -0.354 N 
ATOM     44  C   UNL A   1      47.768  27.735  26.769  1.00  0.00     0.074 A 
ATOM     45  C   UNL A   1      48.177  26.420  26.328  1.00  0.00     0.031 C 
ATOM     46  C   UNL A   1      41.447  26.962  27.764  1.00  0.00     0.029 A 
ATOM     47  C   UNL A   1      42.244  28.160  28.021  1.00  0.00     0.049 A 
ATOM     48  H   UNL A   1      44.249  28.473  27.552  1.00  0.00     0.167 HD
ATOM     49  C   UNL A   1      48.605  28.789  26.911  1.00  0.00     0.034 A 
ATOM     50  C   UNL A   1      41.800  29.286  28.609  1.00  0.00     0.034 A 
ATOM     51  C   UNL A   1      48.176  30.088  27.353  1.00  0.00     0.049 A 
ATOM     52  C   UNL A   1      42.752  30.433  28.792  1.00  0.00     0.074 A 
ATOM     53  C   UNL A   1      48.925  31.242  27.485  1.00  0.00     0.029 A 
ATOM     54  N   UNL A   1      46.888  30.395  27.770  1.00  0.00    -0.354 N 
ATOM     55  N   UNL A   1      44.023  30.508  28.480  1.00  0.00    -0.248 NA
ATOM     56  C   UNL A   1      42.202  31.662  29.378  1.00  0.00     0.031 C 
ATOM     57  C   UNL A   1      48.105  32.228  28.043  1.00  0.00     0.029 A 
ATOM     58  C   UNL A   1      46.827  31.711  28.191  1.00  0.00     0.049 A 
ATOM     59  H   UNL A   1      46.129  29.767  27.766  1.00  0.00     0.167 HD
ATOM     60  C   UNL A   1      44.421  31.800  28.801  1.00  0.00     0.074 A 
ATOM     61  C   UNL A   1      43.247  32.477  29.316  1.00  0.00     0.031 C 
ATOM     62  C   UNL A   1      45.644  32.374  28.681  1.00  0.00     0.034 A 
BRANCH  49  63
ATOM     63  C   UNL A   1      50.065  28.559  26.620  1.00  0.00     0.023 A 
ATOM     64  C   UNL A   1      50.566  28.699  25.308  1.00  0.00     0.012 A 
ATOM     65  C   UNL A   1      50.948  28.208  27.659  1.00  0.00     0.148 A 
ATOM     66  C   UNL A   1      51.906  28.436  25.028  1.00  0.00     0.002 A 
ATOM     67  C   UNL A   1      52.293  28.003  27.382  1.00  0.00     0.091 A 
ATOM     68  F   UNL A   1      50.452  28.056  28.896  1.00  0.00    -0.205 F 
ATOM     69  C   UNL A   1      52.771  28.097  26.065  1.00  0.00     0.022 A 
BRANCH  67  70
ATOM     70  S   UNL A   1      53.498  27.645  28.664  1.00  0.00     0.127 S 
ATOM     71  O   UNL A   1      53.063  26.324  29.116  1.00  0.00    -0.237 OA
ATOM     72  O   UNL A   1      54.754  27.648  27.911  1.00  0.00    -0.237 OA
ATOM     73  O   UNL A   1      53.374  28.714  29.645  1.00  0.00    -0.744 OA
ENDBRANCH  67  70
ENDBRANCH  49  63
BRANCH  50  74
ATOM     74  C   UNL A   1      40.391  29.352  29.075  1.00  0.00     0.023 A 
ATOM     75  C   UNL A   1      39.343  29.498  28.149  1.00  0.00     0.012 A 
ATOM     76  C   UNL A   1      40.091  29.204  30.444  1.00  0.00     0.148 A 
ATOM     77  C   UNL A   1      38.017  29.514  28.582  1.00  0.00     0.002 A 
ATOM     78  C   UNL A   1      38.769  29.161  30.861  1.00  0.00     0.091 A 
ATOM     79  F   UNL A   1      41.111  29.072  31.304  1.00  0.00    -0.205 F 
ATOM     80  C   UNL A   1      37.729  29.333  29.934  1.00  0.00     0.022 A 
BRANCH  78  81
ATOM     81  S   UNL A   1      38.308  28.797  32.556  1.00  0.00     0.127 S 
ATOM     82  O   UNL A   1      36.857  28.974  32.515  1.00  0.00    -0.237 OA
ATOM     83  O   UNL A   1      38.757  27.412  32.695  1.00  0.00    -0.237 OA
ATOM     84  O   UNL A   1      39.033  29.753  33.381  1.00  0.00    -0.744 OA
ENDBRANCH  78  81
ENDBRANCH  50  74
BRANCH  62  85
ATOM     85  C   UNL A   1      45.772  33.823  29.071  1.00  0.00     0.023 A 
ATOM     86  C   UNL A   1      46.236  34.180  30.353  1.00  0.00     0.012 A 
ATOM     87  C   UNL A   1      45.493  34.836  28.131  1.00  0.00     0.148 A 
ATOM     88  C   UNL A   1      46.382  35.522  30.704  1.00  0.00     0.002 A 
ATOM     89  C   UNL A   1      45.698  36.167  28.467  1.00  0.00     0.091 A 
ATOM     90  F   UNL A   1      45.040  34.475  26.921  1.00  0.00    -0.205 F 
ATOM     91  C   UNL A   1      46.125  36.513  29.759  1.00  0.00     0.022 A 
BRANCH  89  92
ATOM     92  S   UNL A   1      45.491  37.502  27.285  1.00  0.00     0.127 S 
ATOM     93  O   UNL A   1      46.470  37.145  26.259  1.00  0.00    -0.237 OA
ATOM     94  O   UNL A   1      44.095  37.340  26.880  1.00  0.00    -0.237 OA
ATOM     95  O   UNL A   1      45.773  38.734  28.010  1.00  0.00    -0.744 OA
ENDBRANCH  89  92
ENDBRANCH  62  85
ENDBRANCH  36  37
ENDBRANCH  29  31
ENDBRANCH  28  29
ENDBRANCH  27  28
ENDBRANCH  26  27
ENDBRANCH   1  26
TORSDOF 20
ENDMDL
