MODEL 1
REMARK VINA RESULT:      -8.1      0.000      0.000
REMARK SMILES CCOCCCC(=O)N[C@@H]1COC[C@H]1C(=O)OCCOCCOC(=O)c1ccc(-c2c3nc(c(-c4cccc(S(=O)(=O)[O-])c4F)c4ccc([nH]4)c(-c4cccc(S(=O)(=O)[O-])c4F)c4nc(c(-c5cccc(S(=O)(=O)[O-])c5F)c5ccc2[nH]5)C=C4)C=C3)cc1
REMARK SMILES IDX 18 1 17 2 15 3 16 4 14 5 10 6 11 7 12 8 13 9 9 10 7 11 8 12
REMARK SMILES IDX 6 14 5 15 4 16 3 17 2 18 1 19 19 20 20 21 21 22 22 23 23 24
REMARK SMILES IDX 24 25 25 26 26 27 27 28 88 29 28 30 87 31 29 32 30 33 31 34
REMARK SMILES IDX 81 35 32 36 86 37 80 38 82 39 33 40 85 41 79 42 78 43 34 45
REMARK SMILES IDX 66 46 46 47 65 48 47 49 50 50 64 51 83 52 48 53 49 54 63 56
REMARK SMILES IDX 84 57 51 58 35 59 36 60 44 61 37 62 39 63 45 64 38 65 40 66
REMARK SMILES IDX 41 67 42 68 43 69 67 70 68 71 76 72 69 73 71 74 77 75 70 76
REMARK SMILES IDX 72 77 73 78 74 79 75 80 52 81 53 82 61 83 54 84 56 85 62 86
REMARK SMILES IDX 55 87 57 88 58 89 59 90 60 91
REMARK H PARENT 9 13 82 44 50 55
REMARK Flexibility Score: inf
ROOT
ATOM      1  C   UNL A   1      32.998  35.715  29.164  1.00  0.00     0.261 C 
ENDROOT
BRANCH   1   2
ATOM      2  O   UNL A   1      33.915  34.886  28.423  1.00  0.00    -0.463 OA
BRANCH   2   3
ATOM      3  C   UNL A   1      33.450  33.656  28.097  1.00  0.00     0.313 C 
ATOM      4  O   UNL A   1      32.341  33.429  27.622  1.00  0.00    -0.252 OA
BRANCH   3   5
ATOM      5  C   UNL A   1      34.391  32.532  28.429  1.00  0.00     0.149 C 
ATOM      6  C   UNL A   1      34.410  31.264  27.593  1.00  0.00     0.124 C 
ATOM      7  C   UNL A   1      35.766  30.693  28.009  1.00  0.00     0.186 C 
ATOM      8  O   UNL A   1      36.626  31.810  28.305  1.00  0.00    -0.378 OA
ATOM      9  C   UNL A   1      35.822  33.000  28.276  1.00  0.00     0.177 C 
BRANCH   6  10
ATOM     10  N   UNL A   1      33.285  30.369  27.836  1.00  0.00    -0.350 N 
ATOM     11  C   UNL A   1      32.387  29.799  26.987  1.00  0.00     0.220 C 
ATOM     12  O   UNL A   1      31.449  29.184  27.504  1.00  0.00    -0.275 OA
ATOM     13  H   UNL A   1      33.151  30.135  28.782  1.00  0.00     0.163 HD
BRANCH  11  14
ATOM     14  C   UNL A   1      32.536  29.838  25.479  1.00  0.00     0.102 C 
BRANCH  14  15
ATOM     15  C   UNL A   1      31.569  29.012  24.633  1.00  0.00     0.038 C 
BRANCH  15  16
ATOM     16  C   UNL A   1      31.830  27.508  24.547  1.00  0.00     0.160 C 
BRANCH  16  17
ATOM     17  O   UNL A   1      33.215  27.181  24.577  1.00  0.00    -0.382 OA
BRANCH  17  18
ATOM     18  C   UNL A   1      33.658  26.483  25.734  1.00  0.00     0.156 C 
ATOM     19  C   UNL A   1      33.881  25.035  25.335  1.00  0.00     0.035 C 
ENDBRANCH  17  18
ENDBRANCH  16  17
ENDBRANCH  15  16
ENDBRANCH  14  15
ENDBRANCH  11  14
ENDBRANCH   6  10
ENDBRANCH   3   5
ENDBRANCH   2   3
ENDBRANCH   1   2
BRANCH   1  20
ATOM     20  C   UNL A   1      33.366  35.842  30.646  1.00  0.00     0.202 C 
BRANCH  20  21
ATOM     21  O   UNL A   1      33.259  34.637  31.405  1.00  0.00    -0.374 OA
BRANCH  21  22
ATOM     22  C   UNL A   1      34.408  34.297  32.189  1.00  0.00     0.202 C 
BRANCH  22  23
ATOM     23  C   UNL A   1      34.467  34.977  33.558  1.00  0.00     0.261 C 
BRANCH  23  24
ATOM     24  O   UNL A   1      35.826  34.999  34.038  1.00  0.00    -0.460 OA
BRANCH  24  25
ATOM     25  C   UNL A   1      36.135  34.076  34.976  1.00  0.00     0.338 C 
ATOM     26  O   UNL A   1      35.525  33.830  36.000  1.00  0.00    -0.246 OA
BRANCH  25  27
ATOM     27  C   UNL A   1      37.275  33.270  34.498  1.00  0.00     0.060 A 
ATOM     28  C   UNL A   1      38.545  33.585  34.990  1.00  0.00     0.016 A 
ATOM     29  C   UNL A   1      37.119  32.275  33.531  1.00  0.00     0.016 A 
ATOM     30  C   UNL A   1      39.672  32.949  34.462  1.00  0.00     0.010 A 
ATOM     31  C   UNL A   1      38.248  31.614  33.030  1.00  0.00     0.010 A 
ATOM     32  C   UNL A   1      39.537  31.988  33.449  1.00  0.00    -0.014 A 
BRANCH  32  33
ATOM     33  C   UNL A   1      40.748  31.502  32.730  1.00  0.00     0.031 A 
ATOM     34  C   UNL A   1      41.379  30.193  33.137  1.00  0.00     0.074 A 
ATOM     35  C   UNL A   1      41.279  32.201  31.706  1.00  0.00     0.049 A 
ATOM     36  N   UNL A   1      42.403  29.569  32.613  1.00  0.00    -0.248 NA
ATOM     37  C   UNL A   1      40.792  29.499  34.296  1.00  0.00     0.031 C 
ATOM     38  C   UNL A   1      40.805  33.500  31.231  1.00  0.00     0.029 A 
ATOM     39  N   UNL A   1      42.347  31.916  30.890  1.00  0.00    -0.354 N 
ATOM     40  C   UNL A   1      42.606  28.439  33.397  1.00  0.00     0.074 A 
ATOM     41  C   UNL A   1      41.615  28.472  34.448  1.00  0.00     0.031 C 
ATOM     42  C   UNL A   1      41.587  33.907  30.216  1.00  0.00     0.029 A 
ATOM     43  C   UNL A   1      42.624  32.904  29.974  1.00  0.00     0.049 A 
ATOM     44  H   UNL A   1      42.868  31.083  30.956  1.00  0.00     0.167 HD
ATOM     45  C   UNL A   1      43.512  27.445  33.244  1.00  0.00     0.034 A 
ATOM     46  C   UNL A   1      43.602  32.995  29.048  1.00  0.00     0.034 A 
ATOM     47  C   UNL A   1      44.457  27.366  32.164  1.00  0.00     0.049 A 
ATOM     48  C   UNL A   1      44.570  31.853  28.870  1.00  0.00     0.074 A 
ATOM     49  C   UNL A   1      45.338  26.340  31.868  1.00  0.00     0.029 A 
ATOM     50  N   UNL A   1      44.653  28.349  31.209  1.00  0.00    -0.354 N 
ATOM     51  N   UNL A   1      44.624  30.710  29.510  1.00  0.00    -0.248 NA
ATOM     52  C   UNL A   1      45.583  31.994  27.814  1.00  0.00     0.031 C 
ATOM     53  C   UNL A   1      46.086  26.715  30.749  1.00  0.00     0.029 A 
ATOM     54  C   UNL A   1      45.652  27.964  30.333  1.00  0.00     0.049 A 
ATOM     55  H   UNL A   1      44.155  29.198  31.162  1.00  0.00     0.167 HD
ATOM     56  C   UNL A   1      45.652  29.986  28.912  1.00  0.00     0.074 A 
ATOM     57  C   UNL A   1      46.177  30.808  27.843  1.00  0.00     0.031 C 
ATOM     58  C   UNL A   1      46.130  28.758  29.232  1.00  0.00     0.034 A 
BRANCH  45  59
ATOM     59  C   UNL A   1      43.503  26.321  34.246  1.00  0.00     0.023 A 
ATOM     60  C   UNL A   1      43.031  25.049  33.863  1.00  0.00     0.012 A 
ATOM     61  C   UNL A   1      44.037  26.504  35.536  1.00  0.00     0.148 A 
ATOM     62  C   UNL A   1      43.069  23.981  34.758  1.00  0.00     0.002 A 
ATOM     63  C   UNL A   1      44.111  25.424  36.407  1.00  0.00     0.091 A 
ATOM     64  F   UNL A   1      44.459  27.727  35.886  1.00  0.00    -0.205 F 
ATOM     65  C   UNL A   1      43.620  24.165  36.024  1.00  0.00     0.022 A 
BRANCH  63  66
ATOM     66  S   UNL A   1      44.877  25.540  38.028  1.00  0.00     0.127 S 
ATOM     67  O   UNL A   1      46.183  26.108  37.697  1.00  0.00    -0.237 OA
ATOM     68  O   UNL A   1      43.974  26.454  38.730  1.00  0.00    -0.237 OA
ATOM     69  O   UNL A   1      44.902  24.184  38.559  1.00  0.00    -0.744 OA
ENDBRANCH  63  66
ENDBRANCH  45  59
BRANCH  46  70
ATOM     70  C   UNL A   1      43.693  34.203  28.178  1.00  0.00     0.023 A 
ATOM     71  C   UNL A   1      43.058  34.209  26.920  1.00  0.00     0.012 A 
ATOM     72  C   UNL A   1      44.411  35.342  28.590  1.00  0.00     0.148 A 
ATOM     73  C   UNL A   1      43.165  35.315  26.076  1.00  0.00     0.002 A 
ATOM     74  C   UNL A   1      44.465  36.462  27.768  1.00  0.00     0.091 A 
ATOM     75  F   UNL A   1      45.027  35.308  29.780  1.00  0.00    -0.205 F 
ATOM     76  C   UNL A   1      43.859  36.444  26.504  1.00  0.00     0.022 A 
BRANCH  74  77
ATOM     77  S   UNL A   1      45.223  38.000  28.300  1.00  0.00     0.127 S 
ATOM     78  O   UNL A   1      46.645  37.677  28.222  1.00  0.00    -0.237 OA
ATOM     79  O   UNL A   1      44.746  38.941  27.285  1.00  0.00    -0.237 OA
ATOM     80  O   UNL A   1      44.699  38.249  29.636  1.00  0.00    -0.744 OA
ENDBRANCH  74  77
ENDBRANCH  46  70
BRANCH  58  81
ATOM     81  C   UNL A   1      47.256  28.195  28.405  1.00  0.00     0.023 A 
ATOM     82  C   UNL A   1      48.584  28.311  28.860  1.00  0.00     0.012 A 
ATOM     83  C   UNL A   1      46.991  27.475  27.222  1.00  0.00     0.148 A 
ATOM     84  C   UNL A   1      49.634  27.744  28.137  1.00  0.00     0.002 A 
ATOM     85  C   UNL A   1      48.038  26.872  26.532  1.00  0.00     0.091 A 
ATOM     86  F   UNL A   1      45.723  27.390  26.796  1.00  0.00    -0.205 F 
ATOM     87  C   UNL A   1      49.360  27.014  26.982  1.00  0.00     0.022 A 
BRANCH  85  88
ATOM     88  S   UNL A   1      47.766  25.833  25.092  1.00  0.00     0.127 S 
ATOM     89  O   UNL A   1      47.097  24.675  25.681  1.00  0.00    -0.237 OA
ATOM     90  O   UNL A   1      46.907  26.675  24.257  1.00  0.00    -0.237 OA
ATOM     91  O   UNL A   1      49.085  25.576  24.530  1.00  0.00    -0.744 OA
ENDBRANCH  85  88
ENDBRANCH  58  81
ENDBRANCH  32  33
ENDBRANCH  25  27
ENDBRANCH  24  25
ENDBRANCH  23  24
ENDBRANCH  22  23
ENDBRANCH  21  22
ENDBRANCH  20  21
ENDBRANCH   1  20
TORSDOF 23
ENDMDL
MODEL 2
REMARK VINA RESULT:      -8.1      5.928     11.869
REMARK SMILES CCOCCCC(=O)N[C@@H]1COC[C@H]1C(=O)OCCOCCOC(=O)c1ccc(-c2c3nc(c(-c4cccc(S(=O)(=O)[O-])c4F)c4ccc([nH]4)c(-c4cccc(S(=O)(=O)[O-])c4F)c4nc(c(-c5cccc(S(=O)(=O)[O-])c5F)c5ccc2[nH]5)C=C4)C=C3)cc1
REMARK SMILES IDX 18 1 17 2 15 3 16 4 14 5 10 6 11 7 12 8 13 9 9 10 7 11 8 12
REMARK SMILES IDX 6 14 5 15 4 16 3 17 2 18 1 19 19 20 20 21 21 22 22 23 23 24
REMARK SMILES IDX 24 25 25 26 26 27 27 28 88 29 28 30 87 31 29 32 30 33 31 34
REMARK SMILES IDX 81 35 32 36 86 37 80 38 82 39 33 40 85 41 79 42 78 43 34 45
REMARK SMILES IDX 66 46 46 47 65 48 47 49 50 50 64 51 83 52 48 53 49 54 63 56
REMARK SMILES IDX 84 57 51 58 35 59 36 60 44 61 37 62 39 63 45 64 38 65 40 66
REMARK SMILES IDX 41 67 42 68 43 69 67 70 68 71 76 72 69 73 71 74 77 75 70 76
REMARK SMILES IDX 72 77 73 78 74 79 75 80 52 81 53 82 61 83 54 84 56 85 62 86
REMARK SMILES IDX 55 87 57 88 58 89 59 90 60 91
REMARK H PARENT 9 13 82 44 50 55
REMARK Flexibility Score: inf
ROOT
ATOM      1  C   UNL A   1      42.963  42.621  24.245  1.00  0.00     0.261 C 
ENDROOT
BRANCH   1   2
ATOM      2  O   UNL A   1      43.031  42.035  22.930  1.00  0.00    -0.463 OA
BRANCH   2   3
ATOM      3  C   UNL A   1      42.494  42.781  21.934  1.00  0.00     0.313 C 
ATOM      4  O   UNL A   1      41.399  43.334  21.985  1.00  0.00    -0.252 OA
BRANCH   3   5
ATOM      5  C   UNL A   1      43.328  42.836  20.685  1.00  0.00     0.149 C 
ATOM      6  C   UNL A   1      43.106  43.928  19.653  1.00  0.00     0.124 C 
ATOM      7  C   UNL A   1      44.425  43.836  18.883  1.00  0.00     0.186 C 
ATOM      8  O   UNL A   1      45.436  43.417  19.820  1.00  0.00    -0.378 OA
ATOM      9  C   UNL A   1      44.778  43.074  21.049  1.00  0.00     0.177 C 
BRANCH   6  10
ATOM     10  N   UNL A   1      41.919  43.740  18.828  1.00  0.00    -0.350 N 
ATOM     11  C   UNL A   1      41.172  44.622  18.109  1.00  0.00     0.220 C 
ATOM     12  O   UNL A   1      40.129  44.187  17.611  1.00  0.00    -0.275 OA
ATOM     13  H   UNL A   1      41.600  42.811  18.783  1.00  0.00     0.163 HD
BRANCH  11  14
ATOM     14  C   UNL A   1      41.603  46.053  17.854  1.00  0.00     0.102 C 
BRANCH  14  15
ATOM     15  C   UNL A   1      42.489  46.338  16.644  1.00  0.00     0.038 C 
BRANCH  15  16
ATOM     16  C   UNL A   1      43.898  46.862  16.921  1.00  0.00     0.160 C 
BRANCH  16  17
ATOM     17  O   UNL A   1      43.986  47.611  18.129  1.00  0.00    -0.382 OA
BRANCH  17  18
ATOM     18  C   UNL A   1      44.742  48.813  18.054  1.00  0.00     0.156 C 
ATOM     19  C   UNL A   1      45.573  48.749  16.784  1.00  0.00     0.035 C 
ENDBRANCH  17  18
ENDBRANCH  16  17
ENDBRANCH  15  16
ENDBRANCH  14  15
ENDBRANCH  11  14
ENDBRANCH   6  10
ENDBRANCH   3   5
ENDBRANCH   2   3
ENDBRANCH   1   2
BRANCH   1  20
ATOM     20  C   UNL A   1      44.333  43.036  24.790  1.00  0.00     0.202 C 
BRANCH  20  21
ATOM     21  O   UNL A   1      44.581  42.676  26.149  1.00  0.00    -0.374 OA
BRANCH  21  22
ATOM     22  C   UNL A   1      43.717  41.671  26.690  1.00  0.00     0.202 C 
BRANCH  22  23
ATOM     23  C   UNL A   1      44.438  40.421  27.198  1.00  0.00     0.261 C 
BRANCH  23  24
ATOM     24  O   UNL A   1      44.034  39.273  26.426  1.00  0.00    -0.460 OA
BRANCH  24  25
ATOM     25  C   UNL A   1      42.842  38.728  26.757  1.00  0.00     0.338 C 
ATOM     26  O   UNL A   1      41.737  39.206  26.580  1.00  0.00    -0.246 OA
BRANCH  25  27
ATOM     27  C   UNL A   1      43.062  37.353  27.244  1.00  0.00     0.060 A 
ATOM     28  C   UNL A   1      41.937  36.556  27.471  1.00  0.00     0.016 A 
ATOM     29  C   UNL A   1      44.339  36.875  27.545  1.00  0.00     0.016 A 
ATOM     30  C   UNL A   1      42.083  35.300  28.066  1.00  0.00     0.010 A 
ATOM     31  C   UNL A   1      44.485  35.601  28.109  1.00  0.00     0.010 A 
ATOM     32  C   UNL A   1      43.354  34.828  28.428  1.00  0.00    -0.014 A 
BRANCH  32  33
ATOM     33  C   UNL A   1      43.472  33.609  29.277  1.00  0.00     0.031 A 
ATOM     34  C   UNL A   1      43.332  33.730  30.774  1.00  0.00     0.074 A 
ATOM     35  C   UNL A   1      43.681  32.395  28.727  1.00  0.00     0.049 A 
ATOM     36  N   UNL A   1      43.353  32.790  31.685  1.00  0.00    -0.248 NA
ATOM     37  C   UNL A   1      43.159  35.085  31.324  1.00  0.00     0.031 C 
ATOM     38  C   UNL A   1      43.880  32.132  27.303  1.00  0.00     0.029 A 
ATOM     39  N   UNL A   1      43.774  31.155  29.313  1.00  0.00    -0.354 N 
ATOM     40  C   UNL A   1      43.238  33.441  32.909  1.00  0.00     0.074 A 
ATOM     41  C   UNL A   1      43.171  34.857  32.628  1.00  0.00     0.031 C 
ATOM     42  C   UNL A   1      44.086  30.815  27.126  1.00  0.00     0.029 A 
ATOM     43  C   UNL A   1      44.043  30.141  28.424  1.00  0.00     0.049 A 
ATOM     44  H   UNL A   1      43.661  31.006  30.280  1.00  0.00     0.167 HD
ATOM     45  C   UNL A   1      43.164  32.913  34.153  1.00  0.00     0.034 A 
ATOM     46  C   UNL A   1      44.238  28.821  28.628  1.00  0.00     0.034 A 
ATOM     47  C   UNL A   1      43.160  31.504  34.439  1.00  0.00     0.049 A 
ATOM     48  C   UNL A   1      44.105  28.255  30.019  1.00  0.00     0.074 A 
ATOM     49  C   UNL A   1      42.977  30.878  35.660  1.00  0.00     0.029 A 
ATOM     50  N   UNL A   1      43.355  30.505  33.501  1.00  0.00    -0.354 N 
ATOM     51  N   UNL A   1      43.814  28.872  31.138  1.00  0.00    -0.248 NA
ATOM     52  C   UNL A   1      44.283  26.802  30.168  1.00  0.00     0.031 C 
ATOM     53  C   UNL A   1      43.089  29.498  35.463  1.00  0.00     0.029 A 
ATOM     54  C   UNL A   1      43.316  29.266  34.116  1.00  0.00     0.049 A 
ATOM     55  H   UNL A   1      43.502  30.654  32.538  1.00  0.00     0.167 HD
ATOM     56  C   UNL A   1      43.742  27.882  32.114  1.00  0.00     0.074 A 
ATOM     57  C   UNL A   1      43.995  26.621  31.450  1.00  0.00     0.031 C 
ATOM     58  C   UNL A   1      43.506  28.009  33.443  1.00  0.00     0.034 A 
BRANCH  45  59
ATOM     59  C   UNL A   1      43.030  33.861  35.315  1.00  0.00     0.023 A 
ATOM     60  C   UNL A   1      44.187  34.331  35.969  1.00  0.00     0.012 A 
ATOM     61  C   UNL A   1      41.767  34.349  35.703  1.00  0.00     0.148 A 
ATOM     62  C   UNL A   1      44.088  35.255  37.008  1.00  0.00     0.002 A 
ATOM     63  C   UNL A   1      41.680  35.302  36.710  1.00  0.00     0.091 A 
ATOM     64  F   UNL A   1      40.679  33.871  35.083  1.00  0.00    -0.205 F 
ATOM     65  C   UNL A   1      42.837  35.749  37.370  1.00  0.00     0.022 A 
BRANCH  63  66
ATOM     66  S   UNL A   1      40.124  36.059  37.193  1.00  0.00     0.127 S 
ATOM     67  O   UNL A   1      39.688  36.663  35.935  1.00  0.00    -0.237 OA
ATOM     68  O   UNL A   1      39.338  34.901  37.619  1.00  0.00    -0.237 OA
ATOM     69  O   UNL A   1      40.447  36.999  38.257  1.00  0.00    -0.744 OA
ENDBRANCH  63  66
ENDBRANCH  45  59
BRANCH  46  70
ATOM     70  C   UNL A   1      44.539  27.925  27.475  1.00  0.00     0.023 A 
ATOM     71  C   UNL A   1      43.490  27.257  26.814  1.00  0.00     0.012 A 
ATOM     72  C   UNL A   1      45.862  27.730  27.033  1.00  0.00     0.148 A 
ATOM     73  C   UNL A   1      43.755  26.384  25.758  1.00  0.00     0.002 A 
ATOM     74  C   UNL A   1      46.114  26.905  25.944  1.00  0.00     0.091 A 
ATOM     75  F   UNL A   1      46.849  28.357  27.689  1.00  0.00    -0.205 F 
ATOM     76  C   UNL A   1      45.066  26.216  25.317  1.00  0.00     0.022 A 
BRANCH  74  77
ATOM     77  S   UNL A   1      47.755  26.740  25.231  1.00  0.00     0.127 S 
ATOM     78  O   UNL A   1      47.487  25.931  24.046  1.00  0.00    -0.237 OA
ATOM     79  O   UNL A   1      48.110  28.135  24.961  1.00  0.00    -0.237 OA
ATOM     80  O   UNL A   1      48.565  26.109  26.265  1.00  0.00    -0.744 OA
ENDBRANCH  74  77
ENDBRANCH  46  70
BRANCH  58  81
ATOM     81  C   UNL A   1      43.470  26.757  34.281  1.00  0.00     0.023 A 
ATOM     82  C   UNL A   1      42.232  26.169  34.607  1.00  0.00     0.012 A 
ATOM     83  C   UNL A   1      44.663  26.116  34.670  1.00  0.00     0.148 A 
ATOM     84  C   UNL A   1      42.181  24.978  35.331  1.00  0.00     0.002 A 
ATOM     85  C   UNL A   1      44.606  24.904  35.350  1.00  0.00     0.091 A 
ATOM     86  F   UNL A   1      45.831  26.699  34.366  1.00  0.00    -0.205 F 
ATOM     87  C   UNL A   1      43.367  24.340  35.690  1.00  0.00     0.022 A 
BRANCH  85  88
ATOM     88  S   UNL A   1      46.080  23.965  35.766  1.00  0.00     0.127 S 
ATOM     89  O   UNL A   1      46.685  23.761  34.451  1.00  0.00    -0.237 OA
ATOM     90  O   UNL A   1      46.806  24.893  36.634  1.00  0.00    -0.237 OA
ATOM     91  O   UNL A   1      45.610  22.759  36.434  1.00  0.00    -0.744 OA
ENDBRANCH  85  88
ENDBRANCH  58  81
ENDBRANCH  32  33
ENDBRANCH  25  27
ENDBRANCH  24  25
ENDBRANCH  23  24
ENDBRANCH  22  23
ENDBRANCH  21  22
ENDBRANCH  20  21
ENDBRANCH   1  20
TORSDOF 23
ENDMDL
MODEL 3
REMARK VINA RESULT:      -8.0      3.311      5.234
REMARK SMILES CCOCCCC(=O)N[C@@H]1COC[C@H]1C(=O)OCCOCCOC(=O)c1ccc(-c2c3nc(c(-c4cccc(S(=O)(=O)[O-])c4F)c4ccc([nH]4)c(-c4cccc(S(=O)(=O)[O-])c4F)c4nc(c(-c5cccc(S(=O)(=O)[O-])c5F)c5ccc2[nH]5)C=C4)C=C3)cc1
REMARK SMILES IDX 18 1 17 2 15 3 16 4 14 5 10 6 11 7 12 8 13 9 9 10 7 11 8 12
REMARK SMILES IDX 6 14 5 15 4 16 3 17 2 18 1 19 19 20 20 21 21 22 22 23 23 24
REMARK SMILES IDX 24 25 25 26 26 27 27 28 88 29 28 30 87 31 29 32 30 33 31 34
REMARK SMILES IDX 81 35 32 36 86 37 80 38 82 39 33 40 85 41 79 42 78 43 34 45
REMARK SMILES IDX 66 46 46 47 65 48 47 49 50 50 64 51 83 52 48 53 49 54 63 56
REMARK SMILES IDX 84 57 51 58 35 59 36 60 44 61 37 62 39 63 45 64 38 65 40 66
REMARK SMILES IDX 41 67 42 68 43 69 67 70 68 71 76 72 69 73 71 74 77 75 70 76
REMARK SMILES IDX 72 77 73 78 74 79 75 80 52 81 53 82 61 83 54 84 56 85 62 86
REMARK SMILES IDX 55 87 57 88 58 89 59 90 60 91
REMARK H PARENT 9 13 82 44 50 55
REMARK Flexibility Score: inf
ROOT
ATOM      1  C   UNL A   1      37.758  31.721  37.281  1.00  0.00     0.261 C 
ENDROOT
BRANCH   1   2
ATOM      2  O   UNL A   1      37.498  32.074  35.909  1.00  0.00    -0.463 OA
BRANCH   2   3
ATOM      3  C   UNL A   1      38.080  31.274  34.984  1.00  0.00     0.313 C 
ATOM      4  O   UNL A   1      38.614  30.195  35.227  1.00  0.00    -0.252 OA
BRANCH   3   5
ATOM      5  C   UNL A   1      38.093  31.844  33.593  1.00  0.00     0.149 C 
ATOM      6  C   UNL A   1      38.427  33.306  33.358  1.00  0.00     0.124 C 
ATOM      7  C   UNL A   1      38.759  33.265  31.865  1.00  0.00     0.186 C 
ATOM      8  O   UNL A   1      39.318  31.966  31.589  1.00  0.00    -0.378 OA
ATOM      9  C   UNL A   1      39.169  31.166  32.773  1.00  0.00     0.177 C 
BRANCH   6  10
ATOM     10  N   UNL A   1      37.354  34.230  33.705  1.00  0.00    -0.350 N 
ATOM     11  C   UNL A   1      36.147  34.468  33.124  1.00  0.00     0.220 C 
ATOM     12  O   UNL A   1      35.496  35.418  33.570  1.00  0.00    -0.275 OA
ATOM     13  H   UNL A   1      37.534  34.778  34.502  1.00  0.00     0.163 HD
BRANCH  11  14
ATOM     14  C   UNL A   1      35.569  33.592  32.030  1.00  0.00     0.102 C 
BRANCH  14  15
ATOM     15  C   UNL A   1      35.492  34.157  30.614  1.00  0.00     0.038 C 
BRANCH  15  16
ATOM     16  C   UNL A   1      34.116  34.189  29.951  1.00  0.00     0.160 C 
BRANCH  16  17
ATOM     17  O   UNL A   1      33.137  34.864  30.733  1.00  0.00    -0.382 OA
BRANCH  17  18
ATOM     18  C   UNL A   1      32.866  36.207  30.352  1.00  0.00     0.156 C 
ATOM     19  C   UNL A   1      33.316  37.103  31.493  1.00  0.00     0.035 C 
ENDBRANCH  17  18
ENDBRANCH  16  17
ENDBRANCH  15  16
ENDBRANCH  14  15
ENDBRANCH  11  14
ENDBRANCH   6  10
ENDBRANCH   3   5
ENDBRANCH   2   3
ENDBRANCH   1   2
BRANCH   1  20
ATOM     20  C   UNL A   1      37.395  32.835  38.269  1.00  0.00     0.202 C 
BRANCH  20  21
ATOM     21  O   UNL A   1      38.299  32.997  39.362  1.00  0.00    -0.374 OA
BRANCH  21  22
ATOM     22  C   UNL A   1      37.814  33.786  40.453  1.00  0.00     0.202 C 
BRANCH  22  23
ATOM     23  C   UNL A   1      38.634  35.047  40.739  1.00  0.00     0.261 C 
BRANCH  23  24
ATOM     24  O   UNL A   1      39.848  35.028  39.962  1.00  0.00    -0.460 OA
BRANCH  24  25
ATOM     25  C   UNL A   1      40.003  36.047  39.086  1.00  0.00     0.338 C 
ATOM     26  O   UNL A   1      39.850  37.235  39.300  1.00  0.00    -0.246 OA
BRANCH  25  27
ATOM     27  C   UNL A   1      40.554  35.514  37.825  1.00  0.00     0.060 A 
ATOM     28  C   UNL A   1      39.652  35.007  36.885  1.00  0.00     0.016 A 
ATOM     29  C   UNL A   1      41.929  35.442  37.595  1.00  0.00     0.016 A 
ATOM     30  C   UNL A   1      40.129  34.363  35.741  1.00  0.00     0.010 A 
ATOM     31  C   UNL A   1      42.404  34.827  36.429  1.00  0.00     0.010 A 
ATOM     32  C   UNL A   1      41.509  34.230  35.522  1.00  0.00    -0.014 A 
BRANCH  32  33
ATOM     33  C   UNL A   1      42.000  33.336  34.436  1.00  0.00     0.031 A 
ATOM     34  C   UNL A   1      42.192  31.865  34.716  1.00  0.00     0.074 A 
ATOM     35  C   UNL A   1      42.255  33.814  33.202  1.00  0.00     0.049 A 
ATOM     36  N   UNL A   1      42.562  30.910  33.901  1.00  0.00    -0.248 NA
ATOM     37  C   UNL A   1      41.951  31.409  36.095  1.00  0.00     0.031 C 
ATOM     38  C   UNL A   1      42.157  35.215  32.798  1.00  0.00     0.029 A 
ATOM     39  N   UNL A   1      42.664  33.165  32.061  1.00  0.00    -0.354 N 
ATOM     40  C   UNL A   1      42.638  29.756  34.673  1.00  0.00     0.074 A 
ATOM     41  C   UNL A   1      42.298  30.132  36.027  1.00  0.00     0.031 C 
ATOM     42  C   UNL A   1      42.510  35.324  31.506  1.00  0.00     0.029 A 
ATOM     43  C   UNL A   1      42.869  34.003  30.990  1.00  0.00     0.049 A 
ATOM     44  H   UNL A   1      42.800  32.190  32.015  1.00  0.00     0.167 HD
ATOM     45  C   UNL A   1      42.932  28.491  34.291  1.00  0.00     0.034 A 
ATOM     46  C   UNL A   1      43.299  33.740  29.738  1.00  0.00     0.034 A 
ATOM     47  C   UNL A   1      43.204  28.094  32.937  1.00  0.00     0.049 A 
ATOM     48  C   UNL A   1      43.576  32.316  29.328  1.00  0.00     0.074 A 
ATOM     49  C   UNL A   1      43.403  26.817  32.442  1.00  0.00     0.029 A 
ATOM     50  N   UNL A   1      43.324  28.962  31.866  1.00  0.00    -0.354 N 
ATOM     51  N   UNL A   1      43.463  31.217  30.034  1.00  0.00    -0.248 NA
ATOM     52  C   UNL A   1      43.999  32.091  27.937  1.00  0.00     0.031 C 
ATOM     53  C   UNL A   1      43.670  26.915  31.073  1.00  0.00     0.029 A 
ATOM     54  C   UNL A   1      43.612  28.252  30.713  1.00  0.00     0.049 A 
ATOM     55  H   UNL A   1      43.221  29.940  31.917  1.00  0.00     0.167 HD
ATOM     56  C   UNL A   1      43.766  30.172  29.165  1.00  0.00     0.074 A 
ATOM     57  C   UNL A   1      44.044  30.767  27.875  1.00  0.00     0.031 C 
ATOM     58  C   UNL A   1      43.826  28.842  29.418  1.00  0.00     0.034 A 
BRANCH  45  59
ATOM     59  C   UNL A   1      42.930  27.417  35.346  1.00  0.00     0.023 A 
ATOM     60  C   UNL A   1      41.759  26.668  35.578  1.00  0.00     0.012 A 
ATOM     61  C   UNL A   1      44.109  27.096  36.047  1.00  0.00     0.148 A 
ATOM     62  C   UNL A   1      41.755  25.630  36.509  1.00  0.00     0.002 A 
ATOM     63  C   UNL A   1      44.108  26.033  36.941  1.00  0.00     0.091 A 
ATOM     64  F   UNL A   1      45.205  27.837  35.827  1.00  0.00    -0.205 F 
ATOM     65  C   UNL A   1      42.931  25.305  37.180  1.00  0.00     0.022 A 
BRANCH  63  66
ATOM     66  S   UNL A   1      45.591  25.485  37.794  1.00  0.00     0.127 S 
ATOM     67  O   UNL A   1      45.065  24.417  38.643  1.00  0.00    -0.237 OA
ATOM     68  O   UNL A   1      46.431  25.027  36.686  1.00  0.00    -0.237 OA
ATOM     69  O   UNL A   1      46.102  26.651  38.502  1.00  0.00    -0.744 OA
ENDBRANCH  63  66
ENDBRANCH  45  59
BRANCH  46  70
ATOM     70  C   UNL A   1      43.457  34.851  28.756  1.00  0.00     0.023 A 
ATOM     71  C   UNL A   1      42.344  35.292  28.013  1.00  0.00     0.012 A 
ATOM     72  C   UNL A   1      44.705  35.469  28.553  1.00  0.00     0.148 A 
ATOM     73  C   UNL A   1      42.479  36.304  27.062  1.00  0.00     0.002 A 
ATOM     74  C   UNL A   1      44.821  36.516  27.645  1.00  0.00     0.091 A 
ATOM     75  F   UNL A   1      45.757  35.021  29.253  1.00  0.00    -0.205 F 
ATOM     76  C   UNL A   1      43.715  36.922  26.885  1.00  0.00     0.022 A 
BRANCH  74  77
ATOM     77  S   UNL A   1      46.343  37.451  27.456  1.00  0.00     0.127 S 
ATOM     78  O   UNL A   1      47.250  36.443  26.915  1.00  0.00    -0.237 OA
ATOM     79  O   UNL A   1      45.942  38.494  26.510  1.00  0.00    -0.237 OA
ATOM     80  O   UNL A   1      46.661  37.947  28.789  1.00  0.00    -0.744 OA
ENDBRANCH  74  77
ENDBRANCH  46  70
BRANCH  58  81
ATOM     81  C   UNL A   1      44.172  27.916  28.280  1.00  0.00     0.023 A 
ATOM     82  C   UNL A   1      45.522  27.682  27.955  1.00  0.00     0.012 A 
ATOM     83  C   UNL A   1      43.163  27.211  27.593  1.00  0.00     0.148 A 
ATOM     84  C   UNL A   1      45.862  26.782  26.944  1.00  0.00     0.002 A 
ATOM     85  C   UNL A   1      43.511  26.281  26.620  1.00  0.00     0.091 A 
ATOM     86  F   UNL A   1      41.883  27.460  27.905  1.00  0.00    -0.205 F 
ATOM     87  C   UNL A   1      44.858  26.074  26.286  1.00  0.00     0.022 A 
BRANCH  85  88
ATOM     88  S   UNL A   1      42.291  25.254  25.792  1.00  0.00     0.127 S 
ATOM     89  O   UNL A   1      41.531  26.247  25.034  1.00  0.00    -0.237 OA
ATOM     90  O   UNL A   1      43.127  24.373  24.975  1.00  0.00    -0.237 OA
ATOM     91  O   UNL A   1      41.556  24.575  26.850  1.00  0.00    -0.744 OA
ENDBRANCH  85  88
ENDBRANCH  58  81
ENDBRANCH  32  33
ENDBRANCH  25  27
ENDBRANCH  24  25
ENDBRANCH  23  24
ENDBRANCH  22  23
ENDBRANCH  21  22
ENDBRANCH  20  21
ENDBRANCH   1  20
TORSDOF 23
ENDMDL
