MODEL 1
REMARK VINA RESULT:     -10.9      0.000      0.000
REMARK SMILES COc1ccccc1N1C(=O)CC[C@H]1CC(=O)OCCOCCOC(=O)c1ccc(-c2c3nc(c(-c4cccc(S(=O)(=O)[O-])c4F)c4ccc([nH]4)c(-c4cccc(S(=O)(=O)[O-])c4F)c4nc(c(-c5cccc(S(=O)(=O)[O-])c5F)c5ccc2[nH]5)C=C4)C=C3)cc1
REMARK SMILES IDX 21 1 20 2 19 3 18 4 16 5 17 6 15 7 14 8 9 9 10 10 11 11
REMARK SMILES IDX 12 12 13 13 8 14 3 15 4 16 5 17 7 18 6 19 2 20 1 21 22 22
REMARK SMILES IDX 23 23 24 24 25 25 26 26 27 27 28 28 89 29 29 30 88 31 30 32
REMARK SMILES IDX 31 33 32 34 82 35 33 36 87 37 81 38 83 39 34 40 86 41 80 42
REMARK SMILES IDX 79 43 35 45 67 46 47 47 66 48 48 49 51 50 65 51 84 52 49 53
REMARK SMILES IDX 50 54 64 56 85 57 52 58 36 59 37 60 45 61 38 62 40 63 46 64
REMARK SMILES IDX 39 65 41 66 42 67 43 68 44 69 68 70 69 71 77 72 70 73 72 74
REMARK SMILES IDX 78 75 71 76 73 77 74 78 75 79 76 80 53 81 54 82 62 83 55 84
REMARK SMILES IDX 57 85 63 86 56 87 58 88 59 89 60 90 61 91
REMARK H PARENT 83 44 51 55
REMARK Flexibility Score: inf
ROOT
ATOM      1  O   UNL A   1      32.840  29.640  25.569  1.00  0.00    -0.374 OA
ENDROOT
BRANCH   1   2
ATOM      2  C   UNL A   1      32.747  28.223  25.744  1.00  0.00     0.202 C 
BRANCH   2   3
ATOM      3  C   UNL A   1      31.490  27.665  26.428  1.00  0.00     0.261 C 
BRANCH   3   4
ATOM      4  O   UNL A   1      31.651  26.291  26.854  1.00  0.00    -0.463 OA
BRANCH   4   5
ATOM      5  C   UNL A   1      30.782  25.389  26.323  1.00  0.00     0.307 C 
ATOM      6  O   UNL A   1      29.562  25.494  26.330  1.00  0.00    -0.252 OA
BRANCH   5   7
ATOM      7  C   UNL A   1      31.490  24.214  25.693  1.00  0.00     0.148 C 
BRANCH   7   8
ATOM      8  C   UNL A   1      32.383  24.573  24.506  1.00  0.00     0.102 C 
ATOM      9  N   UNL A   1      32.953  23.496  23.696  1.00  0.00    -0.305 N 
ATOM     10  C   UNL A   1      33.175  23.909  22.368  1.00  0.00     0.227 C 
ATOM     11  O   UNL A   1      33.633  23.285  21.425  1.00  0.00    -0.275 OA
ATOM     12  C   UNL A   1      32.685  25.326  22.265  1.00  0.00     0.103 C 
ATOM     13  C   UNL A   1      31.683  25.384  23.412  1.00  0.00     0.036 C 
BRANCH   9  14
ATOM     14  C   UNL A   1      33.307  22.203  24.142  1.00  0.00     0.086 A 
ATOM     15  C   UNL A   1      34.592  21.899  24.629  1.00  0.00     0.142 A 
ATOM     16  C   UNL A   1      34.965  20.568  24.848  1.00  0.00     0.048 A 
ATOM     17  C   UNL A   1      34.063  19.530  24.617  1.00  0.00     0.004 A 
ATOM     18  C   UNL A   1      32.414  21.144  23.916  1.00  0.00     0.030 A 
ATOM     19  C   UNL A   1      32.784  19.820  24.157  1.00  0.00     0.002 A 
BRANCH  15  20
ATOM     20  O   UNL A   1      35.582  22.821  24.856  1.00  0.00    -0.495 OA
ATOM     21  C   UNL A   1      36.596  22.358  25.742  1.00  0.00     0.278 C 
ENDBRANCH  15  20
ENDBRANCH   9  14
ENDBRANCH   7   8
ENDBRANCH   5   7
ENDBRANCH   4   5
ENDBRANCH   3   4
ENDBRANCH   2   3
ENDBRANCH   1   2
BRANCH   1  22
ATOM     22  C   UNL A   1      31.651  30.393  25.756  1.00  0.00     0.202 C 
BRANCH  22  23
ATOM     23  C   UNL A   1      31.747  31.745  26.474  1.00  0.00     0.261 C 
BRANCH  23  24
ATOM     24  O   UNL A   1      32.552  31.705  27.649  1.00  0.00    -0.460 OA
BRANCH  24  25
ATOM     25  C   UNL A   1      33.468  32.704  27.683  1.00  0.00     0.338 C 
ATOM     26  O   UNL A   1      33.262  33.901  27.611  1.00  0.00    -0.246 OA
BRANCH  25  27
ATOM     27  C   UNL A   1      34.780  32.139  28.017  1.00  0.00     0.060 A 
ATOM     28  C   UNL A   1      34.814  30.772  28.311  1.00  0.00     0.016 A 
ATOM     29  C   UNL A   1      35.929  32.928  28.086  1.00  0.00     0.016 A 
ATOM     30  C   UNL A   1      35.995  30.198  28.754  1.00  0.00     0.010 A 
ATOM     31  C   UNL A   1      37.116  32.349  28.533  1.00  0.00     0.010 A 
ATOM     32  C   UNL A   1      37.134  30.997  28.915  1.00  0.00    -0.014 A 
BRANCH  32  33
ATOM     33  C   UNL A   1      38.285  30.437  29.648  1.00  0.00     0.031 A 
ATOM     34  C   UNL A   1      38.482  30.831  31.084  1.00  0.00     0.074 A 
ATOM     35  C   UNL A   1      39.101  29.557  29.044  1.00  0.00     0.049 A 
ATOM     36  N   UNL A   1      39.399  30.444  31.927  1.00  0.00    -0.248 NA
ATOM     37  C   UNL A   1      37.515  31.792  31.646  1.00  0.00     0.031 C 
ATOM     38  C   UNL A   1      38.979  29.114  27.655  1.00  0.00     0.029 A 
ATOM     39  N   UNL A   1      40.199  28.891  29.518  1.00  0.00    -0.354 N 
ATOM     40  C   UNL A   1      39.143  31.134  33.106  1.00  0.00     0.074 A 
ATOM     41  C   UNL A   1      37.991  31.975  32.869  1.00  0.00     0.031 C 
ATOM     42  C   UNL A   1      39.982  28.263  27.381  1.00  0.00     0.029 A 
ATOM     43  C   UNL A   1      40.826  28.126  28.565  1.00  0.00     0.049 A 
ATOM     44  H   UNL A   1      40.509  28.955  30.449  1.00  0.00     0.167 HD
ATOM     45  C   UNL A   1      39.806  31.062  34.283  1.00  0.00     0.034 A 
ATOM     46  C   UNL A   1      41.967  27.416  28.641  1.00  0.00     0.034 A 
ATOM     47  C   UNL A   1      40.940  30.207  34.501  1.00  0.00     0.049 A 
ATOM     48  C   UNL A   1      42.690  27.359  29.960  1.00  0.00     0.074 A 
ATOM     49  C   UNL A   1      41.661  30.012  35.664  1.00  0.00     0.029 A 
ATOM     50  N   UNL A   1      41.528  29.415  33.525  1.00  0.00    -0.354 N 
ATOM     51  N   UNL A   1      42.373  27.929  31.099  1.00  0.00    -0.248 NA
ATOM     52  C   UNL A   1      43.904  26.537  30.017  1.00  0.00     0.031 C 
ATOM     53  C   UNL A   1      42.710  29.133  35.381  1.00  0.00     0.029 A 
ATOM     54  C   UNL A   1      42.614  28.743  34.053  1.00  0.00     0.049 A 
ATOM     55  H   UNL A   1      41.217  29.342  32.595  1.00  0.00     0.167 HD
ATOM     56  C   UNL A   1      43.327  27.507  32.016  1.00  0.00     0.074 A 
ATOM     57  C   UNL A   1      44.222  26.618  31.303  1.00  0.00     0.031 C 
ATOM     58  C   UNL A   1      43.461  27.830  33.327  1.00  0.00     0.034 A 
BRANCH  45  59
ATOM     59  C   UNL A   1      39.324  31.927  35.418  1.00  0.00     0.023 A 
ATOM     60  C   UNL A   1      38.430  31.404  36.376  1.00  0.00     0.012 A 
ATOM     61  C   UNL A   1      39.794  33.246  35.561  1.00  0.00     0.148 A 
ATOM     62  C   UNL A   1      37.989  32.191  37.439  1.00  0.00     0.002 A 
ATOM     63  C   UNL A   1      39.387  34.008  36.650  1.00  0.00     0.091 A 
ATOM     64  F   UNL A   1      40.621  33.734  34.627  1.00  0.00    -0.205 F 
ATOM     65  C   UNL A   1      38.476  33.487  37.582  1.00  0.00     0.022 A 
BRANCH  63  66
ATOM     66  S   UNL A   1      40.016  35.661  36.964  1.00  0.00     0.127 S 
ATOM     67  O   UNL A   1      39.361  35.990  38.230  1.00  0.00    -0.237 OA
ATOM     68  O   UNL A   1      41.456  35.425  37.066  1.00  0.00    -0.237 OA
ATOM     69  O   UNL A   1      39.610  36.471  35.825  1.00  0.00    -0.744 OA
ENDBRANCH  63  66
ENDBRANCH  45  59
BRANCH  46  70
ATOM     70  C   UNL A   1      42.474  26.692  27.442  1.00  0.00     0.023 A 
ATOM     71  C   UNL A   1      43.198  27.387  26.456  1.00  0.00     0.012 A 
ATOM     72  C   UNL A   1      42.265  25.307  27.294  1.00  0.00     0.148 A 
ATOM     73  C   UNL A   1      43.679  26.720  25.328  1.00  0.00     0.002 A 
ATOM     74  C   UNL A   1      42.797  24.638  26.198  1.00  0.00     0.091 A 
ATOM     75  F   UNL A   1      41.561  24.666  28.238  1.00  0.00    -0.205 F 
ATOM     76  C   UNL A   1      43.489  25.346  25.204  1.00  0.00     0.022 A 
BRANCH  74  77
ATOM     77  S   UNL A   1      42.718  22.852  26.032  1.00  0.00     0.127 S 
ATOM     78  O   UNL A   1      41.319  22.583  26.353  1.00  0.00    -0.237 OA
ATOM     79  O   UNL A   1      43.076  22.665  24.625  1.00  0.00    -0.237 OA
ATOM     80  O   UNL A   1      43.697  22.325  26.973  1.00  0.00    -0.744 OA
ENDBRANCH  74  77
ENDBRANCH  46  70
BRANCH  58  81
ATOM     81  C   UNL A   1      44.589  27.185  34.087  1.00  0.00     0.023 A 
ATOM     82  C   UNL A   1      45.866  27.780  34.094  1.00  0.00     0.012 A 
ATOM     83  C   UNL A   1      44.356  26.030  34.858  1.00  0.00     0.148 A 
ATOM     84  C   UNL A   1      46.905  27.211  34.828  1.00  0.00     0.002 A 
ATOM     85  C   UNL A   1      45.381  25.502  35.631  1.00  0.00     0.091 A 
ATOM     86  F   UNL A   1      43.137  25.473  34.824  1.00  0.00    -0.205 F 
ATOM     87  C   UNL A   1      46.660  26.081  35.606  1.00  0.00     0.022 A 
BRANCH  85  88
ATOM     88  S   UNL A   1      45.129  24.114  36.742  1.00  0.00     0.127 S 
ATOM     89  O   UNL A   1      46.448  23.984  37.359  1.00  0.00    -0.237 OA
ATOM     90  O   UNL A   1      44.085  24.619  37.635  1.00  0.00    -0.237 OA
ATOM     91  O   UNL A   1      44.720  22.995  35.905  1.00  0.00    -0.744 OA
ENDBRANCH  85  88
ENDBRANCH  58  81
ENDBRANCH  32  33
ENDBRANCH  25  27
ENDBRANCH  24  25
ENDBRANCH  23  24
ENDBRANCH  22  23
ENDBRANCH   1  22
TORSDOF 20
ENDMDL
MODEL 2
REMARK VINA RESULT:     -10.4      2.324      7.985
REMARK SMILES COc1ccccc1N1C(=O)CC[C@H]1CC(=O)OCCOCCOC(=O)c1ccc(-c2c3nc(c(-c4cccc(S(=O)(=O)[O-])c4F)c4ccc([nH]4)c(-c4cccc(S(=O)(=O)[O-])c4F)c4nc(c(-c5cccc(S(=O)(=O)[O-])c5F)c5ccc2[nH]5)C=C4)C=C3)cc1
REMARK SMILES IDX 21 1 20 2 19 3 18 4 16 5 17 6 15 7 14 8 9 9 10 10 11 11
REMARK SMILES IDX 12 12 13 13 8 14 3 15 4 16 5 17 7 18 6 19 2 20 1 21 22 22
REMARK SMILES IDX 23 23 24 24 25 25 26 26 27 27 28 28 89 29 29 30 88 31 30 32
REMARK SMILES IDX 31 33 32 34 82 35 33 36 87 37 81 38 83 39 34 40 86 41 80 42
REMARK SMILES IDX 79 43 35 45 67 46 47 47 66 48 48 49 51 50 65 51 84 52 49 53
REMARK SMILES IDX 50 54 64 56 85 57 52 58 36 59 37 60 45 61 38 62 40 63 46 64
REMARK SMILES IDX 39 65 41 66 42 67 43 68 44 69 68 70 69 71 77 72 70 73 72 74
REMARK SMILES IDX 78 75 71 76 73 77 74 78 75 79 76 80 53 81 54 82 62 83 55 84
REMARK SMILES IDX 57 85 63 86 56 87 58 88 59 89 60 90 61 91
REMARK H PARENT 83 44 51 55
REMARK Flexibility Score: inf
ROOT
ATOM      1  O   UNL A   1      32.304  30.561  27.129  1.00  0.00    -0.374 OA
ENDROOT
BRANCH   1   2
ATOM      2  C   UNL A   1      33.143  29.781  26.271  1.00  0.00     0.202 C 
BRANCH   2   3
ATOM      3  C   UNL A   1      33.779  28.510  26.853  1.00  0.00     0.261 C 
BRANCH   3   4
ATOM      4  O   UNL A   1      33.347  27.309  26.170  1.00  0.00    -0.463 OA
BRANCH   4   5
ATOM      5  C   UNL A   1      32.097  26.861  26.471  1.00  0.00     0.307 C 
ATOM      6  O   UNL A   1      31.392  27.288  27.376  1.00  0.00    -0.252 OA
BRANCH   5   7
ATOM      7  C   UNL A   1      31.646  25.759  25.543  1.00  0.00     0.148 C 
BRANCH   7   8
ATOM      8  C   UNL A   1      32.196  25.860  24.122  1.00  0.00     0.102 C 
ATOM      9  N   UNL A   1      32.996  24.757  23.590  1.00  0.00    -0.305 N 
ATOM     10  C   UNL A   1      32.887  24.666  22.188  1.00  0.00     0.227 C 
ATOM     11  O   UNL A   1      33.407  23.878  21.416  1.00  0.00    -0.275 OA
ATOM     12  C   UNL A   1      31.924  25.737  21.757  1.00  0.00     0.103 C 
ATOM     13  C   UNL A   1      31.122  25.956  23.034  1.00  0.00     0.036 C 
BRANCH   9  14
ATOM     14  C   UNL A   1      33.833  23.891  24.328  1.00  0.00     0.086 A 
ATOM     15  C   UNL A   1      33.443  22.586  24.681  1.00  0.00     0.142 A 
ATOM     16  C   UNL A   1      34.204  21.847  25.596  1.00  0.00     0.048 A 
ATOM     17  C   UNL A   1      35.369  22.380  26.144  1.00  0.00     0.004 A 
ATOM     18  C   UNL A   1      35.010  24.408  24.890  1.00  0.00     0.030 A 
ATOM     19  C   UNL A   1      35.776  23.659  25.785  1.00  0.00     0.002 A 
BRANCH  15  20
ATOM     20  O   UNL A   1      32.299  21.964  24.247  1.00  0.00    -0.495 OA
ATOM     21  C   UNL A   1      32.523  20.652  23.741  1.00  0.00     0.278 C 
ENDBRANCH  15  20
ENDBRANCH   9  14
ENDBRANCH   7   8
ENDBRANCH   5   7
ENDBRANCH   4   5
ENDBRANCH   3   4
ENDBRANCH   2   3
ENDBRANCH   1   2
BRANCH   1  22
ATOM     22  C   UNL A   1      31.592  31.635  26.534  1.00  0.00     0.202 C 
BRANCH  22  23
ATOM     23  C   UNL A   1      31.920  33.065  26.980  1.00  0.00     0.261 C 
BRANCH  23  24
ATOM     24  O   UNL A   1      33.233  33.204  27.516  1.00  0.00    -0.460 OA
BRANCH  24  25
ATOM     25  C   UNL A   1      33.320  34.208  28.423  1.00  0.00     0.338 C 
ATOM     26  O   UNL A   1      32.590  35.176  28.528  1.00  0.00    -0.246 OA
BRANCH  25  27
ATOM     27  C   UNL A   1      34.343  33.868  29.418  1.00  0.00     0.060 A 
ATOM     28  C   UNL A   1      35.651  34.266  29.127  1.00  0.00     0.016 A 
ATOM     29  C   UNL A   1      34.040  33.142  30.571  1.00  0.00     0.016 A 
ATOM     30  C   UNL A   1      36.686  33.871  29.960  1.00  0.00     0.010 A 
ATOM     31  C   UNL A   1      35.083  32.746  31.407  1.00  0.00     0.010 A 
ATOM     32  C   UNL A   1      36.409  33.067  31.073  1.00  0.00    -0.014 A 
BRANCH  32  33
ATOM     33  C   UNL A   1      37.539  32.430  31.775  1.00  0.00     0.031 A 
ATOM     34  C   UNL A   1      38.274  31.315  31.086  1.00  0.00     0.074 A 
ATOM     35  C   UNL A   1      37.920  32.880  32.981  1.00  0.00     0.049 A 
ATOM     36  N   UNL A   1      39.308  30.633  31.496  1.00  0.00    -0.248 NA
ATOM     37  C   UNL A   1      37.777  30.914  29.757  1.00  0.00     0.031 C 
ATOM     38  C   UNL A   1      37.266  33.962  33.719  1.00  0.00     0.029 A 
ATOM     39  N   UNL A   1      38.937  32.476  33.803  1.00  0.00    -0.354 N 
ATOM     40  C   UNL A   1      39.567  29.703  30.496  1.00  0.00     0.074 A 
ATOM     41  C   UNL A   1      38.575  29.898  29.463  1.00  0.00     0.031 C 
ATOM     42  C   UNL A   1      37.888  34.120  34.900  1.00  0.00     0.029 A 
ATOM     43  C   UNL A   1      38.961  33.136  35.007  1.00  0.00     0.049 A 
ATOM     44  H   UNL A   1      39.587  31.780  33.554  1.00  0.00     0.167 HD
ATOM     45  C   UNL A   1      40.553  28.778  30.442  1.00  0.00     0.034 A 
ATOM     46  C   UNL A   1      39.750  32.945  36.081  1.00  0.00     0.034 A 
ATOM     47  C   UNL A   1      41.538  28.612  31.475  1.00  0.00     0.049 A 
ATOM     48  C   UNL A   1      40.832  31.903  35.999  1.00  0.00     0.074 A 
ATOM     49  C   UNL A   1      42.612  27.743  31.508  1.00  0.00     0.029 A 
ATOM     50  N   UNL A   1      41.557  29.323  32.667  1.00  0.00    -0.354 N 
ATOM     51  N   UNL A   1      41.137  31.106  35.001  1.00  0.00    -0.248 NA
ATOM     52  C   UNL A   1      41.702  31.755  37.172  1.00  0.00     0.031 C 
ATOM     53  C   UNL A   1      43.257  27.900  32.739  1.00  0.00     0.029 A 
ATOM     54  C   UNL A   1      42.614  28.900  33.452  1.00  0.00     0.049 A 
ATOM     55  H   UNL A   1      40.914  30.024  32.916  1.00  0.00     0.167 HD
ATOM     56  C   UNL A   1      42.253  30.388  35.411  1.00  0.00     0.074 A 
ATOM     57  C   UNL A   1      42.582  30.860  36.742  1.00  0.00     0.031 C 
ATOM     58  C   UNL A   1      42.941  29.420  34.755  1.00  0.00     0.034 A 
BRANCH  45  59
ATOM     59  C   UNL A   1      40.611  27.879  29.236  1.00  0.00     0.023 A 
ATOM     60  C   UNL A   1      39.763  26.755  29.149  1.00  0.00     0.012 A 
ATOM     61  C   UNL A   1      41.476  28.175  28.164  1.00  0.00     0.148 A 
ATOM     62  C   UNL A   1      39.798  25.925  28.029  1.00  0.00     0.002 A 
ATOM     63  C   UNL A   1      41.471  27.370  27.032  1.00  0.00     0.091 A 
ATOM     64  F   UNL A   1      42.293  29.231  28.277  1.00  0.00    -0.205 F 
ATOM     65  C   UNL A   1      40.642  26.238  26.968  1.00  0.00     0.022 A 
BRANCH  63  66
ATOM     66  S   UNL A   1      42.466  27.732  25.581  1.00  0.00     0.127 S 
ATOM     67  O   UNL A   1      43.814  27.757  26.146  1.00  0.00    -0.237 OA
ATOM     68  O   UNL A   1      42.185  26.580  24.723  1.00  0.00    -0.237 OA
ATOM     69  O   UNL A   1      41.982  29.006  25.068  1.00  0.00    -0.744 OA
ENDBRANCH  63  66
ENDBRANCH  45  59
BRANCH  46  70
ATOM     70  C   UNL A   1      39.553  33.770  37.304  1.00  0.00     0.023 A 
ATOM     71  C   UNL A   1      40.083  35.073  37.367  1.00  0.00     0.012 A 
ATOM     72  C   UNL A   1      38.812  33.276  38.396  1.00  0.00     0.148 A 
ATOM     73  C   UNL A   1      39.903  35.857  38.508  1.00  0.00     0.002 A 
ATOM     74  C   UNL A   1      38.587  34.084  39.504  1.00  0.00     0.091 A 
ATOM     75  F   UNL A   1      38.327  32.028  38.322  1.00  0.00    -0.205 F 
ATOM     76  C   UNL A   1      39.148  35.368  39.571  1.00  0.00     0.022 A 
BRANCH  74  77
ATOM     77  S   UNL A   1      37.513  33.585  40.854  1.00  0.00     0.127 S 
ATOM     78  O   UNL A   1      38.379  32.684  41.609  1.00  0.00    -0.237 OA
ATOM     79  O   UNL A   1      37.234  34.865  41.506  1.00  0.00    -0.237 OA
ATOM     80  O   UNL A   1      36.352  32.969  40.226  1.00  0.00    -0.744 OA
ENDBRANCH  74  77
ENDBRANCH  46  70
BRANCH  58  81
ATOM     81  C   UNL A   1      44.144  28.836  35.447  1.00  0.00     0.023 A 
ATOM     82  C   UNL A   1      45.416  29.408  35.253  1.00  0.00     0.012 A 
ATOM     83  C   UNL A   1      43.993  27.767  36.351  1.00  0.00     0.148 A 
ATOM     84  C   UNL A   1      46.529  28.899  35.921  1.00  0.00     0.002 A 
ATOM     85  C   UNL A   1      45.096  27.302  37.055  1.00  0.00     0.091 A 
ATOM     86  F   UNL A   1      42.775  27.229  36.507  1.00  0.00    -0.205 F 
ATOM     87  C   UNL A   1      46.366  27.856  36.830  1.00  0.00     0.022 A 
BRANCH  85  88
ATOM     88  S   UNL A   1      44.963  26.035  38.320  1.00  0.00     0.127 S 
ATOM     89  O   UNL A   1      46.365  25.826  38.679  1.00  0.00    -0.237 OA
ATOM     90  O   UNL A   1      44.164  26.706  39.346  1.00  0.00    -0.237 OA
ATOM     91  O   UNL A   1      44.306  24.900  37.688  1.00  0.00    -0.744 OA
ENDBRANCH  85  88
ENDBRANCH  58  81
ENDBRANCH  32  33
ENDBRANCH  25  27
ENDBRANCH  24  25
ENDBRANCH  23  24
ENDBRANCH  22  23
ENDBRANCH   1  22
TORSDOF 20
ENDMDL
MODEL 3
REMARK VINA RESULT:     -10.3      1.789      2.097
REMARK SMILES COc1ccccc1N1C(=O)CC[C@H]1CC(=O)OCCOCCOC(=O)c1ccc(-c2c3nc(c(-c4cccc(S(=O)(=O)[O-])c4F)c4ccc([nH]4)c(-c4cccc(S(=O)(=O)[O-])c4F)c4nc(c(-c5cccc(S(=O)(=O)[O-])c5F)c5ccc2[nH]5)C=C4)C=C3)cc1
REMARK SMILES IDX 21 1 20 2 19 3 18 4 16 5 17 6 15 7 14 8 9 9 10 10 11 11
REMARK SMILES IDX 12 12 13 13 8 14 3 15 4 16 5 17 7 18 6 19 2 20 1 21 22 22
REMARK SMILES IDX 23 23 24 24 25 25 26 26 27 27 28 28 89 29 29 30 88 31 30 32
REMARK SMILES IDX 31 33 32 34 82 35 33 36 87 37 81 38 83 39 34 40 86 41 80 42
REMARK SMILES IDX 79 43 35 45 67 46 47 47 66 48 48 49 51 50 65 51 84 52 49 53
REMARK SMILES IDX 50 54 64 56 85 57 52 58 36 59 37 60 45 61 38 62 40 63 46 64
REMARK SMILES IDX 39 65 41 66 42 67 43 68 44 69 68 70 69 71 77 72 70 73 72 74
REMARK SMILES IDX 78 75 71 76 73 77 74 78 75 79 76 80 53 81 54 82 62 83 55 84
REMARK SMILES IDX 57 85 63 86 56 87 58 88 59 89 60 90 61 91
REMARK H PARENT 83 44 51 55
REMARK Flexibility Score: inf
ROOT
ATOM      1  O   UNL A   1      32.798  30.345  26.238  1.00  0.00    -0.374 OA
ENDROOT
BRANCH   1   2
ATOM      2  C   UNL A   1      32.760  29.038  26.818  1.00  0.00     0.202 C 
BRANCH   2   3
ATOM      3  C   UNL A   1      31.470  28.221  26.660  1.00  0.00     0.261 C 
BRANCH   3   4
ATOM      4  O   UNL A   1      31.619  26.852  27.109  1.00  0.00    -0.463 OA
BRANCH   4   5
ATOM      5  C   UNL A   1      31.068  25.894  26.315  1.00  0.00     0.307 C 
ATOM      6  O   UNL A   1      29.923  25.908  25.882  1.00  0.00    -0.252 OA
BRANCH   5   7
ATOM      7  C   UNL A   1      32.040  24.783  26.000  1.00  0.00     0.148 C 
BRANCH   7   8
ATOM      8  C   UNL A   1      32.875  25.007  24.742  1.00  0.00     0.102 C 
ATOM      9  N   UNL A   1      33.183  23.864  23.880  1.00  0.00    -0.305 N 
ATOM     10  C   UNL A   1      33.357  24.258  22.539  1.00  0.00     0.227 C 
ATOM     11  O   UNL A   1      33.620  23.584  21.557  1.00  0.00    -0.275 OA
ATOM     12  C   UNL A   1      33.107  25.740  22.485  1.00  0.00     0.103 C 
ATOM     13  C   UNL A   1      32.232  25.945  23.716  1.00  0.00     0.036 C 
BRANCH   9  14
ATOM     14  C   UNL A   1      33.349  22.523  24.289  1.00  0.00     0.086 A 
ATOM     15  C   UNL A   1      34.599  22.001  24.673  1.00  0.00     0.142 A 
ATOM     16  C   UNL A   1      34.760  20.622  24.854  1.00  0.00     0.048 A 
ATOM     17  C   UNL A   1      33.684  19.753  24.686  1.00  0.00     0.004 A 
ATOM     18  C   UNL A   1      32.278  21.631  24.127  1.00  0.00     0.030 A 
ATOM     19  C   UNL A   1      32.440  20.259  24.329  1.00  0.00     0.002 A 
BRANCH  15  20
ATOM     20  O   UNL A   1      35.743  22.742  24.829  1.00  0.00    -0.495 OA
ATOM     21  C   UNL A   1      35.955  23.186  26.165  1.00  0.00     0.278 C 
ENDBRANCH  15  20
ENDBRANCH   9  14
ENDBRANCH   7   8
ENDBRANCH   5   7
ENDBRANCH   4   5
ENDBRANCH   3   4
ENDBRANCH   2   3
ENDBRANCH   1   2
BRANCH   1  22
ATOM     22  C   UNL A   1      31.694  31.199  26.497  1.00  0.00     0.202 C 
BRANCH  22  23
ATOM     23  C   UNL A   1      31.972  32.653  26.898  1.00  0.00     0.261 C 
BRANCH  23  24
ATOM     24  O   UNL A   1      32.699  32.773  28.118  1.00  0.00    -0.460 OA
BRANCH  24  25
ATOM     25  C   UNL A   1      33.758  33.613  28.009  1.00  0.00     0.338 C 
ATOM     26  O   UNL A   1      33.734  34.819  27.849  1.00  0.00    -0.246 OA
BRANCH  25  27
ATOM     27  C   UNL A   1      34.990  32.872  28.305  1.00  0.00     0.060 A 
ATOM     28  C   UNL A   1      34.832  31.567  28.783  1.00  0.00     0.016 A 
ATOM     29  C   UNL A   1      36.252  33.450  28.165  1.00  0.00     0.016 A 
ATOM     30  C   UNL A   1      35.945  30.854  29.200  1.00  0.00     0.010 A 
ATOM     31  C   UNL A   1      37.370  32.731  28.584  1.00  0.00     0.010 A 
ATOM     32  C   UNL A   1      37.209  31.455  29.149  1.00  0.00    -0.014 A 
BRANCH  32  33
ATOM     33  C   UNL A   1      38.326  30.796  29.851  1.00  0.00     0.031 A 
ATOM     34  C   UNL A   1      38.576  31.148  31.291  1.00  0.00     0.074 A 
ATOM     35  C   UNL A   1      39.063  29.867  29.219  1.00  0.00     0.049 A 
ATOM     36  N   UNL A   1      39.475  30.677  32.111  1.00  0.00    -0.248 NA
ATOM     37  C   UNL A   1      37.695  32.169  31.885  1.00  0.00     0.031 C 
ATOM     38  C   UNL A   1      38.885  29.460  27.825  1.00  0.00     0.029 A 
ATOM     39  N   UNL A   1      40.115  29.112  29.662  1.00  0.00    -0.354 N 
ATOM     40  C   UNL A   1      39.293  31.364  33.305  1.00  0.00     0.074 A 
ATOM     41  C   UNL A   1      38.204  32.293  33.102  1.00  0.00     0.031 C 
ATOM     42  C   UNL A   1      39.816  28.541  27.519  1.00  0.00     0.029 A 
ATOM     43  C   UNL A   1      40.666  28.319  28.685  1.00  0.00     0.049 A 
ATOM     44  H   UNL A   1      40.444  29.136  30.589  1.00  0.00     0.167 HD
ATOM     45  C   UNL A   1      39.967  31.221  34.469  1.00  0.00     0.034 A 
ATOM     46  C   UNL A   1      41.750  27.523  28.730  1.00  0.00     0.034 A 
ATOM     47  C   UNL A   1      41.036  30.278  34.653  1.00  0.00     0.049 A 
ATOM     48  C   UNL A   1      42.489  27.388  30.034  1.00  0.00     0.074 A 
ATOM     49  C   UNL A   1      41.759  30.009  35.799  1.00  0.00     0.029 A 
ATOM     50  N   UNL A   1      41.546  29.462  33.653  1.00  0.00    -0.354 N 
ATOM     51  N   UNL A   1      42.235  27.959  31.188  1.00  0.00    -0.248 NA
ATOM     52  C   UNL A   1      43.638  26.475  30.055  1.00  0.00     0.031 C 
ATOM     53  C   UNL A   1      42.734  29.058  35.482  1.00  0.00     0.029 A 
ATOM     54  C   UNL A   1      42.587  28.700  34.151  1.00  0.00     0.049 A 
ATOM     55  H   UNL A   1      41.215  29.429  32.727  1.00  0.00     0.167 HD
ATOM     56  C   UNL A   1      43.169  27.451  32.081  1.00  0.00     0.074 A 
ATOM     57  C   UNL A   1      43.982  26.508  31.337  1.00  0.00     0.031 C 
ATOM     58  C   UNL A   1      43.349  27.739  33.394  1.00  0.00     0.034 A 
BRANCH  45  59
ATOM     59  C   UNL A   1      39.571  32.099  35.626  1.00  0.00     0.023 A 
ATOM     60  C   UNL A   1      40.083  33.410  35.727  1.00  0.00     0.012 A 
ATOM     61  C   UNL A   1      38.654  31.641  36.591  1.00  0.00     0.148 A 
ATOM     62  C   UNL A   1      39.711  34.237  36.786  1.00  0.00     0.002 A 
ATOM     63  C   UNL A   1      38.252  32.488  37.617  1.00  0.00     0.091 A 
ATOM     64  F   UNL A   1      38.199  30.384  36.494  1.00  0.00    -0.205 F 
ATOM     65  C   UNL A   1      38.788  33.781  37.723  1.00  0.00     0.022 A 
BRANCH  63  66
ATOM     66  S   UNL A   1      37.011  32.021  38.829  1.00  0.00     0.127 S 
ATOM     67  O   UNL A   1      36.958  30.570  38.653  1.00  0.00    -0.237 OA
ATOM     68  O   UNL A   1      37.627  32.462  40.081  1.00  0.00    -0.237 OA
ATOM     69  O   UNL A   1      35.797  32.737  38.461  1.00  0.00    -0.744 OA
ENDBRANCH  63  66
ENDBRANCH  45  59
BRANCH  46  70
ATOM     70  C   UNL A   1      42.181  26.784  27.510  1.00  0.00     0.023 A 
ATOM     71  C   UNL A   1      42.870  27.460  26.486  1.00  0.00     0.012 A 
ATOM     72  C   UNL A   1      41.934  25.404  27.378  1.00  0.00     0.148 A 
ATOM     73  C   UNL A   1      43.280  26.779  25.338  1.00  0.00     0.002 A 
ATOM     74  C   UNL A   1      42.397  24.720  26.260  1.00  0.00     0.091 A 
ATOM     75  F   UNL A   1      41.264  24.782  28.359  1.00  0.00    -0.205 F 
ATOM     76  C   UNL A   1      43.053  25.409  25.229  1.00  0.00     0.022 A 
BRANCH  74  77
ATOM     77  S   UNL A   1      42.270  22.935  26.105  1.00  0.00     0.127 S 
ATOM     78  O   UNL A   1      42.886  22.703  24.802  1.00  0.00    -0.237 OA
ATOM     79  O   UNL A   1      43.056  22.477  27.251  1.00  0.00    -0.237 OA
ATOM     80  O   UNL A   1      40.848  22.633  26.197  1.00  0.00    -0.744 OA
ENDBRANCH  74  77
ENDBRANCH  46  70
BRANCH  58  81
ATOM     81  C   UNL A   1      44.438  26.997  34.123  1.00  0.00     0.023 A 
ATOM     82  C   UNL A   1      44.160  25.759  34.735  1.00  0.00     0.012 A 
ATOM     83  C   UNL A   1      45.754  27.497  34.131  1.00  0.00     0.148 A 
ATOM     84  C   UNL A   1      45.172  25.046  35.376  1.00  0.00     0.002 A 
ATOM     85  C   UNL A   1      46.767  26.755  34.724  1.00  0.00     0.091 A 
ATOM     86  F   UNL A   1      45.991  28.685  33.556  1.00  0.00    -0.205 F 
ATOM     87  C   UNL A   1      46.476  25.538  35.360  1.00  0.00     0.022 A 
BRANCH  85  88
ATOM     88  S   UNL A   1      48.490  27.257  34.659  1.00  0.00     0.127 S 
ATOM     89  O   UNL A   1      48.721  27.340  33.217  1.00  0.00    -0.237 OA
ATOM     90  O   UNL A   1      48.461  28.548  35.348  1.00  0.00    -0.237 OA
ATOM     91  O   UNL A   1      49.240  26.218  35.351  1.00  0.00    -0.744 OA
ENDBRANCH  85  88
ENDBRANCH  58  81
ENDBRANCH  32  33
ENDBRANCH  25  27
ENDBRANCH  24  25
ENDBRANCH  23  24
ENDBRANCH  22  23
ENDBRANCH   1  22
TORSDOF 20
ENDMDL
