MODEL 1
REMARK VINA RESULT:     -12.9      0.000      0.000
REMARK SMILES Cc1ccc(C2=NN(C(=O)CCC(=O)OCCOCCOC(=O)c3ccc(-c4c5nc(c(-c6cccc(S(=O)(=O)[O-])c6F)c6ccc([nH]6)c(-c6cccc(S(=O)(=O)[O-])c6F)c6nc(c(-c7cccc(S(=O)(=O)[O-])c7F)c7ccc4[nH]7)C=C6)C=C5)cc3)[C@H](C[C@H]3C=c4cccc(C)c4=NC3=O)C2)cc1
REMARK SMILES IDX 17 1 16 2 15 3 13 4 14 5 12 6 11 7 9 8 10 9 8 10 6 11 7 12
REMARK SMILES IDX 101 13 87 14 5 15 1 16 2 17 3 18 103 19 4 20 102 21 88 22
REMARK SMILES IDX 89 23 90 24 99 25 91 26 98 27 100 28 92 29 97 30 93 31 95 32
REMARK SMILES IDX 94 33 96 34 18 35 19 36 20 37 21 38 22 39 23 40 24 41 25 42
REMARK SMILES IDX 86 43 26 44 85 45 27 46 28 47 29 48 79 49 30 50 84 51 78 52
REMARK SMILES IDX 80 53 31 54 83 55 77 56 76 57 32 59 64 60 44 61 63 62 45 63
REMARK SMILES IDX 48 64 62 65 81 66 46 67 47 68 61 70 82 71 49 72 33 73 34 74
REMARK SMILES IDX 42 75 35 76 37 77 43 78 36 79 38 80 39 81 40 82 41 83 65 84
REMARK SMILES IDX 66 85 74 86 67 87 69 88 75 89 68 90 70 91 71 92 72 93 73 94
REMARK SMILES IDX 50 95 51 96 59 97 52 98 54 99 60 100 53 101 55 102 56 103
REMARK SMILES IDX 57 104 58 105
REMARK H PARENT 80 58 48 69
REMARK Flexibility Score: inf
ROOT
ATOM      1  C   UNL A   1      34.117  20.440  25.249  1.00  0.00     0.202 C 
ENDROOT
BRANCH   1   2
ATOM      2  C   UNL A   1      32.624  20.462  25.055  1.00  0.00     0.261 C 
BRANCH   2   3
ATOM      3  O   UNL A   1      32.246  21.488  24.159  1.00  0.00    -0.463 OA
BRANCH   3   4
ATOM      4  C   UNL A   1      31.455  22.421  24.747  1.00  0.00     0.306 C 
ATOM      5  O   UNL A   1      30.775  22.282  25.722  1.00  0.00    -0.252 OA
BRANCH   4   6
ATOM      6  C   UNL A   1      31.573  23.706  23.979  1.00  0.00     0.132 C 
BRANCH   6   7
ATOM      7  C   UNL A   1      30.613  24.787  24.442  1.00  0.00     0.114 C 
BRANCH   7   8
ATOM      8  C   UNL A   1      31.083  25.862  25.461  1.00  0.00     0.243 C 
ATOM      9  O   UNL A   1      31.117  25.417  26.627  1.00  0.00    -0.273 OA
BRANCH   8  10
ATOM     10  N   UNL A   1      31.711  27.116  25.148  1.00  0.00    -0.230 N 
ATOM     11  C   UNL A   1      31.145  29.019  24.117  1.00  0.00     0.070 C 
ATOM     12  N   UNL A   1      30.669  28.104  24.882  1.00  0.00    -0.174 NA
ATOM     13  C   UNL A   1      32.603  28.814  23.821  1.00  0.00     0.086 C 
ATOM     14  C   UNL A   1      33.383  27.839  24.897  1.00  0.00     0.118 C 
BRANCH  11  15
ATOM     15  C   UNL A   1      30.350  30.104  23.339  1.00  0.00    -0.002 A 
ATOM     16  C   UNL A   1      27.413  32.067  20.737  1.00  0.00     0.044 C 
ATOM     17  C   UNL A   1      28.425  31.452  21.664  1.00  0.00    -0.051 A 
ATOM     18  C   UNL A   1      28.673  31.868  22.984  1.00  0.00     0.004 A 
ATOM     19  C   UNL A   1      29.229  30.448  21.163  1.00  0.00     0.004 A 
ATOM     20  C   UNL A   1      29.584  31.160  23.838  1.00  0.00     0.010 A 
ATOM     21  C   UNL A   1      30.236  29.895  21.959  1.00  0.00     0.010 A 
ENDBRANCH  11  15
BRANCH  14  22
ATOM     22  C   UNL A   1      34.712  28.357  26.402  1.00  0.00     0.045 C 
BRANCH  22  23
ATOM     23  C   UNL A   1      34.390  29.550  27.925  1.00  0.00     0.106 C 
ATOM     24  C   UNL A   1      35.582  30.189  28.815  1.00  0.00    -0.003 C 
ATOM     25  C   UNL A   1      33.369  30.728  27.690  1.00  0.00     0.253 C 
ATOM     26  C   UNL A   1      35.957  31.470  28.698  1.00  0.00    -0.003 A 
ATOM     27  N   UNL A   1      33.644  32.036  28.127  1.00  0.00    -0.212 NA
ATOM     28  O   UNL A   1      32.319  30.482  27.096  1.00  0.00    -0.272 OA
ATOM     29  C   UNL A   1      37.325  31.982  28.650  1.00  0.00     0.010 A 
ATOM     30  C   UNL A   1      34.820  32.386  28.546  1.00  0.00     0.077 A 
ATOM     31  C   UNL A   1      37.550  33.303  28.648  1.00  0.00     0.001 A 
ATOM     32  C   UNL A   1      35.190  33.765  29.071  1.00  0.00    -0.025 A 
ATOM     33  C   UNL A   1      36.476  34.177  29.046  1.00  0.00     0.005 A 
ATOM     34  C   UNL A   1      34.175  34.476  29.895  1.00  0.00     0.047 C 
ENDBRANCH  22  23
ENDBRANCH  14  22
ENDBRANCH   8  10
ENDBRANCH   7   8
ENDBRANCH   6   7
ENDBRANCH   4   6
ENDBRANCH   3   4
ENDBRANCH   2   3
ENDBRANCH   1   2
BRANCH   1  35
ATOM     35  O   UNL A   1      34.714  21.668  24.840  1.00  0.00    -0.374 OA
BRANCH  35  36
ATOM     36  C   UNL A   1      35.999  21.891  24.173  1.00  0.00     0.202 C 
BRANCH  36  37
ATOM     37  C   UNL A   1      37.559  21.334  24.784  1.00  0.00     0.261 C 
BRANCH  37  38
ATOM     38  O   UNL A   1      38.870  22.029  25.984  1.00  0.00    -0.460 OA
BRANCH  38  39
ATOM     39  C   UNL A   1      39.338  23.481  26.760  1.00  0.00     0.338 C 
ATOM     40  O   UNL A   1      38.393  24.161  27.164  1.00  0.00    -0.246 OA
BRANCH  39  41
ATOM     41  C   UNL A   1      41.047  24.170  26.903  1.00  0.00     0.060 A 
ATOM     42  C   UNL A   1      41.760  24.187  28.126  1.00  0.00     0.016 A 
ATOM     43  C   UNL A   1      41.673  25.094  26.034  1.00  0.00     0.016 A 
ATOM     44  C   UNL A   1      42.399  25.404  28.620  1.00  0.00     0.010 A 
ATOM     45  C   UNL A   1      42.311  26.292  26.507  1.00  0.00     0.010 A 
ATOM     46  C   UNL A   1      42.469  26.571  27.868  1.00  0.00    -0.014 A 
BRANCH  46  47
ATOM     47  C   UNL A   1      42.618  28.024  28.352  1.00  0.00     0.031 A 
ATOM     48  C   UNL A   1      41.374  28.857  28.710  1.00  0.00     0.074 A 
ATOM     49  C   UNL A   1      43.785  28.581  28.861  1.00  0.00     0.049 A 
ATOM     50  N   UNL A   1      41.414  30.057  29.217  1.00  0.00    -0.248 NA
ATOM     51  C   UNL A   1      39.990  28.420  28.528  1.00  0.00     0.031 C 
ATOM     52  C   UNL A   1      43.756  29.486  30.040  1.00  0.00     0.029 A 
ATOM     53  N   UNL A   1      45.185  28.423  28.725  1.00  0.00    -0.354 N 
ATOM     54  C   UNL A   1      40.197  30.338  29.789  1.00  0.00     0.074 A 
ATOM     55  C   UNL A   1      39.307  29.396  29.155  1.00  0.00     0.031 C 
ATOM     56  C   UNL A   1      44.972  29.890  30.388  1.00  0.00     0.029 A 
ATOM     57  C   UNL A   1      45.878  29.503  29.348  1.00  0.00     0.049 A 
ATOM     58  H   UNL A   1      45.621  27.671  28.263  1.00  0.00     0.167 HD
ATOM     59  C   UNL A   1      40.092  31.230  30.824  1.00  0.00     0.034 A 
ATOM     60  C   UNL A   1      46.965  30.290  29.042  1.00  0.00     0.034 A 
ATOM     61  C   UNL A   1      41.356  31.922  31.162  1.00  0.00     0.049 A 
ATOM     62  C   UNL A   1      46.660  31.769  29.192  1.00  0.00     0.074 A 
ATOM     63  C   UNL A   1      42.163  32.005  32.287  1.00  0.00     0.029 A 
ATOM     64  N   UNL A   1      42.028  32.631  30.174  1.00  0.00    -0.354 N 
ATOM     65  N   UNL A   1      45.822  32.300  30.034  1.00  0.00    -0.248 NA
ATOM     66  C   UNL A   1      47.086  32.697  28.143  1.00  0.00     0.031 C 
ATOM     67  C   UNL A   1      43.335  32.754  31.946  1.00  0.00     0.029 A 
ATOM     68  C   UNL A   1      43.217  33.185  30.635  1.00  0.00     0.049 A 
ATOM     69  H   UNL A   1      41.700  32.730  29.252  1.00  0.00     0.167 HD
ATOM     70  C   UNL A   1      45.257  33.371  29.379  1.00  0.00     0.074 A 
ATOM     71  C   UNL A   1      46.089  33.576  28.205  1.00  0.00     0.031 C 
ATOM     72  C   UNL A   1      44.052  33.932  29.695  1.00  0.00     0.034 A 
BRANCH  59  73
ATOM     73  C   UNL A   1      38.823  31.484  31.642  1.00  0.00     0.023 A 
ATOM     74  C   UNL A   1      37.966  30.385  31.897  1.00  0.00     0.012 A 
ATOM     75  C   UNL A   1      38.391  32.731  32.151  1.00  0.00     0.148 A 
ATOM     76  C   UNL A   1      36.783  30.507  32.643  1.00  0.00     0.002 A 
ATOM     77  C   UNL A   1      37.262  32.835  32.974  1.00  0.00     0.091 A 
ATOM     78  F   UNL A   1      39.004  33.854  31.760  1.00  0.00    -0.205 F 
ATOM     79  C   UNL A   1      36.447  31.726  33.213  1.00  0.00     0.022 A 
BRANCH  77  80
ATOM     80  S   UNL A   1      36.833  34.367  33.825  1.00  0.00     0.127 S 
ATOM     81  O   UNL A   1      38.117  34.776  34.394  1.00  0.00    -0.237 OA
ATOM     82  O   UNL A   1      36.355  35.216  32.733  1.00  0.00    -0.237 OA
ATOM     83  O   UNL A   1      35.806  34.008  34.797  1.00  0.00    -0.744 OA
ENDBRANCH  77  80
ENDBRANCH  59  73
BRANCH  60  84
ATOM     84  C   UNL A   1      47.943  29.860  28.008  1.00  0.00     0.023 A 
ATOM     85  C   UNL A   1      48.930  29.011  28.515  1.00  0.00     0.012 A 
ATOM     86  C   UNL A   1      47.373  29.629  26.753  1.00  0.00     0.148 A 
ATOM     87  C   UNL A   1      48.908  27.713  28.061  1.00  0.00     0.002 A 
ATOM     88  C   UNL A   1      47.248  28.334  26.368  1.00  0.00     0.091 A 
ATOM     89  F   UNL A   1      46.717  30.595  26.103  1.00  0.00    -0.205 F 
ATOM     90  C   UNL A   1      47.964  27.382  27.091  1.00  0.00     0.022 A 
BRANCH  88  91
ATOM     91  S   UNL A   1      45.853  27.937  25.315  1.00  0.00     0.127 S 
ATOM     92  O   UNL A   1      46.373  28.223  23.986  1.00  0.00    -0.237 OA
ATOM     93  O   UNL A   1      45.631  26.527  25.594  1.00  0.00    -0.237 OA
ATOM     94  O   UNL A   1      44.769  28.780  25.799  1.00  0.00    -0.744 OA
ENDBRANCH  88  91
ENDBRANCH  60  84
BRANCH  72  95
ATOM     95  C   UNL A   1      43.586  35.204  28.997  1.00  0.00     0.023 A 
ATOM     96  C   UNL A   1      42.916  35.140  27.750  1.00  0.00     0.012 A 
ATOM     97  C   UNL A   1      43.874  36.499  29.472  1.00  0.00     0.148 A 
ATOM     98  C   UNL A   1      42.367  36.259  27.125  1.00  0.00     0.002 A 
ATOM     99  C   UNL A   1      43.426  37.625  28.787  1.00  0.00     0.091 A 
ATOM    100  F   UNL A   1      44.615  36.654  30.573  1.00  0.00    -0.205 F 
ATOM    101  C   UNL A   1      42.619  37.509  27.650  1.00  0.00     0.022 A 
BRANCH  99 102
ATOM    102  S   UNL A   1      43.954  39.286  29.217  1.00  0.00     0.127 S 
ATOM    103  O   UNL A   1      45.392  39.207  28.952  1.00  0.00    -0.237 OA
ATOM    104  O   UNL A   1      43.202  40.099  28.261  1.00  0.00    -0.237 OA
ATOM    105  O   UNL A   1      43.599  39.481  30.613  1.00  0.00    -0.744 OA
ENDBRANCH  99 102
ENDBRANCH  72  95
ENDBRANCH  46  47
ENDBRANCH  39  41
ENDBRANCH  38  39
ENDBRANCH  37  38
ENDBRANCH  36  37
ENDBRANCH  35  36
ENDBRANCH   1  35
TORSDOF 23
ENDMDL
MODEL 2
REMARK VINA RESULT:     -12.7      5.321     11.397
REMARK SMILES Cc1ccc(C2=NN(C(=O)CCC(=O)OCCOCCOC(=O)c3ccc(-c4c5nc(c(-c6cccc(S(=O)(=O)[O-])c6F)c6ccc([nH]6)c(-c6cccc(S(=O)(=O)[O-])c6F)c6nc(c(-c7cccc(S(=O)(=O)[O-])c7F)c7ccc4[nH]7)C=C6)C=C5)cc3)[C@H](C[C@H]3C=c4cccc(C)c4=NC3=O)C2)cc1
REMARK SMILES IDX 17 1 16 2 15 3 13 4 14 5 12 6 11 7 9 8 10 9 8 10 6 11 7 12
REMARK SMILES IDX 101 13 87 14 5 15 1 16 2 17 3 18 103 19 4 20 102 21 88 22
REMARK SMILES IDX 89 23 90 24 99 25 91 26 98 27 100 28 92 29 97 30 93 31 95 32
REMARK SMILES IDX 94 33 96 34 18 35 19 36 20 37 21 38 22 39 23 40 24 41 25 42
REMARK SMILES IDX 86 43 26 44 85 45 27 46 28 47 29 48 79 49 30 50 84 51 78 52
REMARK SMILES IDX 80 53 31 54 83 55 77 56 76 57 32 59 64 60 44 61 63 62 45 63
REMARK SMILES IDX 48 64 62 65 81 66 46 67 47 68 61 70 82 71 49 72 33 73 34 74
REMARK SMILES IDX 42 75 35 76 37 77 43 78 36 79 38 80 39 81 40 82 41 83 65 84
REMARK SMILES IDX 66 85 74 86 67 87 69 88 75 89 68 90 70 91 71 92 72 93 73 94
REMARK SMILES IDX 50 95 51 96 59 97 52 98 54 99 60 100 53 101 55 102 56 103
REMARK SMILES IDX 57 104 58 105
REMARK H PARENT 80 58 48 69
REMARK Flexibility Score: inf
ROOT
ATOM      1  C   UNL A   1      44.712  19.836  25.010  1.00  0.00     0.202 C 
ENDROOT
BRANCH   1   2
ATOM      2  C   UNL A   1      45.582  20.976  24.551  1.00  0.00     0.261 C 
BRANCH   2   3
ATOM      3  O   UNL A   1      45.994  21.769  25.646  1.00  0.00    -0.463 OA
BRANCH   3   4
ATOM      4  C   UNL A   1      45.626  23.069  25.510  1.00  0.00     0.306 C 
ATOM      5  O   UNL A   1      44.598  23.569  25.862  1.00  0.00    -0.252 OA
BRANCH   4   6
ATOM      6  C   UNL A   1      46.744  23.819  24.846  1.00  0.00     0.132 C 
BRANCH   6   7
ATOM      7  C   UNL A   1      47.121  25.108  25.553  1.00  0.00     0.114 C 
BRANCH   7   8
ATOM      8  C   UNL A   1      47.229  25.144  27.103  1.00  0.00     0.243 C 
ATOM      9  O   UNL A   1      48.195  24.471  27.520  1.00  0.00    -0.273 OA
BRANCH   8  10
ATOM     10  N   UNL A   1      46.548  26.054  27.984  1.00  0.00    -0.230 N 
ATOM     11  C   UNL A   1      46.105  26.193  30.172  1.00  0.00     0.070 C 
ATOM     12  N   UNL A   1      47.016  25.819  29.347  1.00  0.00    -0.174 NA
ATOM     13  C   UNL A   1      44.923  26.806  29.477  1.00  0.00     0.086 C 
ATOM     14  C   UNL A   1      45.237  27.341  27.950  1.00  0.00     0.118 C 
BRANCH  11  15
ATOM     15  C   UNL A   1      46.022  25.877  31.690  1.00  0.00    -0.002 A 
ATOM     16  C   UNL A   1      44.885  24.073  35.525  1.00  0.00     0.044 C 
ATOM     17  C   UNL A   1      45.335  24.708  34.238  1.00  0.00    -0.051 A 
ATOM     18  C   UNL A   1      46.672  24.859  33.833  1.00  0.00     0.004 A 
ATOM     19  C   UNL A   1      44.368  25.254  33.418  1.00  0.00     0.004 A 
ATOM     20  C   UNL A   1      47.014  25.383  32.541  1.00  0.00     0.010 A 
ATOM     21  C   UNL A   1      44.738  25.922  32.248  1.00  0.00     0.010 A 
ENDBRANCH  11  15
BRANCH  14  22
ATOM     22  C   UNL A   1      45.471  29.287  27.271  1.00  0.00     0.045 C 
BRANCH  22  23
ATOM     23  C   UNL A   1      44.116  30.703  27.205  1.00  0.00     0.106 C 
ATOM     24  C   UNL A   1      43.231  31.140  28.489  1.00  0.00    -0.003 C 
ATOM     25  C   UNL A   1      44.546  32.055  26.517  1.00  0.00     0.253 C 
ATOM     26  C   UNL A   1      43.468  32.267  29.174  1.00  0.00    -0.003 A 
ATOM     27  N   UNL A   1      44.242  33.301  27.094  1.00  0.00    -0.212 NA
ATOM     28  O   UNL A   1      45.172  31.998  25.459  1.00  0.00    -0.272 OA
ATOM     29  C   UNL A   1      43.488  32.421  30.627  1.00  0.00     0.010 A 
ATOM     30  C   UNL A   1      43.793  33.405  28.305  1.00  0.00     0.077 A 
ATOM     31  C   UNL A   1      43.625  33.638  31.172  1.00  0.00     0.001 A 
ATOM     32  C   UNL A   1      43.405  34.707  28.988  1.00  0.00    -0.025 A 
ATOM     33  C   UNL A   1      43.395  34.789  30.337  1.00  0.00     0.005 A 
ATOM     34  C   UNL A   1      42.731  35.740  28.155  1.00  0.00     0.047 C 
ENDBRANCH  22  23
ENDBRANCH  14  22
ENDBRANCH   8  10
ENDBRANCH   7   8
ENDBRANCH   6   7
ENDBRANCH   4   6
ENDBRANCH   3   4
ENDBRANCH   2   3
ENDBRANCH   1   2
BRANCH   1  35
ATOM     35  O   UNL A   1      43.333  20.199  25.009  1.00  0.00    -0.374 OA
BRANCH  35  36
ATOM     36  C   UNL A   1      42.455  20.488  26.145  1.00  0.00     0.202 C 
BRANCH  36  37
ATOM     37  C   UNL A   1      41.589  22.008  26.384  1.00  0.00     0.261 C 
BRANCH  37  38
ATOM     38  O   UNL A   1      41.244  23.150  27.874  1.00  0.00    -0.460 OA
BRANCH  38  39
ATOM     39  C   UNL A   1      41.546  24.736  28.444  1.00  0.00     0.338 C 
ATOM     40  O   UNL A   1      42.599  24.851  29.073  1.00  0.00    -0.246 OA
BRANCH  39  41
ATOM     41  C   UNL A   1      40.414  26.193  28.341  1.00  0.00     0.060 A 
ATOM     42  C   UNL A   1      40.843  27.456  27.866  1.00  0.00     0.016 A 
ATOM     43  C   UNL A   1      39.211  26.395  29.057  1.00  0.00     0.016 A 
ATOM     44  C   UNL A   1      40.586  28.682  28.618  1.00  0.00     0.010 A 
ATOM     45  C   UNL A   1      38.942  27.598  29.795  1.00  0.00     0.010 A 
ATOM     46  C   UNL A   1      39.793  28.707  29.760  1.00  0.00    -0.014 A 
BRANCH  46  47
ATOM     47  C   UNL A   1      39.811  29.711  30.925  1.00  0.00     0.031 A 
ATOM     48  C   UNL A   1      40.770  29.510  32.112  1.00  0.00     0.074 A 
ATOM     49  C   UNL A   1      39.308  31.006  30.873  1.00  0.00     0.049 A 
ATOM     50  N   UNL A   1      40.918  30.360  33.090  1.00  0.00    -0.248 NA
ATOM     51  C   UNL A   1      41.636  28.347  32.305  1.00  0.00     0.031 C 
ATOM     52  C   UNL A   1      40.037  32.141  31.497  1.00  0.00     0.029 A 
ATOM     53  N   UNL A   1      38.297  31.726  30.193  1.00  0.00    -0.354 N 
ATOM     54  C   UNL A   1      42.102  30.094  33.733  1.00  0.00     0.074 A 
ATOM     55  C   UNL A   1      42.391  28.734  33.349  1.00  0.00     0.031 C 
ATOM     56  C   UNL A   1      39.409  33.297  31.314  1.00  0.00     0.029 A 
ATOM     57  C   UNL A   1      38.111  33.012  30.781  1.00  0.00     0.049 A 
ATOM     58  H   UNL A   1      37.791  31.386  29.420  1.00  0.00     0.167 HD
ATOM     59  C   UNL A   1      42.780  31.081  34.401  1.00  0.00     0.034 A 
ATOM     60  C   UNL A   1      37.035  33.806  31.106  1.00  0.00     0.034 A 
ATOM     61  C   UNL A   1      42.067  32.376  34.460  1.00  0.00     0.049 A 
ATOM     62  C   UNL A   1      37.110  34.314  32.534  1.00  0.00     0.074 A 
ATOM     63  C   UNL A   1      42.328  33.665  34.019  1.00  0.00     0.029 A 
ATOM     64  N   UNL A   1      40.787  32.424  34.997  1.00  0.00    -0.354 N 
ATOM     65  N   UNL A   1      38.197  34.568  33.204  1.00  0.00    -0.248 NA
ATOM     66  C   UNL A   1      35.915  34.256  33.378  1.00  0.00     0.031 C 
ATOM     67  C   UNL A   1      41.176  34.473  34.282  1.00  0.00     0.029 A 
ATOM     68  C   UNL A   1      40.235  33.699  34.941  1.00  0.00     0.049 A 
ATOM     69  H   UNL A   1      40.323  31.644  35.376  1.00  0.00     0.167 HD
ATOM     70  C   UNL A   1      37.928  34.210  34.506  1.00  0.00     0.074 A 
ATOM     71  C   UNL A   1      36.488  34.031  34.559  1.00  0.00     0.031 C 
ATOM     72  C   UNL A   1      38.874  33.896  35.440  1.00  0.00     0.034 A 
BRANCH  59  73
ATOM     73  C   UNL A   1      44.182  30.936  34.998  1.00  0.00     0.023 A 
ATOM     74  C   UNL A   1      45.272  31.483  34.276  1.00  0.00     0.012 A 
ATOM     75  C   UNL A   1      44.515  30.271  36.202  1.00  0.00     0.148 A 
ATOM     76  C   UNL A   1      46.596  31.413  34.738  1.00  0.00     0.002 A 
ATOM     77  C   UNL A   1      45.821  30.284  36.709  1.00  0.00     0.091 A 
ATOM     78  F   UNL A   1      43.594  29.525  36.822  1.00  0.00    -0.205 F 
ATOM     79  C   UNL A   1      46.868  30.844  35.974  1.00  0.00     0.022 A 
BRANCH  77  80
ATOM     80  S   UNL A   1      46.218  29.653  38.352  1.00  0.00     0.127 S 
ATOM     81  O   UNL A   1      46.507  28.245  38.082  1.00  0.00    -0.237 OA
ATOM     82  O   UNL A   1      47.385  30.452  38.727  1.00  0.00    -0.237 OA
ATOM     83  O   UNL A   1      45.036  29.902  39.169  1.00  0.00    -0.744 OA
ENDBRANCH  77  80
ENDBRANCH  59  73
BRANCH  60  84
ATOM     84  C   UNL A   1      35.699  33.553  30.504  1.00  0.00     0.023 A 
ATOM     85  C   UNL A   1      35.329  34.530  29.576  1.00  0.00     0.012 A 
ATOM     86  C   UNL A   1      35.432  32.202  30.268  1.00  0.00     0.148 A 
ATOM     87  C   UNL A   1      35.243  34.123  28.266  1.00  0.00     0.002 A 
ATOM     88  C   UNL A   1      35.469  31.788  28.977  1.00  0.00     0.091 A 
ATOM     89  F   UNL A   1      35.440  31.312  31.265  1.00  0.00    -0.205 F 
ATOM     90  C   UNL A   1      35.456  32.773  27.991  1.00  0.00     0.022 A 
BRANCH  88  91
ATOM     91  S   UNL A   1      35.999  30.101  28.686  1.00  0.00     0.127 S 
ATOM     92  O   UNL A   1      34.911  29.567  27.879  1.00  0.00    -0.237 OA
ATOM     93  O   UNL A   1      37.256  30.277  27.976  1.00  0.00    -0.237 OA
ATOM     94  O   UNL A   1      36.181  29.533  30.013  1.00  0.00    -0.744 OA
ENDBRANCH  88  91
ENDBRANCH  60  84
BRANCH  72  95
ATOM     95  C   UNL A   1      38.477  33.654  36.891  1.00  0.00     0.023 A 
ATOM     96  C   UNL A   1      38.910  34.531  37.915  1.00  0.00     0.012 A 
ATOM     97  C   UNL A   1      37.766  32.515  37.320  1.00  0.00     0.148 A 
ATOM     98  C   UNL A   1      38.484  34.424  39.238  1.00  0.00     0.002 A 
ATOM     99  C   UNL A   1      37.437  32.345  38.662  1.00  0.00     0.091 A 
ATOM    100  F   UNL A   1      37.430  31.569  36.439  1.00  0.00    -0.205 F 
ATOM    101  C   UNL A   1      37.738  33.326  39.612  1.00  0.00     0.022 A 
BRANCH  99 102
ATOM    102  S   UNL A   1      36.738  30.817  39.295  1.00  0.00     0.127 S 
ATOM    103  O   UNL A   1      37.468  30.669  40.556  1.00  0.00    -0.237 OA
ATOM    104  O   UNL A   1      35.327  31.171  39.446  1.00  0.00    -0.237 OA
ATOM    105  O   UNL A   1      37.020  29.794  38.301  1.00  0.00    -0.744 OA
ENDBRANCH  99 102
ENDBRANCH  72  95
ENDBRANCH  46  47
ENDBRANCH  39  41
ENDBRANCH  38  39
ENDBRANCH  37  38
ENDBRANCH  36  37
ENDBRANCH  35  36
ENDBRANCH   1  35
TORSDOF 23
ENDMDL
MODEL 3
REMARK VINA RESULT:     -12.5      5.452     11.316
REMARK SMILES Cc1ccc(C2=NN(C(=O)CCC(=O)OCCOCCOC(=O)c3ccc(-c4c5nc(c(-c6cccc(S(=O)(=O)[O-])c6F)c6ccc([nH]6)c(-c6cccc(S(=O)(=O)[O-])c6F)c6nc(c(-c7cccc(S(=O)(=O)[O-])c7F)c7ccc4[nH]7)C=C6)C=C5)cc3)[C@H](C[C@H]3C=c4cccc(C)c4=NC3=O)C2)cc1
REMARK SMILES IDX 17 1 16 2 15 3 13 4 14 5 12 6 11 7 9 8 10 9 8 10 6 11 7 12
REMARK SMILES IDX 101 13 87 14 5 15 1 16 2 17 3 18 103 19 4 20 102 21 88 22
REMARK SMILES IDX 89 23 90 24 99 25 91 26 98 27 100 28 92 29 97 30 93 31 95 32
REMARK SMILES IDX 94 33 96 34 18 35 19 36 20 37 21 38 22 39 23 40 24 41 25 42
REMARK SMILES IDX 86 43 26 44 85 45 27 46 28 47 29 48 79 49 30 50 84 51 78 52
REMARK SMILES IDX 80 53 31 54 83 55 77 56 76 57 32 59 64 60 44 61 63 62 45 63
REMARK SMILES IDX 48 64 62 65 81 66 46 67 47 68 61 70 82 71 49 72 33 73 34 74
REMARK SMILES IDX 42 75 35 76 37 77 43 78 36 79 38 80 39 81 40 82 41 83 65 84
REMARK SMILES IDX 66 85 74 86 67 87 69 88 75 89 68 90 70 91 71 92 72 93 73 94
REMARK SMILES IDX 50 95 51 96 59 97 52 98 54 99 60 100 53 101 55 102 56 103
REMARK SMILES IDX 57 104 58 105
REMARK H PARENT 80 58 48 69
REMARK Flexibility Score: inf
ROOT
ATOM      1  C   UNL A   1      43.786  18.905  25.172  1.00  0.00     0.202 C 
ENDROOT
BRANCH   1   2
ATOM      2  C   UNL A   1      44.664  19.570  24.145  1.00  0.00     0.261 C 
BRANCH   2   3
ATOM      3  O   UNL A   1      44.548  20.977  24.216  1.00  0.00    -0.463 OA
BRANCH   3   4
ATOM      4  C   UNL A   1      45.500  21.535  25.007  1.00  0.00     0.306 C 
ATOM      5  O   UNL A   1      46.673  21.302  25.000  1.00  0.00    -0.252 OA
BRANCH   4   6
ATOM      6  C   UNL A   1      44.845  22.536  25.915  1.00  0.00     0.132 C 
BRANCH   6   7
ATOM      7  C   UNL A   1      45.430  23.933  25.809  1.00  0.00     0.114 C 
BRANCH   7   8
ATOM      8  C   UNL A   1      46.402  24.457  26.903  1.00  0.00     0.243 C 
ATOM      9  O   UNL A   1      47.571  24.062  26.716  1.00  0.00    -0.273 OA
BRANCH   8  10
ATOM     10  N   UNL A   1      46.135  25.508  27.846  1.00  0.00    -0.230 N 
ATOM     11  C   UNL A   1      45.588  27.676  27.772  1.00  0.00     0.070 C 
ATOM     12  N   UNL A   1      45.382  26.560  27.169  1.00  0.00    -0.174 NA
ATOM     13  C   UNL A   1      46.450  27.515  28.991  1.00  0.00     0.086 C 
ATOM     14  C   UNL A   1      46.506  25.978  29.584  1.00  0.00     0.118 C 
BRANCH  11  15
ATOM     15  C   UNL A   1      45.244  29.101  27.258  1.00  0.00    -0.002 A 
ATOM     16  C   UNL A   1      44.208  33.363  27.145  1.00  0.00     0.044 C 
ATOM     17  C   UNL A   1      44.593  31.910  27.122  1.00  0.00    -0.051 A 
ATOM     18  C   UNL A   1      45.671  31.367  26.403  1.00  0.00     0.004 A 
ATOM     19  C   UNL A   1      43.784  31.020  27.801  1.00  0.00     0.004 A 
ATOM     20  C   UNL A   1      46.034  29.983  26.518  1.00  0.00     0.010 A 
ATOM     21  C   UNL A   1      44.053  29.650  27.750  1.00  0.00     0.010 A 
ENDBRANCH  11  15
BRANCH  14  22
ATOM     22  C   UNL A   1      45.586  25.196  31.270  1.00  0.00     0.045 C 
BRANCH  22  23
ATOM     23  C   UNL A   1      45.713  25.850  33.114  1.00  0.00     0.106 C 
ATOM     24  C   UNL A   1      44.516  26.653  33.852  1.00  0.00    -0.003 C 
ATOM     25  C   UNL A   1      46.249  24.826  34.187  1.00  0.00     0.253 C 
ATOM     26  C   UNL A   1      43.730  26.082  34.775  1.00  0.00    -0.003 A 
ATOM     27  N   UNL A   1      45.626  24.682  35.439  1.00  0.00    -0.212 NA
ATOM     28  O   UNL A   1      47.227  24.136  33.898  1.00  0.00    -0.272 OA
ATOM     29  C   UNL A   1      42.278  26.201  34.884  1.00  0.00     0.010 A 
ATOM     30  C   UNL A   1      44.472  25.213  35.697  1.00  0.00     0.077 A 
ATOM     31  C   UNL A   1      41.636  25.666  35.931  1.00  0.00     0.001 A 
ATOM     32  C   UNL A   1      43.750  25.138  37.033  1.00  0.00    -0.025 A 
ATOM     33  C   UNL A   1      42.410  25.299  37.090  1.00  0.00     0.005 A 
ATOM     34  C   UNL A   1      44.583  25.222  38.264  1.00  0.00     0.047 C 
ENDBRANCH  22  23
ENDBRANCH  14  22
ENDBRANCH   8  10
ENDBRANCH   7   8
ENDBRANCH   6   7
ENDBRANCH   4   6
ENDBRANCH   3   4
ENDBRANCH   2   3
ENDBRANCH   1   2
BRANCH   1  35
ATOM     35  O   UNL A   1      42.594  19.653  25.402  1.00  0.00    -0.374 OA
BRANCH  35  36
ATOM     36  C   UNL A   1      42.085  20.214  26.655  1.00  0.00     0.202 C 
BRANCH  36  37
ATOM     37  C   UNL A   1      41.121  21.688  26.777  1.00  0.00     0.261 C 
BRANCH  37  38
ATOM     38  O   UNL A   1      41.065  23.174  27.974  1.00  0.00    -0.460 OA
BRANCH  38  39
ATOM     39  C   UNL A   1      41.490  24.829  28.073  1.00  0.00     0.338 C 
ATOM     40  O   UNL A   1      42.675  25.028  28.344  1.00  0.00    -0.246 OA
BRANCH  39  41
ATOM     41  C   UNL A   1      40.352  26.282  27.972  1.00  0.00     0.060 A 
ATOM     42  C   UNL A   1      40.764  27.536  27.459  1.00  0.00     0.016 A 
ATOM     43  C   UNL A   1      39.167  26.496  28.715  1.00  0.00     0.016 A 
ATOM     44  C   UNL A   1      40.523  28.776  28.193  1.00  0.00     0.010 A 
ATOM     45  C   UNL A   1      38.915  27.713  29.436  1.00  0.00     0.010 A 
ATOM     46  C   UNL A   1      39.762  28.823  29.355  1.00  0.00    -0.014 A 
BRANCH  46  47
ATOM     47  C   UNL A   1      39.808  29.851  30.499  1.00  0.00     0.031 A 
ATOM     48  C   UNL A   1      40.842  29.711  31.630  1.00  0.00     0.074 A 
ATOM     49  C   UNL A   1      39.252  31.124  30.452  1.00  0.00     0.049 A 
ATOM     50  N   UNL A   1      41.014  30.586  32.581  1.00  0.00    -0.248 NA
ATOM     51  C   UNL A   1      41.764  28.586  31.791  1.00  0.00     0.031 C 
ATOM     52  C   UNL A   1      39.971  32.299  31.012  1.00  0.00     0.029 A 
ATOM     53  N   UNL A   1      38.175  31.791  29.821  1.00  0.00    -0.354 N 
ATOM     54  C   UNL A   1      42.244  30.380  33.157  1.00  0.00     0.074 A 
ATOM     55  C   UNL A   1      42.563  29.024  32.782  1.00  0.00     0.031 C 
ATOM     56  C   UNL A   1      39.288  33.426  30.845  1.00  0.00     0.029 A 
ATOM     57  C   UNL A   1      37.973  33.080  30.395  1.00  0.00     0.049 A 
ATOM     58  H   UNL A   1      37.638  31.416  29.086  1.00  0.00     0.167 HD
ATOM     59  C   UNL A   1      42.920  31.405  33.766  1.00  0.00     0.034 A 
ATOM     60  C   UNL A   1      36.887  33.839  30.770  1.00  0.00     0.034 A 
ATOM     61  C   UNL A   1      42.160  32.673  33.843  1.00  0.00     0.049 A 
ATOM     62  C   UNL A   1      37.026  34.378  32.181  1.00  0.00     0.074 A 
ATOM     63  C   UNL A   1      42.344  33.962  33.364  1.00  0.00     0.029 A 
ATOM     64  N   UNL A   1      40.913  32.683  34.455  1.00  0.00    -0.354 N 
ATOM     65  N   UNL A   1      38.139  34.687  32.780  1.00  0.00    -0.248 NA
ATOM     66  C   UNL A   1      35.885  34.291  33.096  1.00  0.00     0.031 C 
ATOM     67  C   UNL A   1      41.178  34.730  33.680  1.00  0.00     0.029 A 
ATOM     68  C   UNL A   1      40.309  33.934  34.408  1.00  0.00     0.049 A 
ATOM     69  H   UNL A   1      40.504  31.893  34.874  1.00  0.00     0.167 HD
ATOM     70  C   UNL A   1      37.962  34.347  34.102  1.00  0.00     0.074 A 
ATOM     71  C   UNL A   1      36.535  34.112  34.244  1.00  0.00     0.031 C 
ATOM     72  C   UNL A   1      38.973  34.088  34.984  1.00  0.00     0.034 A 
BRANCH  59  73
ATOM     73  C   UNL A   1      44.359  31.327  34.281  1.00  0.00     0.023 A 
ATOM     74  C   UNL A   1      45.325  32.176  33.686  1.00  0.00     0.012 A 
ATOM     75  C   UNL A   1      44.843  30.455  35.285  1.00  0.00     0.148 A 
ATOM     76  C   UNL A   1      46.670  32.190  34.089  1.00  0.00     0.002 A 
ATOM     77  C   UNL A   1      46.161  30.535  35.752  1.00  0.00     0.091 A 
ATOM     78  F   UNL A   1      44.065  29.462  35.730  1.00  0.00    -0.205 F 
ATOM     79  C   UNL A   1      47.083  31.394  35.148  1.00  0.00     0.022 A 
BRANCH  77  80
ATOM     80  S   UNL A   1      46.728  29.603  37.189  1.00  0.00     0.127 S 
ATOM     81  O   UNL A   1      48.172  29.834  37.159  1.00  0.00    -0.237 OA
ATOM     82  O   UNL A   1      46.030  30.264  38.293  1.00  0.00    -0.237 OA
ATOM     83  O   UNL A   1      46.310  28.225  36.959  1.00  0.00    -0.744 OA
ENDBRANCH  77  80
ENDBRANCH  59  73
BRANCH  60  84
ATOM     84  C   UNL A   1      35.529  33.522  30.253  1.00  0.00     0.023 A 
ATOM     85  C   UNL A   1      35.079  34.448  29.309  1.00  0.00     0.012 A 
ATOM     86  C   UNL A   1      35.293  32.155  30.086  1.00  0.00     0.148 A 
ATOM     87  C   UNL A   1      34.935  33.985  28.022  1.00  0.00     0.002 A 
ATOM     88  C   UNL A   1      35.273  31.689  28.812  1.00  0.00     0.091 A 
ATOM     89  F   UNL A   1      35.382  31.307  31.115  1.00  0.00    -0.205 F 
ATOM     90  C   UNL A   1      35.175  32.631  27.790  1.00  0.00     0.022 A 
BRANCH  88  91
ATOM     91  S   UNL A   1      35.839  30.007  28.559  1.00  0.00     0.127 S 
ATOM     92  O   UNL A   1      36.160  29.579  29.913  1.00  0.00    -0.237 OA
ATOM     93  O   UNL A   1      34.675  29.361  27.973  1.00  0.00    -0.237 OA
ATOM     94  O   UNL A   1      36.946  30.124  27.621  1.00  0.00    -0.744 OA
ENDBRANCH  88  91
ENDBRANCH  60  84
BRANCH  72  95
ATOM     95  C   UNL A   1      38.672  33.861  36.460  1.00  0.00     0.023 A 
ATOM     96  C   UNL A   1      39.226  34.709  37.450  1.00  0.00     0.012 A 
ATOM     97  C   UNL A   1      37.933  32.760  36.939  1.00  0.00     0.148 A 
ATOM     98  C   UNL A   1      38.894  34.618  38.801  1.00  0.00     0.002 A 
ATOM     99  C   UNL A   1      37.696  32.601  38.303  1.00  0.00     0.091 A 
ATOM    100  F   UNL A   1      37.482  31.837  36.085  1.00  0.00    -0.205 F 
ATOM    101  C   UNL A   1      38.119  33.560  39.229  1.00  0.00     0.022 A 
BRANCH  99 102
ATOM    102  S   UNL A   1      36.964  31.110  38.984  1.00  0.00     0.127 S 
ATOM    103  O   UNL A   1      37.723  30.962  40.228  1.00  0.00    -0.237 OA
ATOM    104  O   UNL A   1      35.570  31.514  39.165  1.00  0.00    -0.237 OA
ATOM    105  O   UNL A   1      37.184  30.059  38.004  1.00  0.00    -0.744 OA
ENDBRANCH  99 102
ENDBRANCH  72  95
ENDBRANCH  46  47
ENDBRANCH  39  41
ENDBRANCH  38  39
ENDBRANCH  37  38
ENDBRANCH  36  37
ENDBRANCH  35  36
ENDBRANCH   1  35
TORSDOF 23
ENDMDL
