MODEL 1
REMARK VINA RESULT:     -12.1      0.000      0.000
REMARK SMILES Cc1c(NC(=O)c2ccc(Br)cc2N)cccc1C(=O)OCCOCCOC(=O)c1ccc(-c2c3nc(c(-c4cccc(S(=O)(=O)[O-])c4F)c4ccc([nH]4)c(-c4cccc(S(=O)(=O)[O-])c4F)c4nc(c(-c5cccc(S(=O)(=O)[O-])c5F)c5ccc2[nH]5)C=C4)C=C3)cc1
REMARK SMILES IDX 24 1 23 2 22 3 21 4 19 5 20 6 18 7 1 8 2 9 3 10 15 11 17 12
REMARK SMILES IDX 16 13 4 14 5 15 6 17 7 18 8 19 13 20 9 21 12 22 10 23 11 24
REMARK SMILES IDX 14 25 25 28 26 29 27 30 28 31 29 32 30 33 31 34 92 35 32 36
REMARK SMILES IDX 91 37 33 38 34 39 35 40 85 41 36 42 90 43 84 44 86 45 37 46
REMARK SMILES IDX 89 47 83 48 82 49 38 51 70 52 50 53 69 54 51 55 54 56 68 57
REMARK SMILES IDX 87 58 52 59 53 60 67 62 88 63 55 64 39 65 40 66 48 67 41 68
REMARK SMILES IDX 43 69 49 70 42 71 44 72 45 73 46 74 47 75 71 76 72 77 80 78
REMARK SMILES IDX 73 79 75 80 81 81 74 82 76 83 77 84 78 85 79 86 56 87 57 88
REMARK SMILES IDX 65 89 58 90 60 91 66 92 59 93 61 94 62 95 63 96 64 97
REMARK H PARENT 4 16 14 26 14 27 86 50 54 61
REMARK Flexibility Score: inf
ROOT
ATOM      1  O   UNL A   1      41.110  19.590  25.381  1.00  0.00    -0.374 OA
ENDROOT
BRANCH   1   2
ATOM      2  C   UNL A   1      39.987  19.994  26.145  1.00  0.00     0.202 C 
BRANCH   2   3
ATOM      3  C   UNL A   1      39.625  21.470  26.043  1.00  0.00     0.261 C 
BRANCH   3   4
ATOM      4  O   UNL A   1      38.266  21.615  25.679  1.00  0.00    -0.460 OA
BRANCH   4   5
ATOM      5  C   UNL A   1      37.796  22.847  25.956  1.00  0.00     0.338 C 
ATOM      6  O   UNL A   1      38.311  23.698  26.667  1.00  0.00    -0.246 OA
BRANCH   5   7
ATOM      7  C   UNL A   1      36.703  23.111  25.020  1.00  0.00     0.065 A 
ATOM      8  C   UNL A   1      34.899  23.374  26.832  1.00  0.00     0.047 C 
ATOM      9  C   UNL A   1      35.353  23.299  25.393  1.00  0.00    -0.013 A 
ATOM     10  C   UNL A   1      34.403  23.283  24.357  1.00  0.00     0.045 A 
ATOM     11  C   UNL A   1      34.810  23.181  23.015  1.00  0.00     0.026 A 
ATOM     12  C   UNL A   1      37.097  23.006  23.679  1.00  0.00     0.016 A 
ATOM     13  C   UNL A   1      36.151  23.046  22.676  1.00  0.00     0.003 A 
BRANCH  10  14
ATOM     14  N   UNL A   1      33.037  23.329  24.700  1.00  0.00    -0.322 N 
ATOM     15  C   UNL A   1      32.056  22.381  24.523  1.00  0.00     0.257 C 
ATOM     16  H   UNL A   1      32.740  24.164  25.129  1.00  0.00     0.170 HD
ATOM     17  O   UNL A   1      30.871  22.689  24.643  1.00  0.00    -0.269 OA
BRANCH  15  18
ATOM     18  C   UNL A   1      32.406  20.964  24.249  1.00  0.00     0.063 A 
ATOM     19  C   UNL A   1      33.027  20.278  25.306  1.00  0.00     0.017 A 
ATOM     20  C   UNL A   1      32.137  20.312  23.025  1.00  0.00     0.045 A 
ATOM     21  C   UNL A   1      33.366  18.935  25.166  1.00  0.00     0.016 A 
ATOM     22  C   UNL A   1      32.506  18.965  22.901  1.00  0.00     0.042 A 
ATOM     23  C   UNL A   1      33.099  18.284  23.967  1.00  0.00     0.020 A 
ATOM     24  Br  UNL A   1      33.568  16.463  23.768  1.00  0.00    -0.051 Br
BRANCH  20  25
ATOM     25  N   UNL A   1      31.679  20.970  21.881  1.00  0.00    -0.398 N 
ATOM     26  H   UNL A   1      30.763  21.330  21.854  1.00  0.00     0.156 HD
ATOM     27  H   UNL A   1      32.271  21.073  21.102  1.00  0.00     0.156 HD
ENDBRANCH  20  25
ENDBRANCH  15  18
ENDBRANCH  10  14
ENDBRANCH   5   7
ENDBRANCH   4   5
ENDBRANCH   3   4
ENDBRANCH   2   3
ENDBRANCH   1   2
BRANCH   1  28
ATOM     28  C   UNL A   1      42.119  18.853  26.063  1.00  0.00     0.202 C 
BRANCH  28  29
ATOM     29  C   UNL A   1      43.594  18.793  25.532  1.00  0.00     0.261 C 
BRANCH  29  30
ATOM     30  O   UNL A   1      43.962  19.943  24.717  1.00  0.00    -0.460 OA
BRANCH  30  31
ATOM     31  C   UNL A   1      44.598  21.028  25.274  1.00  0.00     0.338 C 
ATOM     32  O   UNL A   1      45.793  21.084  25.503  1.00  0.00    -0.246 OA
BRANCH  31  33
ATOM     33  C   UNL A   1      43.608  22.132  25.561  1.00  0.00     0.060 A 
ATOM     34  C   UNL A   1      43.420  23.191  24.672  1.00  0.00     0.016 A 
ATOM     35  C   UNL A   1      43.013  22.233  26.811  1.00  0.00     0.016 A 
ATOM     36  C   UNL A   1      42.980  24.451  25.134  1.00  0.00     0.010 A 
ATOM     37  C   UNL A   1      42.657  23.494  27.298  1.00  0.00     0.010 A 
ATOM     38  C   UNL A   1      42.764  24.644  26.494  1.00  0.00    -0.014 A 
BRANCH  38  39
ATOM     39  C   UNL A   1      42.936  25.948  27.188  1.00  0.00     0.031 A 
ATOM     40  C   UNL A   1      41.773  26.811  27.563  1.00  0.00     0.074 A 
ATOM     41  C   UNL A   1      44.117  26.227  27.812  1.00  0.00     0.049 A 
ATOM     42  N   UNL A   1      41.896  27.987  28.093  1.00  0.00    -0.248 NA
ATOM     43  C   UNL A   1      40.375  26.457  27.331  1.00  0.00     0.031 C 
ATOM     44  C   UNL A   1      44.266  27.019  29.038  1.00  0.00     0.029 A 
ATOM     45  N   UNL A   1      45.441  25.872  27.507  1.00  0.00    -0.354 N 
ATOM     46  C   UNL A   1      40.668  28.350  28.592  1.00  0.00     0.074 A 
ATOM     47  C   UNL A   1      39.736  27.452  27.959  1.00  0.00     0.031 C 
ATOM     48  C   UNL A   1      45.559  27.260  29.271  1.00  0.00     0.029 A 
ATOM     49  C   UNL A   1      46.303  26.791  28.127  1.00  0.00     0.049 A 
ATOM     50  H   UNL A   1      45.718  25.108  26.950  1.00  0.00     0.167 HD
ATOM     51  C   UNL A   1      40.585  29.287  29.578  1.00  0.00     0.034 A 
ATOM     52  C   UNL A   1      47.330  27.477  27.556  1.00  0.00     0.034 A 
ATOM     53  C   UNL A   1      41.879  29.947  29.819  1.00  0.00     0.049 A 
ATOM     54  C   UNL A   1      47.065  28.974  27.567  1.00  0.00     0.074 A 
ATOM     55  C   UNL A   1      42.783  29.951  30.866  1.00  0.00     0.029 A 
ATOM     56  N   UNL A   1      42.512  30.601  28.763  1.00  0.00    -0.354 N 
ATOM     57  N   UNL A   1      46.149  29.555  28.297  1.00  0.00    -0.248 NA
ATOM     58  C   UNL A   1      47.754  29.934  26.706  1.00  0.00     0.031 C 
ATOM     59  C   UNL A   1      44.009  30.497  30.382  1.00  0.00     0.029 A 
ATOM     60  C   UNL A   1      43.840  30.880  29.060  1.00  0.00     0.049 A 
ATOM     61  H   UNL A   1      42.073  30.835  27.913  1.00  0.00     0.167 HD
ATOM     62  C   UNL A   1      45.897  30.805  27.798  1.00  0.00     0.074 A 
ATOM     63  C   UNL A   1      47.030  31.049  26.920  1.00  0.00     0.031 C 
ATOM     64  C   UNL A   1      44.721  31.471  28.042  1.00  0.00     0.034 A 
BRANCH  51  65
ATOM     65  C   UNL A   1      39.348  29.564  30.422  1.00  0.00     0.023 A 
ATOM     66  C   UNL A   1      39.047  28.656  31.462  1.00  0.00     0.012 A 
ATOM     67  C   UNL A   1      38.416  30.616  30.229  1.00  0.00     0.148 A 
ATOM     68  C   UNL A   1      37.914  28.797  32.278  1.00  0.00     0.002 A 
ATOM     69  C   UNL A   1      37.333  30.806  31.096  1.00  0.00     0.091 A 
ATOM     70  F   UNL A   1      38.502  31.391  29.142  1.00  0.00    -0.205 F 
ATOM     71  C   UNL A   1      37.071  29.888  32.115  1.00  0.00     0.022 A 
BRANCH  69  72
ATOM     72  S   UNL A   1      36.251  32.247  30.994  1.00  0.00     0.127 S 
ATOM     73  O   UNL A   1      35.574  32.037  29.714  1.00  0.00    -0.237 OA
ATOM     74  O   UNL A   1      35.392  32.082  32.167  1.00  0.00    -0.237 OA
ATOM     75  O   UNL A   1      37.126  33.412  31.053  1.00  0.00    -0.744 OA
ENDBRANCH  69  72
ENDBRANCH  51  65
BRANCH  52  76
ATOM     76  C   UNL A   1      48.118  26.687  26.578  1.00  0.00     0.023 A 
ATOM     77  C   UNL A   1      47.711  26.801  25.226  1.00  0.00     0.012 A 
ATOM     78  C   UNL A   1      49.435  26.301  26.863  1.00  0.00     0.148 A 
ATOM     79  C   UNL A   1      48.632  26.673  24.185  1.00  0.00     0.002 A 
ATOM     80  C   UNL A   1      50.361  26.244  25.824  1.00  0.00     0.091 A 
ATOM     81  F   UNL A   1      49.792  26.175  28.148  1.00  0.00    -0.205 F 
ATOM     82  C   UNL A   1      49.966  26.441  24.490  1.00  0.00     0.022 A 
BRANCH  80  83
ATOM     83  S   UNL A   1      52.131  26.273  26.126  1.00  0.00     0.127 S 
ATOM     84  O   UNL A   1      52.263  27.340  27.111  1.00  0.00    -0.237 OA
ATOM     85  O   UNL A   1      52.341  24.925  26.647  1.00  0.00    -0.237 OA
ATOM     86  O   UNL A   1      52.737  26.521  24.826  1.00  0.00    -0.744 OA
ENDBRANCH  80  83
ENDBRANCH  52  76
BRANCH  64  87
ATOM     87  C   UNL A   1      44.274  32.718  27.283  1.00  0.00     0.023 A 
ATOM     88  C   UNL A   1      44.148  32.741  25.879  1.00  0.00     0.012 A 
ATOM     89  C   UNL A   1      43.831  33.877  27.970  1.00  0.00     0.148 A 
ATOM     90  C   UNL A   1      43.703  33.873  25.184  1.00  0.00     0.002 A 
ATOM     91  C   UNL A   1      43.272  34.956  27.282  1.00  0.00     0.091 A 
ATOM     92  F   UNL A   1      43.965  33.954  29.302  1.00  0.00    -0.205 F 
ATOM     93  C   UNL A   1      43.246  34.976  25.887  1.00  0.00     0.022 A 
BRANCH  91  94
ATOM     94  S   UNL A   1      42.415  36.270  28.161  1.00  0.00     0.127 S 
ATOM     95  O   UNL A   1      41.974  37.133  27.069  1.00  0.00    -0.237 OA
ATOM     96  O   UNL A   1      41.335  35.547  28.839  1.00  0.00    -0.237 OA
ATOM     97  O   UNL A   1      43.414  36.825  29.065  1.00  0.00    -0.744 OA
ENDBRANCH  91  94
ENDBRANCH  64  87
ENDBRANCH  38  39
ENDBRANCH  31  33
ENDBRANCH  30  31
ENDBRANCH  29  30
ENDBRANCH  28  29
ENDBRANCH   1  28
TORSDOF 20
ENDMDL
MODEL 2
REMARK VINA RESULT:     -11.8      1.753      2.516
REMARK SMILES Cc1c(NC(=O)c2ccc(Br)cc2N)cccc1C(=O)OCCOCCOC(=O)c1ccc(-c2c3nc(c(-c4cccc(S(=O)(=O)[O-])c4F)c4ccc([nH]4)c(-c4cccc(S(=O)(=O)[O-])c4F)c4nc(c(-c5cccc(S(=O)(=O)[O-])c5F)c5ccc2[nH]5)C=C4)C=C3)cc1
REMARK SMILES IDX 24 1 23 2 22 3 21 4 19 5 20 6 18 7 1 8 2 9 3 10 15 11 17 12
REMARK SMILES IDX 16 13 4 14 5 15 6 17 7 18 8 19 13 20 9 21 12 22 10 23 11 24
REMARK SMILES IDX 14 25 25 28 26 29 27 30 28 31 29 32 30 33 31 34 92 35 32 36
REMARK SMILES IDX 91 37 33 38 34 39 35 40 85 41 36 42 90 43 84 44 86 45 37 46
REMARK SMILES IDX 89 47 83 48 82 49 38 51 70 52 50 53 69 54 51 55 54 56 68 57
REMARK SMILES IDX 87 58 52 59 53 60 67 62 88 63 55 64 39 65 40 66 48 67 41 68
REMARK SMILES IDX 43 69 49 70 42 71 44 72 45 73 46 74 47 75 71 76 72 77 80 78
REMARK SMILES IDX 73 79 75 80 81 81 74 82 76 83 77 84 78 85 79 86 56 87 57 88
REMARK SMILES IDX 65 89 58 90 60 91 66 92 59 93 61 94 62 95 63 96 64 97
REMARK H PARENT 4 16 14 26 14 27 86 50 54 61
REMARK Flexibility Score: inf
ROOT
ATOM      1  O   UNL A   1      41.315  19.396  25.409  1.00  0.00    -0.374 OA
ENDROOT
BRANCH   1   2
ATOM      2  C   UNL A   1      40.148  19.748  26.133  1.00  0.00     0.202 C 
BRANCH   2   3
ATOM      3  C   UNL A   1      39.639  21.166  25.902  1.00  0.00     0.261 C 
BRANCH   3   4
ATOM      4  O   UNL A   1      38.300  21.135  25.448  1.00  0.00    -0.460 OA
BRANCH   4   5
ATOM      5  C   UNL A   1      37.633  22.262  25.762  1.00  0.00     0.338 C 
ATOM      6  O   UNL A   1      38.101  23.314  26.175  1.00  0.00    -0.246 OA
BRANCH   5   7
ATOM      7  C   UNL A   1      36.274  22.118  25.240  1.00  0.00     0.065 A 
ATOM      8  C   UNL A   1      36.752  23.296  23.006  1.00  0.00     0.047 C 
ATOM      9  C   UNL A   1      35.829  22.634  24.003  1.00  0.00    -0.013 A 
ATOM     10  C   UNL A   1      34.441  22.630  23.779  1.00  0.00     0.045 A 
ATOM     11  C   UNL A   1      33.568  22.046  24.713  1.00  0.00     0.026 A 
ATOM     12  C   UNL A   1      35.393  21.542  26.167  1.00  0.00     0.016 A 
ATOM     13  C   UNL A   1      34.041  21.502  25.902  1.00  0.00     0.003 A 
BRANCH  10  14
ATOM     14  N   UNL A   1      33.947  23.260  22.619  1.00  0.00    -0.322 N 
ATOM     15  C   UNL A   1      33.048  24.294  22.498  1.00  0.00     0.257 C 
ATOM     16  H   UNL A   1      34.298  22.908  21.769  1.00  0.00     0.170 HD
ATOM     17  O   UNL A   1      32.536  24.542  21.407  1.00  0.00    -0.269 OA
BRANCH  15  18
ATOM     18  C   UNL A   1      32.727  25.165  23.658  1.00  0.00     0.063 A 
ATOM     19  C   UNL A   1      33.715  26.101  24.003  1.00  0.00     0.017 A 
ATOM     20  C   UNL A   1      31.515  25.093  24.380  1.00  0.00     0.045 A 
ATOM     21  C   UNL A   1      33.501  26.989  25.054  1.00  0.00     0.016 A 
ATOM     22  C   UNL A   1      31.331  25.985  25.446  1.00  0.00     0.042 A 
ATOM     23  C   UNL A   1      32.308  26.931  25.767  1.00  0.00     0.020 A 
ATOM     24  Br  UNL A   1      32.017  28.127  27.202  1.00  0.00    -0.051 Br
BRANCH  20  25
ATOM     25  N   UNL A   1      30.565  24.086  24.203  1.00  0.00    -0.398 N 
ATOM     26  H   UNL A   1      30.793  23.279  23.685  1.00  0.00     0.156 HD
ATOM     27  H   UNL A   1      29.667  24.181  24.594  1.00  0.00     0.156 HD
ENDBRANCH  20  25
ENDBRANCH  15  18
ENDBRANCH  10  14
ENDBRANCH   5   7
ENDBRANCH   4   5
ENDBRANCH   3   4
ENDBRANCH   2   3
ENDBRANCH   1   2
BRANCH   1  28
ATOM     28  C   UNL A   1      42.359  18.766  26.142  1.00  0.00     0.202 C 
BRANCH  28  29
ATOM     29  C   UNL A   1      43.839  18.757  25.620  1.00  0.00     0.261 C 
BRANCH  29  30
ATOM     30  O   UNL A   1      44.164  19.904  24.785  1.00  0.00    -0.460 OA
BRANCH  30  31
ATOM     31  C   UNL A   1      44.770  21.017  25.318  1.00  0.00     0.338 C 
ATOM     32  O   UNL A   1      45.958  21.100  25.574  1.00  0.00    -0.246 OA
BRANCH  31  33
ATOM     33  C   UNL A   1      43.756  22.115  25.543  1.00  0.00     0.060 A 
ATOM     34  C   UNL A   1      43.609  23.166  24.638  1.00  0.00     0.016 A 
ATOM     35  C   UNL A   1      43.094  22.219  26.758  1.00  0.00     0.016 A 
ATOM     36  C   UNL A   1      43.134  24.425  25.067  1.00  0.00     0.010 A 
ATOM     37  C   UNL A   1      42.701  23.480  27.217  1.00  0.00     0.010 A 
ATOM     38  C   UNL A   1      42.842  24.626  26.412  1.00  0.00    -0.014 A 
BRANCH  38  39
ATOM     39  C   UNL A   1      42.966  25.936  27.105  1.00  0.00     0.031 A 
ATOM     40  C   UNL A   1      41.780  26.800  27.392  1.00  0.00     0.074 A 
ATOM     41  C   UNL A   1      44.101  26.221  27.806  1.00  0.00     0.049 A 
ATOM     42  N   UNL A   1      41.866  27.981  27.919  1.00  0.00    -0.248 NA
ATOM     43  C   UNL A   1      40.401  26.443  27.068  1.00  0.00     0.031 C 
ATOM     44  C   UNL A   1      44.166  27.024  29.032  1.00  0.00     0.029 A 
ATOM     45  N   UNL A   1      45.443  25.865  27.595  1.00  0.00    -0.354 N 
ATOM     46  C   UNL A   1      40.606  28.347  28.330  1.00  0.00     0.074 A 
ATOM     47  C   UNL A   1      39.720  27.442  27.642  1.00  0.00     0.031 C 
ATOM     48  C   UNL A   1      45.439  27.268  29.351  1.00  0.00     0.029 A 
ATOM     49  C   UNL A   1      46.260  26.790  28.265  1.00  0.00     0.049 A 
ATOM     50  H   UNL A   1      45.759  25.096  27.065  1.00  0.00     0.167 HD
ATOM     51  C   UNL A   1      40.455  29.292  29.300  1.00  0.00     0.034 A 
ATOM     52  C   UNL A   1      47.324  27.473  27.760  1.00  0.00     0.034 A 
ATOM     53  C   UNL A   1      41.730  29.955  29.623  1.00  0.00     0.049 A 
ATOM     54  C   UNL A   1      47.058  28.969  27.740  1.00  0.00     0.074 A 
ATOM     55  C   UNL A   1      42.559  29.970  30.730  1.00  0.00     0.029 A 
ATOM     56  N   UNL A   1      42.433  30.601  28.607  1.00  0.00    -0.354 N 
ATOM     57  N   UNL A   1      46.094  29.555  28.401  1.00  0.00    -0.248 NA
ATOM     58  C   UNL A   1      47.804  29.923  26.920  1.00  0.00     0.031 C 
ATOM     59  C   UNL A   1      43.815  30.513  30.325  1.00  0.00     0.029 A 
ATOM     60  C   UNL A   1      43.737  30.884  28.992  1.00  0.00     0.049 A 
ATOM     61  H   UNL A   1      42.053  30.827  27.727  1.00  0.00     0.167 HD
ATOM     62  C   UNL A   1      45.876  30.801  27.875  1.00  0.00     0.074 A 
ATOM     63  C   UNL A   1      47.066  31.039  27.074  1.00  0.00     0.031 C 
ATOM     64  C   UNL A   1      44.685  31.468  28.032  1.00  0.00     0.034 A 
BRANCH  51  65
ATOM     65  C   UNL A   1      39.163  29.574  30.055  1.00  0.00     0.023 A 
ATOM     66  C   UNL A   1      38.888  28.792  31.199  1.00  0.00     0.012 A 
ATOM     67  C   UNL A   1      38.161  30.509  29.686  1.00  0.00     0.148 A 
ATOM     68  C   UNL A   1      37.711  28.946  31.948  1.00  0.00     0.002 A 
ATOM     69  C   UNL A   1      37.028  30.721  30.481  1.00  0.00     0.091 A 
ATOM     70  F   UNL A   1      38.234  31.135  28.507  1.00  0.00    -0.205 F 
ATOM     71  C   UNL A   1      36.793  29.930  31.607  1.00  0.00     0.022 A 
BRANCH  69  72
ATOM     72  S   UNL A   1      35.841  32.038  30.144  1.00  0.00     0.127 S 
ATOM     73  O   UNL A   1      35.181  31.560  28.929  1.00  0.00    -0.237 OA
ATOM     74  O   UNL A   1      34.998  32.019  31.340  1.00  0.00    -0.237 OA
ATOM     75  O   UNL A   1      36.626  33.257  29.988  1.00  0.00    -0.744 OA
ENDBRANCH  69  72
ENDBRANCH  51  65
BRANCH  52  76
ATOM     76  C   UNL A   1      48.178  26.676  26.845  1.00  0.00     0.023 A 
ATOM     77  C   UNL A   1      47.638  26.430  25.559  1.00  0.00     0.012 A 
ATOM     78  C   UNL A   1      49.568  26.626  27.021  1.00  0.00     0.148 A 
ATOM     79  C   UNL A   1      48.468  26.281  24.447  1.00  0.00     0.002 A 
ATOM     80  C   UNL A   1      50.387  26.547  25.898  1.00  0.00     0.091 A 
ATOM     81  F   UNL A   1      50.056  26.837  28.250  1.00  0.00    -0.205 F 
ATOM     82  C   UNL A   1      49.842  26.387  24.613  1.00  0.00     0.022 A 
BRANCH  80  83
ATOM     83  S   UNL A   1      52.126  26.990  25.958  1.00  0.00     0.127 S 
ATOM     84  O   UNL A   1      52.733  25.799  26.541  1.00  0.00    -0.237 OA
ATOM     85  O   UNL A   1      52.406  27.191  24.538  1.00  0.00    -0.237 OA
ATOM     86  O   UNL A   1      52.186  28.201  26.764  1.00  0.00    -0.744 OA
ENDBRANCH  80  83
ENDBRANCH  52  76
BRANCH  64  87
ATOM     87  C   UNL A   1      44.290  32.707  27.233  1.00  0.00     0.023 A 
ATOM     88  C   UNL A   1      44.165  32.691  25.829  1.00  0.00     0.012 A 
ATOM     89  C   UNL A   1      43.897  33.905  27.883  1.00  0.00     0.148 A 
ATOM     90  C   UNL A   1      43.768  33.819  25.099  1.00  0.00     0.002 A 
ATOM     91  C   UNL A   1      43.384  34.984  27.161  1.00  0.00     0.091 A 
ATOM     92  F   UNL A   1      44.034  34.019  29.212  1.00  0.00    -0.205 F 
ATOM     93  C   UNL A   1      43.358  34.962  25.766  1.00  0.00     0.022 A 
BRANCH  91  94
ATOM     94  S   UNL A   1      42.582  36.360  27.998  1.00  0.00     0.127 S 
ATOM     95  O   UNL A   1      43.677  36.923  28.782  1.00  0.00    -0.237 OA
ATOM     96  O   UNL A   1      42.141  37.199  26.880  1.00  0.00    -0.237 OA
ATOM     97  O   UNL A   1      41.491  35.752  28.748  1.00  0.00    -0.744 OA
ENDBRANCH  91  94
ENDBRANCH  64  87
ENDBRANCH  38  39
ENDBRANCH  31  33
ENDBRANCH  30  31
ENDBRANCH  29  30
ENDBRANCH  28  29
ENDBRANCH   1  28
TORSDOF 20
ENDMDL
MODEL 3
REMARK VINA RESULT:     -11.5      4.289     10.041
REMARK SMILES Cc1c(NC(=O)c2ccc(Br)cc2N)cccc1C(=O)OCCOCCOC(=O)c1ccc(-c2c3nc(c(-c4cccc(S(=O)(=O)[O-])c4F)c4ccc([nH]4)c(-c4cccc(S(=O)(=O)[O-])c4F)c4nc(c(-c5cccc(S(=O)(=O)[O-])c5F)c5ccc2[nH]5)C=C4)C=C3)cc1
REMARK SMILES IDX 24 1 23 2 22 3 21 4 19 5 20 6 18 7 1 8 2 9 3 10 15 11 17 12
REMARK SMILES IDX 16 13 4 14 5 15 6 17 7 18 8 19 13 20 9 21 12 22 10 23 11 24
REMARK SMILES IDX 14 25 25 28 26 29 27 30 28 31 29 32 30 33 31 34 92 35 32 36
REMARK SMILES IDX 91 37 33 38 34 39 35 40 85 41 36 42 90 43 84 44 86 45 37 46
REMARK SMILES IDX 89 47 83 48 82 49 38 51 70 52 50 53 69 54 51 55 54 56 68 57
REMARK SMILES IDX 87 58 52 59 53 60 67 62 88 63 55 64 39 65 40 66 48 67 41 68
REMARK SMILES IDX 43 69 49 70 42 71 44 72 45 73 46 74 47 75 71 76 72 77 80 78
REMARK SMILES IDX 73 79 75 80 81 81 74 82 76 83 77 84 78 85 79 86 56 87 57 88
REMARK SMILES IDX 65 89 58 90 60 91 66 92 59 93 61 94 62 95 63 96 64 97
REMARK H PARENT 4 16 14 26 14 27 86 50 54 61
REMARK Flexibility Score: inf
ROOT
ATOM      1  O   UNL A   1      33.528  32.773  27.844  1.00  0.00    -0.374 OA
ENDROOT
BRANCH   1   2
ATOM      2  C   UNL A   1      34.051  31.527  27.416  1.00  0.00     0.202 C 
BRANCH   2   3
ATOM      3  C   UNL A   1      33.053  30.377  27.383  1.00  0.00     0.261 C 
BRANCH   3   4
ATOM      4  O   UNL A   1      33.093  29.732  26.125  1.00  0.00    -0.460 OA
BRANCH   4   5
ATOM      5  C   UNL A   1      31.873  29.648  25.560  1.00  0.00     0.338 C 
ATOM      6  O   UNL A   1      31.129  30.569  25.253  1.00  0.00    -0.246 OA
BRANCH   5   7
ATOM      7  C   UNL A   1      31.706  28.270  25.097  1.00  0.00     0.065 A 
ATOM      8  C   UNL A   1      32.912  28.628  22.855  1.00  0.00     0.047 C 
ATOM      9  C   UNL A   1      32.123  27.791  23.836  1.00  0.00    -0.013 A 
ATOM     10  C   UNL A   1      31.656  26.520  23.456  1.00  0.00     0.045 A 
ATOM     11  C   UNL A   1      30.893  25.744  24.347  1.00  0.00     0.026 A 
ATOM     12  C   UNL A   1      30.942  27.490  25.976  1.00  0.00     0.016 A 
ATOM     13  C   UNL A   1      30.539  26.225  25.602  1.00  0.00     0.003 A 
BRANCH  10  14
ATOM     14  N   UNL A   1      31.935  26.065  22.153  1.00  0.00    -0.322 N 
ATOM     15  C   UNL A   1      32.865  25.145  21.725  1.00  0.00     0.257 C 
ATOM     16  H   UNL A   1      31.383  26.463  21.442  1.00  0.00     0.170 HD
ATOM     17  O   UNL A   1      33.146  25.063  20.530  1.00  0.00    -0.269 OA
BRANCH  15  18
ATOM     18  C   UNL A   1      33.495  24.198  22.680  1.00  0.00     0.063 A 
ATOM     19  C   UNL A   1      34.530  24.730  23.466  1.00  0.00     0.017 A 
ATOM     20  C   UNL A   1      33.098  22.850  22.825  1.00  0.00     0.045 A 
ATOM     21  C   UNL A   1      35.166  23.937  24.418  1.00  0.00     0.016 A 
ATOM     22  C   UNL A   1      33.766  22.066  23.776  1.00  0.00     0.042 A 
ATOM     23  C   UNL A   1      34.776  22.611  24.572  1.00  0.00     0.020 A 
ATOM     24  Br  UNL A   1      35.644  21.526  25.855  1.00  0.00    -0.051 Br
BRANCH  20  25
ATOM     25  N   UNL A   1      32.199  22.211  21.969  1.00  0.00    -0.398 N 
ATOM     26  H   UNL A   1      32.136  22.486  21.025  1.00  0.00     0.156 HD
ATOM     27  H   UNL A   1      31.627  21.485  22.308  1.00  0.00     0.156 HD
ENDBRANCH  20  25
ENDBRANCH  15  18
ENDBRANCH  10  14
ENDBRANCH   5   7
ENDBRANCH   4   5
ENDBRANCH   3   4
ENDBRANCH   2   3
ENDBRANCH   1   2
BRANCH   1  28
ATOM     28  C   UNL A   1      34.467  33.818  28.077  1.00  0.00     0.202 C 
BRANCH  28  29
ATOM     29  C   UNL A   1      35.113  34.042  29.488  1.00  0.00     0.261 C 
BRANCH  29  30
ATOM     30  O   UNL A   1      36.182  33.101  29.791  1.00  0.00    -0.460 OA
BRANCH  30  31
ATOM     31  C   UNL A   1      35.952  32.001  30.585  1.00  0.00     0.338 C 
ATOM     32  O   UNL A   1      35.333  32.025  31.633  1.00  0.00    -0.246 OA
BRANCH  31  33
ATOM     33  C   UNL A   1      36.576  30.768  29.974  1.00  0.00     0.060 A 
ATOM     34  C   UNL A   1      36.709  29.584  30.700  1.00  0.00     0.016 A 
ATOM     35  C   UNL A   1      37.223  30.844  28.749  1.00  0.00     0.016 A 
ATOM     36  C   UNL A   1      37.737  28.665  30.397  1.00  0.00     0.010 A 
ATOM     37  C   UNL A   1      38.297  29.987  28.489  1.00  0.00     0.010 A 
ATOM     38  C   UNL A   1      38.647  28.962  29.387  1.00  0.00    -0.014 A 
BRANCH  38  39
ATOM     39  C   UNL A   1      40.058  28.493  29.372  1.00  0.00     0.031 A 
ATOM     40  C   UNL A   1      40.426  27.086  29.024  1.00  0.00     0.074 A 
ATOM     41  C   UNL A   1      41.070  29.407  29.328  1.00  0.00     0.049 A 
ATOM     42  N   UNL A   1      41.636  26.628  29.082  1.00  0.00    -0.248 NA
ATOM     43  C   UNL A   1      39.467  26.055  28.632  1.00  0.00     0.031 C 
ATOM     44  C   UNL A   1      42.354  29.223  28.643  1.00  0.00     0.029 A 
ATOM     45  N   UNL A   1      41.187  30.696  29.872  1.00  0.00    -0.354 N 
ATOM     46  C   UNL A   1      41.662  25.431  28.406  1.00  0.00     0.074 A 
ATOM     47  C   UNL A   1      40.279  25.047  28.289  1.00  0.00     0.031 C 
ATOM     48  C   UNL A   1      43.184  30.222  28.954  1.00  0.00     0.029 A 
ATOM     49  C   UNL A   1      42.552  31.009  29.985  1.00  0.00     0.049 A 
ATOM     50  H   UNL A   1      40.439  31.283  30.130  1.00  0.00     0.167 HD
ATOM     51  C   UNL A   1      42.840  24.955  27.911  1.00  0.00     0.034 A 
ATOM     52  C   UNL A   1      43.202  31.488  31.080  1.00  0.00     0.034 A 
ATOM     53  C   UNL A   1      43.992  25.740  28.385  1.00  0.00     0.049 A 
ATOM     54  C   UNL A   1      44.233  30.494  31.588  1.00  0.00     0.074 A 
ATOM     55  C   UNL A   1      44.897  26.592  27.778  1.00  0.00     0.029 A 
ATOM     56  N   UNL A   1      44.209  25.862  29.756  1.00  0.00    -0.354 N 
ATOM     57  N   UNL A   1      44.670  29.470  30.902  1.00  0.00    -0.248 NA
ATOM     58  C   UNL A   1      44.805  30.521  32.933  1.00  0.00     0.031 C 
ATOM     59  C   UNL A   1      45.566  27.320  28.807  1.00  0.00     0.029 A 
ATOM     60  C   UNL A   1      45.115  26.875  30.040  1.00  0.00     0.049 A 
ATOM     61  H   UNL A   1      43.775  25.300  30.438  1.00  0.00     0.167 HD
ATOM     62  C   UNL A   1      45.260  28.572  31.752  1.00  0.00     0.074 A 
ATOM     63  C   UNL A   1      45.462  29.346  32.966  1.00  0.00     0.031 C 
ATOM     64  C   UNL A   1      45.406  27.244  31.433  1.00  0.00     0.034 A 
BRANCH  51  65
ATOM     65  C   UNL A   1      42.972  23.823  26.901  1.00  0.00     0.023 A 
ATOM     66  C   UNL A   1      43.714  24.075  25.726  1.00  0.00     0.012 A 
ATOM     67  C   UNL A   1      42.363  22.544  26.989  1.00  0.00     0.148 A 
ATOM     68  C   UNL A   1      43.870  23.114  24.715  1.00  0.00     0.002 A 
ATOM     69  C   UNL A   1      42.590  21.556  26.022  1.00  0.00     0.091 A 
ATOM     70  F   UNL A   1      41.473  22.293  27.954  1.00  0.00    -0.205 F 
ATOM     71  C   UNL A   1      43.332  21.843  24.875  1.00  0.00     0.022 A 
BRANCH  69  72
ATOM     72  S   UNL A   1      41.993  19.863  26.208  1.00  0.00     0.127 S 
ATOM     73  O   UNL A   1      40.551  20.019  26.020  1.00  0.00    -0.237 OA
ATOM     74  O   UNL A   1      42.675  19.165  25.118  1.00  0.00    -0.237 OA
ATOM     75  O   UNL A   1      42.406  19.436  27.540  1.00  0.00    -0.744 OA
ENDBRANCH  69  72
ENDBRANCH  51  65
BRANCH  52  76
ATOM     76  C   UNL A   1      42.429  32.491  31.854  1.00  0.00     0.023 A 
ATOM     77  C   UNL A   1      42.297  33.765  31.249  1.00  0.00     0.012 A 
ATOM     78  C   UNL A   1      41.485  32.089  32.809  1.00  0.00     0.148 A 
ATOM     79  C   UNL A   1      41.172  34.559  31.483  1.00  0.00     0.002 A 
ATOM     80  C   UNL A   1      40.335  32.854  32.983  1.00  0.00     0.091 A 
ATOM     81  F   UNL A   1      41.644  30.892  33.388  1.00  0.00    -0.205 F 
ATOM     82  C   UNL A   1      40.171  34.079  32.315  1.00  0.00     0.022 A 
BRANCH  80  83
ATOM     83  S   UNL A   1      38.862  32.189  33.766  1.00  0.00     0.127 S 
ATOM     84  O   UNL A   1      38.681  30.922  33.068  1.00  0.00    -0.237 OA
ATOM     85  O   UNL A   1      39.317  32.070  35.149  1.00  0.00    -0.237 OA
ATOM     86  O   UNL A   1      37.828  33.192  33.553  1.00  0.00    -0.744 OA
ENDBRANCH  80  83
ENDBRANCH  52  76
BRANCH  64  87
ATOM     87  C   UNL A   1      45.782  26.162  32.442  1.00  0.00     0.023 A 
ATOM     88  C   UNL A   1      47.120  25.790  32.687  1.00  0.00     0.012 A 
ATOM     89  C   UNL A   1      44.804  25.572  33.283  1.00  0.00     0.148 A 
ATOM     90  C   UNL A   1      47.467  24.823  33.639  1.00  0.00     0.002 A 
ATOM     91  C   UNL A   1      45.167  24.702  34.314  1.00  0.00     0.091 A 
ATOM     92  F   UNL A   1      43.505  25.834  33.082  1.00  0.00    -0.205 F 
ATOM     93  C   UNL A   1      46.492  24.291  34.467  1.00  0.00     0.022 A 
BRANCH  91  94
ATOM     94  S   UNL A   1      43.982  24.219  35.578  1.00  0.00     0.127 S 
ATOM     95  O   UNL A   1      43.743  25.481  36.273  1.00  0.00    -0.237 OA
ATOM     96  O   UNL A   1      42.849  23.737  34.784  1.00  0.00    -0.237 OA
ATOM     97  O   UNL A   1      44.658  23.177  36.340  1.00  0.00    -0.744 OA
ENDBRANCH  91  94
ENDBRANCH  64  87
ENDBRANCH  38  39
ENDBRANCH  31  33
ENDBRANCH  30  31
ENDBRANCH  29  30
ENDBRANCH  28  29
ENDBRANCH   1  28
TORSDOF 20
ENDMDL
