MODEL 1
REMARK VINA RESULT:     -11.3      0.000      0.000
REMARK SMILES C[C@@H](C(=O)OCCOCCOC(=O)c1ccc(-c2c3nc(c(-c4cccc(S(=O)(=O)[O-])c4F)c4ccc([nH]4)c(-c4cccc(S(=O)(=O)[O-])c4F)c4nc(c(-c5cccc(S(=O)(=O)[O-])c5F)c5ccc2[nH]5)C=C4)C=C3)cc1)c1ccc(Cc2ccoc2)cc1F
REMARK SMILES IDX 8 1 7 2 6 3 5 4 3 5 4 6 2 7 1 8 77 9 78 10 88 11 79 12 87 13
REMARK SMILES IDX 89 14 80 15 81 16 82 17 83 18 86 19 84 20 85 21 9 22 10 23
REMARK SMILES IDX 11 24 12 25 13 26 14 27 15 28 76 29 16 30 75 31 17 32 18 33
REMARK SMILES IDX 19 34 69 35 20 36 74 37 68 38 70 39 21 40 73 41 67 42 66 43
REMARK SMILES IDX 22 45 54 46 34 47 53 48 35 49 38 50 52 51 71 52 36 53 37 54
REMARK SMILES IDX 51 56 72 57 39 58 23 59 24 60 32 61 25 62 27 63 33 64 26 65
REMARK SMILES IDX 28 66 29 67 30 68 31 69 55 70 56 71 64 72 57 73 59 74 65 75
REMARK SMILES IDX 58 76 60 77 61 78 62 79 63 80 40 81 41 82 49 83 42 84 44 85
REMARK SMILES IDX 50 86 43 87 45 88 46 89 47 90 48 91
REMARK H PARENT 70 44 38 55
REMARK Flexibility Score: inf
ROOT
ATOM      1  O   UNL A   1      32.908  29.862  25.333  1.00  0.00    -0.374 OA
ENDROOT
BRANCH   1   2
ATOM      2  C   UNL A   1      33.252  28.631  25.979  1.00  0.00     0.202 C 
BRANCH   2   3
ATOM      3  C   UNL A   1      32.091  27.713  26.381  1.00  0.00     0.261 C 
BRANCH   3   4
ATOM      4  O   UNL A   1      32.372  26.349  26.007  1.00  0.00    -0.463 OA
BRANCH   4   5
ATOM      5  C   UNL A   1      32.871  26.145  24.757  1.00  0.00     0.313 C 
ATOM      6  O   UNL A   1      33.994  26.484  24.400  1.00  0.00    -0.252 OA
BRANCH   5   7
ATOM      7  C   UNL A   1      31.851  25.474  23.824  1.00  0.00     0.129 C 
ATOM      8  C   UNL A   1      32.416  24.938  22.503  1.00  0.00     0.025 C 
BRANCH   7   9
ATOM      9  C   UNL A   1      30.655  26.381  23.560  1.00  0.00     0.002 A 
ATOM     10  C   UNL A   1      29.370  25.994  23.953  1.00  0.00     0.008 A 
ATOM     11  C   UNL A   1      30.795  27.635  22.956  1.00  0.00     0.127 A 
ATOM     12  C   UNL A   1      28.284  26.865  23.791  1.00  0.00     0.004 A 
ATOM     13  C   UNL A   1      29.721  28.504  22.781  1.00  0.00     0.043 A 
ATOM     14  F   UNL A   1      31.989  28.051  22.532  1.00  0.00    -0.207 F 
ATOM     15  C   UNL A   1      28.447  28.135  23.213  1.00  0.00    -0.041 A 
BRANCH  15  16
ATOM     16  C   UNL A   1      27.305  29.115  23.116  1.00  0.00     0.074 C 
BRANCH  16  17
ATOM     17  C   UNL A   1      27.858  30.424  22.671  1.00  0.00    -0.005 A 
ATOM     18  C   UNL A   1      28.315  31.509  23.476  1.00  0.00     0.046 A 
ATOM     19  C   UNL A   1      28.111  30.816  21.370  1.00  0.00     0.198 A 
ATOM     20  C   UNL A   1      28.794  32.468  22.616  1.00  0.00     0.195 A 
ATOM     21  O   UNL A   1      28.679  32.049  21.332  1.00  0.00    -0.472 OA
ENDBRANCH  16  17
ENDBRANCH  15  16
ENDBRANCH   7   9
ENDBRANCH   5   7
ENDBRANCH   4   5
ENDBRANCH   3   4
ENDBRANCH   2   3
ENDBRANCH   1   2
BRANCH   1  22
ATOM     22  C   UNL A   1      31.637  30.415  25.660  1.00  0.00     0.202 C 
BRANCH  22  23
ATOM     23  C   UNL A   1      31.608  31.697  26.497  1.00  0.00     0.261 C 
BRANCH  23  24
ATOM     24  O   UNL A   1      32.475  31.617  27.631  1.00  0.00    -0.460 OA
BRANCH  24  25
ATOM     25  C   UNL A   1      33.389  32.614  27.678  1.00  0.00     0.338 C 
ATOM     26  O   UNL A   1      33.181  33.817  27.587  1.00  0.00    -0.246 OA
BRANCH  25  27
ATOM     27  C   UNL A   1      34.697  32.061  28.049  1.00  0.00     0.060 A 
ATOM     28  C   UNL A   1      34.758  30.683  28.285  1.00  0.00     0.016 A 
ATOM     29  C   UNL A   1      35.827  32.868  28.197  1.00  0.00     0.016 A 
ATOM     30  C   UNL A   1      35.939  30.111  28.740  1.00  0.00     0.010 A 
ATOM     31  C   UNL A   1      37.011  32.294  28.661  1.00  0.00     0.010 A 
ATOM     32  C   UNL A   1      37.054  30.925  28.976  1.00  0.00    -0.014 A 
BRANCH  32  33
ATOM     33  C   UNL A   1      38.201  30.365  29.722  1.00  0.00     0.031 A 
ATOM     34  C   UNL A   1      38.407  30.789  31.149  1.00  0.00     0.074 A 
ATOM     35  C   UNL A   1      39.022  29.473  29.141  1.00  0.00     0.049 A 
ATOM     36  N   UNL A   1      39.338  30.431  31.991  1.00  0.00    -0.248 NA
ATOM     37  C   UNL A   1      37.433  31.747  31.700  1.00  0.00     0.031 C 
ATOM     38  C   UNL A   1      38.900  28.983  27.769  1.00  0.00     0.029 A 
ATOM     39  N   UNL A   1      40.131  28.835  29.632  1.00  0.00    -0.354 N 
ATOM     40  C   UNL A   1      39.085  31.143  33.158  1.00  0.00     0.074 A 
ATOM     41  C   UNL A   1      37.918  31.961  32.913  1.00  0.00     0.031 C 
ATOM     42  C   UNL A   1      39.912  28.135  27.519  1.00  0.00     0.029 A 
ATOM     43  C   UNL A   1      40.764  28.045  28.703  1.00  0.00     0.049 A 
ATOM     44  H   UNL A   1      40.444  28.934  30.561  1.00  0.00     0.167 HD
ATOM     45  C   UNL A   1      39.759  31.108  34.331  1.00  0.00     0.034 A 
ATOM     46  C   UNL A   1      41.914  27.350  28.797  1.00  0.00     0.034 A 
ATOM     47  C   UNL A   1      40.906  30.276  34.567  1.00  0.00     0.049 A 
ATOM     48  C   UNL A   1      42.658  27.348  30.107  1.00  0.00     0.074 A 
ATOM     49  C   UNL A   1      41.633  30.123  35.734  1.00  0.00     0.029 A 
ATOM     50  N   UNL A   1      41.505  29.466  33.613  1.00  0.00    -0.354 N 
ATOM     51  N   UNL A   1      42.344  27.937  31.236  1.00  0.00    -0.248 NA
ATOM     52  C   UNL A   1      43.899  26.562  30.163  1.00  0.00     0.031 C 
ATOM     53  C   UNL A   1      42.695  29.253  35.474  1.00  0.00     0.029 A 
ATOM     54  C   UNL A   1      42.605  28.828  34.157  1.00  0.00     0.049 A 
ATOM     55  H   UNL A   1      41.194  29.363  32.684  1.00  0.00     0.167 HD
ATOM     56  C   UNL A   1      43.325  27.560  32.149  1.00  0.00     0.074 A 
ATOM     57  C   UNL A   1      44.233  26.679  31.442  1.00  0.00     0.031 C 
ATOM     58  C   UNL A   1      43.468  27.917  33.449  1.00  0.00     0.034 A 
BRANCH  45  59
ATOM     59  C   UNL A   1      39.272  31.993  35.447  1.00  0.00     0.023 A 
ATOM     60  C   UNL A   1      38.334  31.501  36.379  1.00  0.00     0.012 A 
ATOM     61  C   UNL A   1      39.779  33.297  35.601  1.00  0.00     0.148 A 
ATOM     62  C   UNL A   1      37.887  32.305  37.427  1.00  0.00     0.002 A 
ATOM     63  C   UNL A   1      39.365  34.075  36.675  1.00  0.00     0.091 A 
ATOM     64  F   UNL A   1      40.650  33.755  34.689  1.00  0.00    -0.205 F 
ATOM     65  C   UNL A   1      38.411  33.586  37.581  1.00  0.00     0.022 A 
BRANCH  63  66
ATOM     66  S   UNL A   1      40.038  35.708  37.004  1.00  0.00     0.127 S 
ATOM     67  O   UNL A   1      39.653  36.435  35.796  1.00  0.00    -0.237 OA
ATOM     68  O   UNL A   1      39.309  36.101  38.210  1.00  0.00    -0.237 OA
ATOM     69  O   UNL A   1      41.470  35.523  37.192  1.00  0.00    -0.744 OA
ENDBRANCH  63  66
ENDBRANCH  45  59
BRANCH  46  70
ATOM     70  C   UNL A   1      42.413  26.573  27.628  1.00  0.00     0.023 A 
ATOM     71  C   UNL A   1      43.242  27.198  26.677  1.00  0.00     0.012 A 
ATOM     72  C   UNL A   1      42.086  25.213  27.465  1.00  0.00     0.148 A 
ATOM     73  C   UNL A   1      43.709  26.493  25.568  1.00  0.00     0.002 A 
ATOM     74  C   UNL A   1      42.600  24.500  26.388  1.00  0.00     0.091 A 
ATOM     75  F   UNL A   1      41.285  24.639  28.374  1.00  0.00    -0.205 F 
ATOM     76  C   UNL A   1      43.396  25.143  25.428  1.00  0.00     0.022 A 
BRANCH  74  77
ATOM     77  S   UNL A   1      42.356  22.731  26.198  1.00  0.00     0.127 S 
ATOM     78  O   UNL A   1      42.956  22.212  27.423  1.00  0.00    -0.237 OA
ATOM     79  O   UNL A   1      40.897  22.634  26.137  1.00  0.00    -0.237 OA
ATOM     80  O   UNL A   1      43.033  22.370  24.959  1.00  0.00    -0.744 OA
ENDBRANCH  74  77
ENDBRANCH  46  70
BRANCH  58  81
ATOM     81  C   UNL A   1      44.623  27.322  34.213  1.00  0.00     0.023 A 
ATOM     82  C   UNL A   1      45.842  28.021  34.307  1.00  0.00     0.012 A 
ATOM     83  C   UNL A   1      44.468  26.103  34.904  1.00  0.00     0.148 A 
ATOM     84  C   UNL A   1      46.903  27.497  35.045  1.00  0.00     0.002 A 
ATOM     85  C   UNL A   1      45.511  25.615  35.681  1.00  0.00     0.091 A 
ATOM     86  F   UNL A   1      43.305  25.446  34.790  1.00  0.00    -0.205 F 
ATOM     87  C   UNL A   1      46.734  26.304  35.742  1.00  0.00     0.022 A 
BRANCH  85  88
ATOM     88  S   UNL A   1      45.349  24.140  36.694  1.00  0.00     0.127 S 
ATOM     89  O   UNL A   1      44.274  24.522  37.607  1.00  0.00    -0.237 OA
ATOM     90  O   UNL A   1      44.980  23.126  35.706  1.00  0.00    -0.237 OA
ATOM     91  O   UNL A   1      46.651  23.933  37.313  1.00  0.00    -0.744 OA
ENDBRANCH  85  88
ENDBRANCH  58  81
ENDBRANCH  32  33
ENDBRANCH  25  27
ENDBRANCH  24  25
ENDBRANCH  23  24
ENDBRANCH  22  23
ENDBRANCH   1  22
TORSDOF 20
ENDMDL
MODEL 2
REMARK VINA RESULT:     -11.3      4.944     10.058
REMARK SMILES C[C@@H](C(=O)OCCOCCOC(=O)c1ccc(-c2c3nc(c(-c4cccc(S(=O)(=O)[O-])c4F)c4ccc([nH]4)c(-c4cccc(S(=O)(=O)[O-])c4F)c4nc(c(-c5cccc(S(=O)(=O)[O-])c5F)c5ccc2[nH]5)C=C4)C=C3)cc1)c1ccc(Cc2ccoc2)cc1F
REMARK SMILES IDX 8 1 7 2 6 3 5 4 3 5 4 6 2 7 1 8 77 9 78 10 88 11 79 12 87 13
REMARK SMILES IDX 89 14 80 15 81 16 82 17 83 18 86 19 84 20 85 21 9 22 10 23
REMARK SMILES IDX 11 24 12 25 13 26 14 27 15 28 76 29 16 30 75 31 17 32 18 33
REMARK SMILES IDX 19 34 69 35 20 36 74 37 68 38 70 39 21 40 73 41 67 42 66 43
REMARK SMILES IDX 22 45 54 46 34 47 53 48 35 49 38 50 52 51 71 52 36 53 37 54
REMARK SMILES IDX 51 56 72 57 39 58 23 59 24 60 32 61 25 62 27 63 33 64 26 65
REMARK SMILES IDX 28 66 29 67 30 68 31 69 55 70 56 71 64 72 57 73 59 74 65 75
REMARK SMILES IDX 58 76 60 77 61 78 62 79 63 80 40 81 41 82 49 83 42 84 44 85
REMARK SMILES IDX 50 86 43 87 45 88 46 89 47 90 48 91
REMARK H PARENT 70 44 38 55
REMARK Flexibility Score: inf
ROOT
ATOM      1  O   UNL A   1      35.782  21.386  25.337  1.00  0.00    -0.374 OA
ENDROOT
BRANCH   1   2
ATOM      2  C   UNL A   1      34.438  21.382  25.834  1.00  0.00     0.202 C 
BRANCH   2   3
ATOM      3  C   UNL A   1      33.501  22.471  25.299  1.00  0.00     0.261 C 
BRANCH   3   4
ATOM      4  O   UNL A   1      33.603  23.665  26.103  1.00  0.00    -0.463 OA
BRANCH   4   5
ATOM      5  C   UNL A   1      33.492  24.855  25.450  1.00  0.00     0.313 C 
ATOM      6  O   UNL A   1      34.281  25.251  24.600  1.00  0.00    -0.252 OA
BRANCH   5   7
ATOM      7  C   UNL A   1      32.281  25.671  25.927  1.00  0.00     0.129 C 
ATOM      8  C   UNL A   1      31.078  24.851  26.407  1.00  0.00     0.025 C 
BRANCH   7   9
ATOM      9  C   UNL A   1      31.845  26.688  24.879  1.00  0.00     0.002 A 
ATOM     10  C   UNL A   1      31.030  26.303  23.810  1.00  0.00     0.008 A 
ATOM     11  C   UNL A   1      32.206  28.037  24.962  1.00  0.00     0.127 A 
ATOM     12  C   UNL A   1      30.557  27.255  22.898  1.00  0.00     0.004 A 
ATOM     13  C   UNL A   1      31.750  28.990  24.054  1.00  0.00     0.043 A 
ATOM     14  F   UNL A   1      33.004  28.464  25.941  1.00  0.00    -0.207 F 
ATOM     15  C   UNL A   1      30.901  28.612  23.013  1.00  0.00    -0.041 A 
BRANCH  15  16
ATOM     16  C   UNL A   1      30.326  29.658  22.091  1.00  0.00     0.074 C 
BRANCH  16  17
ATOM     17  C   UNL A   1      29.087  30.194  22.720  1.00  0.00    -0.005 A 
ATOM     18  C   UNL A   1      28.823  31.525  23.158  1.00  0.00     0.046 A 
ATOM     19  C   UNL A   1      27.904  29.509  22.933  1.00  0.00     0.198 A 
ATOM     20  C   UNL A   1      27.525  31.546  23.607  1.00  0.00     0.195 A 
ATOM     21  O   UNL A   1      26.958  30.323  23.466  1.00  0.00    -0.472 OA
ENDBRANCH  16  17
ENDBRANCH  15  16
ENDBRANCH   7   9
ENDBRANCH   5   7
ENDBRANCH   4   5
ENDBRANCH   3   4
ENDBRANCH   2   3
ENDBRANCH   1   2
BRANCH   1  22
ATOM     22  C   UNL A   1      36.331  20.119  24.987  1.00  0.00     0.202 C 
BRANCH  22  23
ATOM     23  C   UNL A   1      37.854  19.965  25.028  1.00  0.00     0.261 C 
BRANCH  23  24
ATOM     24  O   UNL A   1      38.508  21.180  25.402  1.00  0.00    -0.460 OA
BRANCH  24  25
ATOM     25  C   UNL A   1      39.591  20.985  26.189  1.00  0.00     0.338 C 
ATOM     26  O   UNL A   1      40.273  19.972  26.277  1.00  0.00    -0.246 OA
BRANCH  25  27
ATOM     27  C   UNL A   1      39.972  22.255  26.819  1.00  0.00     0.060 A 
ATOM     28  C   UNL A   1      39.256  23.394  26.432  1.00  0.00     0.016 A 
ATOM     29  C   UNL A   1      41.022  22.341  27.736  1.00  0.00     0.016 A 
ATOM     30  C   UNL A   1      39.632  24.642  26.909  1.00  0.00     0.010 A 
ATOM     31  C   UNL A   1      41.404  23.597  28.209  1.00  0.00     0.010 A 
ATOM     32  C   UNL A   1      40.739  24.752  27.760  1.00  0.00    -0.014 A 
BRANCH  32  33
ATOM     33  C   UNL A   1      41.302  26.091  28.031  1.00  0.00     0.031 A 
ATOM     34  C   UNL A   1      42.684  26.405  27.533  1.00  0.00     0.074 A 
ATOM     35  C   UNL A   1      40.577  27.016  28.684  1.00  0.00     0.049 A 
ATOM     36  N   UNL A   1      43.376  27.505  27.652  1.00  0.00    -0.248 NA
ATOM     37  C   UNL A   1      43.381  25.332  26.802  1.00  0.00     0.031 C 
ATOM     38  C   UNL A   1      39.222  26.819  29.195  1.00  0.00     0.029 A 
ATOM     39  N   UNL A   1      40.891  28.301  29.042  1.00  0.00    -0.354 N 
ATOM     40  C   UNL A   1      44.601  27.249  27.045  1.00  0.00     0.074 A 
ATOM     41  C   UNL A   1      44.561  25.885  26.565  1.00  0.00     0.031 C 
ATOM     42  C   UNL A   1      38.827  27.940  29.822  1.00  0.00     0.029 A 
ATOM     43  C   UNL A   1      39.911  28.918  29.780  1.00  0.00     0.049 A 
ATOM     44  H   UNL A   1      41.739  28.739  28.795  1.00  0.00     0.167 HD
ATOM     45  C   UNL A   1      45.657  28.080  26.892  1.00  0.00     0.034 A 
ATOM     46  C   UNL A   1      39.905  30.128  30.372  1.00  0.00     0.034 A 
ATOM     47  C   UNL A   1      45.676  29.440  27.357  1.00  0.00     0.049 A 
ATOM     48  C   UNL A   1      41.104  31.025  30.207  1.00  0.00     0.074 A 
ATOM     49  C   UNL A   1      46.674  30.386  27.208  1.00  0.00     0.029 A 
ATOM     50  N   UNL A   1      44.655  30.043  28.076  1.00  0.00    -0.354 N 
ATOM     51  N   UNL A   1      42.210  30.811  29.533  1.00  0.00    -0.248 NA
ATOM     52  C   UNL A   1      41.043  32.341  30.858  1.00  0.00     0.031 C 
ATOM     53  C   UNL A   1      46.273  31.549  27.872  1.00  0.00     0.029 A 
ATOM     54  C   UNL A   1      45.006  31.342  28.398  1.00  0.00     0.049 A 
ATOM     55  H   UNL A   1      43.806  29.610  28.323  1.00  0.00     0.167 HD
ATOM     56  C   UNL A   1      42.958  31.979  29.645  1.00  0.00     0.074 A 
ATOM     57  C   UNL A   1      42.170  32.902  30.438  1.00  0.00     0.031 C 
ATOM     58  C   UNL A   1      44.187  32.260  29.147  1.00  0.00     0.034 A 
BRANCH  45  59
ATOM     59  C   UNL A   1      46.877  27.543  26.192  1.00  0.00     0.023 A 
ATOM     60  C   UNL A   1      47.764  26.689  26.878  1.00  0.00     0.012 A 
ATOM     61  C   UNL A   1      47.118  27.847  24.839  1.00  0.00     0.148 A 
ATOM     62  C   UNL A   1      48.890  26.171  26.236  1.00  0.00     0.002 A 
ATOM     63  C   UNL A   1      48.215  27.290  24.193  1.00  0.00     0.091 A 
ATOM     64  F   UNL A   1      46.277  28.682  24.212  1.00  0.00    -0.205 F 
ATOM     65  C   UNL A   1      49.108  26.463  24.892  1.00  0.00     0.022 A 
BRANCH  63  66
ATOM     66  S   UNL A   1      48.538  27.542  22.443  1.00  0.00     0.127 S 
ATOM     67  O   UNL A   1      47.363  28.309  22.033  1.00  0.00    -0.237 OA
ATOM     68  O   UNL A   1      49.785  28.307  22.471  1.00  0.00    -0.237 OA
ATOM     69  O   UNL A   1      48.651  26.213  21.859  1.00  0.00    -0.744 OA
ENDBRANCH  63  66
ENDBRANCH  45  59
BRANCH  46  70
ATOM     70  C   UNL A   1      38.713  30.574  31.146  1.00  0.00     0.023 A 
ATOM     71  C   UNL A   1      38.654  30.340  32.533  1.00  0.00     0.012 A 
ATOM     72  C   UNL A   1      37.647  31.247  30.517  1.00  0.00     0.148 A 
ATOM     73  C   UNL A   1      37.540  30.736  33.274  1.00  0.00     0.002 A 
ATOM     74  C   UNL A   1      36.566  31.690  31.271  1.00  0.00     0.091 A 
ATOM     75  F   UNL A   1      37.716  31.449  29.194  1.00  0.00    -0.205 F 
ATOM     76  C   UNL A   1      36.502  31.419  32.646  1.00  0.00     0.022 A 
BRANCH  74  77
ATOM     77  S   UNL A   1      35.247  32.687  30.570  1.00  0.00     0.127 S 
ATOM     78  O   UNL A   1      35.963  33.898  30.179  1.00  0.00    -0.237 OA
ATOM     79  O   UNL A   1      34.796  31.850  29.458  1.00  0.00    -0.237 OA
ATOM     80  O   UNL A   1      34.266  32.849  31.636  1.00  0.00    -0.744 OA
ENDBRANCH  74  77
ENDBRANCH  46  70
BRANCH  58  81
ATOM     81  C   UNL A   1      44.745  33.637  29.402  1.00  0.00     0.023 A 
ATOM     82  C   UNL A   1      45.450  33.903  30.592  1.00  0.00     0.012 A 
ATOM     83  C   UNL A   1      44.636  34.643  28.421  1.00  0.00     0.148 A 
ATOM     84  C   UNL A   1      46.005  35.162  30.819  1.00  0.00     0.002 A 
ATOM     85  C   UNL A   1      45.238  35.877  28.631  1.00  0.00     0.091 A 
ATOM     86  F   UNL A   1      43.948  34.374  27.302  1.00  0.00    -0.205 F 
ATOM     87  C   UNL A   1      45.910  36.143  29.835  1.00  0.00     0.022 A 
BRANCH  85  88
ATOM     88  S   UNL A   1      45.255  37.166  27.379  1.00  0.00     0.127 S 
ATOM     89  O   UNL A   1      45.962  36.506  26.283  1.00  0.00    -0.237 OA
ATOM     90  O   UNL A   1      43.829  37.386  27.142  1.00  0.00    -0.237 OA
ATOM     91  O   UNL A   1      45.949  38.298  27.978  1.00  0.00    -0.744 OA
ENDBRANCH  85  88
ENDBRANCH  58  81
ENDBRANCH  32  33
ENDBRANCH  25  27
ENDBRANCH  24  25
ENDBRANCH  23  24
ENDBRANCH  22  23
ENDBRANCH   1  22
TORSDOF 20
ENDMDL
MODEL 3
REMARK VINA RESULT:     -11.2      1.331      1.672
REMARK SMILES C[C@@H](C(=O)OCCOCCOC(=O)c1ccc(-c2c3nc(c(-c4cccc(S(=O)(=O)[O-])c4F)c4ccc([nH]4)c(-c4cccc(S(=O)(=O)[O-])c4F)c4nc(c(-c5cccc(S(=O)(=O)[O-])c5F)c5ccc2[nH]5)C=C4)C=C3)cc1)c1ccc(Cc2ccoc2)cc1F
REMARK SMILES IDX 8 1 7 2 6 3 5 4 3 5 4 6 2 7 1 8 77 9 78 10 88 11 79 12 87 13
REMARK SMILES IDX 89 14 80 15 81 16 82 17 83 18 86 19 84 20 85 21 9 22 10 23
REMARK SMILES IDX 11 24 12 25 13 26 14 27 15 28 76 29 16 30 75 31 17 32 18 33
REMARK SMILES IDX 19 34 69 35 20 36 74 37 68 38 70 39 21 40 73 41 67 42 66 43
REMARK SMILES IDX 22 45 54 46 34 47 53 48 35 49 38 50 52 51 71 52 36 53 37 54
REMARK SMILES IDX 51 56 72 57 39 58 23 59 24 60 32 61 25 62 27 63 33 64 26 65
REMARK SMILES IDX 28 66 29 67 30 68 31 69 55 70 56 71 64 72 57 73 59 74 65 75
REMARK SMILES IDX 58 76 60 77 61 78 62 79 63 80 40 81 41 82 49 83 42 84 44 85
REMARK SMILES IDX 50 86 43 87 45 88 46 89 47 90 48 91
REMARK H PARENT 70 44 38 55
REMARK Flexibility Score: inf
ROOT
ATOM      1  O   UNL A   1      31.846  30.104  27.147  1.00  0.00    -0.374 OA
ENDROOT
BRANCH   1   2
ATOM      2  C   UNL A   1      31.864  28.916  26.346  1.00  0.00     0.202 C 
BRANCH   2   3
ATOM      3  C   UNL A   1      33.130  28.054  26.418  1.00  0.00     0.261 C 
BRANCH   3   4
ATOM      4  O   UNL A   1      32.865  26.724  25.928  1.00  0.00    -0.463 OA
BRANCH   4   5
ATOM      5  C   UNL A   1      33.144  26.486  24.616  1.00  0.00     0.313 C 
ATOM      6  O   UNL A   1      34.182  26.827  24.060  1.00  0.00    -0.252 OA
BRANCH   5   7
ATOM      7  C   UNL A   1      31.991  25.772  23.894  1.00  0.00     0.129 C 
ATOM      8  C   UNL A   1      32.380  25.002  22.627  1.00  0.00     0.025 C 
BRANCH   7   9
ATOM      9  C   UNL A   1      30.839  26.727  23.603  1.00  0.00     0.002 A 
ATOM     10  C   UNL A   1      31.005  27.792  22.712  1.00  0.00     0.008 A 
ATOM     11  C   UNL A   1      29.574  26.558  24.178  1.00  0.00     0.127 A 
ATOM     12  C   UNL A   1      29.922  28.615  22.377  1.00  0.00     0.004 A 
ATOM     13  C   UNL A   1      28.494  27.376  23.859  1.00  0.00     0.043 A 
ATOM     14  F   UNL A   1      29.357  25.579  25.056  1.00  0.00    -0.207 F 
ATOM     15  C   UNL A   1      28.650  28.411  22.937  1.00  0.00    -0.041 A 
BRANCH  15  16
ATOM     16  C   UNL A   1      27.457  29.233  22.516  1.00  0.00     0.074 C 
BRANCH  16  17
ATOM     17  C   UNL A   1      27.876  30.662  22.472  1.00  0.00    -0.005 A 
ATOM     18  C   UNL A   1      28.166  31.531  23.566  1.00  0.00     0.046 A 
ATOM     19  C   UNL A   1      28.143  31.412  21.342  1.00  0.00     0.198 A 
ATOM     20  C   UNL A   1      28.571  32.727  23.025  1.00  0.00     0.195 A 
ATOM     21  O   UNL A   1      28.565  32.659  21.671  1.00  0.00    -0.472 OA
ENDBRANCH  16  17
ENDBRANCH  15  16
ENDBRANCH   7   9
ENDBRANCH   5   7
ENDBRANCH   4   5
ENDBRANCH   3   4
ENDBRANCH   2   3
ENDBRANCH   1   2
BRANCH   1  22
ATOM     22  C   UNL A   1      31.360  31.285  26.518  1.00  0.00     0.202 C 
BRANCH  22  23
ATOM     23  C   UNL A   1      32.099  32.598  26.792  1.00  0.00     0.261 C 
BRANCH  23  24
ATOM     24  O   UNL A   1      32.838  32.552  28.015  1.00  0.00    -0.460 OA
BRANCH  24  25
ATOM     25  C   UNL A   1      33.862  33.436  28.056  1.00  0.00     0.338 C 
ATOM     26  O   UNL A   1      33.790  34.658  28.014  1.00  0.00    -0.246 OA
BRANCH  25  27
ATOM     27  C   UNL A   1      35.111  32.724  28.352  1.00  0.00     0.060 A 
ATOM     28  C   UNL A   1      35.006  31.365  28.670  1.00  0.00     0.016 A 
ATOM     29  C   UNL A   1      36.349  33.371  28.354  1.00  0.00     0.016 A 
ATOM     30  C   UNL A   1      36.134  30.658  29.061  1.00  0.00     0.010 A 
ATOM     31  C   UNL A   1      37.481  32.661  28.755  1.00  0.00     0.010 A 
ATOM     32  C   UNL A   1      37.366  31.317  29.152  1.00  0.00    -0.014 A 
BRANCH  32  33
ATOM     33  C   UNL A   1      38.489  30.640  29.834  1.00  0.00     0.031 A 
ATOM     34  C   UNL A   1      38.824  31.045  31.242  1.00  0.00     0.074 A 
ATOM     35  C   UNL A   1      39.174  29.664  29.215  1.00  0.00     0.049 A 
ATOM     36  N   UNL A   1      39.761  30.593  32.031  1.00  0.00    -0.248 NA
ATOM     37  C   UNL A   1      37.992  32.104  31.840  1.00  0.00     0.031 C 
ATOM     38  C   UNL A   1      38.920  29.185  27.858  1.00  0.00     0.029 A 
ATOM     39  N   UNL A   1      40.236  28.913  29.646  1.00  0.00    -0.354 N 
ATOM     40  C   UNL A   1      39.655  31.333  33.204  1.00  0.00     0.074 A 
ATOM     41  C   UNL A   1      38.569  32.271  33.020  1.00  0.00     0.031 C 
ATOM     42  C   UNL A   1      39.819  28.232  27.557  1.00  0.00     0.029 A 
ATOM     43  C   UNL A   1      40.726  28.057  28.689  1.00  0.00     0.049 A 
ATOM     44  H   UNL A   1      40.613  28.981  30.554  1.00  0.00     0.167 HD
ATOM     45  C   UNL A   1      40.390  31.231  34.335  1.00  0.00     0.034 A 
ATOM     46  C   UNL A   1      41.798  27.243  28.723  1.00  0.00     0.034 A 
ATOM     47  C   UNL A   1      41.454  30.281  34.512  1.00  0.00     0.049 A 
ATOM     48  C   UNL A   1      42.615  27.166  29.986  1.00  0.00     0.074 A 
ATOM     49  C   UNL A   1      42.229  30.057  35.635  1.00  0.00     0.029 A 
ATOM     50  N   UNL A   1      41.905  29.409  33.532  1.00  0.00    -0.354 N 
ATOM     51  N   UNL A   1      42.434  27.789  31.126  1.00  0.00    -0.248 NA
ATOM     52  C   UNL A   1      43.766  26.252  29.978  1.00  0.00     0.031 C 
ATOM     53  C   UNL A   1      43.175  29.076  35.322  1.00  0.00     0.029 A 
ATOM     54  C   UNL A   1      42.961  28.659  34.017  1.00  0.00     0.049 A 
ATOM     55  H   UNL A   1      41.530  29.336  32.625  1.00  0.00     0.167 HD
ATOM     56  C   UNL A   1      43.421  27.314  31.983  1.00  0.00     0.074 A 
ATOM     57  C   UNL A   1      44.186  26.337  31.233  1.00  0.00     0.031 C 
ATOM     58  C   UNL A   1      43.679  27.658  33.269  1.00  0.00     0.034 A 
BRANCH  45  59
ATOM     59  C   UNL A   1      40.067  32.167  35.469  1.00  0.00     0.023 A 
ATOM     60  C   UNL A   1      40.748  33.397  35.583  1.00  0.00     0.012 A 
ATOM     61  C   UNL A   1      39.055  31.849  36.394  1.00  0.00     0.148 A 
ATOM     62  C   UNL A   1      40.446  34.281  36.620  1.00  0.00     0.002 A 
ATOM     63  C   UNL A   1      38.728  32.755  37.395  1.00  0.00     0.091 A 
ATOM     64  F   UNL A   1      38.438  30.664  36.284  1.00  0.00    -0.205 F 
ATOM     65  C   UNL A   1      39.430  33.965  37.518  1.00  0.00     0.022 A 
BRANCH  63  66
ATOM     66  S   UNL A   1      37.382  32.475  38.552  1.00  0.00     0.127 S 
ATOM     67  O   UNL A   1      37.469  31.031  38.763  1.00  0.00    -0.237 OA
ATOM     68  O   UNL A   1      37.793  33.284  39.700  1.00  0.00    -0.237 OA
ATOM     69  O   UNL A   1      36.173  32.936  37.884  1.00  0.00    -0.744 OA
ENDBRANCH  63  66
ENDBRANCH  45  59
BRANCH  46  70
ATOM     70  C   UNL A   1      42.141  26.412  27.535  1.00  0.00     0.023 A 
ATOM     71  C   UNL A   1      42.822  26.995  26.449  1.00  0.00     0.012 A 
ATOM     72  C   UNL A   1      41.813  25.043  27.484  1.00  0.00     0.148 A 
ATOM     73  C   UNL A   1      43.140  26.239  25.320  1.00  0.00     0.002 A 
ATOM     74  C   UNL A   1      42.182  24.282  26.381  1.00  0.00     0.091 A 
ATOM     75  F   UNL A   1      41.153  24.510  28.522  1.00  0.00    -0.205 F 
ATOM     76  C   UNL A   1      42.829  24.882  25.291  1.00  0.00     0.022 A 
BRANCH  74  77
ATOM     77  S   UNL A   1      41.938  22.504  26.312  1.00  0.00     0.127 S 
ATOM     78  O   UNL A   1      40.482  22.401  26.304  1.00  0.00    -0.237 OA
ATOM     79  O   UNL A   1      42.588  22.161  25.046  1.00  0.00    -0.237 OA
ATOM     80  O   UNL A   1      42.604  21.968  27.492  1.00  0.00    -0.744 OA
ENDBRANCH  74  77
ENDBRANCH  46  70
BRANCH  58  81
ATOM     81  C   UNL A   1      44.807  26.945  33.970  1.00  0.00     0.023 A 
ATOM     82  C   UNL A   1      46.083  27.539  34.036  1.00  0.00     0.012 A 
ATOM     83  C   UNL A   1      44.577  25.722  34.630  1.00  0.00     0.148 A 
ATOM     84  C   UNL A   1      47.123  26.907  34.717  1.00  0.00     0.002 A 
ATOM     85  C   UNL A   1      45.603  25.125  35.351  1.00  0.00     0.091 A 
ATOM     86  F   UNL A   1      43.360  25.166  34.541  1.00  0.00    -0.205 F 
ATOM     87  C   UNL A   1      46.880  25.709  35.384  1.00  0.00     0.022 A 
BRANCH  85  88
ATOM     88  S   UNL A   1      45.356  23.635  36.325  1.00  0.00     0.127 S 
ATOM     89  O   UNL A   1      44.796  24.177  37.561  1.00  0.00    -0.237 OA
ATOM     90  O   UNL A   1      44.409  22.882  35.504  1.00  0.00    -0.237 OA
ATOM     91  O   UNL A   1      46.669  23.017  36.453  1.00  0.00    -0.744 OA
ENDBRANCH  85  88
ENDBRANCH  58  81
ENDBRANCH  32  33
ENDBRANCH  25  27
ENDBRANCH  24  25
ENDBRANCH  23  24
ENDBRANCH  22  23
ENDBRANCH   1  22
TORSDOF 20
ENDMDL
