MODEL 1
REMARK VINA RESULT:     -12.4      0.000      0.000
REMARK SMILES CC(=O)Nc1cnc(N2CC=C(c3ccccc3C)CC2)c(C(=O)OCCOCCOC(=O)c2ccc(-c3c4nc(c(-c5cccc(S(=O)(=O)[O-])c5F)c5ccc([nH]5)c(-c5cccc(S(=O)(=O)[O-])c5F)c5nc(c(-c6cccc(S(=O)(=O)[O-])c6F)c6ccc3[nH]6)C=C5)C=C4)cc2)c1
REMARK SMILES IDX 29 1 28 2 27 3 26 4 25 5 23 6 24 7 22 8 5 9 6 10 97 11 7 12
REMARK SMILES IDX 8 13 4 14 1 15 2 16 3 17 9 19 10 20 21 21 11 22 20 23 12 24
REMARK SMILES IDX 13 25 14 26 18 27 15 28 17 29 19 30 16 31 30 32 31 33 32 34
REMARK SMILES IDX 33 35 34 36 35 37 96 38 36 39 95 40 37 41 38 42 39 43 89 44
REMARK SMILES IDX 40 45 94 46 88 47 90 48 41 49 93 50 87 51 86 52 42 54 74 55
REMARK SMILES IDX 54 56 73 57 55 58 58 59 72 60 91 61 56 62 57 63 71 65 92 66
REMARK SMILES IDX 59 67 43 68 44 69 52 70 45 71 47 72 53 73 46 74 48 75 49 76
REMARK SMILES IDX 50 77 51 78 75 79 76 80 84 81 77 82 79 83 85 84 78 85 80 86
REMARK SMILES IDX 81 87 82 88 83 89 60 90 61 91 69 92 62 93 64 94 70 95 63 96
REMARK SMILES IDX 65 97 66 98 67 99 68 100
REMARK H PARENT 4 18 90 53 58 64
REMARK Flexibility Score: inf
ROOT
ATOM      1  C   UNL A   1      34.365  30.864  27.584  1.00  0.00     0.202 C 
ENDROOT
BRANCH   1   2
ATOM      2  O   UNL A   1      33.655  29.800  27.007  1.00  0.00    -0.374 OA
BRANCH   2   3
ATOM      3  C   UNL A   1      34.441  28.810  26.357  1.00  0.00     0.202 C 
BRANCH   3   4
ATOM      4  C   UNL A   1      33.463  28.136  25.466  1.00  0.00     0.261 C 
BRANCH   4   5
ATOM      5  O   UNL A   1      33.177  29.008  24.351  1.00  0.00    -0.460 OA
BRANCH   5   6
ATOM      6  C   UNL A   1      32.897  28.473  23.123  1.00  0.00     0.342 C 
ATOM      7  O   UNL A   1      33.647  28.348  22.193  1.00  0.00    -0.246 OA
BRANCH   6   8
ATOM      8  C   UNL A   1      31.484  28.075  23.111  1.00  0.00     0.104 A 
ATOM      9  C   UNL A   1      29.212  28.874  22.929  1.00  0.00     0.060 A 
ATOM     10  C   UNL A   1      28.829  27.592  23.275  1.00  0.00     0.139 A 
ATOM     11  C   UNL A   1      30.565  29.102  22.870  1.00  0.00     0.047 A 
ATOM     12  N   UNL A   1      29.695  26.553  23.446  1.00  0.00    -0.236 NA
ATOM     13  C   UNL A   1      31.037  26.776  23.360  1.00  0.00     0.143 A 
BRANCH   9  14
ATOM     14  N   UNL A   1      28.299  29.926  22.755  1.00  0.00    -0.325 N 
ATOM     15  C   UNL A   1      29.353  31.569  24.315  1.00  0.00     0.114 C 
ATOM     16  C   UNL A   1      28.178  31.080  23.494  1.00  0.00     0.221 C 
ATOM     17  O   UNL A   1      27.140  31.740  23.420  1.00  0.00    -0.275 OA
ATOM     18  H   UNL A   1      27.665  29.826  22.009  1.00  0.00     0.169 HD
ENDBRANCH   9  14
BRANCH  13  19
ATOM     19  N   UNL A   1      31.836  25.684  23.634  1.00  0.00    -0.352 N 
ATOM     20  C   UNL A   1      31.601  24.973  24.891  1.00  0.00     0.146 C 
ATOM     21  C   UNL A   1      32.313  24.835  22.546  1.00  0.00     0.123 C 
ATOM     22  C   UNL A   1      32.822  24.138  25.218  1.00  0.00    -0.002 C 
ATOM     23  C   UNL A   1      33.689  24.275  22.892  1.00  0.00     0.057 C 
ATOM     24  C   UNL A   1      33.802  23.847  24.336  1.00  0.00    -0.041 C 
BRANCH  24  25
ATOM     25  C   UNL A   1      35.031  23.135  24.753  1.00  0.00    -0.020 A 
ATOM     26  C   UNL A   1      36.191  23.883  25.027  1.00  0.00     0.008 A 
ATOM     27  C   UNL A   1      35.089  21.727  24.876  1.00  0.00    -0.044 A 
ATOM     28  C   UNL A   1      37.381  23.255  25.409  1.00  0.00     0.001 A 
ATOM     29  C   UNL A   1      36.289  21.115  25.276  1.00  0.00     0.004 A 
ATOM     30  C   UNL A   1      33.905  20.833  24.621  1.00  0.00     0.045 C 
ATOM     31  C   UNL A   1      37.429  21.872  25.532  1.00  0.00     0.000 A 
ENDBRANCH  24  25
ENDBRANCH  13  19
ENDBRANCH   6   8
ENDBRANCH   5   6
ENDBRANCH   4   5
ENDBRANCH   3   4
ENDBRANCH   2   3
ENDBRANCH   1   2
BRANCH   1  32
ATOM     32  C   UNL A   1      33.489  32.092  27.798  1.00  0.00     0.261 C 
BRANCH  32  33
ATOM     33  O   UNL A   1      34.347  33.222  28.062  1.00  0.00    -0.460 OA
BRANCH  33  34
ATOM     34  C   UNL A   1      34.297  33.701  29.339  1.00  0.00     0.338 C 
ATOM     35  O   UNL A   1      33.381  34.384  29.768  1.00  0.00    -0.246 OA
BRANCH  34  36
ATOM     36  C   UNL A   1      35.605  33.471  30.028  1.00  0.00     0.060 A 
ATOM     37  C   UNL A   1      36.806  33.806  29.381  1.00  0.00     0.016 A 
ATOM     38  C   UNL A   1      35.644  32.672  31.170  1.00  0.00     0.016 A 
ATOM     39  C   UNL A   1      38.011  33.187  29.746  1.00  0.00     0.010 A 
ATOM     40  C   UNL A   1      36.820  32.019  31.488  1.00  0.00     0.010 A 
ATOM     41  C   UNL A   1      37.992  32.209  30.728  1.00  0.00    -0.014 A 
BRANCH  41  42
ATOM     42  C   UNL A   1      39.127  31.369  31.121  1.00  0.00     0.031 A 
ATOM     43  C   UNL A   1      39.254  30.110  30.371  1.00  0.00     0.074 A 
ATOM     44  C   UNL A   1      40.159  31.816  31.884  1.00  0.00     0.049 A 
ATOM     45  N   UNL A   1      40.144  29.217  30.605  1.00  0.00    -0.248 NA
ATOM     46  C   UNL A   1      38.316  29.723  29.319  1.00  0.00     0.031 C 
ATOM     47  C   UNL A   1      41.581  31.474  31.753  1.00  0.00     0.029 A 
ATOM     48  N   UNL A   1      40.188  32.806  32.871  1.00  0.00    -0.354 N 
ATOM     49  C   UNL A   1      40.113  28.330  29.557  1.00  0.00     0.074 A 
ATOM     50  C   UNL A   1      38.862  28.583  28.896  1.00  0.00     0.031 C 
ATOM     51  C   UNL A   1      42.289  32.062  32.739  1.00  0.00     0.029 A 
ATOM     52  C   UNL A   1      41.338  32.674  33.653  1.00  0.00     0.049 A 
ATOM     53  H   UNL A   1      39.498  33.496  32.996  1.00  0.00     0.167 HD
ATOM     54  C   UNL A   1      41.241  27.615  29.301  1.00  0.00     0.034 A 
ATOM     55  C   UNL A   1      41.234  32.510  35.001  1.00  0.00     0.034 A 
ATOM     56  C   UNL A   1      42.239  27.861  30.374  1.00  0.00     0.049 A 
ATOM     57  C   UNL A   1      41.663  31.102  35.308  1.00  0.00     0.074 A 
ATOM     58  C   UNL A   1      43.389  28.630  30.445  1.00  0.00     0.029 A 
ATOM     59  N   UNL A   1      41.903  27.556  31.699  1.00  0.00    -0.354 N 
ATOM     60  N   UNL A   1      41.800  30.209  34.366  1.00  0.00    -0.248 NA
ATOM     61  C   UNL A   1      42.082  30.598  36.607  1.00  0.00     0.031 C 
ATOM     62  C   UNL A   1      43.682  28.861  31.827  1.00  0.00     0.029 A 
ATOM     63  C   UNL A   1      42.733  28.208  32.604  1.00  0.00     0.049 A 
ATOM     64  H   UNL A   1      41.169  26.954  31.958  1.00  0.00     0.167 HD
ATOM     65  C   UNL A   1      42.340  29.073  34.854  1.00  0.00     0.074 A 
ATOM     66  C   UNL A   1      42.492  29.358  36.277  1.00  0.00     0.031 C 
ATOM     67  C   UNL A   1      42.581  27.997  34.051  1.00  0.00     0.034 A 
BRANCH  54  68
ATOM     68  C   UNL A   1      41.555  26.883  27.998  1.00  0.00     0.023 A 
ATOM     69  C   UNL A   1      41.642  27.673  26.831  1.00  0.00     0.012 A 
ATOM     70  C   UNL A   1      41.729  25.486  27.795  1.00  0.00     0.148 A 
ATOM     71  C   UNL A   1      41.867  27.126  25.560  1.00  0.00     0.002 A 
ATOM     72  C   UNL A   1      41.973  24.937  26.531  1.00  0.00     0.091 A 
ATOM     73  F   UNL A   1      41.653  24.636  28.813  1.00  0.00    -0.205 F 
ATOM     74  C   UNL A   1      42.037  25.758  25.408  1.00  0.00     0.022 A 
BRANCH  72  75
ATOM     75  S   UNL A   1      42.212  23.166  26.262  1.00  0.00     0.127 S 
ATOM     76  O   UNL A   1      43.165  22.820  27.319  1.00  0.00    -0.237 OA
ATOM     77  O   UNL A   1      40.865  22.634  26.462  1.00  0.00    -0.237 OA
ATOM     78  O   UNL A   1      42.736  23.012  24.909  1.00  0.00    -0.744 OA
ENDBRANCH  72  75
ENDBRANCH  54  68
BRANCH  55  79
ATOM     79  C   UNL A   1      40.124  33.333  35.594  1.00  0.00     0.023 A 
ATOM     80  C   UNL A   1      38.853  32.702  35.700  1.00  0.00     0.012 A 
ATOM     81  C   UNL A   1      40.393  34.424  36.440  1.00  0.00     0.148 A 
ATOM     82  C   UNL A   1      37.931  33.064  36.691  1.00  0.00     0.002 A 
ATOM     83  C   UNL A   1      39.497  34.737  37.468  1.00  0.00     0.091 A 
ATOM     84  F   UNL A   1      41.547  35.084  36.282  1.00  0.00    -0.205 F 
ATOM     85  C   UNL A   1      38.277  34.051  37.605  1.00  0.00     0.022 A 
BRANCH  83  86
ATOM     86  S   UNL A   1      39.939  35.841  38.819  1.00  0.00     0.127 S 
ATOM     87  O   UNL A   1      38.811  35.667  39.729  1.00  0.00    -0.237 OA
ATOM     88  O   UNL A   1      41.195  35.252  39.287  1.00  0.00    -0.237 OA
ATOM     89  O   UNL A   1      40.074  37.160  38.222  1.00  0.00    -0.744 OA
ENDBRANCH  83  86
ENDBRANCH  55  79
BRANCH  67  90
ATOM     90  C   UNL A   1      42.674  26.608  34.611  1.00  0.00     0.023 A 
ATOM     91  C   UNL A   1      41.573  26.003  35.250  1.00  0.00     0.012 A 
ATOM     92  C   UNL A   1      43.786  25.789  34.320  1.00  0.00     0.148 A 
ATOM     93  C   UNL A   1      41.601  24.674  35.657  1.00  0.00     0.002 A 
ATOM     94  C   UNL A   1      43.744  24.431  34.587  1.00  0.00     0.091 A 
ATOM     95  F   UNL A   1      44.892  26.322  33.780  1.00  0.00    -0.205 F 
ATOM     96  C   UNL A   1      42.676  23.878  35.297  1.00  0.00     0.022 A 
BRANCH  94  97
ATOM     97  S   UNL A   1      44.944  23.313  33.860  1.00  0.00     0.127 S 
ATOM     98  O   UNL A   1      44.838  23.645  32.443  1.00  0.00    -0.237 OA
ATOM     99  O   UNL A   1      46.189  23.743  34.501  1.00  0.00    -0.237 OA
ATOM    100  O   UNL A   1      44.508  21.976  34.241  1.00  0.00    -0.744 OA
ENDBRANCH  94  97
ENDBRANCH  67  90
ENDBRANCH  41  42
ENDBRANCH  34  36
ENDBRANCH  33  34
ENDBRANCH  32  33
ENDBRANCH   1  32
TORSDOF 20
ENDMDL
MODEL 2
REMARK VINA RESULT:     -12.0      4.959     10.839
REMARK SMILES CC(=O)Nc1cnc(N2CC=C(c3ccccc3C)CC2)c(C(=O)OCCOCCOC(=O)c2ccc(-c3c4nc(c(-c5cccc(S(=O)(=O)[O-])c5F)c5ccc([nH]5)c(-c5cccc(S(=O)(=O)[O-])c5F)c5nc(c(-c6cccc(S(=O)(=O)[O-])c6F)c6ccc3[nH]6)C=C5)C=C4)cc2)c1
REMARK SMILES IDX 29 1 28 2 27 3 26 4 25 5 23 6 24 7 22 8 5 9 6 10 97 11 7 12
REMARK SMILES IDX 8 13 4 14 1 15 2 16 3 17 9 19 10 20 21 21 11 22 20 23 12 24
REMARK SMILES IDX 13 25 14 26 18 27 15 28 17 29 19 30 16 31 30 32 31 33 32 34
REMARK SMILES IDX 33 35 34 36 35 37 96 38 36 39 95 40 37 41 38 42 39 43 89 44
REMARK SMILES IDX 40 45 94 46 88 47 90 48 41 49 93 50 87 51 86 52 42 54 74 55
REMARK SMILES IDX 54 56 73 57 55 58 58 59 72 60 91 61 56 62 57 63 71 65 92 66
REMARK SMILES IDX 59 67 43 68 44 69 52 70 45 71 47 72 53 73 46 74 48 75 49 76
REMARK SMILES IDX 50 77 51 78 75 79 76 80 84 81 77 82 79 83 85 84 78 85 80 86
REMARK SMILES IDX 81 87 82 88 83 89 60 90 61 91 69 92 62 93 64 94 70 95 63 96
REMARK SMILES IDX 65 97 66 98 67 99 68 100
REMARK H PARENT 4 18 90 53 58 64
REMARK Flexibility Score: inf
ROOT
ATOM      1  C   UNL A   1      39.007  22.815  25.954  1.00  0.00     0.202 C 
ENDROOT
BRANCH   1   2
ATOM      2  O   UNL A   1      37.778  22.441  25.390  1.00  0.00    -0.374 OA
BRANCH   2   3
ATOM      3  C   UNL A   1      36.642  22.570  26.236  1.00  0.00     0.202 C 
BRANCH   3   4
ATOM      4  C   UNL A   1      35.683  21.593  25.662  1.00  0.00     0.261 C 
BRANCH   4   5
ATOM      5  O   UNL A   1      34.769  21.179  26.701  1.00  0.00    -0.460 OA
BRANCH   5   6
ATOM      6  C   UNL A   1      33.424  21.374  26.542  1.00  0.00     0.342 C 
ATOM      7  O   UNL A   1      32.718  22.123  27.161  1.00  0.00    -0.246 OA
BRANCH   6   8
ATOM      8  C   UNL A   1      32.957  20.483  25.474  1.00  0.00     0.104 A 
ATOM      9  C   UNL A   1      32.516  18.185  24.874  1.00  0.00     0.060 A 
ATOM     10  C   UNL A   1      32.335  18.651  23.585  1.00  0.00     0.139 A 
ATOM     11  C   UNL A   1      32.849  19.129  25.813  1.00  0.00     0.047 A 
ATOM     12  N   UNL A   1      32.363  19.968  23.235  1.00  0.00    -0.236 NA
ATOM     13  C   UNL A   1      32.667  20.907  24.176  1.00  0.00     0.143 A 
BRANCH   9  14
ATOM     14  N   UNL A   1      32.479  16.822  25.208  1.00  0.00    -0.325 N 
ATOM     15  C   UNL A   1      34.911  16.324  24.922  1.00  0.00     0.114 C 
ATOM     16  C   UNL A   1      33.469  15.880  25.051  1.00  0.00     0.221 C 
ATOM     17  O   UNL A   1      33.177  14.683  25.092  1.00  0.00    -0.275 OA
ATOM     18  H   UNL A   1      31.639  16.500  25.606  1.00  0.00     0.169 HD
ENDBRANCH   9  14
BRANCH  13  19
ATOM     19  N   UNL A   1      32.756  22.203  23.709  1.00  0.00    -0.352 N 
ATOM     20  C   UNL A   1      33.881  22.530  22.832  1.00  0.00     0.146 C 
ATOM     21  C   UNL A   1      31.542  22.968  23.436  1.00  0.00     0.123 C 
ATOM     22  C   UNL A   1      34.063  24.034  22.807  1.00  0.00    -0.002 C 
ATOM     23  C   UNL A   1      31.787  24.446  23.721  1.00  0.00     0.057 C 
ATOM     24  C   UNL A   1      33.142  24.918  23.246  1.00  0.00    -0.041 C 
BRANCH  24  25
ATOM     25  C   UNL A   1      33.433  26.368  23.315  1.00  0.00    -0.020 A 
ATOM     26  C   UNL A   1      33.503  27.106  22.119  1.00  0.00     0.008 A 
ATOM     27  C   UNL A   1      33.656  27.040  24.539  1.00  0.00    -0.044 A 
ATOM     28  C   UNL A   1      33.791  28.474  22.131  1.00  0.00     0.001 A 
ATOM     29  C   UNL A   1      33.928  28.420  24.533  1.00  0.00     0.004 A 
ATOM     30  C   UNL A   1      33.591  26.352  25.876  1.00  0.00     0.045 C 
ATOM     31  C   UNL A   1      34.004  29.130  23.338  1.00  0.00     0.000 A 
ENDBRANCH  24  25
ENDBRANCH  13  19
ENDBRANCH   6   8
ENDBRANCH   5   6
ENDBRANCH   4   5
ENDBRANCH   3   4
ENDBRANCH   2   3
ENDBRANCH   1   2
BRANCH   1  32
ATOM     32  C   UNL A   1      39.730  21.635  26.591  1.00  0.00     0.261 C 
BRANCH  32  33
ATOM     33  O   UNL A   1      40.910  21.350  25.810  1.00  0.00    -0.460 OA
BRANCH  33  34
ATOM     34  C   UNL A   1      41.998  20.948  26.529  1.00  0.00     0.338 C 
ATOM     35  O   UNL A   1      42.210  19.787  26.840  1.00  0.00    -0.246 OA
BRANCH  34  36
ATOM     36  C   UNL A   1      42.732  22.138  27.061  1.00  0.00     0.060 A 
ATOM     37  C   UNL A   1      42.705  22.420  28.437  1.00  0.00     0.016 A 
ATOM     38  C   UNL A   1      43.193  23.109  26.173  1.00  0.00     0.016 A 
ATOM     39  C   UNL A   1      42.940  23.722  28.904  1.00  0.00     0.010 A 
ATOM     40  C   UNL A   1      43.365  24.403  26.630  1.00  0.00     0.010 A 
ATOM     41  C   UNL A   1      43.160  24.735  27.984  1.00  0.00    -0.014 A 
BRANCH  41  42
ATOM     42  C   UNL A   1      43.275  26.163  28.294  1.00  0.00     0.031 A 
ATOM     43  C   UNL A   1      42.002  26.900  28.297  1.00  0.00     0.074 A 
ATOM     44  C   UNL A   1      44.390  26.723  28.834  1.00  0.00     0.049 A 
ATOM     45  N   UNL A   1      41.901  28.164  28.489  1.00  0.00    -0.248 NA
ATOM     46  C   UNL A   1      40.721  26.260  28.006  1.00  0.00     0.031 C 
ATOM     47  C   UNL A   1      44.456  27.794  29.835  1.00  0.00     0.029 A 
ATOM     48  N   UNL A   1      45.732  26.352  28.716  1.00  0.00    -0.354 N 
ATOM     49  C   UNL A   1      40.569  28.440  28.678  1.00  0.00     0.074 A 
ATOM     50  C   UNL A   1      39.879  27.275  28.195  1.00  0.00     0.031 C 
ATOM     51  C   UNL A   1      45.742  28.129  30.068  1.00  0.00     0.029 A 
ATOM     52  C   UNL A   1      46.561  27.407  29.107  1.00  0.00     0.049 A 
ATOM     53  H   UNL A   1      46.049  25.474  28.404  1.00  0.00     0.167 HD
ATOM     54  C   UNL A   1      40.249  29.560  29.379  1.00  0.00     0.034 A 
ATOM     55  C   UNL A   1      47.490  27.904  28.245  1.00  0.00     0.034 A 
ATOM     56  C   UNL A   1      41.481  30.345  29.650  1.00  0.00     0.049 A 
ATOM     57  C   UNL A   1      47.032  29.281  27.850  1.00  0.00     0.074 A 
ATOM     58  C   UNL A   1      42.271  30.518  30.774  1.00  0.00     0.029 A 
ATOM     59  N   UNL A   1      42.252  30.795  28.570  1.00  0.00    -0.354 N 
ATOM     60  N   UNL A   1      45.822  29.698  28.107  1.00  0.00    -0.248 NA
ATOM     61  C   UNL A   1      47.862  30.327  27.272  1.00  0.00     0.031 C 
ATOM     62  C   UNL A   1      43.555  30.985  30.345  1.00  0.00     0.029 A 
ATOM     63  C   UNL A   1      43.543  31.130  28.963  1.00  0.00     0.049 A 
ATOM     64  H   UNL A   1      41.921  30.865  27.646  1.00  0.00     0.167 HD
ATOM     65  C   UNL A   1      45.690  31.006  27.804  1.00  0.00     0.074 A 
ATOM     66  C   UNL A   1      46.999  31.362  27.269  1.00  0.00     0.031 C 
ATOM     67  C   UNL A   1      44.510  31.665  27.994  1.00  0.00     0.034 A 
BRANCH  54  68
ATOM     68  C   UNL A   1      38.896  29.851  30.025  1.00  0.00     0.023 A 
ATOM     69  C   UNL A   1      38.533  29.049  31.129  1.00  0.00     0.012 A 
ATOM     70  C   UNL A   1      37.920  30.805  29.626  1.00  0.00     0.148 A 
ATOM     71  C   UNL A   1      37.297  29.168  31.779  1.00  0.00     0.002 A 
ATOM     72  C   UNL A   1      36.692  30.941  30.285  1.00  0.00     0.091 A 
ATOM     73  F   UNL A   1      38.136  31.608  28.590  1.00  0.00    -0.205 F 
ATOM     74  C   UNL A   1      36.376  30.117  31.362  1.00  0.00     0.022 A 
BRANCH  72  75
ATOM     75  S   UNL A   1      35.450  32.162  29.799  1.00  0.00     0.127 S 
ATOM     76  O   UNL A   1      36.269  33.346  29.535  1.00  0.00    -0.237 OA
ATOM     77  O   UNL A   1      34.863  31.552  28.607  1.00  0.00    -0.237 OA
ATOM     78  O   UNL A   1      34.536  32.305  30.927  1.00  0.00    -0.744 OA
ENDBRANCH  72  75
ENDBRANCH  54  68
BRANCH  55  79
ATOM     79  C   UNL A   1      48.138  26.828  27.419  1.00  0.00     0.023 A 
ATOM     80  C   UNL A   1      47.487  26.482  26.202  1.00  0.00     0.012 A 
ATOM     81  C   UNL A   1      49.509  26.539  27.540  1.00  0.00     0.148 A 
ATOM     82  C   UNL A   1      48.196  25.979  25.104  1.00  0.00     0.002 A 
ATOM     83  C   UNL A   1      50.222  26.099  26.420  1.00  0.00     0.091 A 
ATOM     84  F   UNL A   1      50.109  26.772  28.714  1.00  0.00    -0.205 F 
ATOM     85  C   UNL A   1      49.574  25.834  25.200  1.00  0.00     0.022 A 
BRANCH  83  86
ATOM     86  S   UNL A   1      52.022  26.083  26.377  1.00  0.00     0.127 S 
ATOM     87  O   UNL A   1      52.350  25.649  27.731  1.00  0.00    -0.237 OA
ATOM     88  O   UNL A   1      52.288  25.087  25.337  1.00  0.00    -0.237 OA
ATOM     89  O   UNL A   1      52.420  27.439  26.032  1.00  0.00    -0.744 OA
ENDBRANCH  83  86
ENDBRANCH  55  79
BRANCH  67  90
ATOM     90  C   UNL A   1      44.174  32.906  27.219  1.00  0.00     0.023 A 
ATOM     91  C   UNL A   1      44.027  32.875  25.818  1.00  0.00     0.012 A 
ATOM     92  C   UNL A   1      43.777  34.084  27.888  1.00  0.00     0.148 A 
ATOM     93  C   UNL A   1      43.589  33.984  25.101  1.00  0.00     0.002 A 
ATOM     94  C   UNL A   1      43.196  35.126  27.185  1.00  0.00     0.091 A 
ATOM     95  F   UNL A   1      43.961  34.202  29.211  1.00  0.00    -0.205 F 
ATOM     96  C   UNL A   1      43.144  35.100  25.788  1.00  0.00     0.022 A 
BRANCH  94  97
ATOM     97  S   UNL A   1      42.315  36.434  28.039  1.00  0.00     0.127 S 
ATOM     98  O   UNL A   1      41.159  35.717  28.568  1.00  0.00    -0.237 OA
ATOM     99  O   UNL A   1      43.292  36.852  29.047  1.00  0.00    -0.237 OA
ATOM    100  O   UNL A   1      42.037  37.441  27.024  1.00  0.00    -0.744 OA
ENDBRANCH  94  97
ENDBRANCH  67  90
ENDBRANCH  41  42
ENDBRANCH  34  36
ENDBRANCH  33  34
ENDBRANCH  32  33
ENDBRANCH   1  32
TORSDOF 20
ENDMDL
MODEL 3
REMARK VINA RESULT:     -11.9      1.689      2.191
REMARK SMILES CC(=O)Nc1cnc(N2CC=C(c3ccccc3C)CC2)c(C(=O)OCCOCCOC(=O)c2ccc(-c3c4nc(c(-c5cccc(S(=O)(=O)[O-])c5F)c5ccc([nH]5)c(-c5cccc(S(=O)(=O)[O-])c5F)c5nc(c(-c6cccc(S(=O)(=O)[O-])c6F)c6ccc3[nH]6)C=C5)C=C4)cc2)c1
REMARK SMILES IDX 29 1 28 2 27 3 26 4 25 5 23 6 24 7 22 8 5 9 6 10 97 11 7 12
REMARK SMILES IDX 8 13 4 14 1 15 2 16 3 17 9 19 10 20 21 21 11 22 20 23 12 24
REMARK SMILES IDX 13 25 14 26 18 27 15 28 17 29 19 30 16 31 30 32 31 33 32 34
REMARK SMILES IDX 33 35 34 36 35 37 96 38 36 39 95 40 37 41 38 42 39 43 89 44
REMARK SMILES IDX 40 45 94 46 88 47 90 48 41 49 93 50 87 51 86 52 42 54 74 55
REMARK SMILES IDX 54 56 73 57 55 58 58 59 72 60 91 61 56 62 57 63 71 65 92 66
REMARK SMILES IDX 59 67 43 68 44 69 52 70 45 71 47 72 53 73 46 74 48 75 49 76
REMARK SMILES IDX 50 77 51 78 75 79 76 80 84 81 77 82 79 83 85 84 78 85 80 86
REMARK SMILES IDX 81 87 82 88 83 89 60 90 61 91 69 92 62 93 64 94 70 95 63 96
REMARK SMILES IDX 65 97 66 98 67 99 68 100
REMARK H PARENT 4 18 90 53 58 64
REMARK Flexibility Score: inf
ROOT
ATOM      1  C   UNL A   1      34.884  31.397  27.823  1.00  0.00     0.202 C 
ENDROOT
BRANCH   1   2
ATOM      2  O   UNL A   1      34.205  30.622  26.870  1.00  0.00    -0.374 OA
BRANCH   2   3
ATOM      3  C   UNL A   1      33.871  29.299  27.269  1.00  0.00     0.202 C 
BRANCH   3   4
ATOM      4  C   UNL A   1      32.437  29.189  26.902  1.00  0.00     0.261 C 
BRANCH   4   5
ATOM      5  O   UNL A   1      32.311  28.256  25.807  1.00  0.00    -0.460 OA
BRANCH   5   6
ATOM      6  C   UNL A   1      32.451  28.696  24.519  1.00  0.00     0.342 C 
ATOM      7  O   UNL A   1      33.474  28.942  23.939  1.00  0.00    -0.246 OA
BRANCH   6   8
ATOM      8  C   UNL A   1      31.111  28.844  23.940  1.00  0.00     0.104 A 
ATOM      9  C   UNL A   1      29.312  30.395  23.500  1.00  0.00     0.060 A 
ATOM     10  C   UNL A   1      28.571  29.290  23.126  1.00  0.00     0.139 A 
ATOM     11  C   UNL A   1      30.593  30.144  23.927  1.00  0.00     0.047 A 
ATOM     12  N   UNL A   1      29.067  28.022  23.058  1.00  0.00    -0.236 NA
ATOM     13  C   UNL A   1      30.348  27.779  23.457  1.00  0.00     0.143 A 
BRANCH   9  14
ATOM     14  N   UNL A   1      28.778  31.693  23.558  1.00  0.00    -0.325 N 
ATOM     15  C   UNL A   1      28.349  32.005  21.117  1.00  0.00     0.114 C 
ATOM     16  C   UNL A   1      28.520  32.554  22.518  1.00  0.00     0.221 C 
ATOM     17  O   UNL A   1      28.358  33.753  22.752  1.00  0.00    -0.275 OA
ATOM     18  H   UNL A   1      28.560  32.027  24.458  1.00  0.00     0.169 HD
ENDBRANCH   9  14
BRANCH  13  19
ATOM     19  N   UNL A   1      30.732  26.453  23.435  1.00  0.00    -0.352 N 
ATOM     20  C   UNL A   1      29.953  25.510  24.239  1.00  0.00     0.146 C 
ATOM     21  C   UNL A   1      31.302  25.877  22.220  1.00  0.00     0.123 C 
ATOM     22  C   UNL A   1      30.771  24.253  24.449  1.00  0.00    -0.002 C 
ATOM     23  C   UNL A   1      32.323  24.805  22.586  1.00  0.00     0.057 C 
ATOM     24  C   UNL A   1      31.875  23.937  23.738  1.00  0.00    -0.041 C 
BRANCH  24  25
ATOM     25  C   UNL A   1      32.703  22.757  24.080  1.00  0.00    -0.020 A 
ATOM     26  C   UNL A   1      32.286  21.485  23.647  1.00  0.00     0.008 A 
ATOM     27  C   UNL A   1      33.893  22.859  24.837  1.00  0.00    -0.044 A 
ATOM     28  C   UNL A   1      33.026  20.340  23.958  1.00  0.00     0.001 A 
ATOM     29  C   UNL A   1      34.632  21.699  25.126  1.00  0.00     0.004 A 
ATOM     30  C   UNL A   1      34.436  24.170  25.338  1.00  0.00     0.045 C 
ATOM     31  C   UNL A   1      34.198  20.448  24.698  1.00  0.00     0.000 A 
ENDBRANCH  24  25
ENDBRANCH  13  19
ENDBRANCH   6   8
ENDBRANCH   5   6
ENDBRANCH   4   5
ENDBRANCH   3   4
ENDBRANCH   2   3
ENDBRANCH   1   2
BRANCH   1  32
ATOM     32  C   UNL A   1      34.197  32.734  28.073  1.00  0.00     0.261 C 
BRANCH  32  33
ATOM     33  O   UNL A   1      34.277  33.029  29.483  1.00  0.00    -0.460 OA
BRANCH  33  34
ATOM     34  C   UNL A   1      34.929  34.187  29.796  1.00  0.00     0.338 C 
ATOM     35  O   UNL A   1      34.506  35.296  29.516  1.00  0.00    -0.246 OA
BRANCH  34  36
ATOM     36  C   UNL A   1      36.304  33.883  30.302  1.00  0.00     0.060 A 
ATOM     37  C   UNL A   1      37.398  33.917  29.421  1.00  0.00     0.016 A 
ATOM     38  C   UNL A   1      36.455  33.297  31.558  1.00  0.00     0.016 A 
ATOM     39  C   UNL A   1      38.566  33.196  29.706  1.00  0.00     0.010 A 
ATOM     40  C   UNL A   1      37.584  32.539  31.808  1.00  0.00     0.010 A 
ATOM     41  C   UNL A   1      38.611  32.416  30.851  1.00  0.00    -0.014 A 
BRANCH  41  42
ATOM     42  C   UNL A   1      39.691  31.494  31.218  1.00  0.00     0.031 A 
ATOM     43  C   UNL A   1      39.689  30.218  30.488  1.00  0.00     0.074 A 
ATOM     44  C   UNL A   1      40.784  31.870  31.933  1.00  0.00     0.049 A 
ATOM     45  N   UNL A   1      40.514  29.260  30.706  1.00  0.00    -0.248 NA
ATOM     46  C   UNL A   1      38.683  29.889  29.479  1.00  0.00     0.031 C 
ATOM     47  C   UNL A   1      42.168  31.415  31.755  1.00  0.00     0.029 A 
ATOM     48  N   UNL A   1      40.929  32.871  32.898  1.00  0.00    -0.354 N 
ATOM     49  C   UNL A   1      40.372  28.361  29.677  1.00  0.00     0.074 A 
ATOM     50  C   UNL A   1      39.121  28.702  29.059  1.00  0.00     0.031 C 
ATOM     51  C   UNL A   1      42.959  31.960  32.702  1.00  0.00     0.029 A 
ATOM     52  C   UNL A   1      42.095  32.661  33.639  1.00  0.00     0.049 A 
ATOM     53  H   UNL A   1      40.302  33.616  33.035  1.00  0.00     0.167 HD
ATOM     54  C   UNL A   1      41.430  27.555  29.393  1.00  0.00     0.034 A 
ATOM     55  C   UNL A   1      42.031  32.528  34.993  1.00  0.00     0.034 A 
ATOM     56  C   UNL A   1      42.485  27.738  30.423  1.00  0.00     0.049 A 
ATOM     57  C   UNL A   1      42.359  31.096  35.311  1.00  0.00     0.074 A 
ATOM     58  C   UNL A   1      43.694  28.414  30.435  1.00  0.00     0.029 A 
ATOM     59  N   UNL A   1      42.178  27.483  31.765  1.00  0.00    -0.354 N 
ATOM     60  N   UNL A   1      42.389  30.180  34.382  1.00  0.00    -0.248 NA
ATOM     61  C   UNL A   1      42.788  30.582  36.603  1.00  0.00     0.031 C 
ATOM     62  C   UNL A   1      44.058  28.644  31.801  1.00  0.00     0.029 A 
ATOM     63  C   UNL A   1      43.091  28.082  32.625  1.00  0.00     0.049 A 
ATOM     64  H   UNL A   1      41.409  26.945  32.063  1.00  0.00     0.167 HD
ATOM     65  C   UNL A   1      42.855  29.012  34.872  1.00  0.00     0.074 A 
ATOM     66  C   UNL A   1      43.085  29.307  36.282  1.00  0.00     0.031 C 
ATOM     67  C   UNL A   1      42.980  27.907  34.081  1.00  0.00     0.034 A 
BRANCH  54  68
ATOM     68  C   UNL A   1      41.634  26.779  28.094  1.00  0.00     0.023 A 
ATOM     69  C   UNL A   1      40.470  26.408  27.386  1.00  0.00     0.012 A 
ATOM     70  C   UNL A   1      42.857  26.335  27.519  1.00  0.00     0.148 A 
ATOM     71  C   UNL A   1      40.508  25.645  26.210  1.00  0.00     0.002 A 
ATOM     72  C   UNL A   1      42.901  25.590  26.335  1.00  0.00     0.091 A 
ATOM     73  F   UNL A   1      44.020  26.607  28.100  1.00  0.00    -0.205 F 
ATOM     74  C   UNL A   1      41.724  25.238  25.680  1.00  0.00     0.022 A 
BRANCH  72  75
ATOM     75  S   UNL A   1      44.449  25.034  25.584  1.00  0.00     0.127 S 
ATOM     76  O   UNL A   1      43.977  24.104  24.557  1.00  0.00    -0.237 OA
ATOM     77  O   UNL A   1      45.008  26.281  25.063  1.00  0.00    -0.237 OA
ATOM     78  O   UNL A   1      45.231  24.409  26.645  1.00  0.00    -0.744 OA
ENDBRANCH  72  75
ENDBRANCH  54  68
BRANCH  55  79
ATOM     79  C   UNL A   1      41.014  33.446  35.611  1.00  0.00     0.023 A 
ATOM     80  C   UNL A   1      41.281  34.842  35.523  1.00  0.00     0.012 A 
ATOM     81  C   UNL A   1      39.681  33.040  35.802  1.00  0.00     0.148 A 
ATOM     82  C   UNL A   1      40.250  35.790  35.504  1.00  0.00     0.002 A 
ATOM     83  C   UNL A   1      38.653  33.985  35.716  1.00  0.00     0.091 A 
ATOM     84  F   UNL A   1      39.432  31.737  35.982  1.00  0.00    -0.205 F 
ATOM     85  C   UNL A   1      38.932  35.354  35.552  1.00  0.00     0.022 A 
BRANCH  83  86
ATOM     86  S   UNL A   1      36.925  33.507  35.555  1.00  0.00     0.127 S 
ATOM     87  O   UNL A   1      37.035  32.198  34.917  1.00  0.00    -0.237 OA
ATOM     88  O   UNL A   1      36.493  33.468  36.953  1.00  0.00    -0.237 OA
ATOM     89  O   UNL A   1      36.300  34.550  34.757  1.00  0.00    -0.744 OA
ENDBRANCH  83  86
ENDBRANCH  55  79
BRANCH  67  90
ATOM     90  C   UNL A   1      42.985  26.524  34.665  1.00  0.00     0.023 A 
ATOM     91  C   UNL A   1      41.846  26.000  35.308  1.00  0.00     0.012 A 
ATOM     92  C   UNL A   1      44.045  25.633  34.391  1.00  0.00     0.148 A 
ATOM     93  C   UNL A   1      41.790  24.678  35.737  1.00  0.00     0.002 A 
ATOM     94  C   UNL A   1      43.918  24.285  34.681  1.00  0.00     0.091 A 
ATOM     95  F   UNL A   1      45.183  26.088  33.848  1.00  0.00    -0.205 F 
ATOM     96  C   UNL A   1      42.815  23.811  35.395  1.00  0.00     0.022 A 
BRANCH  94  97
ATOM     97  S   UNL A   1      45.049  23.083  33.978  1.00  0.00     0.127 S 
ATOM     98  O   UNL A   1      44.518  21.831  34.509  1.00  0.00    -0.237 OA
ATOM     99  O   UNL A   1      44.844  23.276  32.540  1.00  0.00    -0.237 OA
ATOM    100  O   UNL A   1      46.370  23.471  34.450  1.00  0.00    -0.744 OA
ENDBRANCH  94  97
ENDBRANCH  67  90
ENDBRANCH  41  42
ENDBRANCH  34  36
ENDBRANCH  33  34
ENDBRANCH  32  33
ENDBRANCH   1  32
TORSDOF 20
ENDMDL
