MODEL 1
REMARK VINA RESULT:     -10.5      0.000      0.000
REMARK SMILES CC(C)(C)OC(=O)N1CCC[C@H]1C(=O)N[C@@H](Cc1ccccc1)C(=O)OCCOCCOC(=O)c1ccc(-c2c3nc(c(-c4cccc(S(=O)(=O)[O-])c4F)c4ccc([nH]4)c(-c4cccc(S(=O)(=O)[O-])c4F)c4nc(c(-c5cccc(S(=O)(=O)[O-])c5F)c5ccc2[nH]5)C=C4)C=C3)cc1
REMARK SMILES IDX 28 1 27 2 26 3 24 4 25 5 16 6 15 7 13 8 14 9 12 11 8 12 9 13
REMARK SMILES IDX 10 14 11 15 6 16 7 17 5 18 2 19 1 20 3 21 4 22 17 23 18 24
REMARK SMILES IDX 19 25 23 26 20 27 22 28 21 29 29 30 30 31 31 32 32 33 33 34
REMARK SMILES IDX 34 35 35 36 36 37 97 38 37 39 96 40 38 41 39 42 40 43 90 44
REMARK SMILES IDX 41 45 95 46 89 47 91 48 42 49 94 50 88 51 87 52 43 54 75 55
REMARK SMILES IDX 55 56 74 57 56 58 59 59 73 60 92 61 57 62 58 63 72 65 93 66
REMARK SMILES IDX 60 67 44 68 45 69 53 70 46 71 48 72 54 73 47 74 49 75 50 76
REMARK SMILES IDX 51 77 52 78 76 79 77 80 85 81 78 82 80 83 86 84 79 85 81 86
REMARK SMILES IDX 82 87 83 88 84 89 61 90 62 91 70 92 63 93 65 94 71 95 64 96
REMARK SMILES IDX 66 97 67 98 68 99 69 100
REMARK H PARENT 15 10 91 53 59 64
REMARK Flexibility Score: inf
ROOT
ATOM      1  C   UNL A   1      37.076  21.365  24.959  1.00  0.00     0.202 C 
ENDROOT
BRANCH   1   2
ATOM      2  C   UNL A   1      35.955  21.410  26.002  1.00  0.00     0.261 C 
BRANCH   2   3
ATOM      3  O   UNL A   1      35.006  22.408  25.585  1.00  0.00    -0.462 OA
BRANCH   3   4
ATOM      4  C   UNL A   1      33.752  22.369  26.087  1.00  0.00     0.329 C 
ATOM      5  O   UNL A   1      33.478  22.348  27.279  1.00  0.00    -0.250 OA
BRANCH   4   6
ATOM      6  C   UNL A   1      32.711  22.212  24.961  1.00  0.00     0.196 C 
BRANCH   6   7
ATOM      7  N   UNL A   1      33.219  22.420  23.591  1.00  0.00    -0.341 N 
ATOM      8  C   UNL A   1      33.226  23.515  22.769  1.00  0.00     0.243 C 
ATOM      9  O   UNL A   1      33.862  23.407  21.714  1.00  0.00    -0.273 OA
ATOM     10  H   UNL A   1      33.632  21.620  23.193  1.00  0.00     0.164 HD
BRANCH   8  11
ATOM     11  C   UNL A   1      32.382  24.793  23.049  1.00  0.00     0.178 C 
ATOM     12  N   UNL A   1      33.145  25.819  23.803  1.00  0.00    -0.296 N 
ATOM     13  C   UNL A   1      33.600  26.881  22.934  1.00  0.00     0.124 C 
ATOM     14  C   UNL A   1      32.510  26.944  21.886  1.00  0.00     0.024 C 
ATOM     15  C   UNL A   1      32.142  25.475  21.678  1.00  0.00     0.037 C 
BRANCH  12  16
ATOM     16  C   UNL A   1      33.366  25.952  25.154  1.00  0.00     0.410 C 
ATOM     17  O   UNL A   1      34.447  25.688  25.673  1.00  0.00    -0.224 OA
BRANCH  16  18
ATOM     18  O   UNL A   1      32.316  26.483  25.828  1.00  0.00    -0.444 OA
BRANCH  18  19
ATOM     19  C   UNL A   1      32.327  27.902  26.184  1.00  0.00     0.106 C 
ATOM     20  C   UNL A   1      31.510  28.739  25.190  1.00  0.00     0.056 C 
ATOM     21  C   UNL A   1      33.740  28.494  26.315  1.00  0.00     0.056 C 
ATOM     22  C   UNL A   1      31.639  27.961  27.557  1.00  0.00     0.056 C 
ENDBRANCH  18  19
ENDBRANCH  16  18
ENDBRANCH  12  16
ENDBRANCH   8  11
ENDBRANCH   6   7
BRANCH   6  23
ATOM     23  C   UNL A   1      32.009  20.834  25.124  1.00  0.00     0.072 C 
BRANCH  23  24
ATOM     24  C   UNL A   1      32.525  19.586  24.412  1.00  0.00    -0.045 A 
ATOM     25  C   UNL A   1      33.585  18.866  24.993  1.00  0.00     0.004 A 
ATOM     26  C   UNL A   1      32.108  19.184  23.134  1.00  0.00     0.004 A 
ATOM     27  C   UNL A   1      34.174  17.776  24.339  1.00  0.00     0.000 A 
ATOM     28  C   UNL A   1      32.678  18.077  22.491  1.00  0.00     0.000 A 
ATOM     29  C   UNL A   1      33.714  17.374  23.091  1.00  0.00     0.000 A 
ENDBRANCH  23  24
ENDBRANCH   6  23
ENDBRANCH   4   6
ENDBRANCH   3   4
ENDBRANCH   2   3
ENDBRANCH   1   2
BRANCH   1  30
ATOM     30  O   UNL A   1      37.522  20.034  24.683  1.00  0.00    -0.374 OA
BRANCH  30  31
ATOM     31  C   UNL A   1      38.789  19.705  25.264  1.00  0.00     0.202 C 
BRANCH  31  32
ATOM     32  C   UNL A   1      39.483  20.875  25.946  1.00  0.00     0.261 C 
BRANCH  32  33
ATOM     33  O   UNL A   1      40.651  20.367  26.606  1.00  0.00    -0.460 OA
BRANCH  33  34
ATOM     34  C   UNL A   1      41.787  21.029  26.310  1.00  0.00     0.338 C 
ATOM     35  O   UNL A   1      42.688  20.657  25.574  1.00  0.00    -0.246 OA
BRANCH  34  36
ATOM     36  C   UNL A   1      41.728  22.382  26.891  1.00  0.00     0.060 A 
ATOM     37  C   UNL A   1      41.445  23.436  26.014  1.00  0.00     0.016 A 
ATOM     38  C   UNL A   1      41.978  22.627  28.246  1.00  0.00     0.016 A 
ATOM     39  C   UNL A   1      41.505  24.747  26.467  1.00  0.00     0.010 A 
ATOM     40  C   UNL A   1      42.035  23.945  28.700  1.00  0.00     0.010 A 
ATOM     41  C   UNL A   1      41.854  25.005  27.797  1.00  0.00    -0.014 A 
BRANCH  41  42
ATOM     42  C   UNL A   1      42.196  26.385  28.193  1.00  0.00     0.031 A 
ATOM     43  C   UNL A   1      43.627  26.830  28.079  1.00  0.00     0.074 A 
ATOM     44  C   UNL A   1      41.239  27.219  28.633  1.00  0.00     0.049 A 
ATOM     45  N   UNL A   1      44.153  27.992  28.358  1.00  0.00    -0.248 NA
ATOM     46  C   UNL A   1      44.597  25.833  27.590  1.00  0.00     0.031 C 
ATOM     47  C   UNL A   1      39.828  26.872  28.794  1.00  0.00     0.029 A 
ATOM     48  N   UNL A   1      41.319  28.522  29.049  1.00  0.00    -0.354 N 
ATOM     49  C   UNL A   1      45.515  27.858  28.114  1.00  0.00     0.074 A 
ATOM     50  C   UNL A   1      45.739  26.502  27.667  1.00  0.00     0.031 C 
ATOM     51  C   UNL A   1      39.177  27.928  29.312  1.00  0.00     0.029 A 
ATOM     52  C   UNL A   1      40.130  29.015  29.530  1.00  0.00     0.049 A 
ATOM     53  H   UNL A   1      42.146  29.053  29.008  1.00  0.00     0.167 HD
ATOM     54  C   UNL A   1      46.487  28.789  28.240  1.00  0.00     0.034 A 
ATOM     55  C   UNL A   1      39.854  30.204  30.102  1.00  0.00     0.034 A 
ATOM     56  C   UNL A   1      46.243  30.144  28.651  1.00  0.00     0.049 A 
ATOM     57  C   UNL A   1      40.953  31.228  30.206  1.00  0.00     0.074 A 
ATOM     58  C   UNL A   1      47.142  31.191  28.736  1.00  0.00     0.029 A 
ATOM     59  N   UNL A   1      45.013  30.634  29.058  1.00  0.00    -0.354 N 
ATOM     60  N   UNL A   1      42.205  31.137  29.825  1.00  0.00    -0.248 NA
ATOM     61  C   UNL A   1      40.596  32.532  30.782  1.00  0.00     0.031 C 
ATOM     62  C   UNL A   1      46.459  32.311  29.221  1.00  0.00     0.029 A 
ATOM     63  C   UNL A   1      45.130  31.965  29.412  1.00  0.00     0.049 A 
ATOM     64  H   UNL A   1      44.179  30.111  29.091  1.00  0.00     0.167 HD
ATOM     65  C   UNL A   1      42.776  32.378  30.083  1.00  0.00     0.074 A 
ATOM     66  C   UNL A   1      41.725  33.211  30.631  1.00  0.00     0.031 C 
ATOM     67  C   UNL A   1      44.055  32.789  29.901  1.00  0.00     0.034 A 
BRANCH  54  68
ATOM     68  C   UNL A   1      47.899  28.391  27.906  1.00  0.00     0.023 A 
ATOM     69  C   UNL A   1      48.763  27.955  28.930  1.00  0.00     0.012 A 
ATOM     70  C   UNL A   1      48.341  28.368  26.569  1.00  0.00     0.148 A 
ATOM     71  C   UNL A   1      50.053  27.518  28.630  1.00  0.00     0.002 A 
ATOM     72  C   UNL A   1      49.613  27.894  26.273  1.00  0.00     0.091 A 
ATOM     73  F   UNL A   1      47.510  28.810  25.614  1.00  0.00    -0.205 F 
ATOM     74  C   UNL A   1      50.472  27.476  27.303  1.00  0.00     0.022 A 
BRANCH  72  75
ATOM     75  S   UNL A   1      50.221  27.728  24.592  1.00  0.00     0.127 S 
ATOM     76  O   UNL A   1      48.987  27.858  23.816  1.00  0.00    -0.237 OA
ATOM     77  O   UNL A   1      51.132  28.868  24.482  1.00  0.00    -0.237 OA
ATOM     78  O   UNL A   1      50.864  26.424  24.520  1.00  0.00    -0.744 OA
ENDBRANCH  72  75
ENDBRANCH  54  68
BRANCH  55  79
ATOM     79  C   UNL A   1      38.478  30.494  30.589  1.00  0.00     0.023 A 
ATOM     80  C   UNL A   1      38.104  30.127  31.896  1.00  0.00     0.012 A 
ATOM     81  C   UNL A   1      37.542  31.153  29.769  1.00  0.00     0.148 A 
ATOM     82  C   UNL A   1      36.812  30.378  32.364  1.00  0.00     0.002 A 
ATOM     83  C   UNL A   1      36.277  31.453  30.260  1.00  0.00     0.091 A 
ATOM     84  F   UNL A   1      37.904  31.477  28.519  1.00  0.00    -0.205 F 
ATOM     85  C   UNL A   1      35.902  31.051  31.550  1.00  0.00     0.022 A 
BRANCH  83  86
ATOM     86  S   UNL A   1      35.112  32.447  29.320  1.00  0.00     0.127 S 
ATOM     87  O   UNL A   1      34.553  31.462  28.397  1.00  0.00    -0.237 OA
ATOM     88  O   UNL A   1      34.191  32.910  30.360  1.00  0.00    -0.237 OA
ATOM     89  O   UNL A   1      35.911  33.508  28.722  1.00  0.00    -0.744 OA
ENDBRANCH  83  86
ENDBRANCH  55  79
BRANCH  67  90
ATOM     90  C   UNL A   1      44.389  34.211  30.265  1.00  0.00     0.023 A 
ATOM     91  C   UNL A   1      44.885  34.504  31.550  1.00  0.00     0.012 A 
ATOM     92  C   UNL A   1      44.292  35.238  29.306  1.00  0.00     0.148 A 
ATOM     93  C   UNL A   1      45.252  35.806  31.885  1.00  0.00     0.002 A 
ATOM     94  C   UNL A   1      44.706  36.523  29.633  1.00  0.00     0.091 A 
ATOM     95  F   UNL A   1      43.801  34.939  28.095  1.00  0.00    -0.205 F 
ATOM     96  C   UNL A   1      45.175  36.811  30.925  1.00  0.00     0.022 A 
BRANCH  94  97
ATOM     97  S   UNL A   1      44.735  37.854  28.427  1.00  0.00     0.127 S 
ATOM     98  O   UNL A   1      45.827  37.437  27.550  1.00  0.00    -0.237 OA
ATOM     99  O   UNL A   1      43.402  37.762  27.829  1.00  0.00    -0.237 OA
ATOM    100  O   UNL A   1      44.970  39.075  29.185  1.00  0.00    -0.744 OA
ENDBRANCH  94  97
ENDBRANCH  67  90
ENDBRANCH  41  42
ENDBRANCH  34  36
ENDBRANCH  33  34
ENDBRANCH  32  33
ENDBRANCH  31  32
ENDBRANCH  30  31
ENDBRANCH   1  30
TORSDOF 24
ENDMDL
MODEL 2
REMARK VINA RESULT:     -10.2      5.516      9.301
REMARK SMILES CC(C)(C)OC(=O)N1CCC[C@H]1C(=O)N[C@@H](Cc1ccccc1)C(=O)OCCOCCOC(=O)c1ccc(-c2c3nc(c(-c4cccc(S(=O)(=O)[O-])c4F)c4ccc([nH]4)c(-c4cccc(S(=O)(=O)[O-])c4F)c4nc(c(-c5cccc(S(=O)(=O)[O-])c5F)c5ccc2[nH]5)C=C4)C=C3)cc1
REMARK SMILES IDX 28 1 27 2 26 3 24 4 25 5 16 6 15 7 13 8 14 9 12 11 8 12 9 13
REMARK SMILES IDX 10 14 11 15 6 16 7 17 5 18 2 19 1 20 3 21 4 22 17 23 18 24
REMARK SMILES IDX 19 25 23 26 20 27 22 28 21 29 29 30 30 31 31 32 32 33 33 34
REMARK SMILES IDX 34 35 35 36 36 37 97 38 37 39 96 40 38 41 39 42 40 43 90 44
REMARK SMILES IDX 41 45 95 46 89 47 91 48 42 49 94 50 88 51 87 52 43 54 75 55
REMARK SMILES IDX 55 56 74 57 56 58 59 59 73 60 92 61 57 62 58 63 72 65 93 66
REMARK SMILES IDX 60 67 44 68 45 69 53 70 46 71 48 72 54 73 47 74 49 75 50 76
REMARK SMILES IDX 51 77 52 78 76 79 77 80 85 81 78 82 80 83 86 84 79 85 81 86
REMARK SMILES IDX 82 87 83 88 84 89 61 90 62 91 70 92 63 93 65 94 71 95 64 96
REMARK SMILES IDX 66 97 67 98 68 99 69 100
REMARK H PARENT 15 10 91 53 59 64
REMARK Flexibility Score: inf
ROOT
ATOM      1  C   UNL A   1      33.595  29.116  27.038  1.00  0.00     0.202 C 
ENDROOT
BRANCH   1   2
ATOM      2  C   UNL A   1      34.088  28.764  25.631  1.00  0.00     0.261 C 
BRANCH   2   3
ATOM      3  O   UNL A   1      33.069  29.162  24.696  1.00  0.00    -0.462 OA
BRANCH   3   4
ATOM      4  C   UNL A   1      32.951  28.487  23.531  1.00  0.00     0.329 C 
ATOM      5  O   UNL A   1      33.634  28.688  22.536  1.00  0.00    -0.250 OA
BRANCH   4   6
ATOM      6  C   UNL A   1      31.748  27.525  23.570  1.00  0.00     0.196 C 
BRANCH   6   7
ATOM      7  N   UNL A   1      31.181  27.267  24.908  1.00  0.00    -0.341 N 
ATOM      8  C   UNL A   1      31.139  26.143  25.689  1.00  0.00     0.243 C 
ATOM      9  O   UNL A   1      30.709  26.289  26.839  1.00  0.00    -0.273 OA
ATOM     10  H   UNL A   1      30.753  28.054  25.318  1.00  0.00     0.164 HD
BRANCH   8  11
ATOM     11  C   UNL A   1      31.477  24.722  25.150  1.00  0.00     0.178 C 
ATOM     12  N   UNL A   1      32.853  24.295  25.509  1.00  0.00    -0.296 N 
ATOM     13  C   UNL A   1      32.842  23.361  26.613  1.00  0.00     0.124 C 
ATOM     14  C   UNL A   1      31.533  22.627  26.416  1.00  0.00     0.024 C 
ATOM     15  C   UNL A   1      30.587  23.727  25.938  1.00  0.00     0.037 C 
BRANCH  12  16
ATOM     16  C   UNL A   1      34.056  24.559  24.897  1.00  0.00     0.410 C 
ATOM     17  O   UNL A   1      34.128  25.011  23.758  1.00  0.00    -0.224 OA
BRANCH  16  18
ATOM     18  O   UNL A   1      35.131  24.362  25.700  1.00  0.00    -0.444 OA
BRANCH  18  19
ATOM     19  C   UNL A   1      36.131  23.358  25.338  1.00  0.00     0.106 C 
ATOM     20  C   UNL A   1      36.382  23.333  23.823  1.00  0.00     0.056 C 
ATOM     21  C   UNL A   1      35.788  21.941  25.826  1.00  0.00     0.056 C 
ATOM     22  C   UNL A   1      37.417  23.824  26.040  1.00  0.00     0.056 C 
ENDBRANCH  18  19
ENDBRANCH  16  18
ENDBRANCH  12  16
ENDBRANCH   8  11
ENDBRANCH   6   7
BRANCH   6  23
ATOM     23  C   UNL A   1      30.674  28.032  22.566  1.00  0.00     0.072 C 
BRANCH  23  24
ATOM     24  C   UNL A   1      29.594  29.025  22.986  1.00  0.00    -0.045 A 
ATOM     25  C   UNL A   1      28.244  28.646  22.867  1.00  0.00     0.004 A 
ATOM     26  C   UNL A   1      29.851  30.355  23.350  1.00  0.00     0.004 A 
ATOM     27  C   UNL A   1      27.204  29.546  23.133  1.00  0.00     0.000 A 
ATOM     28  C   UNL A   1      28.812  31.249  23.644  1.00  0.00     0.000 A 
ATOM     29  C   UNL A   1      27.488  30.847  23.532  1.00  0.00     0.000 A 
ENDBRANCH  23  24
ENDBRANCH   6  23
ENDBRANCH   4   6
ENDBRANCH   3   4
ENDBRANCH   2   3
ENDBRANCH   1   2
BRANCH   1  30
ATOM     30  O   UNL A   1      32.857  30.342  27.076  1.00  0.00    -0.374 OA
BRANCH  30  31
ATOM     31  C   UNL A   1      33.567  31.438  27.661  1.00  0.00     0.202 C 
BRANCH  31  32
ATOM     32  C   UNL A   1      32.976  32.804  27.343  1.00  0.00     0.261 C 
BRANCH  32  33
ATOM     33  O   UNL A   1      32.705  33.465  28.587  1.00  0.00    -0.460 OA
BRANCH  33  34
ATOM     34  C   UNL A   1      33.431  34.581  28.791  1.00  0.00     0.338 C 
ATOM     35  O   UNL A   1      33.175  35.711  28.403  1.00  0.00    -0.246 OA
BRANCH  34  36
ATOM     36  C   UNL A   1      34.542  34.277  29.711  1.00  0.00     0.060 A 
ATOM     37  C   UNL A   1      35.839  34.363  29.187  1.00  0.00     0.016 A 
ATOM     38  C   UNL A   1      34.331  33.880  31.035  1.00  0.00     0.016 A 
ATOM     39  C   UNL A   1      36.922  33.961  29.956  1.00  0.00     0.010 A 
ATOM     40  C   UNL A   1      35.421  33.480  31.809  1.00  0.00     0.010 A 
ATOM     41  C   UNL A   1      36.709  33.467  31.248  1.00  0.00    -0.014 A 
BRANCH  41  42
ATOM     42  C   UNL A   1      37.816  32.781  31.944  1.00  0.00     0.031 A 
ATOM     43  C   UNL A   1      38.475  31.614  31.264  1.00  0.00     0.074 A 
ATOM     44  C   UNL A   1      38.223  33.205  33.151  1.00  0.00     0.049 A 
ATOM     45  N   UNL A   1      39.466  30.871  31.678  1.00  0.00    -0.248 NA
ATOM     46  C   UNL A   1      37.946  31.228  29.942  1.00  0.00     0.031 C 
ATOM     47  C   UNL A   1      37.633  34.317  33.897  1.00  0.00     0.029 A 
ATOM     48  N   UNL A   1      39.212  32.732  33.972  1.00  0.00    -0.354 N 
ATOM     49  C   UNL A   1      39.656  29.912  30.691  1.00  0.00     0.074 A 
ATOM     50  C   UNL A   1      38.678  30.161  29.656  1.00  0.00     0.031 C 
ATOM     51  C   UNL A   1      38.250  34.417  35.087  1.00  0.00     0.029 A 
ATOM     52  C   UNL A   1      39.264  33.369  35.189  1.00  0.00     0.049 A 
ATOM     53  H   UNL A   1      39.826  32.007  33.717  1.00  0.00     0.167 HD
ATOM     54  C   UNL A   1      40.576  28.921  30.648  1.00  0.00     0.034 A 
ATOM     55  C   UNL A   1      40.031  33.115  36.267  1.00  0.00     0.034 A 
ATOM     56  C   UNL A   1      41.565  28.708  31.667  1.00  0.00     0.049 A 
ATOM     57  C   UNL A   1      41.061  32.020  36.179  1.00  0.00     0.074 A 
ATOM     58  C   UNL A   1      42.594  27.784  31.687  1.00  0.00     0.029 A 
ATOM     59  N   UNL A   1      41.639  29.421  32.853  1.00  0.00    -0.354 N 
ATOM     60  N   UNL A   1      41.333  31.221  35.174  1.00  0.00    -0.248 NA
ATOM     61  C   UNL A   1      41.917  31.815  37.356  1.00  0.00     0.031 C 
ATOM     62  C   UNL A   1      43.276  27.921  32.900  1.00  0.00     0.029 A 
ATOM     63  C   UNL A   1      42.687  28.948  33.622  1.00  0.00     0.049 A 
ATOM     64  H   UNL A   1      41.035  30.155  33.110  1.00  0.00     0.167 HD
ATOM     65  C   UNL A   1      42.409  30.444  35.584  1.00  0.00     0.074 A 
ATOM     66  C   UNL A   1      42.755  30.884  36.920  1.00  0.00     0.031 C 
ATOM     67  C   UNL A   1      43.046  29.444  34.925  1.00  0.00     0.034 A 
BRANCH  54  68
ATOM     68  C   UNL A   1      40.578  28.006  29.453  1.00  0.00     0.023 A 
ATOM     69  C   UNL A   1      39.632  26.965  29.368  1.00  0.00     0.012 A 
ATOM     70  C   UNL A   1      41.461  28.231  28.379  1.00  0.00     0.148 A 
ATOM     71  C   UNL A   1      39.576  26.150  28.237  1.00  0.00     0.002 A 
ATOM     72  C   UNL A   1      41.372  27.441  27.240  1.00  0.00     0.091 A 
ATOM     73  F   UNL A   1      42.368  29.212  28.492  1.00  0.00    -0.205 F 
ATOM     74  C   UNL A   1      40.436  26.396  27.170  1.00  0.00     0.022 A 
BRANCH  72  75
ATOM     75  S   UNL A   1      42.382  27.723  25.782  1.00  0.00     0.127 S 
ATOM     76  O   UNL A   1      41.932  26.649  24.897  1.00  0.00    -0.237 OA
ATOM     77  O   UNL A   1      41.963  29.065  25.374  1.00  0.00    -0.237 OA
ATOM     78  O   UNL A   1      43.767  27.626  26.223  1.00  0.00    -0.744 OA
ENDBRANCH  72  75
ENDBRANCH  54  68
BRANCH  55  79
ATOM     79  C   UNL A   1      39.871  33.930  37.503  1.00  0.00     0.023 A 
ATOM     80  C   UNL A   1      40.495  35.188  37.600  1.00  0.00     0.012 A 
ATOM     81  C   UNL A   1      39.083  33.471  38.576  1.00  0.00     0.148 A 
ATOM     82  C   UNL A   1      40.367  35.957  38.758  1.00  0.00     0.002 A 
ATOM     83  C   UNL A   1      38.912  34.267  39.702  1.00  0.00     0.091 A 
ATOM     84  F   UNL A   1      38.513  32.261  38.479  1.00  0.00    -0.205 F 
ATOM     85  C   UNL A   1      39.567  35.503  39.805  1.00  0.00     0.022 A 
BRANCH  83  86
ATOM     86  S   UNL A   1      37.777  33.808  41.018  1.00  0.00     0.127 S 
ATOM     87  O   UNL A   1      37.549  35.089  41.679  1.00  0.00    -0.237 OA
ATOM     88  O   UNL A   1      36.632  33.286  40.270  1.00  0.00    -0.237 OA
ATOM     89  O   UNL A   1      38.484  32.799  41.796  1.00  0.00    -0.744 OA
ENDBRANCH  83  86
ENDBRANCH  55  79
BRANCH  67  90
ATOM     90  C   UNL A   1      44.201  28.775  35.621  1.00  0.00     0.023 A 
ATOM     91  C   UNL A   1      43.974  27.632  36.411  1.00  0.00     0.012 A 
ATOM     92  C   UNL A   1      45.519  29.230  35.419  1.00  0.00     0.148 A 
ATOM     93  C   UNL A   1      45.040  26.969  37.016  1.00  0.00     0.002 A 
ATOM     94  C   UNL A   1      46.580  28.534  35.985  1.00  0.00     0.091 A 
ATOM     95  F   UNL A   1      45.711  30.331  34.676  1.00  0.00    -0.205 F 
ATOM     96  C   UNL A   1      46.341  27.411  36.792  1.00  0.00     0.022 A 
BRANCH  94  97
ATOM     97  S   UNL A   1      48.292  28.976  35.667  1.00  0.00     0.127 S 
ATOM     98  O   UNL A   1      48.379  30.296  36.288  1.00  0.00    -0.237 OA
ATOM     99  O   UNL A   1      49.022  27.920  36.371  1.00  0.00    -0.237 OA
ATOM    100  O   UNL A   1      48.449  28.951  34.219  1.00  0.00    -0.744 OA
ENDBRANCH  94  97
ENDBRANCH  67  90
ENDBRANCH  41  42
ENDBRANCH  34  36
ENDBRANCH  33  34
ENDBRANCH  32  33
ENDBRANCH  31  32
ENDBRANCH  30  31
ENDBRANCH   1  30
TORSDOF 24
ENDMDL
MODEL 3
REMARK VINA RESULT:     -10.2      5.259     10.595
REMARK SMILES CC(C)(C)OC(=O)N1CCC[C@H]1C(=O)N[C@@H](Cc1ccccc1)C(=O)OCCOCCOC(=O)c1ccc(-c2c3nc(c(-c4cccc(S(=O)(=O)[O-])c4F)c4ccc([nH]4)c(-c4cccc(S(=O)(=O)[O-])c4F)c4nc(c(-c5cccc(S(=O)(=O)[O-])c5F)c5ccc2[nH]5)C=C4)C=C3)cc1
REMARK SMILES IDX 28 1 27 2 26 3 24 4 25 5 16 6 15 7 13 8 14 9 12 11 8 12 9 13
REMARK SMILES IDX 10 14 11 15 6 16 7 17 5 18 2 19 1 20 3 21 4 22 17 23 18 24
REMARK SMILES IDX 19 25 23 26 20 27 22 28 21 29 29 30 30 31 31 32 32 33 33 34
REMARK SMILES IDX 34 35 35 36 36 37 97 38 37 39 96 40 38 41 39 42 40 43 90 44
REMARK SMILES IDX 41 45 95 46 89 47 91 48 42 49 94 50 88 51 87 52 43 54 75 55
REMARK SMILES IDX 55 56 74 57 56 58 59 59 73 60 92 61 57 62 58 63 72 65 93 66
REMARK SMILES IDX 60 67 44 68 45 69 53 70 46 71 48 72 54 73 47 74 49 75 50 76
REMARK SMILES IDX 51 77 52 78 76 79 77 80 85 81 78 82 80 83 86 84 79 85 81 86
REMARK SMILES IDX 82 87 83 88 84 89 61 90 62 91 70 92 63 93 65 94 71 95 64 96
REMARK SMILES IDX 66 97 67 98 68 99 69 100
REMARK H PARENT 15 10 91 53 59 64
REMARK Flexibility Score: inf
ROOT
ATOM      1  C   UNL A   1      33.491  29.296  27.492  1.00  0.00     0.202 C 
ENDROOT
BRANCH   1   2
ATOM      2  C   UNL A   1      34.046  28.683  26.203  1.00  0.00     0.261 C 
BRANCH   2   3
ATOM      3  O   UNL A   1      33.468  29.394  25.093  1.00  0.00    -0.462 OA
BRANCH   3   4
ATOM      4  C   UNL A   1      32.925  28.689  24.076  1.00  0.00     0.329 C 
ATOM      5  O   UNL A   1      33.525  28.342  23.068  1.00  0.00    -0.250 OA
BRANCH   4   6
ATOM      6  C   UNL A   1      31.409  28.499  24.285  1.00  0.00     0.196 C 
BRANCH   6   7
ATOM      7  N   UNL A   1      31.026  27.576  25.370  1.00  0.00    -0.341 N 
ATOM      8  C   UNL A   1      31.290  26.249  25.586  1.00  0.00     0.243 C 
ATOM      9  O   UNL A   1      30.939  25.790  26.679  1.00  0.00    -0.273 OA
ATOM     10  H   UNL A   1      30.478  27.993  26.074  1.00  0.00     0.164 HD
BRANCH   8  11
ATOM     11  C   UNL A   1      31.873  25.310  24.490  1.00  0.00     0.178 C 
ATOM     12  N   UNL A   1      32.361  24.024  25.049  1.00  0.00    -0.296 N 
ATOM     13  C   UNL A   1      31.421  22.953  24.800  1.00  0.00     0.124 C 
ATOM     14  C   UNL A   1      30.798  23.355  23.481  1.00  0.00     0.024 C 
ATOM     15  C   UNL A   1      30.681  24.873  23.600  1.00  0.00     0.037 C 
BRANCH  12  16
ATOM     16  C   UNL A   1      33.564  23.705  25.632  1.00  0.00     0.410 C 
ATOM     17  O   UNL A   1      34.280  24.548  26.166  1.00  0.00    -0.224 OA
BRANCH  16  18
ATOM     18  O   UNL A   1      33.831  22.375  25.641  1.00  0.00    -0.444 OA
BRANCH  18  19
ATOM     19  C   UNL A   1      34.986  21.863  24.906  1.00  0.00     0.106 C 
ATOM     20  C   UNL A   1      36.278  21.990  25.725  1.00  0.00     0.056 C 
ATOM     21  C   UNL A   1      35.183  22.520  23.530  1.00  0.00     0.056 C 
ATOM     22  C   UNL A   1      34.681  20.371  24.700  1.00  0.00     0.056 C 
ENDBRANCH  18  19
ENDBRANCH  16  18
ENDBRANCH  12  16
ENDBRANCH   8  11
ENDBRANCH   6   7
BRANCH   6  23
ATOM     23  C   UNL A   1      30.751  29.899  24.446  1.00  0.00     0.072 C 
BRANCH  23  24
ATOM     24  C   UNL A   1      29.731  30.422  23.439  1.00  0.00    -0.045 A 
ATOM     25  C   UNL A   1      28.718  31.288  23.890  1.00  0.00     0.004 A 
ATOM     26  C   UNL A   1      29.645  29.981  22.110  1.00  0.00     0.004 A 
ATOM     27  C   UNL A   1      27.690  31.718  23.041  1.00  0.00     0.000 A 
ATOM     28  C   UNL A   1      28.633  30.432  21.251  1.00  0.00     0.000 A 
ATOM     29  C   UNL A   1      27.652  31.298  21.717  1.00  0.00     0.000 A 
ENDBRANCH  23  24
ENDBRANCH   6  23
ENDBRANCH   4   6
ENDBRANCH   3   4
ENDBRANCH   2   3
ENDBRANCH   1   2
BRANCH   1  30
ATOM     30  O   UNL A   1      32.832  30.547  27.271  1.00  0.00    -0.374 OA
BRANCH  30  31
ATOM     31  C   UNL A   1      33.599  31.693  27.657  1.00  0.00     0.202 C 
BRANCH  31  32
ATOM     32  C   UNL A   1      32.967  33.023  27.275  1.00  0.00     0.261 C 
BRANCH  32  33
ATOM     33  O   UNL A   1      32.531  33.664  28.482  1.00  0.00    -0.460 OA
BRANCH  33  34
ATOM     34  C   UNL A   1      33.281  34.722  28.850  1.00  0.00     0.338 C 
ATOM     35  O   UNL A   1      33.022  35.904  28.685  1.00  0.00    -0.246 OA
BRANCH  34  36
ATOM     36  C   UNL A   1      34.429  34.251  29.646  1.00  0.00     0.060 A 
ATOM     37  C   UNL A   1      35.703  34.447  29.097  1.00  0.00     0.016 A 
ATOM     38  C   UNL A   1      34.272  33.600  30.875  1.00  0.00     0.016 A 
ATOM     39  C   UNL A   1      36.816  33.909  29.727  1.00  0.00     0.010 A 
ATOM     40  C   UNL A   1      35.393  33.064  31.509  1.00  0.00     0.010 A 
ATOM     41  C   UNL A   1      36.657  33.170  30.905  1.00  0.00    -0.014 A 
BRANCH  41  42
ATOM     42  C   UNL A   1      37.790  32.369  31.406  1.00  0.00     0.031 A 
ATOM     43  C   UNL A   1      38.333  32.673  32.774  1.00  0.00     0.074 A 
ATOM     44  C   UNL A   1      38.309  31.385  30.653  1.00  0.00     0.049 A 
ATOM     45  N   UNL A   1      39.312  32.096  33.420  1.00  0.00    -0.248 NA
ATOM     46  C   UNL A   1      37.694  33.777  33.514  1.00  0.00     0.031 C 
ATOM     47  C   UNL A   1      37.861  31.028  29.307  1.00  0.00     0.029 A 
ATOM     48  N   UNL A   1      39.344  30.525  30.905  1.00  0.00    -0.354 N 
ATOM     49  C   UNL A   1      39.428  32.785  34.621  1.00  0.00     0.074 A 
ATOM     50  C   UNL A   1      38.426  33.827  34.618  1.00  0.00     0.031 C 
ATOM     51  C   UNL A   1      38.644  30.044  28.835  1.00  0.00     0.029 A 
ATOM     52  C   UNL A   1      39.654  29.715  29.839  1.00  0.00     0.049 A 
ATOM     53  H   UNL A   1      39.821  30.490  31.765  1.00  0.00     0.167 HD
ATOM     54  C   UNL A   1      40.288  32.558  35.639  1.00  0.00     0.034 A 
ATOM     55  C   UNL A   1      40.656  28.826  29.690  1.00  0.00     0.034 A 
ATOM     56  C   UNL A   1      41.256  31.497  35.643  1.00  0.00     0.049 A 
ATOM     57  C   UNL A   1      41.583  28.580  30.851  1.00  0.00     0.074 A 
ATOM     58  C   UNL A   1      42.122  31.127  36.655  1.00  0.00     0.029 A 
ATOM     59  N   UNL A   1      41.492  30.644  34.578  1.00  0.00    -0.354 N 
ATOM     60  N   UNL A   1      41.581  29.133  32.041  1.00  0.00    -0.248 NA
ATOM     61  C   UNL A   1      42.625  27.560  30.667  1.00  0.00     0.031 C 
ATOM     62  C   UNL A   1      42.904  30.064  36.190  1.00  0.00     0.029 A 
ATOM     63  C   UNL A   1      42.503  29.757  34.899  1.00  0.00     0.049 A 
ATOM     64  H   UNL A   1      41.012  30.666  33.718  1.00  0.00     0.167 HD
ATOM     65  C   UNL A   1      42.595  28.508  32.756  1.00  0.00     0.074 A 
ATOM     66  C   UNL A   1      43.175  27.516  31.873  1.00  0.00     0.031 C 
ATOM     67  C   UNL A   1      43.023  28.740  34.021  1.00  0.00     0.034 A 
BRANCH  54  68
ATOM     68  C   UNL A   1      40.210  33.452  36.847  1.00  0.00     0.023 A 
ATOM     69  C   UNL A   1      39.221  33.223  37.824  1.00  0.00     0.012 A 
ATOM     70  C   UNL A   1      41.167  34.464  37.053  1.00  0.00     0.148 A 
ATOM     71  C   UNL A   1      39.176  33.999  38.982  1.00  0.00     0.002 A 
ATOM     72  C   UNL A   1      41.141  35.206  38.228  1.00  0.00     0.091 A 
ATOM     73  F   UNL A   1      42.084  34.680  36.099  1.00  0.00    -0.205 F 
ATOM     74  C   UNL A   1      40.142  34.980  39.189  1.00  0.00     0.022 A 
BRANCH  72  75
ATOM     75  S   UNL A   1      42.383  36.442  38.624  1.00  0.00     0.127 S 
ATOM     76  O   UNL A   1      41.745  37.160  39.727  1.00  0.00    -0.237 OA
ATOM     77  O   UNL A   1      43.524  35.613  39.015  1.00  0.00    -0.237 OA
ATOM     78  O   UNL A   1      42.583  37.220  37.409  1.00  0.00    -0.744 OA
ENDBRANCH  72  75
ENDBRANCH  54  68
BRANCH  55  79
ATOM     79  C   UNL A   1      40.812  28.089  28.406  1.00  0.00     0.023 A 
ATOM     80  C   UNL A   1      41.467  28.701  27.320  1.00  0.00     0.012 A 
ATOM     81  C   UNL A   1      40.331  26.773  28.262  1.00  0.00     0.148 A 
ATOM     82  C   UNL A   1      41.608  28.030  26.104  1.00  0.00     0.002 A 
ATOM     83  C   UNL A   1      40.528  26.089  27.069  1.00  0.00     0.091 A 
ATOM     84  F   UNL A   1      39.690  26.211  29.297  1.00  0.00    -0.205 F 
ATOM     85  C   UNL A   1      41.149  26.720  25.982  1.00  0.00     0.022 A 
BRANCH  83  86
ATOM     86  S   UNL A   1      40.095  24.353  26.895  1.00  0.00     0.127 S 
ATOM     87  O   UNL A   1      38.650  24.422  26.695  1.00  0.00    -0.237 OA
ATOM     88  O   UNL A   1      40.863  23.959  25.713  1.00  0.00    -0.237 OA
ATOM     89  O   UNL A   1      40.544  23.722  28.130  1.00  0.00    -0.744 OA
ENDBRANCH  83  86
ENDBRANCH  55  79
BRANCH  67  90
ATOM     90  C   UNL A   1      44.150  27.892  34.544  1.00  0.00     0.023 A 
ATOM     91  C   UNL A   1      45.476  28.354  34.444  1.00  0.00     0.012 A 
ATOM     92  C   UNL A   1      43.885  26.679  35.210  1.00  0.00     0.148 A 
ATOM     93  C   UNL A   1      46.527  27.606  34.973  1.00  0.00     0.002 A 
ATOM     94  C   UNL A   1      44.933  25.964  35.777  1.00  0.00     0.091 A 
ATOM     95  F   UNL A   1      42.617  26.250  35.278  1.00  0.00    -0.205 F 
ATOM     96  C   UNL A   1      46.255  26.420  35.650  1.00  0.00     0.022 A 
BRANCH  94  97
ATOM     97  S   UNL A   1      44.660  24.480  36.752  1.00  0.00     0.127 S 
ATOM     98  O   UNL A   1      43.982  23.613  35.790  1.00  0.00    -0.237 OA
ATOM     99  O   UNL A   1      46.025  24.071  37.086  1.00  0.00    -0.237 OA
ATOM    100  O   UNL A   1      43.860  24.894  37.896  1.00  0.00    -0.744 OA
ENDBRANCH  94  97
ENDBRANCH  67  90
ENDBRANCH  41  42
ENDBRANCH  34  36
ENDBRANCH  33  34
ENDBRANCH  32  33
ENDBRANCH  31  32
ENDBRANCH  30  31
ENDBRANCH   1  30
TORSDOF 24
ENDMDL
