MODEL 1
REMARK VINA RESULT:     -10.7      0.000      0.000
REMARK SMILES O=C(Cc1cccn(C(F)F)c1=O)OCCOCCOC(=O)c1ccc(-c2c3nc(c(-c4cccc(S(=O)(=O)[O-])c4F)c4ccc([nH]4)c(-c4cccc(S(=O)(=O)[O-])c4F)c4nc(c(-c5cccc(S(=O)(=O)[O-])c5F)c5ccc2[nH]5)C=C4)C=C3)cc1
REMARK SMILES IDX 18 1 17 2 16 3 15 4 14 5 2 6 1 7 3 8 4 9 5 10 12 11 6 12
REMARK SMILES IDX 8 13 13 14 7 15 9 16 10 17 11 18 19 19 20 20 21 21 22 22
REMARK SMILES IDX 23 23 24 24 85 25 25 26 84 27 26 28 27 29 28 30 78 31 29 32
REMARK SMILES IDX 83 33 77 34 79 35 30 36 82 37 76 38 75 39 31 41 63 42 43 43
REMARK SMILES IDX 62 44 44 45 47 46 61 47 80 48 45 49 46 50 60 52 81 53 48 54
REMARK SMILES IDX 32 55 33 56 41 57 34 58 36 59 42 60 35 61 37 62 38 63 39 64
REMARK SMILES IDX 40 65 64 66 65 67 73 68 66 69 68 70 74 71 67 72 69 73 70 74
REMARK SMILES IDX 71 75 72 76 49 77 50 78 58 79 51 80 53 81 59 82 52 83 54 84
REMARK SMILES IDX 55 85 56 86 57 87
REMARK H PARENT 79 40 47 51
REMARK Flexibility Score: inf
ROOT
ATOM      1  C   UNL A   1      35.321  21.096  25.583  1.00  0.00     0.202 C 
ENDROOT
BRANCH   1   2
ATOM      2  O   UNL A   1      34.128  20.875  24.814  1.00  0.00    -0.374 OA
BRANCH   2   3
ATOM      3  C   UNL A   1      33.436  22.072  24.457  1.00  0.00     0.202 C 
BRANCH   3   4
ATOM      4  C   UNL A   1      32.032  22.162  25.042  1.00  0.00     0.261 C 
BRANCH   4   5
ATOM      5  O   UNL A   1      31.594  23.520  25.231  1.00  0.00    -0.463 OA
BRANCH   5   6
ATOM      6  C   UNL A   1      30.944  24.023  26.305  1.00  0.00     0.310 C 
ATOM      7  O   UNL A   1      31.074  23.462  27.394  1.00  0.00    -0.252 OA
BRANCH   6   8
ATOM      8  C   UNL A   1      29.989  25.201  26.168  1.00  0.00     0.164 C 
BRANCH   8   9
ATOM      9  C   UNL A   1      30.544  26.421  25.507  1.00  0.00     0.029 A 
ATOM     10  C   UNL A   1      31.627  27.084  25.954  1.00  0.00     0.011 A 
ATOM     11  C   UNL A   1      29.824  26.925  24.296  1.00  0.00     0.258 A 
ATOM     12  C   UNL A   1      32.023  28.335  25.362  1.00  0.00     0.019 A 
ATOM     13  N   UNL A   1      30.257  28.139  23.798  1.00  0.00    -0.258 N 
ATOM     14  O   UNL A   1      28.911  26.267  23.809  1.00  0.00    -0.269 OA
ATOM     15  C   UNL A   1      31.332  28.829  24.329  1.00  0.00     0.095 A 
BRANCH  13  16
ATOM     16  C   UNL A   1      29.578  28.658  22.640  1.00  0.00     0.451 C 
ATOM     17  F   UNL A   1      28.669  29.595  23.019  1.00  0.00    -0.185 F 
ATOM     18  F   UNL A   1      30.477  29.300  21.847  1.00  0.00    -0.185 F 
ENDBRANCH  13  16
ENDBRANCH   8   9
ENDBRANCH   6   8
ENDBRANCH   5   6
ENDBRANCH   4   5
ENDBRANCH   3   4
ENDBRANCH   2   3
ENDBRANCH   1   2
BRANCH   1  19
ATOM     19  C   UNL A   1      36.560  20.391  25.022  1.00  0.00     0.261 C 
BRANCH  19  20
ATOM     20  O   UNL A   1      37.680  21.287  25.012  1.00  0.00    -0.460 OA
BRANCH  20  21
ATOM     21  C   UNL A   1      38.741  20.912  25.770  1.00  0.00     0.338 C 
ATOM     22  O   UNL A   1      39.229  19.796  25.844  1.00  0.00    -0.246 OA
BRANCH  21  23
ATOM     23  C   UNL A   1      39.378  22.135  26.313  1.00  0.00     0.060 A 
ATOM     24  C   UNL A   1      40.490  22.071  27.158  1.00  0.00     0.016 A 
ATOM     25  C   UNL A   1      38.789  23.372  26.016  1.00  0.00     0.016 A 
ATOM     26  C   UNL A   1      41.024  23.247  27.687  1.00  0.00     0.010 A 
ATOM     27  C   UNL A   1      39.326  24.547  26.541  1.00  0.00     0.010 A 
ATOM     28  C   UNL A   1      40.459  24.493  27.364  1.00  0.00    -0.014 A 
BRANCH  28  29
ATOM     29  C   UNL A   1      41.180  25.735  27.723  1.00  0.00     0.031 A 
ATOM     30  C   UNL A   1      42.601  25.980  27.323  1.00  0.00     0.074 A 
ATOM     31  C   UNL A   1      40.508  26.644  28.454  1.00  0.00     0.049 A 
ATOM     32  N   UNL A   1      43.317  27.061  27.494  1.00  0.00    -0.248 NA
ATOM     33  C   UNL A   1      43.316  24.883  26.655  1.00  0.00     0.031 C 
ATOM     34  C   UNL A   1      39.140  26.470  28.954  1.00  0.00     0.029 A 
ATOM     35  N   UNL A   1      40.873  27.885  28.906  1.00  0.00    -0.354 N 
ATOM     36  C   UNL A   1      44.569  26.778  26.964  1.00  0.00     0.074 A 
ATOM     37  C   UNL A   1      44.520  25.415  26.477  1.00  0.00     0.031 C 
ATOM     38  C   UNL A   1      38.777  27.571  29.628  1.00  0.00     0.029 A 
ATOM     39  C   UNL A   1      39.885  28.519  29.620  1.00  0.00     0.049 A 
ATOM     40  H   UNL A   1      41.758  28.282  28.736  1.00  0.00     0.167 HD
ATOM     41  C   UNL A   1      45.646  27.594  26.878  1.00  0.00     0.034 A 
ATOM     42  C   UNL A   1      39.867  29.734  30.197  1.00  0.00     0.034 A 
ATOM     43  C   UNL A   1      45.672  28.954  27.351  1.00  0.00     0.049 A 
ATOM     44  C   UNL A   1      41.064  30.625  30.059  1.00  0.00     0.074 A 
ATOM     45  C   UNL A   1      46.694  29.880  27.237  1.00  0.00     0.029 A 
ATOM     46  N   UNL A   1      44.643  29.577  28.038  1.00  0.00    -0.354 N 
ATOM     47  N   UNL A   1      42.185  30.396  29.421  1.00  0.00    -0.248 NA
ATOM     48  C   UNL A   1      40.989  31.949  30.694  1.00  0.00     0.031 C 
ATOM     49  C   UNL A   1      46.288  31.059  27.870  1.00  0.00     0.029 A 
ATOM     50  C   UNL A   1      45.009  30.871  28.366  1.00  0.00     0.049 A 
ATOM     51  H   UNL A   1      43.778  29.160  28.260  1.00  0.00     0.167 HD
ATOM     52  C   UNL A   1      42.943  31.550  29.560  1.00  0.00     0.074 A 
ATOM     53  C   UNL A   1      42.148  32.485  30.330  1.00  0.00     0.031 C 
ATOM     54  C   UNL A   1      44.192  31.803  29.101  1.00  0.00     0.034 A 
BRANCH  41  55
ATOM     55  C   UNL A   1      46.880  27.077  26.193  1.00  0.00     0.023 A 
ATOM     56  C   UNL A   1      47.083  27.381  24.833  1.00  0.00     0.012 A 
ATOM     57  C   UNL A   1      47.892  26.414  26.916  1.00  0.00     0.148 A 
ATOM     58  C   UNL A   1      48.274  27.028  24.198  1.00  0.00     0.002 A 
ATOM     59  C   UNL A   1      49.086  26.089  26.283  1.00  0.00     0.091 A 
ATOM     60  F   UNL A   1      47.670  26.130  28.207  1.00  0.00    -0.205 F 
ATOM     61  C   UNL A   1      49.277  26.393  24.925  1.00  0.00     0.022 A 
BRANCH  59  62
ATOM     62  S   UNL A   1      50.465  25.317  27.138  1.00  0.00     0.127 S 
ATOM     63  O   UNL A   1      51.346  24.973  26.022  1.00  0.00    -0.237 OA
ATOM     64  O   UNL A   1      50.950  26.407  27.985  1.00  0.00    -0.237 OA
ATOM     65  O   UNL A   1      49.909  24.181  27.858  1.00  0.00    -0.744 OA
ENDBRANCH  59  62
ENDBRANCH  41  55
BRANCH  42  66
ATOM     66  C   UNL A   1      38.629  30.187  30.884  1.00  0.00     0.023 A 
ATOM     67  C   UNL A   1      38.497  29.980  32.269  1.00  0.00     0.012 A 
ATOM     68  C   UNL A   1      37.637  30.907  30.191  1.00  0.00     0.148 A 
ATOM     69  C   UNL A   1      37.388  30.477  32.955  1.00  0.00     0.002 A 
ATOM     70  C   UNL A   1      36.557  31.434  30.886  1.00  0.00     0.091 A 
ATOM     71  F   UNL A   1      37.793  31.090  28.872  1.00  0.00    -0.205 F 
ATOM     72  C   UNL A   1      36.426  31.213  32.267  1.00  0.00     0.022 A 
BRANCH  70  73
ATOM     73  S   UNL A   1      35.326  32.487  30.110  1.00  0.00     0.127 S 
ATOM     74  O   UNL A   1      36.134  33.629  29.691  1.00  0.00    -0.237 OA
ATOM     75  O   UNL A   1      34.849  31.635  29.021  1.00  0.00    -0.237 OA
ATOM     76  O   UNL A   1      34.335  32.764  31.141  1.00  0.00    -0.744 OA
ENDBRANCH  70  73
ENDBRANCH  42  66
BRANCH  54  77
ATOM     77  C   UNL A   1      44.797  33.143  29.413  1.00  0.00     0.023 A 
ATOM     78  C   UNL A   1      45.589  33.288  30.569  1.00  0.00     0.012 A 
ATOM     79  C   UNL A   1      44.685  34.213  28.505  1.00  0.00     0.148 A 
ATOM     80  C   UNL A   1      46.257  34.484  30.820  1.00  0.00     0.002 A 
ATOM     81  C   UNL A   1      45.381  35.391  28.744  1.00  0.00     0.091 A 
ATOM     82  F   UNL A   1      43.917  34.049  27.418  1.00  0.00    -0.205 F 
ATOM     83  C   UNL A   1      46.164  35.530  29.904  1.00  0.00     0.022 A 
BRANCH  81  84
ATOM     84  S   UNL A   1      45.387  36.766  27.589  1.00  0.00     0.127 S 
ATOM     85  O   UNL A   1      45.977  36.152  26.400  1.00  0.00    -0.237 OA
ATOM     86  O   UNL A   1      43.963  37.076  27.473  1.00  0.00    -0.237 OA
ATOM     87  O   UNL A   1      46.190  37.812  28.208  1.00  0.00    -0.744 OA
ENDBRANCH  81  84
ENDBRANCH  54  77
ENDBRANCH  28  29
ENDBRANCH  21  23
ENDBRANCH  20  21
ENDBRANCH  19  20
ENDBRANCH   1  19
TORSDOF 19
ENDMDL
MODEL 2
REMARK VINA RESULT:     -10.7      5.342     10.238
REMARK SMILES O=C(Cc1cccn(C(F)F)c1=O)OCCOCCOC(=O)c1ccc(-c2c3nc(c(-c4cccc(S(=O)(=O)[O-])c4F)c4ccc([nH]4)c(-c4cccc(S(=O)(=O)[O-])c4F)c4nc(c(-c5cccc(S(=O)(=O)[O-])c5F)c5ccc2[nH]5)C=C4)C=C3)cc1
REMARK SMILES IDX 18 1 17 2 16 3 15 4 14 5 2 6 1 7 3 8 4 9 5 10 12 11 6 12
REMARK SMILES IDX 8 13 13 14 7 15 9 16 10 17 11 18 19 19 20 20 21 21 22 22
REMARK SMILES IDX 23 23 24 24 85 25 25 26 84 27 26 28 27 29 28 30 78 31 29 32
REMARK SMILES IDX 83 33 77 34 79 35 30 36 82 37 76 38 75 39 31 41 63 42 43 43
REMARK SMILES IDX 62 44 44 45 47 46 61 47 80 48 45 49 46 50 60 52 81 53 48 54
REMARK SMILES IDX 32 55 33 56 41 57 34 58 36 59 42 60 35 61 37 62 38 63 39 64
REMARK SMILES IDX 40 65 64 66 65 67 73 68 66 69 68 70 74 71 67 72 69 73 70 74
REMARK SMILES IDX 71 75 72 76 49 77 50 78 58 79 51 80 53 81 59 82 52 83 54 84
REMARK SMILES IDX 55 85 56 86 57 87
REMARK H PARENT 79 40 47 51
REMARK Flexibility Score: inf
ROOT
ATOM      1  C   UNL A   1      31.413  29.832  25.676  1.00  0.00     0.202 C 
ENDROOT
BRANCH   1   2
ATOM      2  O   UNL A   1      31.193  29.975  24.264  1.00  0.00    -0.374 OA
BRANCH   2   3
ATOM      3  C   UNL A   1      30.659  28.807  23.637  1.00  0.00     0.202 C 
BRANCH   3   4
ATOM      4  C   UNL A   1      31.514  27.563  23.838  1.00  0.00     0.261 C 
BRANCH   4   5
ATOM      5  O   UNL A   1      30.757  26.440  24.328  1.00  0.00    -0.463 OA
BRANCH   5   6
ATOM      6  C   UNL A   1      30.689  26.000  25.605  1.00  0.00     0.310 C 
ATOM      7  O   UNL A   1      29.597  25.649  26.054  1.00  0.00    -0.252 OA
BRANCH   6   8
ATOM      8  C   UNL A   1      31.912  26.022  26.511  1.00  0.00     0.164 C 
BRANCH   8   9
ATOM      9  C   UNL A   1      33.026  25.101  26.132  1.00  0.00     0.029 A 
ATOM     10  C   UNL A   1      34.077  25.471  25.378  1.00  0.00     0.011 A 
ATOM     11  C   UNL A   1      32.931  23.687  26.612  1.00  0.00     0.258 A 
ATOM     12  C   UNL A   1      35.038  24.502  24.924  1.00  0.00     0.019 A 
ATOM     13  N   UNL A   1      33.884  22.816  26.118  1.00  0.00    -0.258 N 
ATOM     14  O   UNL A   1      32.044  23.364  27.396  1.00  0.00    -0.269 OA
ATOM     15  C   UNL A   1      34.911  23.220  25.286  1.00  0.00     0.095 A 
BRANCH  13  16
ATOM     16  C   UNL A   1      33.814  21.446  26.552  1.00  0.00     0.451 C 
ATOM     17  F   UNL A   1      34.716  20.697  25.863  1.00  0.00    -0.185 F 
ATOM     18  F   UNL A   1      34.182  21.373  27.859  1.00  0.00    -0.185 F 
ENDBRANCH  13  16
ENDBRANCH   8   9
ENDBRANCH   6   8
ENDBRANCH   5   6
ENDBRANCH   4   5
ENDBRANCH   3   4
ENDBRANCH   2   3
ENDBRANCH   1   2
BRANCH   1  19
ATOM     19  C   UNL A   1      31.764  31.144  26.384  1.00  0.00     0.261 C 
BRANCH  19  20
ATOM     20  O   UNL A   1      32.843  30.938  27.307  1.00  0.00    -0.460 OA
BRANCH  20  21
ATOM     21  C   UNL A   1      33.592  32.032  27.591  1.00  0.00     0.338 C 
ATOM     22  O   UNL A   1      33.214  33.192  27.612  1.00  0.00    -0.246 OA
BRANCH  21  23
ATOM     23  C   UNL A   1      34.899  31.575  28.123  1.00  0.00     0.060 A 
ATOM     24  C   UNL A   1      35.986  32.445  28.248  1.00  0.00     0.016 A 
ATOM     25  C   UNL A   1      35.044  30.215  28.432  1.00  0.00     0.016 A 
ATOM     26  C   UNL A   1      37.212  31.956  28.704  1.00  0.00     0.010 A 
ATOM     27  C   UNL A   1      36.268  29.729  28.892  1.00  0.00     0.010 A 
ATOM     28  C   UNL A   1      37.353  30.601  29.050  1.00  0.00    -0.014 A 
BRANCH  28  29
ATOM     29  C   UNL A   1      38.570  30.155  29.764  1.00  0.00     0.031 A 
ATOM     30  C   UNL A   1      38.930  30.659  31.126  1.00  0.00     0.074 A 
ATOM     31  C   UNL A   1      39.370  29.280  29.125  1.00  0.00     0.049 A 
ATOM     32  N   UNL A   1      39.917  30.281  31.897  1.00  0.00    -0.248 NA
ATOM     33  C   UNL A   1      38.091  31.722  31.699  1.00  0.00     0.031 C 
ATOM     34  C   UNL A   1      39.143  28.780  27.765  1.00  0.00     0.029 A 
ATOM     35  N   UNL A   1      40.524  28.659  29.522  1.00  0.00    -0.354 N 
ATOM     36  C   UNL A   1      39.827  31.059  33.043  1.00  0.00     0.074 A 
ATOM     37  C   UNL A   1      38.695  31.945  32.861  1.00  0.00     0.031 C 
ATOM     38  C   UNL A   1      40.118  27.916  27.448  1.00  0.00     0.029 A 
ATOM     39  C   UNL A   1      41.043  27.812  28.572  1.00  0.00     0.049 A 
ATOM     40  H   UNL A   1      40.942  28.806  30.400  1.00  0.00     0.167 HD
ATOM     41  C   UNL A   1      40.608  31.018  34.147  1.00  0.00     0.034 A 
ATOM     42  C   UNL A   1      42.136  27.028  28.603  1.00  0.00     0.034 A 
ATOM     43  C   UNL A   1      41.720  30.119  34.321  1.00  0.00     0.049 A 
ATOM     44  C   UNL A   1      42.965  26.982  29.851  1.00  0.00     0.074 A 
ATOM     45  C   UNL A   1      42.520  29.951  35.437  1.00  0.00     0.029 A 
ATOM     46  N   UNL A   1      42.196  29.248  33.353  1.00  0.00    -0.354 N 
ATOM     47  N   UNL A   1      42.775  27.613  30.983  1.00  0.00    -0.248 NA
ATOM     48  C   UNL A   1      44.139  26.098  29.841  1.00  0.00     0.031 C 
ATOM     49  C   UNL A   1      43.492  28.991  35.138  1.00  0.00     0.029 A 
ATOM     50  C   UNL A   1      43.288  28.551  33.841  1.00  0.00     0.049 A 
ATOM     51  H   UNL A   1      41.814  29.142  32.452  1.00  0.00     0.167 HD
ATOM     52  C   UNL A   1      43.793  27.194  31.828  1.00  0.00     0.074 A 
ATOM     53  C   UNL A   1      44.589  26.240  31.082  1.00  0.00     0.031 C 
ATOM     54  C   UNL A   1      44.049  27.577  33.101  1.00  0.00     0.034 A 
BRANCH  41  55
ATOM     55  C   UNL A   1      40.267  31.923  35.298  1.00  0.00     0.023 A 
ATOM     56  C   UNL A   1      40.932  33.159  35.414  1.00  0.00     0.012 A 
ATOM     57  C   UNL A   1      39.209  31.617  36.177  1.00  0.00     0.148 A 
ATOM     58  C   UNL A   1      40.552  34.079  36.392  1.00  0.00     0.002 A 
ATOM     59  C   UNL A   1      38.820  32.549  37.133  1.00  0.00     0.091 A 
ATOM     60  F   UNL A   1      38.599  30.431  36.050  1.00  0.00    -0.205 F 
ATOM     61  C   UNL A   1      39.492  33.778  37.242  1.00  0.00     0.022 A 
BRANCH  59  62
ATOM     62  S   UNL A   1      37.433  32.286  38.244  1.00  0.00     0.127 S 
ATOM     63  O   UNL A   1      37.938  32.873  39.486  1.00  0.00    -0.237 OA
ATOM     64  O   UNL A   1      36.370  33.051  37.595  1.00  0.00    -0.237 OA
ATOM     65  O   UNL A   1      37.217  30.847  38.287  1.00  0.00    -0.744 OA
ENDBRANCH  59  62
ENDBRANCH  41  55
BRANCH  42  66
ATOM     66  C   UNL A   1      42.442  26.172  27.428  1.00  0.00     0.023 A 
ATOM     67  C   UNL A   1      43.245  26.685  26.393  1.00  0.00     0.012 A 
ATOM     68  C   UNL A   1      42.028  24.826  27.384  1.00  0.00     0.148 A 
ATOM     69  C   UNL A   1      43.624  25.873  25.324  1.00  0.00     0.002 A 
ATOM     70  C   UNL A   1      42.444  24.013  26.338  1.00  0.00     0.091 A 
ATOM     71  F   UNL A   1      41.268  24.365  28.387  1.00  0.00    -0.205 F 
ATOM     72  C   UNL A   1      43.234  24.536  25.302  1.00  0.00     0.022 A 
BRANCH  70  73
ATOM     73  S   UNL A   1      42.086  22.253  26.279  1.00  0.00     0.127 S 
ATOM     74  O   UNL A   1      42.590  21.803  27.575  1.00  0.00    -0.237 OA
ATOM     75  O   UNL A   1      40.629  22.248  26.148  1.00  0.00    -0.237 OA
ATOM     76  O   UNL A   1      42.800  21.742  25.117  1.00  0.00    -0.744 OA
ENDBRANCH  70  73
ENDBRANCH  42  66
BRANCH  54  77
ATOM     77  C   UNL A   1      45.242  26.976  33.789  1.00  0.00     0.023 A 
ATOM     78  C   UNL A   1      46.476  27.654  33.743  1.00  0.00     0.012 A 
ATOM     79  C   UNL A   1      45.111  25.817  34.577  1.00  0.00     0.148 A 
ATOM     80  C   UNL A   1      47.568  27.181  34.469  1.00  0.00     0.002 A 
ATOM     81  C   UNL A   1      46.194  25.369  35.324  1.00  0.00     0.091 A 
ATOM     82  F   UNL A   1      43.927  25.188  34.593  1.00  0.00    -0.205 F 
ATOM     83  C   UNL A   1      47.423  26.048  35.268  1.00  0.00     0.022 A 
BRANCH  81  84
ATOM     84  S   UNL A   1      46.088  23.967  36.440  1.00  0.00     0.127 S 
ATOM     85  O   UNL A   1      45.062  24.414  37.382  1.00  0.00    -0.237 OA
ATOM     86  O   UNL A   1      45.666  22.892  35.544  1.00  0.00    -0.237 OA
ATOM     87  O   UNL A   1      47.418  23.801  37.009  1.00  0.00    -0.744 OA
ENDBRANCH  81  84
ENDBRANCH  54  77
ENDBRANCH  28  29
ENDBRANCH  21  23
ENDBRANCH  20  21
ENDBRANCH  19  20
ENDBRANCH   1  19
TORSDOF 19
ENDMDL
MODEL 3
REMARK VINA RESULT:     -10.6      1.657      2.019
REMARK SMILES O=C(Cc1cccn(C(F)F)c1=O)OCCOCCOC(=O)c1ccc(-c2c3nc(c(-c4cccc(S(=O)(=O)[O-])c4F)c4ccc([nH]4)c(-c4cccc(S(=O)(=O)[O-])c4F)c4nc(c(-c5cccc(S(=O)(=O)[O-])c5F)c5ccc2[nH]5)C=C4)C=C3)cc1
REMARK SMILES IDX 18 1 17 2 16 3 15 4 14 5 2 6 1 7 3 8 4 9 5 10 12 11 6 12
REMARK SMILES IDX 8 13 13 14 7 15 9 16 10 17 11 18 19 19 20 20 21 21 22 22
REMARK SMILES IDX 23 23 24 24 85 25 25 26 84 27 26 28 27 29 28 30 78 31 29 32
REMARK SMILES IDX 83 33 77 34 79 35 30 36 82 37 76 38 75 39 31 41 63 42 43 43
REMARK SMILES IDX 62 44 44 45 47 46 61 47 80 48 45 49 46 50 60 52 81 53 48 54
REMARK SMILES IDX 32 55 33 56 41 57 34 58 36 59 42 60 35 61 37 62 38 63 39 64
REMARK SMILES IDX 40 65 64 66 65 67 73 68 66 69 68 70 74 71 67 72 69 73 70 74
REMARK SMILES IDX 71 75 72 76 49 77 50 78 58 79 51 80 53 81 59 82 52 83 54 84
REMARK SMILES IDX 55 85 56 86 57 87
REMARK H PARENT 79 40 47 51
REMARK Flexibility Score: inf
ROOT
ATOM      1  C   UNL A   1      35.314  20.764  25.038  1.00  0.00     0.202 C 
ENDROOT
BRANCH   1   2
ATOM      2  O   UNL A   1      34.869  22.098  25.333  1.00  0.00    -0.374 OA
BRANCH   2   3
ATOM      3  C   UNL A   1      34.357  22.803  24.201  1.00  0.00     0.202 C 
BRANCH   3   4
ATOM      4  C   UNL A   1      33.632  24.093  24.564  1.00  0.00     0.261 C 
BRANCH   4   5
ATOM      5  O   UNL A   1      32.790  23.951  25.724  1.00  0.00    -0.463 OA
BRANCH   5   6
ATOM      6  C   UNL A   1      31.476  23.634  25.741  1.00  0.00     0.310 C 
ATOM      7  O   UNL A   1      31.132  22.506  25.384  1.00  0.00    -0.252 OA
BRANCH   6   8
ATOM      8  C   UNL A   1      30.420  24.672  26.098  1.00  0.00     0.164 C 
BRANCH   8   9
ATOM      9  C   UNL A   1      30.488  25.961  25.346  1.00  0.00     0.029 A 
ATOM     10  C   UNL A   1      30.065  26.107  24.077  1.00  0.00     0.011 A 
ATOM     11  C   UNL A   1      31.083  27.134  26.060  1.00  0.00     0.258 A 
ATOM     12  C   UNL A   1      30.294  27.334  23.359  1.00  0.00     0.019 A 
ATOM     13  N   UNL A   1      31.282  28.268  25.296  1.00  0.00    -0.258 N 
ATOM     14  O   UNL A   1      31.363  27.048  27.251  1.00  0.00    -0.269 OA
ATOM     15  C   UNL A   1      30.899  28.358  23.971  1.00  0.00     0.095 A 
BRANCH  13  16
ATOM     16  C   UNL A   1      31.864  29.410  25.950  1.00  0.00     0.451 C 
ATOM     17  F   UNL A   1      33.213  29.398  25.787  1.00  0.00    -0.185 F 
ATOM     18  F   UNL A   1      31.419  30.544  25.344  1.00  0.00    -0.185 F 
ENDBRANCH  13  16
ENDBRANCH   8   9
ENDBRANCH   6   8
ENDBRANCH   5   6
ENDBRANCH   4   5
ENDBRANCH   3   4
ENDBRANCH   2   3
ENDBRANCH   1   2
BRANCH   1  19
ATOM     19  C   UNL A   1      36.833  20.637  24.890  1.00  0.00     0.261 C 
BRANCH  19  20
ATOM     20  O   UNL A   1      37.496  21.611  25.708  1.00  0.00    -0.460 OA
BRANCH  20  21
ATOM     21  C   UNL A   1      38.788  21.340  26.017  1.00  0.00     0.338 C 
ATOM     22  O   UNL A   1      39.412  20.330  25.733  1.00  0.00    -0.246 OA
BRANCH  21  23
ATOM     23  C   UNL A   1      39.409  22.579  26.546  1.00  0.00     0.060 A 
ATOM     24  C   UNL A   1      40.450  22.539  27.479  1.00  0.00     0.016 A 
ATOM     25  C   UNL A   1      38.873  23.809  26.140  1.00  0.00     0.016 A 
ATOM     26  C   UNL A   1      40.967  23.731  27.988  1.00  0.00     0.010 A 
ATOM     27  C   UNL A   1      39.394  25.000  26.645  1.00  0.00     0.010 A 
ATOM     28  C   UNL A   1      40.457  24.968  27.557  1.00  0.00    -0.014 A 
BRANCH  28  29
ATOM     29  C   UNL A   1      41.176  26.213  27.907  1.00  0.00     0.031 A 
ATOM     30  C   UNL A   1      42.595  26.461  27.502  1.00  0.00     0.074 A 
ATOM     31  C   UNL A   1      40.504  27.124  28.637  1.00  0.00     0.049 A 
ATOM     32  N   UNL A   1      43.309  27.544  27.665  1.00  0.00    -0.248 NA
ATOM     33  C   UNL A   1      43.311  25.362  26.836  1.00  0.00     0.031 C 
ATOM     34  C   UNL A   1      39.139  26.949  29.142  1.00  0.00     0.029 A 
ATOM     35  N   UNL A   1      40.868  28.368  29.082  1.00  0.00    -0.354 N 
ATOM     36  C   UNL A   1      44.560  27.263  27.133  1.00  0.00     0.074 A 
ATOM     37  C   UNL A   1      44.513  25.897  26.652  1.00  0.00     0.031 C 
ATOM     38  C   UNL A   1      38.774  28.051  29.812  1.00  0.00     0.029 A 
ATOM     39  C   UNL A   1      39.880  29.003  29.797  1.00  0.00     0.049 A 
ATOM     40  H   UNL A   1      41.750  28.767  28.907  1.00  0.00     0.167 HD
ATOM     41  C   UNL A   1      45.634  28.081  27.040  1.00  0.00     0.034 A 
ATOM     42  C   UNL A   1      39.861  30.221  30.368  1.00  0.00     0.034 A 
ATOM     43  C   UNL A   1      45.659  29.443  27.506  1.00  0.00     0.049 A 
ATOM     44  C   UNL A   1      41.055  31.114  30.222  1.00  0.00     0.074 A 
ATOM     45  C   UNL A   1      46.677  30.372  27.384  1.00  0.00     0.029 A 
ATOM     46  N   UNL A   1      44.630  30.066  28.194  1.00  0.00    -0.354 N 
ATOM     47  N   UNL A   1      42.174  30.885  29.581  1.00  0.00    -0.248 NA
ATOM     48  C   UNL A   1      40.978  32.440  30.851  1.00  0.00     0.031 C 
ATOM     49  C   UNL A   1      46.270  31.552  28.014  1.00  0.00     0.029 A 
ATOM     50  C   UNL A   1      44.993  31.363  28.514  1.00  0.00     0.049 A 
ATOM     51  H   UNL A   1      43.767  29.648  28.420  1.00  0.00     0.167 HD
ATOM     52  C   UNL A   1      42.930  32.042  29.712  1.00  0.00     0.074 A 
ATOM     53  C   UNL A   1      42.134  32.978  30.481  1.00  0.00     0.031 C 
ATOM     54  C   UNL A   1      44.176  32.296  29.248  1.00  0.00     0.034 A 
BRANCH  41  55
ATOM     55  C   UNL A   1      46.867  27.564  26.353  1.00  0.00     0.023 A 
ATOM     56  C   UNL A   1      47.717  26.681  27.049  1.00  0.00     0.012 A 
ATOM     57  C   UNL A   1      47.114  27.839  24.993  1.00  0.00     0.148 A 
ATOM     58  C   UNL A   1      48.798  26.082  26.403  1.00  0.00     0.002 A 
ATOM     59  C   UNL A   1      48.179  27.219  24.350  1.00  0.00     0.091 A 
ATOM     60  F   UNL A   1      46.296  28.688  24.357  1.00  0.00    -0.205 F 
ATOM     61  C   UNL A   1      49.022  26.342  25.054  1.00  0.00     0.022 A 
BRANCH  59  62
ATOM     62  S   UNL A   1      48.527  27.442  22.602  1.00  0.00     0.127 S 
ATOM     63  O   UNL A   1      49.783  28.191  22.646  1.00  0.00    -0.237 OA
ATOM     64  O   UNL A   1      48.655  26.062  22.135  1.00  0.00    -0.237 OA
ATOM     65  O   UNL A   1      47.393  28.173  22.054  1.00  0.00    -0.744 OA
ENDBRANCH  59  62
ENDBRANCH  41  55
BRANCH  42  66
ATOM     66  C   UNL A   1      38.624  30.673  31.057  1.00  0.00     0.023 A 
ATOM     67  C   UNL A   1      38.529  30.546  32.455  1.00  0.00     0.012 A 
ATOM     68  C   UNL A   1      37.593  31.317  30.347  1.00  0.00     0.148 A 
ATOM     69  C   UNL A   1      37.420  31.046  33.137  1.00  0.00     0.002 A 
ATOM     70  C   UNL A   1      36.511  31.849  31.036  1.00  0.00     0.091 A 
ATOM     71  F   UNL A   1      37.713  31.427  29.016  1.00  0.00    -0.205 F 
ATOM     72  C   UNL A   1      36.418  31.708  32.430  1.00  0.00     0.022 A 
BRANCH  70  73
ATOM     73  S   UNL A   1      35.228  32.813  30.230  1.00  0.00     0.127 S 
ATOM     74  O   UNL A   1      35.990  33.945  29.706  1.00  0.00    -0.237 OA
ATOM     75  O   UNL A   1      34.742  31.876  29.217  1.00  0.00    -0.237 OA
ATOM     76  O   UNL A   1      34.261  33.136  31.270  1.00  0.00    -0.744 OA
ENDBRANCH  70  73
ENDBRANCH  42  66
BRANCH  54  77
ATOM     77  C   UNL A   1      44.779  33.639  29.552  1.00  0.00     0.023 A 
ATOM     78  C   UNL A   1      45.557  33.797  30.715  1.00  0.00     0.012 A 
ATOM     79  C   UNL A   1      44.678  34.699  28.631  1.00  0.00     0.148 A 
ATOM     80  C   UNL A   1      46.223  34.995  30.961  1.00  0.00     0.002 A 
ATOM     81  C   UNL A   1      45.372  35.879  28.865  1.00  0.00     0.091 A 
ATOM     82  F   UNL A   1      43.923  34.523  27.537  1.00  0.00    -0.205 F 
ATOM     83  C   UNL A   1      46.141  36.031  30.031  1.00  0.00     0.022 A 
BRANCH  81  84
ATOM     84  S   UNL A   1      45.392  37.241  27.694  1.00  0.00     0.127 S 
ATOM     85  O   UNL A   1      46.497  38.053  28.203  1.00  0.00    -0.237 OA
ATOM     86  O   UNL A   1      45.668  36.558  26.432  1.00  0.00    -0.237 OA
ATOM     87  O   UNL A   1      44.078  37.865  27.776  1.00  0.00    -0.744 OA
ENDBRANCH  81  84
ENDBRANCH  54  77
ENDBRANCH  28  29
ENDBRANCH  21  23
ENDBRANCH  20  21
ENDBRANCH  19  20
ENDBRANCH   1  19
TORSDOF 19
ENDMDL
