MODEL 1
REMARK VINA RESULT:     -11.4      0.000      0.000
REMARK SMILES CC(C)N1C[C@@H](C(=O)N2CCC(C(=O)OCCOCCOC(=O)c3ccc(-c4c5nc(c(-c6cccc(S(=O)(=O)[O-])c6F)c6ccc([nH]6)c(-c6cccc(S(=O)(=O)[O-])c6F)c6nc(c(-c7cccc(S(=O)(=O)[O-])c7F)c7ccc4[nH]7)C=C6)C=C5)cc3)CC2)CC1=O
REMARK SMILES IDX 19 1 18 2 17 3 16 4 15 5 13 6 14 7 12 8 7 9 8 10 9 11 10 12
REMARK SMILES IDX 88 13 11 14 87 15 6 16 4 17 5 18 90 19 89 20 91 21 2 22 1 23
REMARK SMILES IDX 3 24 20 25 21 26 22 27 23 28 24 29 25 30 86 31 26 32 85 33
REMARK SMILES IDX 27 34 28 35 29 36 79 37 30 38 84 39 78 40 80 41 31 42 83 43
REMARK SMILES IDX 77 44 76 45 32 47 64 48 44 49 63 50 45 51 48 52 62 53 81 54
REMARK SMILES IDX 46 55 47 56 61 58 82 59 49 60 33 61 34 62 42 63 35 64 37 65
REMARK SMILES IDX 43 66 36 67 38 68 39 69 40 70 41 71 65 72 66 73 74 74 67 75
REMARK SMILES IDX 69 76 75 77 68 78 70 79 71 80 72 81 73 82 50 83 51 84 59 85
REMARK SMILES IDX 52 86 54 87 60 88 53 89 55 90 56 91 57 92 58 93
REMARK H PARENT 80 46 48 57
REMARK Flexibility Score: inf
ROOT
ATOM      1  C   UNL A   1      36.100  20.243  24.943  1.00  0.00     0.202 C 
ENDROOT
BRANCH   1   2
ATOM      2  O   UNL A   1      35.192  19.144  24.912  1.00  0.00    -0.374 OA
BRANCH   2   3
ATOM      3  C   UNL A   1      33.907  19.365  24.330  1.00  0.00     0.202 C 
BRANCH   3   4
ATOM      4  C   UNL A   1      32.813  19.899  25.257  1.00  0.00     0.261 C 
BRANCH   4   5
ATOM      5  O   UNL A   1      32.814  21.336  25.306  1.00  0.00    -0.463 OA
BRANCH   5   6
ATOM      6  C   UNL A   1      33.365  21.889  26.415  1.00  0.00     0.309 C 
ATOM      7  O   UNL A   1      33.774  21.269  27.390  1.00  0.00    -0.252 OA
BRANCH   6   8
ATOM      8  C   UNL A   1      33.430  23.400  26.348  1.00  0.00     0.103 C 
ATOM      9  C   UNL A   1      32.052  26.861  24.558  1.00  0.00     0.227 C 
ATOM     10  O   UNL A   1      32.405  26.818  23.372  1.00  0.00    -0.274 OA
ATOM     11  N   UNL A   1      32.680  26.052  25.488  1.00  0.00    -0.342 N 
ATOM     12  C   UNL A   1      34.002  25.520  25.149  1.00  0.00     0.120 C 
ATOM     13  C   UNL A   1      32.100  25.494  26.704  1.00  0.00     0.120 C 
ATOM     14  C   UNL A   1      33.996  23.998  25.055  1.00  0.00     0.037 C 
ATOM     15  C   UNL A   1      32.042  23.969  26.621  1.00  0.00     0.037 C 
BRANCH   9  16
ATOM     16  C   UNL A   1      31.153  28.026  24.966  1.00  0.00     0.107 C 
ATOM     17  N   UNL A   1      30.090  29.903  24.002  1.00  0.00    -0.339 N 
ATOM     18  C   UNL A   1      30.477  28.545  23.707  1.00  0.00     0.133 C 
ATOM     19  C   UNL A   1      30.846  30.402  25.056  1.00  0.00     0.223 C 
ATOM     20  C   UNL A   1      31.595  29.267  25.717  1.00  0.00     0.115 C 
ATOM     21  O   UNL A   1      30.938  31.568  25.407  1.00  0.00    -0.275 OA
BRANCH  17  22
ATOM     22  C   UNL A   1      29.336  30.723  23.038  1.00  0.00     0.078 C 
ATOM     23  C   UNL A   1      29.350  30.122  21.624  1.00  0.00     0.031 C 
ATOM     24  C   UNL A   1      27.877  30.953  23.446  1.00  0.00     0.031 C 
ENDBRANCH  17  22
ENDBRANCH   9  16
ENDBRANCH   6   8
ENDBRANCH   5   6
ENDBRANCH   4   5
ENDBRANCH   3   4
ENDBRANCH   2   3
ENDBRANCH   1   2
BRANCH   1  25
ATOM     25  C   UNL A   1      37.599  19.917  24.965  1.00  0.00     0.261 C 
BRANCH  25  26
ATOM     26  O   UNL A   1      38.417  21.076  25.195  1.00  0.00    -0.460 OA
BRANCH  26  27
ATOM     27  C   UNL A   1      39.420  20.889  26.087  1.00  0.00     0.338 C 
ATOM     28  O   UNL A   1      40.067  19.861  26.259  1.00  0.00    -0.246 OA
BRANCH  27  29
ATOM     29  C   UNL A   1      39.789  22.160  26.733  1.00  0.00     0.060 A 
ATOM     30  C   UNL A   1      39.145  23.320  26.282  1.00  0.00     0.016 A 
ATOM     31  C   UNL A   1      40.806  22.239  27.687  1.00  0.00     0.016 A 
ATOM     32  C   UNL A   1      39.553  24.570  26.739  1.00  0.00     0.010 A 
ATOM     33  C   UNL A   1      41.221  23.498  28.139  1.00  0.00     0.010 A 
ATOM     34  C   UNL A   1      40.625  24.669  27.635  1.00  0.00    -0.014 A 
BRANCH  34  35
ATOM     35  C   UNL A   1      41.208  26.001  27.926  1.00  0.00     0.031 A 
ATOM     36  C   UNL A   1      42.608  26.305  27.464  1.00  0.00     0.074 A 
ATOM     37  C   UNL A   1      40.489  26.942  28.565  1.00  0.00     0.049 A 
ATOM     38  N   UNL A   1      43.308  27.399  27.607  1.00  0.00    -0.248 NA
ATOM     39  C   UNL A   1      43.311  25.232  26.741  1.00  0.00     0.031 C 
ATOM     40  C   UNL A   1      39.120  26.774  29.047  1.00  0.00     0.029 A 
ATOM     41  N   UNL A   1      40.821  28.222  28.930  1.00  0.00    -0.354 N 
ATOM     42  C   UNL A   1      44.538  27.143  27.013  1.00  0.00     0.074 A 
ATOM     43  C   UNL A   1      44.496  25.783  26.521  1.00  0.00     0.031 C 
ATOM     44  C   UNL A   1      38.734  27.904  29.664  1.00  0.00     0.029 A 
ATOM     45  C   UNL A   1      39.835  28.866  29.639  1.00  0.00     0.049 A 
ATOM     46  H   UNL A   1      41.685  28.640  28.707  1.00  0.00     0.167 HD
ATOM     47  C   UNL A   1      45.601  27.971  26.871  1.00  0.00     0.034 A 
ATOM     48  C   UNL A   1      39.828  30.084  30.215  1.00  0.00     0.034 A 
ATOM     49  C   UNL A   1      45.636  29.328  27.345  1.00  0.00     0.049 A 
ATOM     50  C   UNL A   1      41.036  30.974  30.072  1.00  0.00     0.074 A 
ATOM     51  C   UNL A   1      46.657  30.254  27.225  1.00  0.00     0.029 A 
ATOM     52  N   UNL A   1      44.609  29.953  28.035  1.00  0.00    -0.354 N 
ATOM     53  N   UNL A   1      42.153  30.753  29.421  1.00  0.00    -0.248 NA
ATOM     54  C   UNL A   1      40.970  32.295  30.716  1.00  0.00     0.031 C 
ATOM     55  C   UNL A   1      46.255  31.434  27.860  1.00  0.00     0.029 A 
ATOM     56  C   UNL A   1      44.973  31.250  28.353  1.00  0.00     0.049 A 
ATOM     57  H   UNL A   1      43.748  29.535  28.264  1.00  0.00     0.167 HD
ATOM     58  C   UNL A   1      42.905  31.916  29.547  1.00  0.00     0.074 A 
ATOM     59  C   UNL A   1      42.109  32.846  30.320  1.00  0.00     0.031 C 
ATOM     60  C   UNL A   1      44.149  32.185  29.076  1.00  0.00     0.034 A 
BRANCH  47  61
ATOM     61  C   UNL A   1      46.807  27.441  26.141  1.00  0.00     0.023 A 
ATOM     62  C   UNL A   1      46.933  27.670  24.755  1.00  0.00     0.012 A 
ATOM     63  C   UNL A   1      47.838  26.772  26.829  1.00  0.00     0.148 A 
ATOM     64  C   UNL A   1      48.054  27.217  24.060  1.00  0.00     0.002 A 
ATOM     65  C   UNL A   1      48.970  26.359  26.136  1.00  0.00     0.091 A 
ATOM     66  F   UNL A   1      47.688  26.545  28.141  1.00  0.00    -0.205 F 
ATOM     67  C   UNL A   1      49.076  26.573  24.752  1.00  0.00     0.022 A 
BRANCH  65  68
ATOM     68  S   UNL A   1      50.373  25.584  26.947  1.00  0.00     0.127 S 
ATOM     69  O   UNL A   1      51.284  25.373  25.824  1.00  0.00    -0.237 OA
ATOM     70  O   UNL A   1      50.796  26.622  27.889  1.00  0.00    -0.237 OA
ATOM     71  O   UNL A   1      49.858  24.374  27.572  1.00  0.00    -0.744 OA
ENDBRANCH  65  68
ENDBRANCH  47  61
BRANCH  48  72
ATOM     72  C   UNL A   1      38.615  30.554  30.941  1.00  0.00     0.023 A 
ATOM     73  C   UNL A   1      38.508  30.333  32.327  1.00  0.00     0.012 A 
ATOM     74  C   UNL A   1      37.582  31.241  30.273  1.00  0.00     0.148 A 
ATOM     75  C   UNL A   1      37.382  30.764  33.031  1.00  0.00     0.002 A 
ATOM     76  C   UNL A   1      36.490  31.715  30.989  1.00  0.00     0.091 A 
ATOM     77  F   UNL A   1      37.696  31.425  28.949  1.00  0.00    -0.205 F 
ATOM     78  C   UNL A   1      36.379  31.464  32.365  1.00  0.00     0.022 A 
BRANCH  76  79
ATOM     79  S   UNL A   1      35.215  32.735  30.240  1.00  0.00     0.127 S 
ATOM     80  O   UNL A   1      35.994  33.856  29.720  1.00  0.00    -0.237 OA
ATOM     81  O   UNL A   1      34.672  31.836  29.220  1.00  0.00    -0.237 OA
ATOM     82  O   UNL A   1      34.284  33.054  31.313  1.00  0.00    -0.744 OA
ENDBRANCH  76  79
ENDBRANCH  48  72
BRANCH  60  83
ATOM     83  C   UNL A   1      44.723  33.551  29.349  1.00  0.00     0.023 A 
ATOM     84  C   UNL A   1      45.513  33.761  30.497  1.00  0.00     0.012 A 
ATOM     85  C   UNL A   1      44.550  34.603  28.428  1.00  0.00     0.148 A 
ATOM     86  C   UNL A   1      46.096  35.005  30.738  1.00  0.00     0.002 A 
ATOM     87  C   UNL A   1      45.173  35.825  28.651  1.00  0.00     0.091 A 
ATOM     88  F   UNL A   1      43.781  34.389  27.350  1.00  0.00    -0.205 F 
ATOM     89  C   UNL A   1      45.937  36.031  29.810  1.00  0.00     0.022 A 
BRANCH  87  90
ATOM     90  S   UNL A   1      45.099  37.173  27.465  1.00  0.00     0.127 S 
ATOM     91  O   UNL A   1      45.604  38.293  28.256  1.00  0.00    -0.237 OA
ATOM     92  O   UNL A   1      46.006  36.712  26.413  1.00  0.00    -0.237 OA
ATOM     93  O   UNL A   1      43.704  37.272  27.057  1.00  0.00    -0.744 OA
ENDBRANCH  87  90
ENDBRANCH  60  83
ENDBRANCH  34  35
ENDBRANCH  27  29
ENDBRANCH  26  27
ENDBRANCH  25  26
ENDBRANCH   1  25
TORSDOF 19
ENDMDL
MODEL 2
REMARK VINA RESULT:     -11.1      1.519      1.979
REMARK SMILES CC(C)N1C[C@@H](C(=O)N2CCC(C(=O)OCCOCCOC(=O)c3ccc(-c4c5nc(c(-c6cccc(S(=O)(=O)[O-])c6F)c6ccc([nH]6)c(-c6cccc(S(=O)(=O)[O-])c6F)c6nc(c(-c7cccc(S(=O)(=O)[O-])c7F)c7ccc4[nH]7)C=C6)C=C5)cc3)CC2)CC1=O
REMARK SMILES IDX 19 1 18 2 17 3 16 4 15 5 13 6 14 7 12 8 7 9 8 10 9 11 10 12
REMARK SMILES IDX 88 13 11 14 87 15 6 16 4 17 5 18 90 19 89 20 91 21 2 22 1 23
REMARK SMILES IDX 3 24 20 25 21 26 22 27 23 28 24 29 25 30 86 31 26 32 85 33
REMARK SMILES IDX 27 34 28 35 29 36 79 37 30 38 84 39 78 40 80 41 31 42 83 43
REMARK SMILES IDX 77 44 76 45 32 47 64 48 44 49 63 50 45 51 48 52 62 53 81 54
REMARK SMILES IDX 46 55 47 56 61 58 82 59 49 60 33 61 34 62 42 63 35 64 37 65
REMARK SMILES IDX 43 66 36 67 38 68 39 69 40 70 41 71 65 72 66 73 74 74 67 75
REMARK SMILES IDX 69 76 75 77 68 78 70 79 71 80 72 81 73 82 50 83 51 84 59 85
REMARK SMILES IDX 52 86 54 87 60 88 53 89 55 90 56 91 57 92 58 93
REMARK H PARENT 80 46 48 57
REMARK Flexibility Score: inf
ROOT
ATOM      1  C   UNL A   1      36.019  20.038  24.814  1.00  0.00     0.202 C 
ENDROOT
BRANCH   1   2
ATOM      2  O   UNL A   1      35.235  18.849  24.744  1.00  0.00    -0.374 OA
BRANCH   2   3
ATOM      3  C   UNL A   1      33.860  18.985  24.383  1.00  0.00     0.202 C 
BRANCH   3   4
ATOM      4  C   UNL A   1      32.867  19.211  25.525  1.00  0.00     0.261 C 
BRANCH   4   5
ATOM      5  O   UNL A   1      32.020  20.347  25.275  1.00  0.00    -0.463 OA
BRANCH   5   6
ATOM      6  C   UNL A   1      32.454  21.529  25.778  1.00  0.00     0.309 C 
ATOM      7  O   UNL A   1      33.456  21.683  26.467  1.00  0.00    -0.252 OA
BRANCH   6   8
ATOM      8  C   UNL A   1      31.556  22.689  25.408  1.00  0.00     0.103 C 
ATOM      9  C   UNL A   1      31.113  26.789  25.130  1.00  0.00     0.227 C 
ATOM     10  O   UNL A   1      31.176  27.237  26.283  1.00  0.00    -0.274 OA
ATOM     11  N   UNL A   1      30.844  25.447  24.931  1.00  0.00    -0.342 N 
ATOM     12  C   UNL A   1      30.212  24.707  26.027  1.00  0.00     0.120 C 
ATOM     13  C   UNL A   1      31.295  24.613  23.823  1.00  0.00     0.120 C 
ATOM     14  C   UNL A   1      31.113  23.599  26.560  1.00  0.00     0.037 C 
ATOM     15  C   UNL A   1      32.236  23.517  24.322  1.00  0.00     0.037 C 
BRANCH   9  16
ATOM     16  C   UNL A   1      31.037  27.812  23.999  1.00  0.00     0.107 C 
ATOM     17  N   UNL A   1      30.010  29.882  23.509  1.00  0.00    -0.339 N 
ATOM     18  C   UNL A   1      30.574  29.128  24.602  1.00  0.00     0.133 C 
ATOM     19  C   UNL A   1      29.648  29.031  22.471  1.00  0.00     0.223 C 
ATOM     20  C   UNL A   1      30.237  27.661  22.719  1.00  0.00     0.115 C 
ATOM     21  O   UNL A   1      28.947  29.302  21.509  1.00  0.00    -0.275 OA
BRANCH  17  22
ATOM     22  C   UNL A   1      29.512  31.257  23.689  1.00  0.00     0.078 C 
ATOM     23  C   UNL A   1      27.978  31.328  23.679  1.00  0.00     0.031 C 
ATOM     24  C   UNL A   1      30.014  31.921  24.976  1.00  0.00     0.031 C 
ENDBRANCH  17  22
ENDBRANCH   9  16
ENDBRANCH   6   8
ENDBRANCH   5   6
ENDBRANCH   4   5
ENDBRANCH   3   4
ENDBRANCH   2   3
ENDBRANCH   1   2
BRANCH   1  25
ATOM     25  C   UNL A   1      37.529  19.874  25.030  1.00  0.00     0.261 C 
BRANCH  25  26
ATOM     26  O   UNL A   1      38.178  21.107  25.383  1.00  0.00    -0.460 OA
BRANCH  26  27
ATOM     27  C   UNL A   1      39.354  20.955  26.040  1.00  0.00     0.338 C 
ATOM     28  O   UNL A   1      40.102  19.986  25.991  1.00  0.00    -0.246 OA
BRANCH  27  29
ATOM     29  C   UNL A   1      39.742  22.209  26.710  1.00  0.00     0.060 A 
ATOM     30  C   UNL A   1      39.104  23.384  26.293  1.00  0.00     0.016 A 
ATOM     31  C   UNL A   1      40.771  22.256  27.653  1.00  0.00     0.016 A 
ATOM     32  C   UNL A   1      39.530  24.619  26.773  1.00  0.00     0.010 A 
ATOM     33  C   UNL A   1      41.204  23.500  28.128  1.00  0.00     0.010 A 
ATOM     34  C   UNL A   1      40.613  24.688  27.659  1.00  0.00    -0.014 A 
BRANCH  34  35
ATOM     35  C   UNL A   1      41.213  26.008  27.972  1.00  0.00     0.031 A 
ATOM     36  C   UNL A   1      42.621  26.299  27.525  1.00  0.00     0.074 A 
ATOM     37  C   UNL A   1      40.503  26.950  28.618  1.00  0.00     0.049 A 
ATOM     38  N   UNL A   1      43.335  27.380  27.688  1.00  0.00    -0.248 NA
ATOM     39  C   UNL A   1      43.315  25.225  26.793  1.00  0.00     0.031 C 
ATOM     40  C   UNL A   1      39.127  26.795  29.087  1.00  0.00     0.029 A 
ATOM     41  N   UNL A   1      40.850  28.220  29.004  1.00  0.00    -0.354 N 
ATOM     42  C   UNL A   1      44.566  27.115  27.101  1.00  0.00     0.074 A 
ATOM     43  C   UNL A   1      44.508  25.763  26.589  1.00  0.00     0.031 C 
ATOM     44  C   UNL A   1      38.752  27.922  29.717  1.00  0.00     0.029 A 
ATOM     45  C   UNL A   1      39.867  28.868  29.714  1.00  0.00     0.049 A 
ATOM     46  H   UNL A   1      41.720  28.629  28.793  1.00  0.00     0.167 HD
ATOM     47  C   UNL A   1      45.641  27.930  26.979  1.00  0.00     0.034 A 
ATOM     48  C   UNL A   1      39.873  30.078  30.306  1.00  0.00     0.034 A 
ATOM     49  C   UNL A   1      45.692  29.280  27.471  1.00  0.00     0.049 A 
ATOM     50  C   UNL A   1      41.094  30.953  30.185  1.00  0.00     0.074 A 
ATOM     51  C   UNL A   1      46.727  30.192  27.372  1.00  0.00     0.029 A 
ATOM     52  N   UNL A   1      44.668  29.909  28.162  1.00  0.00    -0.354 N 
ATOM     53  N   UNL A   1      42.212  30.725  29.540  1.00  0.00    -0.248 NA
ATOM     54  C   UNL A   1      41.042  32.266  30.847  1.00  0.00     0.031 C 
ATOM     55  C   UNL A   1      46.336  31.369  28.020  1.00  0.00     0.029 A 
ATOM     56  C   UNL A   1      45.048  31.196  28.501  1.00  0.00     0.049 A 
ATOM     57  H   UNL A   1      43.799  29.500  28.378  1.00  0.00     0.167 HD
ATOM     58  C   UNL A   1      42.980  31.875  29.688  1.00  0.00     0.074 A 
ATOM     59  C   UNL A   1      42.191  32.806  30.467  1.00  0.00     0.031 C 
ATOM     60  C   UNL A   1      44.231  32.133  29.230  1.00  0.00     0.034 A 
BRANCH  47  61
ATOM     61  C   UNL A   1      46.846  27.392  26.250  1.00  0.00     0.023 A 
ATOM     62  C   UNL A   1      47.700  26.480  26.903  1.00  0.00     0.012 A 
ATOM     63  C   UNL A   1      47.100  27.741  24.909  1.00  0.00     0.148 A 
ATOM     64  C   UNL A   1      48.803  25.943  26.242  1.00  0.00     0.002 A 
ATOM     65  C   UNL A   1      48.180  27.170  24.245  1.00  0.00     0.091 A 
ATOM     66  F   UNL A   1      46.289  28.627  24.315  1.00  0.00    -0.205 F 
ATOM     67  C   UNL A   1      49.037  26.279  24.911  1.00  0.00     0.022 A 
BRANCH  65  68
ATOM     68  S   UNL A   1      48.524  27.484  22.510  1.00  0.00     0.127 S 
ATOM     69  O   UNL A   1      49.790  28.211  22.587  1.00  0.00    -0.237 OA
ATOM     70  O   UNL A   1      48.631  26.129  21.967  1.00  0.00    -0.237 OA
ATOM     71  O   UNL A   1      47.392  28.251  22.008  1.00  0.00    -0.744 OA
ENDBRANCH  65  68
ENDBRANCH  47  61
BRANCH  48  72
ATOM     72  C   UNL A   1      38.660  30.556  31.029  1.00  0.00     0.023 A 
ATOM     73  C   UNL A   1      38.563  30.365  32.421  1.00  0.00     0.012 A 
ATOM     74  C   UNL A   1      37.619  31.220  30.353  1.00  0.00     0.148 A 
ATOM     75  C   UNL A   1      37.439  30.803  33.123  1.00  0.00     0.002 A 
ATOM     76  C   UNL A   1      36.528  31.703  31.065  1.00  0.00     0.091 A 
ATOM     77  F   UNL A   1      37.723  31.376  29.025  1.00  0.00    -0.205 F 
ATOM     78  C   UNL A   1      36.427  31.481  32.447  1.00  0.00     0.022 A 
BRANCH  76  79
ATOM     79  S   UNL A   1      35.241  32.696  30.302  1.00  0.00     0.127 S 
ATOM     80  O   UNL A   1      34.789  31.824  29.221  1.00  0.00    -0.237 OA
ATOM     81  O   UNL A   1      34.291  32.856  31.404  1.00  0.00    -0.237 OA
ATOM     82  O   UNL A   1      35.891  33.932  29.887  1.00  0.00    -0.744 OA
ENDBRANCH  76  79
ENDBRANCH  48  72
BRANCH  60  83
ATOM     83  C   UNL A   1      44.823  33.487  29.527  1.00  0.00     0.023 A 
ATOM     84  C   UNL A   1      45.558  33.684  30.712  1.00  0.00     0.012 A 
ATOM     85  C   UNL A   1      44.721  34.538  28.593  1.00  0.00     0.148 A 
ATOM     86  C   UNL A   1      46.157  34.916  30.977  1.00  0.00     0.002 A 
ATOM     87  C   UNL A   1      45.359  35.746  28.843  1.00  0.00     0.091 A 
ATOM     88  F   UNL A   1      44.002  34.336  27.479  1.00  0.00    -0.205 F 
ATOM     89  C   UNL A   1      46.068  35.941  30.038  1.00  0.00     0.022 A 
BRANCH  87  90
ATOM     90  S   UNL A   1      45.376  37.090  27.649  1.00  0.00     0.127 S 
ATOM     91  O   UNL A   1      46.030  36.462  26.503  1.00  0.00    -0.237 OA
ATOM     92  O   UNL A   1      43.950  37.361  27.465  1.00  0.00    -0.237 OA
ATOM     93  O   UNL A   1      46.119  38.175  28.278  1.00  0.00    -0.744 OA
ENDBRANCH  87  90
ENDBRANCH  60  83
ENDBRANCH  34  35
ENDBRANCH  27  29
ENDBRANCH  26  27
ENDBRANCH  25  26
ENDBRANCH   1  25
TORSDOF 19
ENDMDL
MODEL 3
REMARK VINA RESULT:     -10.9      1.224      7.949
REMARK SMILES CC(C)N1C[C@@H](C(=O)N2CCC(C(=O)OCCOCCOC(=O)c3ccc(-c4c5nc(c(-c6cccc(S(=O)(=O)[O-])c6F)c6ccc([nH]6)c(-c6cccc(S(=O)(=O)[O-])c6F)c6nc(c(-c7cccc(S(=O)(=O)[O-])c7F)c7ccc4[nH]7)C=C6)C=C5)cc3)CC2)CC1=O
REMARK SMILES IDX 19 1 18 2 17 3 16 4 15 5 13 6 14 7 12 8 7 9 8 10 9 11 10 12
REMARK SMILES IDX 88 13 11 14 87 15 6 16 4 17 5 18 90 19 89 20 91 21 2 22 1 23
REMARK SMILES IDX 3 24 20 25 21 26 22 27 23 28 24 29 25 30 86 31 26 32 85 33
REMARK SMILES IDX 27 34 28 35 29 36 79 37 30 38 84 39 78 40 80 41 31 42 83 43
REMARK SMILES IDX 77 44 76 45 32 47 64 48 44 49 63 50 45 51 48 52 62 53 81 54
REMARK SMILES IDX 46 55 47 56 61 58 82 59 49 60 33 61 34 62 42 63 35 64 37 65
REMARK SMILES IDX 43 66 36 67 38 68 39 69 40 70 41 71 65 72 66 73 74 74 67 75
REMARK SMILES IDX 69 76 75 77 68 78 70 79 71 80 72 81 73 82 50 83 51 84 59 85
REMARK SMILES IDX 52 86 54 87 60 88 53 89 55 90 56 91 57 92 58 93
REMARK H PARENT 80 46 48 57
REMARK Flexibility Score: inf
ROOT
ATOM      1  C   UNL A   1      36.021  19.984  24.630  1.00  0.00     0.202 C 
ENDROOT
BRANCH   1   2
ATOM      2  O   UNL A   1      36.296  18.585  24.652  1.00  0.00    -0.374 OA
BRANCH   2   3
ATOM      3  C   UNL A   1      35.189  17.698  24.818  1.00  0.00     0.202 C 
BRANCH   3   4
ATOM      4  C   UNL A   1      34.300  17.469  23.595  1.00  0.00     0.261 C 
BRANCH   4   5
ATOM      5  O   UNL A   1      33.260  18.458  23.501  1.00  0.00    -0.463 OA
BRANCH   5   6
ATOM      6  C   UNL A   1      32.464  18.583  24.592  1.00  0.00     0.309 C 
ATOM      7  O   UNL A   1      31.941  17.655  25.200  1.00  0.00    -0.252 OA
BRANCH   6   8
ATOM      8  C   UNL A   1      32.262  20.023  25.010  1.00  0.00     0.103 C 
ATOM      9  C   UNL A   1      33.899  23.802  25.361  1.00  0.00     0.227 C 
ATOM     10  O   UNL A   1      34.824  23.719  26.180  1.00  0.00    -0.274 OA
ATOM     11  N   UNL A   1      32.931  22.815  25.319  1.00  0.00    -0.342 N 
ATOM     12  C   UNL A   1      32.770  21.966  26.503  1.00  0.00     0.120 C 
ATOM     13  C   UNL A   1      32.168  22.377  24.156  1.00  0.00     0.120 C 
ATOM     14  C   UNL A   1      33.094  20.506  26.204  1.00  0.00     0.037 C 
ATOM     15  C   UNL A   1      32.504  20.928  23.806  1.00  0.00     0.037 C 
BRANCH   9  16
ATOM     16  C   UNL A   1      33.726  25.145  24.654  1.00  0.00     0.107 C 
ATOM     17  N   UNL A   1      32.045  26.750  24.226  1.00  0.00    -0.339 N 
ATOM     18  C   UNL A   1      32.481  25.805  25.226  1.00  0.00     0.133 C 
ATOM     19  C   UNL A   1      32.561  26.407  22.982  1.00  0.00     0.223 C 
ATOM     20  C   UNL A   1      33.628  25.351  23.154  1.00  0.00     0.115 C 
ATOM     21  O   UNL A   1      32.215  26.848  21.897  1.00  0.00    -0.275 OA
BRANCH  17  22
ATOM     22  C   UNL A   1      30.894  27.642  24.450  1.00  0.00     0.078 C 
ATOM     23  C   UNL A   1      31.264  29.124  24.290  1.00  0.00     0.031 C 
ATOM     24  C   UNL A   1      29.706  27.343  23.529  1.00  0.00     0.031 C 
ENDBRANCH  17  22
ENDBRANCH   9  16
ENDBRANCH   6   8
ENDBRANCH   5   6
ENDBRANCH   4   5
ENDBRANCH   3   4
ENDBRANCH   2   3
ENDBRANCH   1   2
BRANCH   1  25
ATOM     25  C   UNL A   1      36.814  20.873  25.597  1.00  0.00     0.261 C 
BRANCH  25  26
ATOM     26  O   UNL A   1      38.132  21.183  25.115  1.00  0.00    -0.460 OA
BRANCH  26  27
ATOM     27  C   UNL A   1      39.128  20.929  25.998  1.00  0.00     0.338 C 
ATOM     28  O   UNL A   1      39.688  19.854  26.184  1.00  0.00    -0.246 OA
BRANCH  27  29
ATOM     29  C   UNL A   1      39.612  22.177  26.612  1.00  0.00     0.060 A 
ATOM     30  C   UNL A   1      39.069  23.379  26.138  1.00  0.00     0.016 A 
ATOM     31  C   UNL A   1      40.638  22.187  27.560  1.00  0.00     0.016 A 
ATOM     32  C   UNL A   1      39.590  24.597  26.564  1.00  0.00     0.010 A 
ATOM     33  C   UNL A   1      41.166  23.414  27.980  1.00  0.00     0.010 A 
ATOM     34  C   UNL A   1      40.672  24.622  27.453  1.00  0.00    -0.014 A 
BRANCH  34  35
ATOM     35  C   UNL A   1      41.372  25.904  27.710  1.00  0.00     0.031 A 
ATOM     36  C   UNL A   1      40.661  26.988  28.475  1.00  0.00     0.074 A 
ATOM     37  C   UNL A   1      42.638  26.091  27.294  1.00  0.00     0.049 A 
ATOM     38  N   UNL A   1      41.084  28.177  28.812  1.00  0.00    -0.248 NA
ATOM     39  C   UNL A   1      39.291  26.688  28.922  1.00  0.00     0.031 C 
ATOM     40  C   UNL A   1      43.438  25.112  26.559  1.00  0.00     0.029 A 
ATOM     41  N   UNL A   1      43.467  27.177  27.421  1.00  0.00    -0.354 N 
ATOM     42  C   UNL A   1      40.031  28.776  29.491  1.00  0.00     0.074 A 
ATOM     43  C   UNL A   1      38.940  27.825  29.506  1.00  0.00     0.031 C 
ATOM     44  C   UNL A   1      44.638  25.650  26.282  1.00  0.00     0.029 A 
ATOM     45  C   UNL A   1      44.683  27.017  26.801  1.00  0.00     0.049 A 
ATOM     46  H   UNL A   1      43.215  27.994  27.910  1.00  0.00     0.167 HD
ATOM     47  C   UNL A   1      39.980  30.000  30.069  1.00  0.00     0.034 A 
ATOM     48  C   UNL A   1      45.708  27.880  26.655  1.00  0.00     0.034 A 
ATOM     49  C   UNL A   1      41.069  30.939  30.070  1.00  0.00     0.049 A 
ATOM     50  C   UNL A   1      45.614  29.248  27.278  1.00  0.00     0.074 A 
ATOM     51  C   UNL A   1      41.123  32.193  30.652  1.00  0.00     0.029 A 
ATOM     52  N   UNL A   1      42.293  30.731  29.454  1.00  0.00    -0.354 N 
ATOM     53  N   UNL A   1      44.650  29.762  28.003  1.00  0.00    -0.248 NA
ATOM     54  C   UNL A   1      46.765  30.146  27.091  1.00  0.00     0.031 C 
ATOM     55  C   UNL A   1      42.374  32.752  30.372  1.00  0.00     0.029 A 
ATOM     56  C   UNL A   1      43.108  31.835  29.636  1.00  0.00     0.049 A 
ATOM     57  H   UNL A   1      42.545  29.918  28.960  1.00  0.00     0.167 HD
ATOM     58  C   UNL A   1      45.090  31.024  28.387  1.00  0.00     0.074 A 
ATOM     59  C   UNL A   1      46.416  31.190  27.831  1.00  0.00     0.031 C 
ATOM     60  C   UNL A   1      44.448  31.966  29.123  1.00  0.00     0.034 A 
BRANCH  47  61
ATOM     61  C   UNL A   1      38.710  30.383  30.784  1.00  0.00     0.023 A 
ATOM     62  C   UNL A   1      38.562  30.066  32.150  1.00  0.00     0.012 A 
ATOM     63  C   UNL A   1      37.694  31.104  30.127  1.00  0.00     0.148 A 
ATOM     64  C   UNL A   1      37.411  30.436  32.843  1.00  0.00     0.002 A 
ATOM     65  C   UNL A   1      36.568  31.505  30.836  1.00  0.00     0.091 A 
ATOM     66  F   UNL A   1      37.846  31.376  28.823  1.00  0.00    -0.205 F 
ATOM     67  C   UNL A   1      36.420  31.164  32.190  1.00  0.00     0.022 A 
BRANCH  65  68
ATOM     68  S   UNL A   1      35.269  32.506  30.103  1.00  0.00     0.127 S 
ATOM     69  O   UNL A   1      34.341  32.651  31.224  1.00  0.00    -0.237 OA
ATOM     70  O   UNL A   1      35.988  33.730  29.746  1.00  0.00    -0.237 OA
ATOM     71  O   UNL A   1      34.765  31.746  28.969  1.00  0.00    -0.744 OA
ENDBRANCH  65  68
ENDBRANCH  47  61
BRANCH  48  72
ATOM     72  C   UNL A   1      46.936  27.456  25.924  1.00  0.00     0.023 A 
ATOM     73  C   UNL A   1      47.057  27.741  24.550  1.00  0.00     0.012 A 
ATOM     74  C   UNL A   1      47.991  26.799  26.585  1.00  0.00     0.148 A 
ATOM     75  C   UNL A   1      48.197  27.356  23.842  1.00  0.00     0.002 A 
ATOM     76  C   UNL A   1      49.146  26.467  25.887  1.00  0.00     0.091 A 
ATOM     77  F   UNL A   1      47.848  26.521  27.889  1.00  0.00    -0.205 F 
ATOM     78  C   UNL A   1      49.244  26.730  24.512  1.00  0.00     0.022 A 
BRANCH  76  79
ATOM     79  S   UNL A   1      50.594  25.775  26.692  1.00  0.00     0.127 S 
ATOM     80  O   UNL A   1      51.525  25.643  25.574  1.00  0.00    -0.237 OA
ATOM     81  O   UNL A   1      50.932  26.824  27.656  1.00  0.00    -0.237 OA
ATOM     82  O   UNL A   1      50.150  24.526  27.296  1.00  0.00    -0.744 OA
ENDBRANCH  76  79
ENDBRANCH  48  72
BRANCH  60  83
ATOM     83  C   UNL A   1      45.178  33.254  29.404  1.00  0.00     0.023 A 
ATOM     84  C   UNL A   1      45.997  33.359  30.546  1.00  0.00     0.012 A 
ATOM     85  C   UNL A   1      45.117  34.330  28.496  1.00  0.00     0.148 A 
ATOM     86  C   UNL A   1      46.721  34.525  30.794  1.00  0.00     0.002 A 
ATOM     87  C   UNL A   1      45.877  35.470  28.726  1.00  0.00     0.091 A 
ATOM     88  F   UNL A   1      44.318  34.219  27.424  1.00  0.00    -0.205 F 
ATOM     89  C   UNL A   1      46.671  35.574  29.879  1.00  0.00     0.022 A 
BRANCH  87  90
ATOM     90  S   UNL A   1      45.947  36.833  27.556  1.00  0.00     0.127 S 
ATOM     91  O   UNL A   1      46.218  36.134  26.301  1.00  0.00    -0.237 OA
ATOM     92  O   UNL A   1      44.602  37.401  27.659  1.00  0.00    -0.237 OA
ATOM     93  O   UNL A   1      47.010  37.711  28.027  1.00  0.00    -0.744 OA
ENDBRANCH  87  90
ENDBRANCH  60  83
ENDBRANCH  34  35
ENDBRANCH  27  29
ENDBRANCH  26  27
ENDBRANCH  25  26
ENDBRANCH   1  25
TORSDOF 19
ENDMDL
