MODEL 1
REMARK VINA RESULT:     -11.3      0.000      0.000
REMARK SMILES CC[C@@](O)(C(=O)OCCOCCOC(=O)c1ccc(-c2c3nc(c(-c4cccc(S(=O)(=O)[O-])c4F)c4ccc([nH]4)c(-c4cccc(S(=O)(=O)[O-])c4F)c4nc(c(-c5cccc(S(=O)(=O)[O-])c5F)c5ccc2[nH]5)C=C4)C=C3)cc1)[C@H](C)c1cc(F)c(C)cc1F
REMARK SMILES IDX 11 1 10 2 9 3 8 4 7 5 5 6 6 7 3 8 2 9 1 10 4 11 79 13 80 14
REMARK SMILES IDX 81 15 82 16 88 17 83 18 87 19 89 20 84 21 85 22 86 23 12 24
REMARK SMILES IDX 13 25 14 26 15 27 16 28 17 29 78 30 18 31 77 32 19 33 20 34
REMARK SMILES IDX 21 35 71 36 22 37 76 38 70 39 72 40 23 41 75 42 69 43 68 44
REMARK SMILES IDX 24 46 56 47 36 48 55 49 37 50 40 51 54 52 73 53 38 54 39 55
REMARK SMILES IDX 53 57 74 58 41 59 25 60 26 61 34 62 27 63 29 64 35 65 28 66
REMARK SMILES IDX 30 67 31 68 32 69 33 70 57 71 58 72 66 73 59 74 61 75 67 76
REMARK SMILES IDX 60 77 62 78 63 79 64 80 65 81 42 82 43 83 51 84 44 85 46 86
REMARK SMILES IDX 52 87 45 88 47 89 48 90 49 91 50 92
REMARK H PARENT 4 12 72 45 40 56
REMARK Flexibility Score: inf
ROOT
ATOM      1  C   UNL A   1      35.651  21.122  24.944  1.00  0.00     0.202 C 
ENDROOT
BRANCH   1   2
ATOM      2  O   UNL A   1      34.533  20.823  25.774  1.00  0.00    -0.374 OA
BRANCH   2   3
ATOM      3  C   UNL A   1      34.015  21.857  26.607  1.00  0.00     0.202 C 
BRANCH   3   4
ATOM      4  C   UNL A   1      32.650  22.454  26.250  1.00  0.00     0.261 C 
BRANCH   4   5
ATOM      5  O   UNL A   1      32.569  23.846  26.578  1.00  0.00    -0.461 OA
BRANCH   5   6
ATOM      6  C   UNL A   1      31.323  24.398  26.515  1.00  0.00     0.338 C 
ATOM      7  O   UNL A   1      30.371  23.982  27.166  1.00  0.00    -0.249 OA
BRANCH   6   8
ATOM      8  C   UNL A   1      31.272  25.614  25.529  1.00  0.00     0.168 C 
BRANCH   8   9
ATOM      9  C   UNL A   1      31.118  26.925  26.358  1.00  0.00     0.044 C 
ATOM     10  C   UNL A   1      32.271  27.922  26.270  1.00  0.00     0.007 C 
ENDBRANCH   8   9
BRANCH   8  11
ATOM     11  O   UNL A   1      32.604  25.651  24.954  1.00  0.00    -0.378 OA
ATOM     12  H   UNL A   1      32.803  26.553  24.657  1.00  0.00     0.212 HD
ENDBRANCH   8  11
BRANCH   8  13
ATOM     13  C   UNL A   1      30.236  25.427  24.317  1.00  0.00     0.062 C 
ATOM     14  C   UNL A   1      30.699  24.430  23.230  1.00  0.00     0.016 C 
BRANCH  13  15
ATOM     15  C   UNL A   1      29.678  26.709  23.677  1.00  0.00    -0.003 A 
ATOM     16  C   UNL A   1      30.449  27.572  22.880  1.00  0.00     0.046 A 
ATOM     17  C   UNL A   1      28.332  27.057  23.852  1.00  0.00     0.127 A 
ATOM     18  C   UNL A   1      29.931  28.781  22.412  1.00  0.00     0.126 A 
ATOM     19  C   UNL A   1      27.816  28.279  23.404  1.00  0.00     0.046 A 
ATOM     20  F   UNL A   1      27.502  26.203  24.463  1.00  0.00    -0.207 F 
ATOM     21  F   UNL A   1      30.722  29.574  21.675  1.00  0.00    -0.207 F 
ATOM     22  C   UNL A   1      28.632  29.176  22.710  1.00  0.00    -0.012 A 
ATOM     23  C   UNL A   1      28.138  30.519  22.271  1.00  0.00     0.047 C 
ENDBRANCH  13  15
ENDBRANCH   8  13
ENDBRANCH   6   8
ENDBRANCH   5   6
ENDBRANCH   4   5
ENDBRANCH   3   4
ENDBRANCH   2   3
ENDBRANCH   1   2
BRANCH   1  24
ATOM     24  C   UNL A   1      37.029  20.560  25.298  1.00  0.00     0.261 C 
BRANCH  24  25
ATOM     25  O   UNL A   1      38.090  21.510  25.152  1.00  0.00    -0.460 OA
BRANCH  25  26
ATOM     26  C   UNL A   1      39.127  21.309  26.000  1.00  0.00     0.338 C 
ATOM     27  O   UNL A   1      39.791  20.288  26.126  1.00  0.00    -0.246 OA
BRANCH  26  28
ATOM     28  C   UNL A   1      39.497  22.569  26.657  1.00  0.00     0.060 A 
ATOM     29  C   UNL A   1      38.800  23.722  26.274  1.00  0.00     0.016 A 
ATOM     30  C   UNL A   1      40.564  22.639  27.555  1.00  0.00     0.016 A 
ATOM     31  C   UNL A   1      39.209  24.965  26.742  1.00  0.00     0.010 A 
ATOM     32  C   UNL A   1      40.979  23.891  28.015  1.00  0.00     0.010 A 
ATOM     33  C   UNL A   1      40.329  25.058  27.575  1.00  0.00    -0.014 A 
BRANCH  33  34
ATOM     34  C   UNL A   1      40.913  26.390  27.849  1.00  0.00     0.031 A 
ATOM     35  C   UNL A   1      42.272  26.713  27.292  1.00  0.00     0.074 A 
ATOM     36  C   UNL A   1      40.233  27.298  28.566  1.00  0.00     0.049 A 
ATOM     37  N   UNL A   1      42.973  27.810  27.407  1.00  0.00    -0.248 NA
ATOM     38  C   UNL A   1      42.930  25.659  26.501  1.00  0.00     0.031 C 
ATOM     39  C   UNL A   1      38.906  27.093  29.147  1.00  0.00     0.029 A 
ATOM     40  N   UNL A   1      40.575  28.571  28.946  1.00  0.00    -0.354 N 
ATOM     41  C   UNL A   1      44.163  27.571  26.730  1.00  0.00     0.074 A 
ATOM     42  C   UNL A   1      44.096  26.221  26.217  1.00  0.00     0.031 C 
ATOM     43  C   UNL A   1      38.557  28.195  29.832  1.00  0.00     0.029 A 
ATOM     44  C   UNL A   1      39.642  29.171  29.755  1.00  0.00     0.049 A 
ATOM     45  H   UNL A   1      41.409  29.011  28.664  1.00  0.00     0.167 HD
ATOM     46  C   UNL A   1      45.210  28.407  26.541  1.00  0.00     0.034 A 
ATOM     47  C   UNL A   1      39.671  30.366  30.377  1.00  0.00     0.034 A 
ATOM     48  C   UNL A   1      45.260  29.756  27.036  1.00  0.00     0.049 A 
ATOM     49  C   UNL A   1      40.857  31.270  30.165  1.00  0.00     0.074 A 
ATOM     50  C   UNL A   1      46.250  30.703  26.856  1.00  0.00     0.029 A 
ATOM     51  N   UNL A   1      44.280  30.345  27.821  1.00  0.00    -0.354 N 
ATOM     52  N   UNL A   1      41.921  31.077  29.423  1.00  0.00    -0.248 NA
ATOM     53  C   UNL A   1      40.833  32.570  30.851  1.00  0.00     0.031 C 
ATOM     54  C   UNL A   1      45.882  31.857  27.555  1.00  0.00     0.029 A 
ATOM     55  C   UNL A   1      44.647  31.638  28.147  1.00  0.00     0.049 A 
ATOM     56  H   UNL A   1      43.444  29.907  28.105  1.00  0.00     0.167 HD
ATOM     57  C   UNL A   1      42.673  32.243  29.522  1.00  0.00     0.074 A 
ATOM     58  C   UNL A   1      41.933  33.143  30.384  1.00  0.00     0.031 C 
ATOM     59  C   UNL A   1      43.873  32.538  28.963  1.00  0.00     0.034 A 
BRANCH  46  60
ATOM     60  C   UNL A   1      46.381  27.892  25.748  1.00  0.00     0.023 A 
ATOM     61  C   UNL A   1      46.422  28.091  24.353  1.00  0.00     0.012 A 
ATOM     62  C   UNL A   1      47.462  27.253  26.387  1.00  0.00     0.148 A 
ATOM     63  C   UNL A   1      47.504  27.635  23.601  1.00  0.00     0.002 A 
ATOM     64  C   UNL A   1      48.557  26.840  25.637  1.00  0.00     0.091 A 
ATOM     65  F   UNL A   1      47.392  27.050  27.710  1.00  0.00    -0.205 F 
ATOM     66  C   UNL A   1      48.575  27.020  24.245  1.00  0.00     0.022 A 
BRANCH  64  67
ATOM     67  S   UNL A   1      50.015  26.103  26.384  1.00  0.00     0.127 S 
ATOM     68  O   UNL A   1      50.377  27.111  27.380  1.00  0.00    -0.237 OA
ATOM     69  O   UNL A   1      49.482  24.859  26.942  1.00  0.00    -0.237 OA
ATOM     70  O   UNL A   1      50.971  25.921  25.302  1.00  0.00    -0.744 OA
ENDBRANCH  64  67
ENDBRANCH  46  60
BRANCH  47  71
ATOM     71  C   UNL A   1      38.523  30.789  31.226  1.00  0.00     0.023 A 
ATOM     72  C   UNL A   1      38.568  30.572  32.616  1.00  0.00     0.012 A 
ATOM     73  C   UNL A   1      37.400  31.428  30.666  1.00  0.00     0.148 A 
ATOM     74  C   UNL A   1      37.505  30.960  33.431  1.00  0.00     0.002 A 
ATOM     75  C   UNL A   1      36.367  31.860  31.490  1.00  0.00     0.091 A 
ATOM     76  F   UNL A   1      37.368  31.611  29.338  1.00  0.00    -0.205 F 
ATOM     77  C   UNL A   1      36.409  31.613  32.870  1.00  0.00     0.022 A 
BRANCH  75  78
ATOM     78  S   UNL A   1      34.979  32.819  30.872  1.00  0.00     0.127 S 
ATOM     79  O   UNL A   1      34.606  32.068  29.676  1.00  0.00    -0.237 OA
ATOM     80  O   UNL A   1      34.030  32.726  31.982  1.00  0.00    -0.237 OA
ATOM     81  O   UNL A   1      35.502  34.160  30.640  1.00  0.00    -0.744 OA
ENDBRANCH  75  78
ENDBRANCH  47  71
BRANCH  59  82
ATOM     82  C   UNL A   1      44.454  33.902  29.233  1.00  0.00     0.023 A 
ATOM     83  C   UNL A   1      45.416  34.065  30.249  1.00  0.00     0.012 A 
ATOM     84  C   UNL A   1      44.104  35.003  28.427  1.00  0.00     0.148 A 
ATOM     85  C   UNL A   1      46.000  35.311  30.478  1.00  0.00     0.002 A 
ATOM     86  C   UNL A   1      44.726  36.230  28.628  1.00  0.00     0.091 A 
ATOM     87  F   UNL A   1      43.173  34.832  27.477  1.00  0.00    -0.205 F 
ATOM     88  C   UNL A   1      45.663  36.389  29.661  1.00  0.00     0.022 A 
BRANCH  86  89
ATOM     89  S   UNL A   1      44.428  37.646  27.563  1.00  0.00     0.127 S 
ATOM     90  O   UNL A   1      44.295  38.728  28.536  1.00  0.00    -0.237 OA
ATOM     91  O   UNL A   1      45.651  37.693  26.761  1.00  0.00    -0.237 OA
ATOM     92  O   UNL A   1      43.223  37.331  26.806  1.00  0.00    -0.744 OA
ENDBRANCH  86  89
ENDBRANCH  59  82
ENDBRANCH  33  34
ENDBRANCH  26  28
ENDBRANCH  25  26
ENDBRANCH  24  25
ENDBRANCH   1  24
TORSDOF 21
ENDMDL
MODEL 2
REMARK VINA RESULT:     -10.8      1.980      7.883
REMARK SMILES CC[C@@](O)(C(=O)OCCOCCOC(=O)c1ccc(-c2c3nc(c(-c4cccc(S(=O)(=O)[O-])c4F)c4ccc([nH]4)c(-c4cccc(S(=O)(=O)[O-])c4F)c4nc(c(-c5cccc(S(=O)(=O)[O-])c5F)c5ccc2[nH]5)C=C4)C=C3)cc1)[C@H](C)c1cc(F)c(C)cc1F
REMARK SMILES IDX 11 1 10 2 9 3 8 4 7 5 5 6 6 7 3 8 2 9 1 10 4 11 79 13 80 14
REMARK SMILES IDX 81 15 82 16 88 17 83 18 87 19 89 20 84 21 85 22 86 23 12 24
REMARK SMILES IDX 13 25 14 26 15 27 16 28 17 29 78 30 18 31 77 32 19 33 20 34
REMARK SMILES IDX 21 35 71 36 22 37 76 38 70 39 72 40 23 41 75 42 69 43 68 44
REMARK SMILES IDX 24 46 56 47 36 48 55 49 37 50 40 51 54 52 73 53 38 54 39 55
REMARK SMILES IDX 53 57 74 58 41 59 25 60 26 61 34 62 27 63 29 64 35 65 28 66
REMARK SMILES IDX 30 67 31 68 32 69 33 70 57 71 58 72 66 73 59 74 61 75 67 76
REMARK SMILES IDX 60 77 62 78 63 79 64 80 65 81 42 82 43 83 51 84 44 85 46 86
REMARK SMILES IDX 52 87 45 88 47 89 48 90 49 91 50 92
REMARK H PARENT 4 12 72 45 40 56
REMARK Flexibility Score: inf
ROOT
ATOM      1  C   UNL A   1      36.219  21.077  24.797  1.00  0.00     0.202 C 
ENDROOT
BRANCH   1   2
ATOM      2  O   UNL A   1      35.031  20.861  25.552  1.00  0.00    -0.374 OA
BRANCH   2   3
ATOM      3  C   UNL A   1      34.600  21.889  26.440  1.00  0.00     0.202 C 
BRANCH   3   4
ATOM      4  C   UNL A   1      33.185  22.449  26.261  1.00  0.00     0.261 C 
BRANCH   4   5
ATOM      5  O   UNL A   1      33.142  23.869  26.443  1.00  0.00    -0.461 OA
BRANCH   5   6
ATOM      6  C   UNL A   1      31.895  24.420  26.512  1.00  0.00     0.338 C 
ATOM      7  O   UNL A   1      30.996  23.960  27.207  1.00  0.00    -0.249 OA
BRANCH   6   8
ATOM      8  C   UNL A   1      31.771  25.698  25.615  1.00  0.00     0.168 C 
BRANCH   8   9
ATOM      9  C   UNL A   1      31.394  26.911  26.518  1.00  0.00     0.044 C 
ATOM     10  C   UNL A   1      32.381  28.075  26.535  1.00  0.00     0.007 C 
ENDBRANCH   8   9
BRANCH   8  11
ATOM     11  O   UNL A   1      33.128  25.936  25.159  1.00  0.00    -0.378 OA
ATOM     12  H   UNL A   1      33.286  25.439  24.341  1.00  0.00     0.212 HD
ENDBRANCH   8  11
BRANCH   8  13
ATOM     13  C   UNL A   1      30.861  25.488  24.308  1.00  0.00     0.062 C 
ATOM     14  C   UNL A   1      31.567  24.745  23.151  1.00  0.00     0.016 C 
BRANCH  13  15
ATOM     15  C   UNL A   1      30.108  26.722  23.782  1.00  0.00    -0.003 A 
ATOM     16  C   UNL A   1      28.727  26.912  23.949  1.00  0.00     0.046 A 
ATOM     17  C   UNL A   1      30.802  27.743  23.119  1.00  0.00     0.127 A 
ATOM     18  C   UNL A   1      28.067  27.992  23.358  1.00  0.00     0.126 A 
ATOM     19  C   UNL A   1      30.142  28.814  22.506  1.00  0.00     0.046 A 
ATOM     20  F   UNL A   1      32.140  27.706  23.064  1.00  0.00    -0.207 F 
ATOM     21  F   UNL A   1      26.743  28.108  23.534  1.00  0.00    -0.207 F 
ATOM     22  C   UNL A   1      28.752  28.924  22.587  1.00  0.00    -0.012 A 
ATOM     23  C   UNL A   1      28.001  30.017  21.893  1.00  0.00     0.047 C 
ENDBRANCH  13  15
ENDBRANCH   8  13
ENDBRANCH   6   8
ENDBRANCH   5   6
ENDBRANCH   4   5
ENDBRANCH   3   4
ENDBRANCH   2   3
ENDBRANCH   1   2
BRANCH   1  24
ATOM     24  C   UNL A   1      37.518  20.386  25.216  1.00  0.00     0.261 C 
BRANCH  24  25
ATOM     25  O   UNL A   1      38.655  21.255  25.215  1.00  0.00    -0.460 OA
BRANCH  25  26
ATOM     26  C   UNL A   1      39.548  20.992  26.198  1.00  0.00     0.338 C 
ATOM     27  O   UNL A   1      40.067  19.913  26.456  1.00  0.00    -0.246 OA
BRANCH  26  28
ATOM     28  C   UNL A   1      39.980  22.240  26.840  1.00  0.00     0.060 A 
ATOM     29  C   UNL A   1      39.360  23.425  26.421  1.00  0.00     0.016 A 
ATOM     30  C   UNL A   1      41.031  22.265  27.758  1.00  0.00     0.016 A 
ATOM     31  C   UNL A   1      39.832  24.651  26.874  1.00  0.00     0.010 A 
ATOM     32  C   UNL A   1      41.510  23.499  28.204  1.00  0.00     0.010 A 
ATOM     33  C   UNL A   1      40.940  24.694  27.729  1.00  0.00    -0.014 A 
BRANCH  33  34
ATOM     34  C   UNL A   1      41.596  25.994  27.991  1.00  0.00     0.031 A 
ATOM     35  C   UNL A   1      40.825  27.061  28.716  1.00  0.00     0.074 A 
ATOM     36  C   UNL A   1      42.865  26.207  27.605  1.00  0.00     0.049 A 
ATOM     37  N   UNL A   1      41.198  28.268  29.051  1.00  0.00    -0.248 NA
ATOM     38  C   UNL A   1      39.447  26.725  29.117  1.00  0.00     0.031 C 
ATOM     39  C   UNL A   1      43.707  25.240  26.903  1.00  0.00     0.029 A 
ATOM     40  N   UNL A   1      43.659  27.318  27.733  1.00  0.00    -0.354 N 
ATOM     41  C   UNL A   1      40.098  28.845  29.674  1.00  0.00     0.074 A 
ATOM     42  C   UNL A   1      39.038  27.862  29.661  1.00  0.00     0.031 C 
ATOM     43  C   UNL A   1      44.894  25.810  26.638  1.00  0.00     0.029 A 
ATOM     44  C   UNL A   1      44.887  27.185  27.133  1.00  0.00     0.049 A 
ATOM     45  H   UNL A   1      43.375  28.132  28.208  1.00  0.00     0.167 HD
ATOM     46  C   UNL A   1      39.986  30.078  30.220  1.00  0.00     0.034 A 
ATOM     47  C   UNL A   1      45.883  28.080  26.986  1.00  0.00     0.034 A 
ATOM     48  C   UNL A   1      41.052  31.043  30.248  1.00  0.00     0.049 A 
ATOM     49  C   UNL A   1      45.727  29.453  27.587  1.00  0.00     0.074 A 
ATOM     50  C   UNL A   1      41.059  32.300  30.822  1.00  0.00     0.029 A 
ATOM     51  N   UNL A   1      42.296  30.861  29.664  1.00  0.00    -0.354 N 
ATOM     52  N   UNL A   1      44.726  29.941  28.280  1.00  0.00    -0.248 NA
ATOM     53  C   UNL A   1      46.849  30.385  27.415  1.00  0.00     0.031 C 
ATOM     54  C   UNL A   1      42.301  32.890  30.562  1.00  0.00     0.029 A 
ATOM     55  C   UNL A   1      43.076  31.988  29.850  1.00  0.00     0.049 A 
ATOM     56  H   UNL A   1      42.583  30.048  29.187  1.00  0.00     0.167 HD
ATOM     57  C   UNL A   1      45.112  31.224  28.656  1.00  0.00     0.074 A 
ATOM     58  C   UNL A   1      46.446  31.427  28.129  1.00  0.00     0.031 C 
ATOM     59  C   UNL A   1      44.422  32.153  29.363  1.00  0.00     0.034 A 
BRANCH  46  60
ATOM     60  C   UNL A   1      38.670  30.446  30.851  1.00  0.00     0.023 A 
ATOM     61  C   UNL A   1      38.440  30.151  32.210  1.00  0.00     0.012 A 
ATOM     62  C   UNL A   1      37.680  31.125  30.114  1.00  0.00     0.148 A 
ATOM     63  C   UNL A   1      37.233  30.497  32.818  1.00  0.00     0.002 A 
ATOM     64  C   UNL A   1      36.498  31.505  30.737  1.00  0.00     0.091 A 
ATOM     65  F   UNL A   1      37.907  31.374  28.817  1.00  0.00    -0.205 F 
ATOM     66  C   UNL A   1      36.268  31.183  32.085  1.00  0.00     0.022 A 
BRANCH  64  67
ATOM     67  S   UNL A   1      35.225  32.455  29.897  1.00  0.00     0.127 S 
ATOM     68  O   UNL A   1      34.260  32.671  30.974  1.00  0.00    -0.237 OA
ATOM     69  O   UNL A   1      35.956  33.654  29.485  1.00  0.00    -0.237 OA
ATOM     70  O   UNL A   1      34.761  31.620  28.799  1.00  0.00    -0.744 OA
ENDBRANCH  64  67
ENDBRANCH  46  60
BRANCH  47  71
ATOM     71  C   UNL A   1      47.131  27.691  26.272  1.00  0.00     0.023 A 
ATOM     72  C   UNL A   1      48.183  27.089  26.988  1.00  0.00     0.012 A 
ATOM     73  C   UNL A   1      47.269  27.891  24.885  1.00  0.00     0.148 A 
ATOM     74  C   UNL A   1      49.361  26.717  26.341  1.00  0.00     0.002 A 
ATOM     75  C   UNL A   1      48.424  27.469  24.237  1.00  0.00     0.091 A 
ATOM     76  F   UNL A   1      46.263  28.481  24.224  1.00  0.00    -0.205 F 
ATOM     77  C   UNL A   1      49.478  26.896  24.964  1.00  0.00     0.022 A 
BRANCH  75  78
ATOM     78  S   UNL A   1      48.609  27.546  22.451  1.00  0.00     0.127 S 
ATOM     79  O   UNL A   1      47.415  28.291  22.059  1.00  0.00    -0.237 OA
ATOM     80  O   UNL A   1      49.868  28.278  22.309  1.00  0.00    -0.237 OA
ATOM     81  O   UNL A   1      48.666  26.160  22.003  1.00  0.00    -0.744 OA
ENDBRANCH  75  78
ENDBRANCH  47  71
BRANCH  59  82
ATOM     82  C   UNL A   1      45.103  33.468  29.640  1.00  0.00     0.023 A 
ATOM     83  C   UNL A   1      44.943  34.543  28.744  1.00  0.00     0.012 A 
ATOM     84  C   UNL A   1      45.835  33.660  30.829  1.00  0.00     0.148 A 
ATOM     85  C   UNL A   1      45.526  35.781  29.012  1.00  0.00     0.002 A 
ATOM     86  C   UNL A   1      46.371  34.911  31.114  1.00  0.00     0.091 A 
ATOM     87  F   UNL A   1      45.990  32.620  31.661  1.00  0.00    -0.205 F 
ATOM     88  C   UNL A   1      46.229  35.968  30.201  1.00  0.00     0.022 A 
BRANCH  86  89
ATOM     89  S   UNL A   1      47.206  35.269  32.664  1.00  0.00     0.127 S 
ATOM     90  O   UNL A   1      47.666  36.639  32.445  1.00  0.00    -0.237 OA
ATOM     91  O   UNL A   1      46.122  35.137  33.638  1.00  0.00    -0.237 OA
ATOM     92  O   UNL A   1      48.257  34.268  32.793  1.00  0.00    -0.744 OA
ENDBRANCH  86  89
ENDBRANCH  59  82
ENDBRANCH  33  34
ENDBRANCH  26  28
ENDBRANCH  25  26
ENDBRANCH  24  25
ENDBRANCH   1  24
TORSDOF 21
ENDMDL
MODEL 3
REMARK VINA RESULT:     -10.7      4.786      7.505
REMARK SMILES CC[C@@](O)(C(=O)OCCOCCOC(=O)c1ccc(-c2c3nc(c(-c4cccc(S(=O)(=O)[O-])c4F)c4ccc([nH]4)c(-c4cccc(S(=O)(=O)[O-])c4F)c4nc(c(-c5cccc(S(=O)(=O)[O-])c5F)c5ccc2[nH]5)C=C4)C=C3)cc1)[C@H](C)c1cc(F)c(C)cc1F
REMARK SMILES IDX 11 1 10 2 9 3 8 4 7 5 5 6 6 7 3 8 2 9 1 10 4 11 79 13 80 14
REMARK SMILES IDX 81 15 82 16 88 17 83 18 87 19 89 20 84 21 85 22 86 23 12 24
REMARK SMILES IDX 13 25 14 26 15 27 16 28 17 29 78 30 18 31 77 32 19 33 20 34
REMARK SMILES IDX 21 35 71 36 22 37 76 38 70 39 72 40 23 41 75 42 69 43 68 44
REMARK SMILES IDX 24 46 56 47 36 48 55 49 37 50 40 51 54 52 73 53 38 54 39 55
REMARK SMILES IDX 53 57 74 58 41 59 25 60 26 61 34 62 27 63 29 64 35 65 28 66
REMARK SMILES IDX 30 67 31 68 32 69 33 70 57 71 58 72 66 73 59 74 61 75 67 76
REMARK SMILES IDX 60 77 62 78 63 79 64 80 65 81 42 82 43 83 51 84 44 85 46 86
REMARK SMILES IDX 52 87 45 88 47 89 48 90 49 91 50 92
REMARK H PARENT 4 12 72 45 40 56
REMARK Flexibility Score: inf
ROOT
ATOM      1  C   UNL A   1      31.743  28.266  26.772  1.00  0.00     0.202 C 
ENDROOT
BRANCH   1   2
ATOM      2  O   UNL A   1      31.077  27.487  25.783  1.00  0.00    -0.374 OA
BRANCH   2   3
ATOM      3  C   UNL A   1      30.624  26.185  26.142  1.00  0.00     0.202 C 
BRANCH   3   4
ATOM      4  C   UNL A   1      31.676  25.103  26.408  1.00  0.00     0.261 C 
BRANCH   4   5
ATOM      5  O   UNL A   1      31.792  24.186  25.314  1.00  0.00    -0.461 OA
BRANCH   5   6
ATOM      6  C   UNL A   1      32.649  23.141  25.505  1.00  0.00     0.338 C 
ATOM      7  O   UNL A   1      33.008  22.762  26.615  1.00  0.00    -0.249 OA
BRANCH   6   8
ATOM      8  C   UNL A   1      33.096  22.496  24.150  1.00  0.00     0.168 C 
BRANCH   8   9
ATOM      9  C   UNL A   1      33.495  21.012  24.408  1.00  0.00     0.044 C 
ATOM     10  C   UNL A   1      32.480  19.954  23.983  1.00  0.00     0.007 C 
ENDBRANCH   8   9
BRANCH   8  11
ATOM     11  O   UNL A   1      31.876  22.459  23.364  1.00  0.00    -0.378 OA
ATOM     12  H   UNL A   1      31.699  23.341  23.000  1.00  0.00     0.212 HD
ENDBRANCH   8  11
BRANCH   8  13
ATOM     13  C   UNL A   1      34.161  23.376  23.331  1.00  0.00     0.062 C 
ATOM     14  C   UNL A   1      35.624  23.203  23.798  1.00  0.00     0.016 C 
BRANCH  13  15
ATOM     15  C   UNL A   1      33.826  24.863  23.132  1.00  0.00    -0.003 A 
ATOM     16  C   UNL A   1      34.247  25.874  24.012  1.00  0.00     0.046 A 
ATOM     17  C   UNL A   1      33.086  25.277  22.017  1.00  0.00     0.127 A 
ATOM     18  C   UNL A   1      33.826  27.195  23.853  1.00  0.00     0.126 A 
ATOM     19  C   UNL A   1      32.642  26.596  21.866  1.00  0.00     0.046 A 
ATOM     20  F   UNL A   1      32.788  24.394  21.056  1.00  0.00    -0.207 F 
ATOM     21  F   UNL A   1      34.243  28.112  24.738  1.00  0.00    -0.207 F 
ATOM     22  C   UNL A   1      32.978  27.565  22.815  1.00  0.00    -0.012 A 
ATOM     23  C   UNL A   1      32.472  28.970  22.726  1.00  0.00     0.047 C 
ENDBRANCH  13  15
ENDBRANCH   8  13
ENDBRANCH   6   8
ENDBRANCH   5   6
ENDBRANCH   4   5
ENDBRANCH   3   4
ENDBRANCH   2   3
ENDBRANCH   1   2
BRANCH   1  24
ATOM     24  C   UNL A   1      31.696  29.793  26.691  1.00  0.00     0.261 C 
BRANCH  24  25
ATOM     25  O   UNL A   1      32.927  30.382  26.258  1.00  0.00    -0.460 OA
BRANCH  25  26
ATOM     26  C   UNL A   1      33.368  31.382  27.059  1.00  0.00     0.338 C 
ATOM     27  O   UNL A   1      32.722  32.334  27.476  1.00  0.00    -0.246 OA
BRANCH  26  28
ATOM     28  C   UNL A   1      34.725  31.086  27.538  1.00  0.00     0.060 A 
ATOM     29  C   UNL A   1      35.078  29.738  27.678  1.00  0.00     0.016 A 
ATOM     30  C   UNL A   1      35.598  32.102  27.931  1.00  0.00     0.016 A 
ATOM     31  C   UNL A   1      36.286  29.396  28.273  1.00  0.00     0.010 A 
ATOM     32  C   UNL A   1      36.808  31.755  28.539  1.00  0.00     0.010 A 
ATOM     33  C   UNL A   1      37.132  30.403  28.749  1.00  0.00    -0.014 A 
BRANCH  33  34
ATOM     34  C   UNL A   1      38.277  30.033  29.611  1.00  0.00     0.031 A 
ATOM     35  C   UNL A   1      39.295  29.060  29.084  1.00  0.00     0.074 A 
ATOM     36  C   UNL A   1      38.414  30.573  30.832  1.00  0.00     0.049 A 
ATOM     37  N   UNL A   1      40.371  28.595  29.662  1.00  0.00    -0.248 NA
ATOM     38  C   UNL A   1      39.069  28.538  27.725  1.00  0.00     0.031 C 
ATOM     39  C   UNL A   1      37.491  31.532  31.439  1.00  0.00     0.029 A 
ATOM     40  N   UNL A   1      39.373  30.374  31.791  1.00  0.00    -0.354 N 
ATOM     41  C   UNL A   1      40.934  27.707  28.753  1.00  0.00     0.074 A 
ATOM     42  C   UNL A   1      40.077  27.688  27.589  1.00  0.00     0.031 C 
ATOM     43  C   UNL A   1      37.918  31.820  32.680  1.00  0.00     0.029 A 
ATOM     44  C   UNL A   1      39.128  31.050  32.961  1.00  0.00     0.049 A 
ATOM     45  H   UNL A   1      40.163  29.802  31.654  1.00  0.00     0.167 HD
ATOM     46  C   UNL A   1      42.072  26.985  28.873  1.00  0.00     0.034 A 
ATOM     47  C   UNL A   1      39.796  31.033  34.131  1.00  0.00     0.034 A 
ATOM     48  C   UNL A   1      42.932  27.026  30.024  1.00  0.00     0.049 A 
ATOM     49  C   UNL A   1      41.050  30.206  34.244  1.00  0.00     0.074 A 
ATOM     50  C   UNL A   1      44.134  26.373  30.224  1.00  0.00     0.029 A 
ATOM     51  N   UNL A   1      42.672  27.751  31.177  1.00  0.00    -0.354 N 
ATOM     52  N   UNL A   1      41.636  29.467  33.333  1.00  0.00    -0.248 NA
ATOM     53  C   UNL A   1      41.752  30.236  35.535  1.00  0.00     0.031 C 
ATOM     54  C   UNL A   1      44.589  26.684  31.510  1.00  0.00     0.029 A 
ATOM     55  C   UNL A   1      43.683  27.552  32.100  1.00  0.00     0.049 A 
ATOM     56  H   UNL A   1      41.884  28.324  31.319  1.00  0.00     0.167 HD
ATOM     57  C   UNL A   1      42.793  28.973  33.928  1.00  0.00     0.074 A 
ATOM     58  C   UNL A   1      42.832  29.514  35.272  1.00  0.00     0.031 C 
ATOM     59  C   UNL A   1      43.732  28.139  33.414  1.00  0.00     0.034 A 
BRANCH  46  60
ATOM     60  C   UNL A   1      42.465  26.103  27.717  1.00  0.00     0.023 A 
ATOM     61  C   UNL A   1      43.326  26.601  26.719  1.00  0.00     0.012 A 
ATOM     62  C   UNL A   1      42.020  24.768  27.644  1.00  0.00     0.148 A 
ATOM     63  C   UNL A   1      43.714  25.795  25.648  1.00  0.00     0.002 A 
ATOM     64  C   UNL A   1      42.444  23.958  26.597  1.00  0.00     0.091 A 
ATOM     65  F   UNL A   1      41.180  24.322  28.588  1.00  0.00    -0.205 F 
ATOM     66  C   UNL A   1      43.282  24.472  25.594  1.00  0.00     0.022 A 
BRANCH  64  67
ATOM     67  S   UNL A   1      42.000  22.221  26.479  1.00  0.00     0.127 S 
ATOM     68  O   UNL A   1      42.652  21.835  25.228  1.00  0.00    -0.237 OA
ATOM     69  O   UNL A   1      42.614  21.663  27.684  1.00  0.00    -0.237 OA
ATOM     70  O   UNL A   1      40.545  22.180  26.465  1.00  0.00    -0.744 OA
ENDBRANCH  64  67
ENDBRANCH  46  60
BRANCH  47  71
ATOM     71  C   UNL A   1      39.312  31.857  35.274  1.00  0.00     0.023 A 
ATOM     72  C   UNL A   1      38.432  31.290  36.216  1.00  0.00     0.012 A 
ATOM     73  C   UNL A   1      39.740  33.188  35.445  1.00  0.00     0.148 A 
ATOM     74  C   UNL A   1      37.966  32.042  37.294  1.00  0.00     0.002 A 
ATOM     75  C   UNL A   1      39.314  33.914  36.551  1.00  0.00     0.091 A 
ATOM     76  F   UNL A   1      40.564  33.714  34.529  1.00  0.00    -0.205 F 
ATOM     77  C   UNL A   1      38.414  33.350  37.468  1.00  0.00     0.022 A 
BRANCH  75  78
ATOM     78  S   UNL A   1      39.937  35.558  36.922  1.00  0.00     0.127 S 
ATOM     79  O   UNL A   1      39.275  35.849  38.191  1.00  0.00    -0.237 OA
ATOM     80  O   UNL A   1      41.377  35.320  37.017  1.00  0.00    -0.237 OA
ATOM     81  O   UNL A   1      39.539  36.391  35.794  1.00  0.00    -0.744 OA
ENDBRANCH  75  78
ENDBRANCH  47  71
BRANCH  59  82
ATOM     82  C   UNL A   1      44.903  27.781  34.292  1.00  0.00     0.023 A 
ATOM     83  C   UNL A   1      46.047  28.603  34.305  1.00  0.00     0.012 A 
ATOM     84  C   UNL A   1      44.835  26.675  35.163  1.00  0.00     0.148 A 
ATOM     85  C   UNL A   1      47.118  28.312  35.148  1.00  0.00     0.002 A 
ATOM     86  C   UNL A   1      45.885  26.420  36.036  1.00  0.00     0.091 A 
ATOM     87  F   UNL A   1      43.745  25.895  35.124  1.00  0.00    -0.205 F 
ATOM     88  C   UNL A   1      47.032  27.229  36.021  1.00  0.00     0.022 A 
BRANCH  86  89
ATOM     89  S   UNL A   1      45.820  25.108  37.262  1.00  0.00     0.127 S 
ATOM     90  O   UNL A   1      44.661  25.503  38.060  1.00  0.00    -0.237 OA
ATOM     91  O   UNL A   1      45.616  23.919  36.434  1.00  0.00    -0.237 OA
ATOM     92  O   UNL A   1      47.101  25.145  37.957  1.00  0.00    -0.744 OA
ENDBRANCH  86  89
ENDBRANCH  59  82
ENDBRANCH  33  34
ENDBRANCH  26  28
ENDBRANCH  25  26
ENDBRANCH  24  25
ENDBRANCH   1  24
TORSDOF 21
ENDMDL
