MODEL 1
REMARK VINA RESULT:      -9.8      0.000      0.000
REMARK SMILES N#C[C@H]1CN(C(=O)[C@H]([NH3+])CC(=O)OCCOCCOC(=O)c2ccc(-c3c4nc(c(-c5cccc(S(=O)(=O)[O-])c5F)c5ccc([nH]5)c(-c5cccc(S(=O)(=O)[O-])c5F)c5nc(c(-c6cccc(S(=O)(=O)[O-])c6F)c6ccc3[nH]6)C=C5)C=C4)cc2)CCO1
REMARK SMILES IDX 15 1 14 2 13 3 11 4 12 5 10 6 8 7 6 8 7 9 5 10 3 11 4 12
REMARK SMILES IDX 87 13 86 14 85 15 2 16 1 17 9 18 16 22 17 23 18 24 19 25
REMARK SMILES IDX 20 26 21 27 22 28 23 29 84 30 24 31 83 32 25 33 26 34 27 35
REMARK SMILES IDX 77 36 28 37 82 38 76 39 78 40 29 41 81 42 75 43 74 44 30 46
REMARK SMILES IDX 62 47 42 48 61 49 43 50 46 51 60 52 79 53 44 54 45 55 59 57
REMARK SMILES IDX 80 58 47 59 31 60 32 61 40 62 33 63 35 64 41 65 34 66 36 67
REMARK SMILES IDX 37 68 38 69 39 70 63 71 64 72 72 73 65 74 67 75 73 76 66 77
REMARK SMILES IDX 68 78 69 79 70 80 71 81 48 82 49 83 57 84 50 85 52 86 58 87
REMARK SMILES IDX 51 88 53 89 54 90 55 91 56 92
REMARK H PARENT 9 19 9 20 9 21 78 45 46 56
REMARK Flexibility Score: inf
ROOT
ATOM      1  C   UNL A   1      34.941  22.711  25.979  1.00  0.00     0.202 C 
ENDROOT
BRANCH   1   2
ATOM      2  C   UNL A   1      34.352  21.383  26.464  1.00  0.00     0.261 C 
BRANCH   2   3
ATOM      3  O   UNL A   1      32.926  21.455  26.587  1.00  0.00    -0.463 OA
BRANCH   3   4
ATOM      4  C   UNL A   1      32.237  21.160  25.464  1.00  0.00     0.312 C 
ATOM      5  O   UNL A   1      32.223  20.069  24.907  1.00  0.00    -0.252 OA
BRANCH   4   6
ATOM      6  C   UNL A   1      31.475  22.330  24.905  1.00  0.00     0.198 C 
BRANCH   6   7
ATOM      7  C   UNL A   1      30.389  23.040  25.729  1.00  0.00     0.282 C 
BRANCH   7   8
ATOM      8  C   UNL A   1      30.973  24.377  26.250  1.00  0.00     0.281 C 
ATOM      9  O   UNL A   1      31.656  24.370  27.280  1.00  0.00    -0.268 OA
BRANCH   8  10
ATOM     10  N   UNL A   1      30.676  25.562  25.593  1.00  0.00    -0.332 N 
ATOM     11  C   UNL A   1      32.131  27.423  24.929  1.00  0.00     0.240 C 
ATOM     12  C   UNL A   1      31.096  26.927  25.964  1.00  0.00     0.167 C 
ATOM     13  O   UNL A   1      31.547  27.401  23.605  1.00  0.00    -0.360 OA
ATOM     14  C   UNL A   1      31.137  26.067  23.245  1.00  0.00     0.183 C 
ATOM     15  C   UNL A   1      30.114  25.505  24.242  1.00  0.00     0.148 C 
BRANCH  11  16
ATOM     16  C   UNL A   1      32.627  28.760  25.282  1.00  0.00     0.096 C 
ATOM     17  N   UNL A   1      33.085  29.789  25.566  1.00  0.00    -0.195 NA
ENDBRANCH  11  16
ENDBRANCH   8  10
ENDBRANCH   7   8
BRANCH   7  18
ATOM     18  N   UNL A   1      29.702  22.329  26.810  1.00  0.00    -0.347 N 
ATOM     19  H   UNL A   1      28.736  22.652  26.870  1.00  0.00     0.345 HD
ATOM     20  H   UNL A   1      30.178  22.514  27.694  1.00  0.00     0.345 HD
ATOM     21  H   UNL A   1      29.714  21.327  26.620  1.00  0.00     0.345 HD
ENDBRANCH   7  18
ENDBRANCH   6   7
ENDBRANCH   4   6
ENDBRANCH   3   4
ENDBRANCH   2   3
ENDBRANCH   1   2
BRANCH   1  22
ATOM     22  O   UNL A   1      36.224  22.693  25.354  1.00  0.00    -0.374 OA
BRANCH  22  23
ATOM     23  C   UNL A   1      36.667  21.473  24.764  1.00  0.00     0.202 C 
BRANCH  23  24
ATOM     24  C   UNL A   1      37.744  20.642  25.477  1.00  0.00     0.261 C 
BRANCH  24  25
ATOM     25  O   UNL A   1      39.063  21.196  25.359  1.00  0.00    -0.460 OA
BRANCH  25  26
ATOM     26  C   UNL A   1      39.829  21.061  26.470  1.00  0.00     0.338 C 
ATOM     27  O   UNL A   1      40.317  20.030  26.904  1.00  0.00    -0.246 OA
BRANCH  26  28
ATOM     28  C   UNL A   1      40.193  22.388  27.001  1.00  0.00     0.060 A 
ATOM     29  C   UNL A   1      39.588  23.503  26.405  1.00  0.00     0.016 A 
ATOM     30  C   UNL A   1      41.152  22.550  28.000  1.00  0.00     0.016 A 
ATOM     31  C   UNL A   1      39.972  24.788  26.777  1.00  0.00     0.010 A 
ATOM     32  C   UNL A   1      41.544  23.844  28.365  1.00  0.00     0.010 A 
ATOM     33  C   UNL A   1      40.979  24.967  27.733  1.00  0.00    -0.014 A 
BRANCH  33  34
ATOM     34  C   UNL A   1      41.489  26.333  28.009  1.00  0.00     0.031 A 
ATOM     35  C   UNL A   1      42.892  26.700  27.610  1.00  0.00     0.074 A 
ATOM     36  C   UNL A   1      40.697  27.244  28.603  1.00  0.00     0.049 A 
ATOM     37  N   UNL A   1      43.535  27.824  27.794  1.00  0.00    -0.248 NA
ATOM     38  C   UNL A   1      43.674  25.666  26.915  1.00  0.00     0.031 C 
ATOM     39  C   UNL A   1      39.315  27.013  29.021  1.00  0.00     0.029 A 
ATOM     40  N   UNL A   1      40.951  28.539  28.978  1.00  0.00    -0.354 N 
ATOM     41  C   UNL A   1      44.807  27.624  27.270  1.00  0.00     0.074 A 
ATOM     42  C   UNL A   1      44.846  26.268  26.767  1.00  0.00     0.031 C 
ATOM     43  C   UNL A   1      38.850  28.121  29.620  1.00  0.00     0.029 A 
ATOM     44  C   UNL A   1      39.912  29.123  29.662  1.00  0.00     0.049 A 
ATOM     45  H   UNL A   1      41.795  29.005  28.776  1.00  0.00     0.167 HD
ATOM     46  C   UNL A   1      45.844  28.493  27.208  1.00  0.00     0.034 A 
ATOM     47  C   UNL A   1      39.837  30.315  30.288  1.00  0.00     0.034 A 
ATOM     48  C   UNL A   1      45.798  29.844  27.706  1.00  0.00     0.049 A 
ATOM     49  C   UNL A   1      41.021  31.243  30.247  1.00  0.00     0.074 A 
ATOM     50  C   UNL A   1      46.781  30.816  27.644  1.00  0.00     0.029 A 
ATOM     51  N   UNL A   1      44.724  30.406  28.379  1.00  0.00    -0.354 N 
ATOM     52  N   UNL A   1      42.180  31.080  29.655  1.00  0.00    -0.248 NA
ATOM     53  C   UNL A   1      40.877  32.534  30.936  1.00  0.00     0.031 C 
ATOM     54  C   UNL A   1      46.324  31.946  28.329  1.00  0.00     0.029 A 
ATOM     55  C   UNL A   1      45.031  31.701  28.764  1.00  0.00     0.049 A 
ATOM     56  H   UNL A   1      43.869  29.952  28.557  1.00  0.00     0.167 HD
ATOM     57  C   UNL A   1      42.888  32.258  29.871  1.00  0.00     0.074 A 
ATOM     58  C   UNL A   1      42.017  33.135  30.627  1.00  0.00     0.031 C 
ATOM     59  C   UNL A   1      44.147  32.581  29.485  1.00  0.00     0.034 A 
BRANCH  46  60
ATOM     60  C   UNL A   1      47.130  28.014  26.585  1.00  0.00     0.023 A 
ATOM     61  C   UNL A   1      48.190  27.569  27.401  1.00  0.00     0.012 A 
ATOM     62  C   UNL A   1      47.262  27.941  25.182  1.00  0.00     0.148 A 
ATOM     63  C   UNL A   1      49.372  27.094  26.833  1.00  0.00     0.002 A 
ATOM     64  C   UNL A   1      48.423  27.420  24.626  1.00  0.00     0.091 A 
ATOM     65  F   UNL A   1      46.251  28.384  24.423  1.00  0.00    -0.205 F 
ATOM     66  C   UNL A   1      49.484  27.009  25.448  1.00  0.00     0.022 A 
BRANCH  64  67
ATOM     67  S   UNL A   1      48.633  27.194  22.856  1.00  0.00     0.127 S 
ATOM     68  O   UNL A   1      50.053  27.495  22.687  1.00  0.00    -0.237 OA
ATOM     69  O   UNL A   1      48.284  25.783  22.686  1.00  0.00    -0.237 OA
ATOM     70  O   UNL A   1      47.719  28.130  22.217  1.00  0.00    -0.744 OA
ENDBRANCH  64  67
ENDBRANCH  46  60
BRANCH  47  71
ATOM     71  C   UNL A   1      38.594  30.699  31.011  1.00  0.00     0.023 A 
ATOM     72  C   UNL A   1      38.447  30.382  32.375  1.00  0.00     0.012 A 
ATOM     73  C   UNL A   1      37.556  31.383  30.348  1.00  0.00     0.148 A 
ATOM     74  C   UNL A   1      37.275  30.707  33.057  1.00  0.00     0.002 A 
ATOM     75  C   UNL A   1      36.417  31.757  31.048  1.00  0.00     0.091 A 
ATOM     76  F   UNL A   1      37.711  31.663  29.046  1.00  0.00    -0.205 F 
ATOM     77  C   UNL A   1      36.265  31.403  32.398  1.00  0.00     0.022 A 
BRANCH  75  78
ATOM     78  S   UNL A   1      35.125  32.766  30.314  1.00  0.00     0.127 S 
ATOM     79  O   UNL A   1      35.823  34.029  30.091  1.00  0.00    -0.237 OA
ATOM     80  O   UNL A   1      34.810  32.010  29.103  1.00  0.00    -0.237 OA
ATOM     81  O   UNL A   1      34.049  32.806  31.296  1.00  0.00    -0.744 OA
ENDBRANCH  75  78
ENDBRANCH  47  71
BRANCH  59  82
ATOM     82  C   UNL A   1      44.654  33.959  29.831  1.00  0.00     0.023 A 
ATOM     83  C   UNL A   1      45.453  34.156  30.976  1.00  0.00     0.012 A 
ATOM     84  C   UNL A   1      44.381  35.052  28.985  1.00  0.00     0.148 A 
ATOM     85  C   UNL A   1      45.937  35.425  31.294  1.00  0.00     0.002 A 
ATOM     86  C   UNL A   1      44.913  36.302  29.278  1.00  0.00     0.091 A 
ATOM     87  F   UNL A   1      43.608  34.850  27.909  1.00  0.00    -0.205 F 
ATOM     88  C   UNL A   1      45.676  36.494  30.441  1.00  0.00     0.022 A 
BRANCH  86  89
ATOM     89  S   UNL A   1      44.713  37.717  28.189  1.00  0.00     0.127 S 
ATOM     90  O   UNL A   1      45.974  37.703  27.449  1.00  0.00    -0.237 OA
ATOM     91  O   UNL A   1      43.540  37.336  27.403  1.00  0.00    -0.237 OA
ATOM     92  O   UNL A   1      44.515  38.870  29.056  1.00  0.00    -0.744 OA
ENDBRANCH  86  89
ENDBRANCH  59  82
ENDBRANCH  33  34
ENDBRANCH  26  28
ENDBRANCH  25  26
ENDBRANCH  24  25
ENDBRANCH  23  24
ENDBRANCH  22  23
ENDBRANCH   1  22
TORSDOF 22
ENDMDL
MODEL 2
REMARK VINA RESULT:      -9.5      1.619      2.003
REMARK SMILES N#C[C@H]1CN(C(=O)[C@H]([NH3+])CC(=O)OCCOCCOC(=O)c2ccc(-c3c4nc(c(-c5cccc(S(=O)(=O)[O-])c5F)c5ccc([nH]5)c(-c5cccc(S(=O)(=O)[O-])c5F)c5nc(c(-c6cccc(S(=O)(=O)[O-])c6F)c6ccc3[nH]6)C=C5)C=C4)cc2)CCO1
REMARK SMILES IDX 15 1 14 2 13 3 11 4 12 5 10 6 8 7 6 8 7 9 5 10 3 11 4 12
REMARK SMILES IDX 87 13 86 14 85 15 2 16 1 17 9 18 16 22 17 23 18 24 19 25
REMARK SMILES IDX 20 26 21 27 22 28 23 29 84 30 24 31 83 32 25 33 26 34 27 35
REMARK SMILES IDX 77 36 28 37 82 38 76 39 78 40 29 41 81 42 75 43 74 44 30 46
REMARK SMILES IDX 62 47 42 48 61 49 43 50 46 51 60 52 79 53 44 54 45 55 59 57
REMARK SMILES IDX 80 58 47 59 31 60 32 61 40 62 33 63 35 64 41 65 34 66 36 67
REMARK SMILES IDX 37 68 38 69 39 70 63 71 64 72 72 73 65 74 67 75 73 76 66 77
REMARK SMILES IDX 68 78 69 79 70 80 71 81 48 82 49 83 57 84 50 85 52 86 58 87
REMARK SMILES IDX 51 88 53 89 54 90 55 91 56 92
REMARK H PARENT 9 19 9 20 9 21 78 45 46 56
REMARK Flexibility Score: inf
ROOT
ATOM      1  C   UNL A   1      35.166  22.944  24.767  1.00  0.00     0.202 C 
ENDROOT
BRANCH   1   2
ATOM      2  C   UNL A   1      34.496  21.890  25.653  1.00  0.00     0.261 C 
BRANCH   2   3
ATOM      3  O   UNL A   1      33.121  22.208  25.900  1.00  0.00    -0.463 OA
BRANCH   3   4
ATOM      4  C   UNL A   1      32.292  22.029  24.849  1.00  0.00     0.312 C 
ATOM      5  O   UNL A   1      32.191  20.998  24.194  1.00  0.00    -0.252 OA
BRANCH   4   6
ATOM      6  C   UNL A   1      31.486  23.252  24.508  1.00  0.00     0.198 C 
BRANCH   6   7
ATOM      7  C   UNL A   1      31.234  24.356  25.547  1.00  0.00     0.282 C 
BRANCH   7   8
ATOM      8  C   UNL A   1      32.338  25.431  25.389  1.00  0.00     0.281 C 
ATOM      9  O   UNL A   1      33.214  25.523  26.257  1.00  0.00    -0.268 OA
BRANCH   8  10
ATOM     10  N   UNL A   1      32.298  26.308  24.315  1.00  0.00    -0.332 N 
ATOM     11  C   UNL A   1      31.889  25.892  21.932  1.00  0.00     0.240 C 
ATOM     12  C   UNL A   1      32.965  26.163  23.007  1.00  0.00     0.167 C 
ATOM     13  O   UNL A   1      30.936  26.980  21.910  1.00  0.00    -0.360 OA
ATOM     14  C   UNL A   1      30.285  27.121  23.188  1.00  0.00     0.183 C 
ATOM     15  C   UNL A   1      31.300  27.381  24.310  1.00  0.00     0.148 C 
BRANCH  11  16
ATOM     16  C   UNL A   1      32.504  25.682  20.614  1.00  0.00     0.096 C 
ATOM     17  N   UNL A   1      32.924  25.510  19.544  1.00  0.00    -0.195 NA
ENDBRANCH  11  16
ENDBRANCH   8  10
ENDBRANCH   7   8
BRANCH   7  18
ATOM     18  N   UNL A   1      31.060  24.011  26.960  1.00  0.00    -0.347 N 
ATOM     19  H   UNL A   1      30.073  24.085  27.210  1.00  0.00     0.345 HD
ATOM     20  H   UNL A   1      31.606  24.652  27.536  1.00  0.00     0.345 HD
ATOM     21  H   UNL A   1      31.380  23.055  27.119  1.00  0.00     0.345 HD
ENDBRANCH   7  18
ENDBRANCH   6   7
ENDBRANCH   4   6
ENDBRANCH   3   4
ENDBRANCH   2   3
ENDBRANCH   1   2
BRANCH   1  22
ATOM     22  O   UNL A   1      36.530  22.749  24.397  1.00  0.00    -0.374 OA
BRANCH  22  23
ATOM     23  C   UNL A   1      37.053  21.423  24.435  1.00  0.00     0.202 C 
BRANCH  23  24
ATOM     24  C   UNL A   1      37.868  20.971  25.655  1.00  0.00     0.261 C 
BRANCH  24  25
ATOM     25  O   UNL A   1      39.287  21.071  25.463  1.00  0.00    -0.460 OA
BRANCH  25  26
ATOM     26  C   UNL A   1      40.015  20.989  26.605  1.00  0.00     0.338 C 
ATOM     27  O   UNL A   1      40.500  19.982  27.094  1.00  0.00    -0.246 OA
BRANCH  26  28
ATOM     28  C   UNL A   1      40.343  22.340  27.097  1.00  0.00     0.060 A 
ATOM     29  C   UNL A   1      39.782  23.425  26.409  1.00  0.00     0.016 A 
ATOM     30  C   UNL A   1      41.231  22.549  28.151  1.00  0.00     0.016 A 
ATOM     31  C   UNL A   1      40.141  24.726  26.746  1.00  0.00     0.010 A 
ATOM     32  C   UNL A   1      41.598  23.860  28.482  1.00  0.00     0.010 A 
ATOM     33  C   UNL A   1      41.079  24.952  27.760  1.00  0.00    -0.014 A 
BRANCH  33  34
ATOM     34  C   UNL A   1      41.572  26.330  28.007  1.00  0.00     0.031 A 
ATOM     35  C   UNL A   1      42.976  26.702  27.616  1.00  0.00     0.074 A 
ATOM     36  C   UNL A   1      40.762  27.247  28.567  1.00  0.00     0.049 A 
ATOM     37  N   UNL A   1      43.604  27.837  27.779  1.00  0.00    -0.248 NA
ATOM     38  C   UNL A   1      43.778  25.659  26.957  1.00  0.00     0.031 C 
ATOM     39  C   UNL A   1      39.377  27.011  28.974  1.00  0.00     0.029 A 
ATOM     40  N   UNL A   1      40.997  28.554  28.911  1.00  0.00    -0.354 N 
ATOM     41  C   UNL A   1      44.885  27.638  27.276  1.00  0.00     0.074 A 
ATOM     42  C   UNL A   1      44.944  26.270  26.808  1.00  0.00     0.031 C 
ATOM     43  C   UNL A   1      38.893  28.130  29.537  1.00  0.00     0.029 A 
ATOM     44  C   UNL A   1      39.944  29.144  29.567  1.00  0.00     0.049 A 
ATOM     45  H   UNL A   1      41.839  29.024  28.707  1.00  0.00     0.167 HD
ATOM     46  C   UNL A   1      45.913  28.517  27.204  1.00  0.00     0.034 A 
ATOM     47  C   UNL A   1      39.848  30.351  30.160  1.00  0.00     0.034 A 
ATOM     48  C   UNL A   1      45.846  29.879  27.666  1.00  0.00     0.049 A 
ATOM     49  C   UNL A   1      41.022  31.291  30.110  1.00  0.00     0.074 A 
ATOM     50  C   UNL A   1      46.819  30.861  27.591  1.00  0.00     0.029 A 
ATOM     51  N   UNL A   1      44.758  30.447  28.311  1.00  0.00    -0.354 N 
ATOM     52  N   UNL A   1      42.190  31.125  29.537  1.00  0.00    -0.248 NA
ATOM     53  C   UNL A   1      40.855  32.597  30.763  1.00  0.00     0.031 C 
ATOM     54  C   UNL A   1      46.341  32.002  28.241  1.00  0.00     0.029 A 
ATOM     55  C   UNL A   1      45.045  31.755  28.665  1.00  0.00     0.049 A 
ATOM     56  H   UNL A   1      43.905  29.988  28.490  1.00  0.00     0.167 HD
ATOM     57  C   UNL A   1      42.882  32.316  29.731  1.00  0.00     0.074 A 
ATOM     58  C   UNL A   1      41.993  33.203  30.453  1.00  0.00     0.031 C 
ATOM     59  C   UNL A   1      44.143  32.643  29.353  1.00  0.00     0.034 A 
BRANCH  46  60
ATOM     60  C   UNL A   1      47.211  28.036  26.609  1.00  0.00     0.023 A 
ATOM     61  C   UNL A   1      48.222  27.515  27.443  1.00  0.00     0.012 A 
ATOM     62  C   UNL A   1      47.404  28.039  25.212  1.00  0.00     0.148 A 
ATOM     63  C   UNL A   1      49.415  27.037  26.900  1.00  0.00     0.002 A 
ATOM     64  C   UNL A   1      48.574  27.516  24.676  1.00  0.00     0.091 A 
ATOM     65  F   UNL A   1      46.440  28.554  24.437  1.00  0.00    -0.205 F 
ATOM     66  C   UNL A   1      49.586  27.027  25.518  1.00  0.00     0.022 A 
BRANCH  64  67
ATOM     67  S   UNL A   1      48.856  27.385  22.907  1.00  0.00     0.127 S 
ATOM     68  O   UNL A   1      50.299  27.598  22.822  1.00  0.00    -0.237 OA
ATOM     69  O   UNL A   1      48.425  26.013  22.631  1.00  0.00    -0.237 OA
ATOM     70  O   UNL A   1      48.037  28.418  22.288  1.00  0.00    -0.744 OA
ENDBRANCH  64  67
ENDBRANCH  46  60
BRANCH  47  71
ATOM     71  C   UNL A   1      38.591  30.740  30.858  1.00  0.00     0.023 A 
ATOM     72  C   UNL A   1      38.418  30.429  32.220  1.00  0.00     0.012 A 
ATOM     73  C   UNL A   1      37.568  31.422  30.172  1.00  0.00     0.148 A 
ATOM     74  C   UNL A   1      37.234  30.759  32.878  1.00  0.00     0.002 A 
ATOM     75  C   UNL A   1      36.416  31.801  30.848  1.00  0.00     0.091 A 
ATOM     76  F   UNL A   1      37.748  31.696  28.872  1.00  0.00    -0.205 F 
ATOM     77  C   UNL A   1      36.237  31.453  32.196  1.00  0.00     0.022 A 
BRANCH  75  78
ATOM     78  S   UNL A   1      35.139  32.808  30.085  1.00  0.00     0.127 S 
ATOM     79  O   UNL A   1      34.316  33.168  31.235  1.00  0.00    -0.237 OA
ATOM     80  O   UNL A   1      35.925  33.903  29.518  1.00  0.00    -0.237 OA
ATOM     81  O   UNL A   1      34.499  31.952  29.095  1.00  0.00    -0.744 OA
ENDBRANCH  75  78
ENDBRANCH  47  71
BRANCH  59  82
ATOM     82  C   UNL A   1      44.631  34.035  29.669  1.00  0.00     0.023 A 
ATOM     83  C   UNL A   1      44.426  35.085  28.752  1.00  0.00     0.012 A 
ATOM     84  C   UNL A   1      45.245  34.311  30.907  1.00  0.00     0.148 A 
ATOM     85  C   UNL A   1      44.862  36.378  29.044  1.00  0.00     0.002 A 
ATOM     86  C   UNL A   1      45.626  35.612  31.215  1.00  0.00     0.091 A 
ATOM     87  F   UNL A   1      45.444  33.298  31.762  1.00  0.00    -0.205 F 
ATOM     88  C   UNL A   1      45.451  36.643  30.278  1.00  0.00     0.022 A 
BRANCH  86  89
ATOM     89  S   UNL A   1      46.303  36.068  32.815  1.00  0.00     0.127 S 
ATOM     90  O   UNL A   1      45.978  34.892  33.621  1.00  0.00    -0.237 OA
ATOM     91  O   UNL A   1      47.726  36.225  32.512  1.00  0.00    -0.237 OA
ATOM     92  O   UNL A   1      45.626  37.296  33.206  1.00  0.00    -0.744 OA
ENDBRANCH  86  89
ENDBRANCH  59  82
ENDBRANCH  33  34
ENDBRANCH  26  28
ENDBRANCH  25  26
ENDBRANCH  24  25
ENDBRANCH  23  24
ENDBRANCH  22  23
ENDBRANCH   1  22
TORSDOF 22
ENDMDL
MODEL 3
REMARK VINA RESULT:      -9.3      1.801      2.171
REMARK SMILES N#C[C@H]1CN(C(=O)[C@H]([NH3+])CC(=O)OCCOCCOC(=O)c2ccc(-c3c4nc(c(-c5cccc(S(=O)(=O)[O-])c5F)c5ccc([nH]5)c(-c5cccc(S(=O)(=O)[O-])c5F)c5nc(c(-c6cccc(S(=O)(=O)[O-])c6F)c6ccc3[nH]6)C=C5)C=C4)cc2)CCO1
REMARK SMILES IDX 15 1 14 2 13 3 11 4 12 5 10 6 8 7 6 8 7 9 5 10 3 11 4 12
REMARK SMILES IDX 87 13 86 14 85 15 2 16 1 17 9 18 16 22 17 23 18 24 19 25
REMARK SMILES IDX 20 26 21 27 22 28 23 29 84 30 24 31 83 32 25 33 26 34 27 35
REMARK SMILES IDX 77 36 28 37 82 38 76 39 78 40 29 41 81 42 75 43 74 44 30 46
REMARK SMILES IDX 62 47 42 48 61 49 43 50 46 51 60 52 79 53 44 54 45 55 59 57
REMARK SMILES IDX 80 58 47 59 31 60 32 61 40 62 33 63 35 64 41 65 34 66 36 67
REMARK SMILES IDX 37 68 38 69 39 70 63 71 64 72 72 73 65 74 67 75 73 76 66 77
REMARK SMILES IDX 68 78 69 79 70 80 71 81 48 82 49 83 57 84 50 85 52 86 58 87
REMARK SMILES IDX 51 88 53 89 54 90 55 91 56 92
REMARK H PARENT 9 19 9 20 9 21 78 45 46 56
REMARK Flexibility Score: inf
ROOT
ATOM      1  C   UNL A   1      35.242  23.107  24.369  1.00  0.00     0.202 C 
ENDROOT
BRANCH   1   2
ATOM      2  C   UNL A   1      34.378  22.313  25.352  1.00  0.00     0.261 C 
BRANCH   2   3
ATOM      3  O   UNL A   1      32.982  22.546  25.131  1.00  0.00    -0.463 OA
BRANCH   3   4
ATOM      4  C   UNL A   1      32.480  22.005  24.000  1.00  0.00     0.312 C 
ATOM      5  O   UNL A   1      32.564  20.824  23.682  1.00  0.00    -0.252 OA
BRANCH   4   6
ATOM      6  C   UNL A   1      31.807  23.007  23.105  1.00  0.00     0.198 C 
BRANCH   6   7
ATOM      7  C   UNL A   1      30.704  23.937  23.637  1.00  0.00     0.282 C 
BRANCH   7   8
ATOM      8  C   UNL A   1      31.021  25.380  23.171  1.00  0.00     0.281 C 
ATOM      9  O   UNL A   1      31.732  25.545  22.173  1.00  0.00    -0.268 OA
BRANCH   8  10
ATOM     10  N   UNL A   1      30.556  26.460  23.907  1.00  0.00    -0.332 N 
ATOM     11  C   UNL A   1      31.550  28.668  24.297  1.00  0.00     0.240 C 
ATOM     12  C   UNL A   1      31.300  27.265  24.893  1.00  0.00     0.167 C 
ATOM     13  O   UNL A   1      30.286  29.291  23.966  1.00  0.00    -0.360 OA
ATOM     14  C   UNL A   1      29.560  28.503  23.002  1.00  0.00     0.183 C 
ATOM     15  C   UNL A   1      29.287  27.086  23.527  1.00  0.00     0.148 C 
BRANCH  11  16
ATOM     16  C   UNL A   1      32.338  29.498  25.218  1.00  0.00     0.096 C 
ATOM     17  N   UNL A   1      33.005  30.098  25.957  1.00  0.00    -0.195 NA
ENDBRANCH  11  16
ENDBRANCH   8  10
ENDBRANCH   7   8
BRANCH   7  18
ATOM     18  N   UNL A   1      30.357  23.927  25.060  1.00  0.00    -0.347 N 
ATOM     19  H   UNL A   1      31.140  24.289  25.604  1.00  0.00     0.345 HD
ATOM     20  H   UNL A   1      30.153  22.971  25.353  1.00  0.00     0.345 HD
ATOM     21  H   UNL A   1      29.535  24.512  25.215  1.00  0.00     0.345 HD
ENDBRANCH   7  18
ENDBRANCH   6   7
ENDBRANCH   4   6
ENDBRANCH   3   4
ENDBRANCH   2   3
ENDBRANCH   1   2
BRANCH   1  22
ATOM     22  O   UNL A   1      36.610  22.730  24.213  1.00  0.00    -0.374 OA
BRANCH  22  23
ATOM     23  C   UNL A   1      37.039  21.502  24.798  1.00  0.00     0.202 C 
BRANCH  23  24
ATOM     24  C   UNL A   1      37.967  21.537  26.021  1.00  0.00     0.261 C 
BRANCH  24  25
ATOM     25  O   UNL A   1      39.342  21.274  25.703  1.00  0.00    -0.460 OA
BRANCH  25  26
ATOM     26  C   UNL A   1      40.164  21.209  26.779  1.00  0.00     0.338 C 
ATOM     27  O   UNL A   1      40.649  20.204  27.272  1.00  0.00    -0.246 OA
BRANCH  26  28
ATOM     28  C   UNL A   1      40.590  22.565  27.176  1.00  0.00     0.060 A 
ATOM     29  C   UNL A   1      40.213  23.624  26.340  1.00  0.00     0.016 A 
ATOM     30  C   UNL A   1      41.397  22.792  28.289  1.00  0.00     0.016 A 
ATOM     31  C   UNL A   1      40.678  24.911  26.589  1.00  0.00     0.010 A 
ATOM     32  C   UNL A   1      41.872  24.087  28.533  1.00  0.00     0.010 A 
ATOM     33  C   UNL A   1      41.541  25.145  27.667  1.00  0.00    -0.014 A 
BRANCH  33  34
ATOM     34  C   UNL A   1      42.154  26.486  27.834  1.00  0.00     0.031 A 
ATOM     35  C   UNL A   1      43.556  26.731  27.348  1.00  0.00     0.074 A 
ATOM     36  C   UNL A   1      41.455  27.483  28.407  1.00  0.00     0.049 A 
ATOM     37  N   UNL A   1      44.281  27.817  27.432  1.00  0.00    -0.248 NA
ATOM     38  C   UNL A   1      44.232  25.607  26.681  1.00  0.00     0.031 C 
ATOM     39  C   UNL A   1      40.084  27.373  28.903  1.00  0.00     0.029 A 
ATOM     40  N   UNL A   1      41.813  28.777  28.689  1.00  0.00    -0.354 N 
ATOM     41  C   UNL A   1      45.509  27.499  26.862  1.00  0.00     0.074 A 
ATOM     42  C   UNL A   1      45.431  26.117  26.441  1.00  0.00     0.031 C 
ATOM     43  C   UNL A   1      39.725  28.544  29.454  1.00  0.00     0.029 A 
ATOM     44  C   UNL A   1      40.852  29.471  29.384  1.00  0.00     0.049 A 
ATOM     45  H   UNL A   1      42.675  29.170  28.419  1.00  0.00     0.167 HD
ATOM     46  C   UNL A   1      46.596  28.289  26.698  1.00  0.00     0.034 A 
ATOM     47  C   UNL A   1      40.889  30.699  29.938  1.00  0.00     0.034 A 
ATOM     48  C   UNL A   1      46.665  29.666  27.113  1.00  0.00     0.049 A 
ATOM     49  C   UNL A   1      42.128  31.539  29.784  1.00  0.00     0.074 A 
ATOM     50  C   UNL A   1      47.706  30.563  26.945  1.00  0.00     0.029 A 
ATOM     51  N   UNL A   1      45.667  30.340  27.800  1.00  0.00    -0.354 N 
ATOM     52  N   UNL A   1      43.242  31.262  29.150  1.00  0.00    -0.248 NA
ATOM     53  C   UNL A   1      42.105  32.874  30.399  1.00  0.00     0.031 C 
ATOM     54  C   UNL A   1      47.360  31.760  27.580  1.00  0.00     0.029 A 
ATOM     55  C   UNL A   1      46.078  31.631  28.089  1.00  0.00     0.049 A 
ATOM     56  H   UNL A   1      44.794  29.958  28.045  1.00  0.00     0.167 HD
ATOM     57  C   UNL A   1      44.036  32.398  29.259  1.00  0.00     0.074 A 
ATOM     58  C   UNL A   1      43.265  33.376  30.000  1.00  0.00     0.031 C 
ATOM     59  C   UNL A   1      45.292  32.610  28.796  1.00  0.00     0.034 A 
BRANCH  46  60
ATOM     60  C   UNL A   1      47.814  27.686  26.045  1.00  0.00     0.023 A 
ATOM     61  C   UNL A   1      48.744  26.960  26.816  1.00  0.00     0.012 A 
ATOM     62  C   UNL A   1      48.002  27.784  24.651  1.00  0.00     0.148 A 
ATOM     63  C   UNL A   1      49.857  26.370  26.217  1.00  0.00     0.002 A 
ATOM     64  C   UNL A   1      49.086  27.153  24.055  1.00  0.00     0.091 A 
ATOM     65  F   UNL A   1      47.116  28.493  23.937  1.00  0.00    -0.205 F 
ATOM     66  C   UNL A   1      50.022  26.457  24.837  1.00  0.00     0.022 A 
BRANCH  64  67
ATOM     67  S   UNL A   1      49.342  27.138  22.277  1.00  0.00     0.127 S 
ATOM     68  O   UNL A   1      48.456  26.053  21.861  1.00  0.00    -0.237 OA
ATOM     69  O   UNL A   1      48.890  28.476  21.893  1.00  0.00    -0.237 OA
ATOM     70  O   UNL A   1      50.763  26.892  22.075  1.00  0.00    -0.744 OA
ENDBRANCH  64  67
ENDBRANCH  46  60
BRANCH  47  71
ATOM     71  C   UNL A   1      39.712  31.210  30.694  1.00  0.00     0.023 A 
ATOM     72  C   UNL A   1      38.619  31.765  30.002  1.00  0.00     0.012 A 
ATOM     73  C   UNL A   1      39.675  31.144  32.100  1.00  0.00     0.148 A 
ATOM     74  C   UNL A   1      37.524  32.277  30.699  1.00  0.00     0.002 A 
ATOM     75  C   UNL A   1      38.556  31.600  32.785  1.00  0.00     0.091 A 
ATOM     76  F   UNL A   1      40.731  30.623  32.740  1.00  0.00    -0.205 F 
ATOM     77  C   UNL A   1      37.488  32.186  32.088  1.00  0.00     0.022 A 
BRANCH  75  78
ATOM     78  S   UNL A   1      38.368  31.404  34.560  1.00  0.00     0.127 S 
ATOM     79  O   UNL A   1      37.102  32.091  34.803  1.00  0.00    -0.237 OA
ATOM     80  O   UNL A   1      38.319  29.949  34.694  1.00  0.00    -0.237 OA
ATOM     81  O   UNL A   1      39.545  32.024  35.153  1.00  0.00    -0.744 OA
ENDBRANCH  75  78
ENDBRANCH  47  71
BRANCH  59  82
ATOM     82  C   UNL A   1      45.907  33.968  29.032  1.00  0.00     0.023 A 
ATOM     83  C   UNL A   1      46.708  34.197  30.169  1.00  0.00     0.012 A 
ATOM     84  C   UNL A   1      45.733  35.003  28.092  1.00  0.00     0.148 A 
ATOM     85  C   UNL A   1      47.290  35.446  30.387  1.00  0.00     0.002 A 
ATOM     86  C   UNL A   1      46.362  36.226  28.286  1.00  0.00     0.091 A 
ATOM     87  F   UNL A   1      44.957  34.771  27.023  1.00  0.00    -0.205 F 
ATOM     88  C   UNL A   1      47.126  36.456  29.441  1.00  0.00     0.022 A 
BRANCH  86  89
ATOM     89  S   UNL A   1      46.290  37.553  27.078  1.00  0.00     0.127 S 
ATOM     90  O   UNL A   1      47.127  38.574  27.707  1.00  0.00    -0.237 OA
ATOM     91  O   UNL A   1      46.881  36.925  25.896  1.00  0.00    -0.237 OA
ATOM     92  O   UNL A   1      44.883  37.901  26.942  1.00  0.00    -0.744 OA
ENDBRANCH  86  89
ENDBRANCH  59  82
ENDBRANCH  33  34
ENDBRANCH  26  28
ENDBRANCH  25  26
ENDBRANCH  24  25
ENDBRANCH  23  24
ENDBRANCH  22  23
ENDBRANCH   1  22
TORSDOF 22
ENDMDL
