MODEL 1
REMARK VINA RESULT:     -11.9      0.000      0.000
REMARK SMILES CS(=O)(=O)c1ccc(-n2nc(C(F)(F)F)cc2-c2ccc(CC(=O)OCCOCCOC(=O)c3ccc(-c4c5nc(c(-c6cccc(S(=O)(=O)[O-])c6F)c6ccc([nH]6)c(-c6cccc(S(=O)(=O)[O-])c6F)c6nc(c(-c7cccc(S(=O)(=O)[O-])c7F)c7ccc4[nH]7)C=C6)C=C5)cc3)cc2)cc1
REMARK SMILES IDX 27 1 26 2 25 3 23 4 24 5 22 6 21 7 18 8 19 9 98 10 20 11
REMARK SMILES IDX 97 12 17 13 9 14 10 15 11 16 16 17 8 18 5 19 6 20 100 21
REMARK SMILES IDX 7 22 99 23 2 24 1 25 3 26 4 27 12 28 13 29 14 30 15 31 28 32
REMARK SMILES IDX 29 33 30 34 31 35 32 36 33 37 34 38 35 39 96 40 36 41 95 42
REMARK SMILES IDX 37 43 38 44 39 45 89 46 40 47 94 48 88 49 90 50 41 51 93 52
REMARK SMILES IDX 87 53 86 54 42 56 74 57 54 58 73 59 55 60 58 61 72 62 91 63
REMARK SMILES IDX 56 64 57 65 71 67 92 68 59 69 43 70 44 71 52 72 45 73 47 74
REMARK SMILES IDX 53 75 46 76 48 77 49 78 50 79 51 80 75 81 76 82 84 83 77 84
REMARK SMILES IDX 79 85 85 86 78 87 80 88 81 89 82 90 83 91 60 92 61 93 69 94
REMARK SMILES IDX 62 95 64 96 70 97 63 98 65 99 66 100 67 101 68 102
REMARK H PARENT 90 55 58 66
REMARK Flexibility Score: inf
ROOT
ATOM      1  C   UNL A   1      35.754  21.887  24.907  1.00  0.00     0.202 C 
ENDROOT
BRANCH   1   2
ATOM      2  C   UNL A   1      34.367  21.239  25.017  1.00  0.00     0.261 C 
BRANCH   2   3
ATOM      3  O   UNL A   1      33.340  22.052  25.605  1.00  0.00    -0.463 OA
BRANCH   3   4
ATOM      4  C   UNL A   1      32.082  21.781  25.167  1.00  0.00     0.310 C 
ATOM      5  O   UNL A   1      31.551  20.674  25.222  1.00  0.00    -0.252 OA
BRANCH   4   6
ATOM      6  C   UNL A   1      31.378  22.945  24.517  1.00  0.00     0.158 C 
BRANCH   6   7
ATOM      7  C   UNL A   1      31.809  24.352  24.849  1.00  0.00    -0.037 A 
ATOM      8  C   UNL A   1      32.838  26.840  25.643  1.00  0.00     0.000 A 
ATOM      9  C   UNL A   1      33.300  26.236  24.473  1.00  0.00     0.010 A 
ATOM     10  C   UNL A   1      31.843  26.208  26.401  1.00  0.00     0.010 A 
ATOM     11  C   UNL A   1      32.781  25.004  24.075  1.00  0.00     0.005 A 
ATOM     12  C   UNL A   1      31.327  24.977  26.005  1.00  0.00     0.005 A 
BRANCH   8  13
ATOM     13  C   UNL A   1      33.417  28.078  26.142  1.00  0.00     0.075 A 
ATOM     14  N   UNL A   1      32.980  29.392  25.946  1.00  0.00    -0.233 N 
ATOM     15  N   UNL A   1      33.749  30.263  26.651  1.00  0.00    -0.163 NA
ATOM     16  C   UNL A   1      34.729  29.526  27.214  1.00  0.00     0.167 A 
ATOM     17  C   UNL A   1      34.592  28.174  26.853  1.00  0.00     0.064 A 
BRANCH  14  18
ATOM     18  C   UNL A   1      31.827  29.833  25.210  1.00  0.00     0.065 A 
ATOM     19  C   UNL A   1      29.568  30.810  23.775  1.00  0.00     0.067 A 
ATOM     20  C   UNL A   1      30.051  31.466  24.897  1.00  0.00     0.022 A 
ATOM     21  C   UNL A   1      30.181  29.612  23.393  1.00  0.00     0.022 A 
ATOM     22  C   UNL A   1      31.150  30.981  25.614  1.00  0.00     0.030 A 
ATOM     23  C   UNL A   1      31.340  29.149  24.084  1.00  0.00     0.030 A 
BRANCH  19  24
ATOM     24  S   UNL A   1      28.248  31.609  22.855  1.00  0.00     0.175 S 
ATOM     25  C   UNL A   1      27.920  30.668  21.378  1.00  0.00     0.163 C 
ATOM     26  O   UNL A   1      28.786  32.890  22.421  1.00  0.00    -0.224 OA
ATOM     27  O   UNL A   1      27.060  31.570  23.684  1.00  0.00    -0.224 OA
ENDBRANCH  19  24
ENDBRANCH  14  18
BRANCH  16  28
ATOM     28  C   UNL A   1      35.823  30.000  28.149  1.00  0.00     0.435 C 
ATOM     29  F   UNL A   1      36.647  30.914  27.580  1.00  0.00    -0.164 F 
ATOM     30  F   UNL A   1      35.404  30.415  29.365  1.00  0.00    -0.164 F 
ATOM     31  F   UNL A   1      36.658  28.932  28.415  1.00  0.00    -0.164 F 
ENDBRANCH  16  28
ENDBRANCH   8  13
ENDBRANCH   6   7
ENDBRANCH   4   6
ENDBRANCH   3   4
ENDBRANCH   2   3
ENDBRANCH   1   2
BRANCH   1  32
ATOM     32  O   UNL A   1      36.795  21.422  25.752  1.00  0.00    -0.374 OA
BRANCH  32  33
ATOM     33  C   UNL A   1      38.118  21.420  25.228  1.00  0.00     0.202 C 
BRANCH  33  34
ATOM     34  C   UNL A   1      39.280  21.721  26.166  1.00  0.00     0.261 C 
BRANCH  34  35
ATOM     35  O   UNL A   1      39.435  23.111  26.497  1.00  0.00    -0.460 OA
BRANCH  35  36
ATOM     36  C   UNL A   1      40.709  23.473  26.853  1.00  0.00     0.338 C 
ATOM     37  O   UNL A   1      41.722  22.875  26.612  1.00  0.00    -0.246 OA
BRANCH  36  38
ATOM     38  C   UNL A   1      40.622  24.550  27.872  1.00  0.00     0.060 A 
ATOM     39  C   UNL A   1      39.465  25.331  27.816  1.00  0.00     0.016 A 
ATOM     40  C   UNL A   1      41.757  25.001  28.548  1.00  0.00     0.016 A 
ATOM     41  C   UNL A   1      39.526  26.654  28.224  1.00  0.00     0.010 A 
ATOM     42  C   UNL A   1      41.828  26.345  28.898  1.00  0.00     0.010 A 
ATOM     43  C   UNL A   1      40.746  27.195  28.641  1.00  0.00    -0.014 A 
BRANCH  43  44
ATOM     44  C   UNL A   1      40.789  28.586  29.112  1.00  0.00     0.031 A 
ATOM     45  C   UNL A   1      41.860  29.293  28.412  1.00  0.00     0.074 A 
ATOM     46  C   UNL A   1      40.015  29.196  30.040  1.00  0.00     0.049 A 
ATOM     47  N   UNL A   1      42.975  29.653  28.952  1.00  0.00    -0.248 NA
ATOM     48  C   UNL A   1      41.831  29.370  26.945  1.00  0.00     0.031 C 
ATOM     49  C   UNL A   1      38.982  28.558  30.813  1.00  0.00     0.029 A 
ATOM     50  N   UNL A   1      39.905  30.494  30.474  1.00  0.00    -0.354 N 
ATOM     51  C   UNL A   1      43.609  30.345  27.941  1.00  0.00     0.074 A 
ATOM     52  C   UNL A   1      43.029  29.900  26.701  1.00  0.00     0.031 C 
ATOM     53  C   UNL A   1      38.189  29.445  31.437  1.00  0.00     0.029 A 
ATOM     54  C   UNL A   1      38.717  30.756  31.185  1.00  0.00     0.049 A 
ATOM     55  H   UNL A   1      40.593  31.179  30.304  1.00  0.00     0.167 HD
ATOM     56  C   UNL A   1      44.165  31.545  28.243  1.00  0.00     0.034 A 
ATOM     57  C   UNL A   1      38.176  31.931  31.596  1.00  0.00     0.034 A 
ATOM     58  C   UNL A   1      44.535  31.640  29.633  1.00  0.00     0.049 A 
ATOM     59  C   UNL A   1      39.326  32.838  31.755  1.00  0.00     0.074 A 
ATOM     60  C   UNL A   1      45.258  30.850  30.506  1.00  0.00     0.029 A 
ATOM     61  N   UNL A   1      43.816  32.513  30.407  1.00  0.00    -0.354 N 
ATOM     62  N   UNL A   1      40.185  32.731  32.731  1.00  0.00    -0.248 NA
ATOM     63  C   UNL A   1      39.760  33.617  30.611  1.00  0.00     0.031 C 
ATOM     64  C   UNL A   1      44.668  31.046  31.786  1.00  0.00     0.029 A 
ATOM     65  C   UNL A   1      43.643  31.985  31.657  1.00  0.00     0.049 A 
ATOM     66  H   UNL A   1      43.474  33.388  30.108  1.00  0.00     0.167 HD
ATOM     67  C   UNL A   1      41.402  32.972  32.115  1.00  0.00     0.074 A 
ATOM     68  C   UNL A   1      41.068  33.665  30.874  1.00  0.00     0.031 C 
ATOM     69  C   UNL A   1      42.526  32.311  32.519  1.00  0.00     0.034 A 
BRANCH  56  70
ATOM     70  C   UNL A   1      43.905  32.747  27.376  1.00  0.00     0.023 A 
ATOM     71  C   UNL A   1      44.205  32.642  26.009  1.00  0.00     0.012 A 
ATOM     72  C   UNL A   1      43.611  34.041  27.875  1.00  0.00     0.148 A 
ATOM     73  C   UNL A   1      44.198  33.771  25.183  1.00  0.00     0.002 A 
ATOM     74  C   UNL A   1      43.480  35.131  27.032  1.00  0.00     0.091 A 
ATOM     75  F   UNL A   1      43.614  34.277  29.191  1.00  0.00    -0.205 F 
ATOM     76  C   UNL A   1      43.804  35.008  25.684  1.00  0.00     0.022 A 
BRANCH  74  77
ATOM     77  S   UNL A   1      42.880  36.705  27.654  1.00  0.00     0.127 S 
ATOM     78  O   UNL A   1      42.683  37.455  26.419  1.00  0.00    -0.237 OA
ATOM     79  O   UNL A   1      41.655  36.307  28.347  1.00  0.00    -0.237 OA
ATOM     80  O   UNL A   1      43.930  37.190  28.546  1.00  0.00    -0.744 OA
ENDBRANCH  74  77
ENDBRANCH  56  70
BRANCH  57  81
ATOM     81  C   UNL A   1      36.777  32.361  31.896  1.00  0.00     0.023 A 
ATOM     82  C   UNL A   1      36.342  32.379  33.241  1.00  0.00     0.012 A 
ATOM     83  C   UNL A   1      35.951  33.011  30.946  1.00  0.00     0.148 A 
ATOM     84  C   UNL A   1      35.197  33.082  33.639  1.00  0.00     0.002 A 
ATOM     85  C   UNL A   1      34.801  33.698  31.347  1.00  0.00     0.091 A 
ATOM     86  F   UNL A   1      36.324  33.025  29.662  1.00  0.00    -0.205 F 
ATOM     87  C   UNL A   1      34.439  33.758  32.695  1.00  0.00     0.022 A 
BRANCH  85  88
ATOM     88  S   UNL A   1      33.766  34.606  30.190  1.00  0.00     0.127 S 
ATOM     89  O   UNL A   1      34.661  35.662  29.715  1.00  0.00    -0.237 OA
ATOM     90  O   UNL A   1      33.472  33.579  29.197  1.00  0.00    -0.237 OA
ATOM     91  O   UNL A   1      32.640  35.101  30.972  1.00  0.00    -0.744 OA
ENDBRANCH  85  88
ENDBRANCH  57  81
BRANCH  69  92
ATOM     92  C   UNL A   1      42.528  31.679  33.889  1.00  0.00     0.023 A 
ATOM     93  C   UNL A   1      42.605  32.419  35.086  1.00  0.00     0.012 A 
ATOM     94  C   UNL A   1      42.288  30.294  33.961  1.00  0.00     0.148 A 
ATOM     95  C   UNL A   1      42.459  31.785  36.326  1.00  0.00     0.002 A 
ATOM     96  C   UNL A   1      42.095  29.679  35.190  1.00  0.00     0.091 A 
ATOM     97  F   UNL A   1      42.229  29.603  32.812  1.00  0.00    -0.205 F 
ATOM     98  C   UNL A   1      42.188  30.419  36.378  1.00  0.00     0.022 A 
BRANCH  96  99
ATOM     99  S   UNL A   1      41.618  27.951  35.299  1.00  0.00     0.127 S 
ATOM    100  O   UNL A   1      42.874  27.267  35.007  1.00  0.00    -0.237 OA
ATOM    101  O   UNL A   1      41.163  27.836  36.686  1.00  0.00    -0.237 OA
ATOM    102  O   UNL A   1      40.558  27.770  34.314  1.00  0.00    -0.744 OA
ENDBRANCH  96  99
ENDBRANCH  69  92
ENDBRANCH  43  44
ENDBRANCH  36  38
ENDBRANCH  35  36
ENDBRANCH  34  35
ENDBRANCH  33  34
ENDBRANCH  32  33
ENDBRANCH   1  32
TORSDOF 22
ENDMDL
MODEL 2
REMARK VINA RESULT:     -11.7      4.813      7.014
REMARK SMILES CS(=O)(=O)c1ccc(-n2nc(C(F)(F)F)cc2-c2ccc(CC(=O)OCCOCCOC(=O)c3ccc(-c4c5nc(c(-c6cccc(S(=O)(=O)[O-])c6F)c6ccc([nH]6)c(-c6cccc(S(=O)(=O)[O-])c6F)c6nc(c(-c7cccc(S(=O)(=O)[O-])c7F)c7ccc4[nH]7)C=C6)C=C5)cc3)cc2)cc1
REMARK SMILES IDX 27 1 26 2 25 3 23 4 24 5 22 6 21 7 18 8 19 9 98 10 20 11
REMARK SMILES IDX 97 12 17 13 9 14 10 15 11 16 16 17 8 18 5 19 6 20 100 21
REMARK SMILES IDX 7 22 99 23 2 24 1 25 3 26 4 27 12 28 13 29 14 30 15 31 28 32
REMARK SMILES IDX 29 33 30 34 31 35 32 36 33 37 34 38 35 39 96 40 36 41 95 42
REMARK SMILES IDX 37 43 38 44 39 45 89 46 40 47 94 48 88 49 90 50 41 51 93 52
REMARK SMILES IDX 87 53 86 54 42 56 74 57 54 58 73 59 55 60 58 61 72 62 91 63
REMARK SMILES IDX 56 64 57 65 71 67 92 68 59 69 43 70 44 71 52 72 45 73 47 74
REMARK SMILES IDX 53 75 46 76 48 77 49 78 50 79 51 80 75 81 76 82 84 83 77 84
REMARK SMILES IDX 79 85 85 86 78 87 80 88 81 89 82 90 83 91 60 92 61 93 69 94
REMARK SMILES IDX 62 95 64 96 70 97 63 98 65 99 66 100 67 101 68 102
REMARK H PARENT 90 55 58 66
REMARK Flexibility Score: inf
ROOT
ATOM      1  C   UNL A   1      40.942  20.459  27.364  1.00  0.00     0.202 C 
ENDROOT
BRANCH   1   2
ATOM      2  C   UNL A   1      40.880  21.986  27.230  1.00  0.00     0.261 C 
BRANCH   2   3
ATOM      3  O   UNL A   1      39.567  22.553  27.111  1.00  0.00    -0.463 OA
BRANCH   3   4
ATOM      4  C   UNL A   1      39.537  23.817  26.611  1.00  0.00     0.310 C 
ATOM      5  O   UNL A   1      40.524  24.428  26.209  1.00  0.00    -0.252 OA
BRANCH   4   6
ATOM      6  C   UNL A   1      38.182  24.478  26.652  1.00  0.00     0.158 C 
BRANCH   6   7
ATOM      7  C   UNL A   1      36.991  23.765  26.061  1.00  0.00    -0.037 A 
ATOM      8  C   UNL A   1      34.914  22.169  25.051  1.00  0.00     0.000 A 
ATOM      9  C   UNL A   1      34.847  22.657  26.356  1.00  0.00     0.010 A 
ATOM     10  C   UNL A   1      36.010  22.503  24.244  1.00  0.00     0.010 A 
ATOM     11  C   UNL A   1      35.875  23.457  26.854  1.00  0.00     0.005 A 
ATOM     12  C   UNL A   1      37.038  23.299  24.742  1.00  0.00     0.005 A 
BRANCH   8  13
ATOM     13  C   UNL A   1      33.910  21.258  24.524  1.00  0.00     0.075 A 
ATOM     14  N   UNL A   1      32.667  21.556  23.956  1.00  0.00    -0.233 N 
ATOM     15  N   UNL A   1      32.060  20.425  23.509  1.00  0.00    -0.163 NA
ATOM     16  C   UNL A   1      32.860  19.402  23.875  1.00  0.00     0.167 A 
ATOM     17  C   UNL A   1      33.981  19.885  24.575  1.00  0.00     0.064 A 
BRANCH  14  18
ATOM     18  C   UNL A   1      32.089  22.854  23.738  1.00  0.00     0.065 A 
ATOM     19  C   UNL A   1      30.951  25.445  23.411  1.00  0.00     0.067 A 
ATOM     20  C   UNL A   1      30.727  24.696  24.557  1.00  0.00     0.022 A 
ATOM     21  C   UNL A   1      31.704  24.873  22.381  1.00  0.00     0.022 A 
ATOM     22  C   UNL A   1      31.270  23.417  24.714  1.00  0.00     0.030 A 
ATOM     23  C   UNL A   1      32.313  23.595  22.565  1.00  0.00     0.030 A 
BRANCH  19  24
ATOM     24  S   UNL A   1      30.324  27.129  23.390  1.00  0.00     0.175 S 
ATOM     25  C   UNL A   1      31.069  28.040  24.728  1.00  0.00     0.163 C 
ATOM     26  O   UNL A   1      28.905  27.029  23.695  1.00  0.00    -0.224 OA
ATOM     27  O   UNL A   1      30.753  27.732  22.144  1.00  0.00    -0.224 OA
ENDBRANCH  19  24
ENDBRANCH  14  18
BRANCH  16  28
ATOM     28  C   UNL A   1      32.676  17.929  23.574  1.00  0.00     0.435 C 
ATOM     29  F   UNL A   1      32.026  17.263  24.560  1.00  0.00    -0.164 F 
ATOM     30  F   UNL A   1      32.140  17.649  22.365  1.00  0.00    -0.164 F 
ATOM     31  F   UNL A   1      33.922  17.333  23.548  1.00  0.00    -0.164 F 
ENDBRANCH  16  28
ENDBRANCH   8  13
ENDBRANCH   6   7
ENDBRANCH   4   6
ENDBRANCH   3   4
ENDBRANCH   2   3
ENDBRANCH   1   2
BRANCH   1  32
ATOM     32  O   UNL A   1      42.170  19.798  27.102  1.00  0.00    -0.374 OA
BRANCH  32  33
ATOM     33  C   UNL A   1      42.269  19.043  25.901  1.00  0.00     0.202 C 
BRANCH  33  34
ATOM     34  C   UNL A   1      43.649  18.779  25.311  1.00  0.00     0.261 C 
BRANCH  34  35
ATOM     35  O   UNL A   1      43.989  19.616  24.192  1.00  0.00    -0.460 OA
BRANCH  35  36
ATOM     36  C   UNL A   1      45.254  20.143  24.240  1.00  0.00     0.338 C 
ATOM     37  O   UNL A   1      46.288  19.533  24.284  1.00  0.00    -0.246 OA
BRANCH  36  38
ATOM     38  C   UNL A   1      45.147  21.588  24.562  1.00  0.00     0.060 A 
ATOM     39  C   UNL A   1      46.359  22.230  24.831  1.00  0.00     0.016 A 
ATOM     40  C   UNL A   1      43.935  22.155  24.960  1.00  0.00     0.016 A 
ATOM     41  C   UNL A   1      46.371  23.305  25.706  1.00  0.00     0.010 A 
ATOM     42  C   UNL A   1      43.961  23.194  25.883  1.00  0.00     0.010 A 
ATOM     43  C   UNL A   1      45.186  23.701  26.334  1.00  0.00    -0.014 A 
BRANCH  43  44
ATOM     44  C   UNL A   1      45.203  24.869  27.224  1.00  0.00     0.031 A 
ATOM     45  C   UNL A   1      46.510  25.518  27.133  1.00  0.00     0.074 A 
ATOM     46  C   UNL A   1      44.225  25.339  28.034  1.00  0.00     0.049 A 
ATOM     47  N   UNL A   1      47.409  25.487  28.060  1.00  0.00    -0.248 NA
ATOM     48  C   UNL A   1      46.983  26.003  25.829  1.00  0.00     0.031 C 
ATOM     49  C   UNL A   1      42.936  24.728  28.224  1.00  0.00     0.029 A 
ATOM     50  N   UNL A   1      44.104  26.461  28.817  1.00  0.00    -0.354 N 
ATOM     51  C   UNL A   1      48.409  26.293  27.558  1.00  0.00     0.074 A 
ATOM     52  C   UNL A   1      48.239  26.333  26.129  1.00  0.00     0.031 C 
ATOM     53  C   UNL A   1      42.070  25.545  28.846  1.00  0.00     0.029 A 
ATOM     54  C   UNL A   1      42.777  26.744  29.199  1.00  0.00     0.049 A 
ATOM     55  H   UNL A   1      44.871  27.016  29.086  1.00  0.00     0.167 HD
ATOM     56  C   UNL A   1      48.946  27.228  28.382  1.00  0.00     0.034 A 
ATOM     57  C   UNL A   1      42.246  27.841  29.796  1.00  0.00     0.034 A 
ATOM     58  C   UNL A   1      48.835  26.859  29.771  1.00  0.00     0.049 A 
ATOM     59  C   UNL A   1      43.358  28.423  30.567  1.00  0.00     0.074 A 
ATOM     60  C   UNL A   1      49.142  25.731  30.508  1.00  0.00     0.029 A 
ATOM     61  N   UNL A   1      47.986  27.607  30.545  1.00  0.00    -0.354 N 
ATOM     62  N   UNL A   1      43.825  27.882  31.659  1.00  0.00    -0.248 NA
ATOM     63  C   UNL A   1      44.226  29.388  29.917  1.00  0.00     0.031 C 
ATOM     64  C   UNL A   1      48.178  25.677  31.553  1.00  0.00     0.029 A 
ATOM     65  C   UNL A   1      47.353  26.798  31.447  1.00  0.00     0.049 A 
ATOM     66  H   UNL A   1      47.851  28.580  30.462  1.00  0.00     0.167 HD
ATOM     67  C   UNL A   1      45.195  28.040  31.535  1.00  0.00     0.074 A 
ATOM     68  C   UNL A   1      45.367  29.102  30.546  1.00  0.00     0.031 C 
ATOM     69  C   UNL A   1      46.048  27.085  32.007  1.00  0.00     0.034 A 
BRANCH  56  70
ATOM     70  C   UNL A   1      49.110  28.651  27.918  1.00  0.00     0.023 A 
ATOM     71  C   UNL A   1      50.379  29.235  28.047  1.00  0.00     0.012 A 
ATOM     72  C   UNL A   1      48.032  29.511  27.589  1.00  0.00     0.148 A 
ATOM     73  C   UNL A   1      50.562  30.607  27.845  1.00  0.00     0.002 A 
ATOM     74  C   UNL A   1      48.240  30.841  27.265  1.00  0.00     0.091 A 
ATOM     75  F   UNL A   1      46.768  29.104  27.743  1.00  0.00    -0.205 F 
ATOM     76  C   UNL A   1      49.502  31.404  27.422  1.00  0.00     0.022 A 
BRANCH  74  77
ATOM     77  S   UNL A   1      46.897  31.849  26.627  1.00  0.00     0.127 S 
ATOM     78  O   UNL A   1      47.621  32.986  26.070  1.00  0.00    -0.237 OA
ATOM     79  O   UNL A   1      46.289  30.952  25.645  1.00  0.00    -0.237 OA
ATOM     80  O   UNL A   1      46.045  32.126  27.780  1.00  0.00    -0.744 OA
ENDBRANCH  74  77
ENDBRANCH  56  70
BRANCH  57  81
ATOM     81  C   UNL A   1      40.876  28.439  29.802  1.00  0.00     0.023 A 
ATOM     82  C   UNL A   1      40.178  28.555  28.578  1.00  0.00     0.012 A 
ATOM     83  C   UNL A   1      40.130  28.641  30.988  1.00  0.00     0.148 A 
ATOM     84  C   UNL A   1      38.795  28.770  28.533  1.00  0.00     0.002 A 
ATOM     85  C   UNL A   1      38.752  28.871  30.938  1.00  0.00     0.091 A 
ATOM     86  F   UNL A   1      40.746  28.535  32.170  1.00  0.00    -0.205 F 
ATOM     87  C   UNL A   1      38.078  28.907  29.714  1.00  0.00     0.022 A 
BRANCH  85  88
ATOM     88  S   UNL A   1      37.747  29.053  32.418  1.00  0.00     0.127 S 
ATOM     89  O   UNL A   1      37.802  27.716  33.012  1.00  0.00    -0.237 OA
ATOM     90  O   UNL A   1      38.496  30.064  33.154  1.00  0.00    -0.237 OA
ATOM     91  O   UNL A   1      36.420  29.432  31.951  1.00  0.00    -0.744 OA
ENDBRANCH  85  88
ENDBRANCH  57  81
BRANCH  69  92
ATOM     92  C   UNL A   1      45.528  26.110  33.035  1.00  0.00     0.023 A 
ATOM     93  C   UNL A   1      44.998  24.846  32.708  1.00  0.00     0.012 A 
ATOM     94  C   UNL A   1      45.729  26.433  34.389  1.00  0.00     0.148 A 
ATOM     95  C   UNL A   1      44.665  23.932  33.715  1.00  0.00     0.002 A 
ATOM     96  C   UNL A   1      45.443  25.506  35.381  1.00  0.00     0.091 A 
ATOM     97  F   UNL A   1      46.224  27.646  34.683  1.00  0.00    -0.205 F 
ATOM     98  C   UNL A   1      44.902  24.255  35.050  1.00  0.00     0.022 A 
BRANCH  96  99
ATOM     99  S   UNL A   1      45.851  25.828  37.100  1.00  0.00     0.127 S 
ATOM    100  O   UNL A   1      47.308  25.910  37.059  1.00  0.00    -0.237 OA
ATOM    101  O   UNL A   1      45.171  27.100  37.352  1.00  0.00    -0.237 OA
ATOM    102  O   UNL A   1      45.304  24.707  37.854  1.00  0.00    -0.744 OA
ENDBRANCH  96  99
ENDBRANCH  69  92
ENDBRANCH  43  44
ENDBRANCH  36  38
ENDBRANCH  35  36
ENDBRANCH  34  35
ENDBRANCH  33  34
ENDBRANCH  32  33
ENDBRANCH   1  32
TORSDOF 22
ENDMDL
MODEL 3
REMARK VINA RESULT:     -11.4      4.557      8.565
REMARK SMILES CS(=O)(=O)c1ccc(-n2nc(C(F)(F)F)cc2-c2ccc(CC(=O)OCCOCCOC(=O)c3ccc(-c4c5nc(c(-c6cccc(S(=O)(=O)[O-])c6F)c6ccc([nH]6)c(-c6cccc(S(=O)(=O)[O-])c6F)c6nc(c(-c7cccc(S(=O)(=O)[O-])c7F)c7ccc4[nH]7)C=C6)C=C5)cc3)cc2)cc1
REMARK SMILES IDX 27 1 26 2 25 3 23 4 24 5 22 6 21 7 18 8 19 9 98 10 20 11
REMARK SMILES IDX 97 12 17 13 9 14 10 15 11 16 16 17 8 18 5 19 6 20 100 21
REMARK SMILES IDX 7 22 99 23 2 24 1 25 3 26 4 27 12 28 13 29 14 30 15 31 28 32
REMARK SMILES IDX 29 33 30 34 31 35 32 36 33 37 34 38 35 39 96 40 36 41 95 42
REMARK SMILES IDX 37 43 38 44 39 45 89 46 40 47 94 48 88 49 90 50 41 51 93 52
REMARK SMILES IDX 87 53 86 54 42 56 74 57 54 58 73 59 55 60 58 61 72 62 91 63
REMARK SMILES IDX 56 64 57 65 71 67 92 68 59 69 43 70 44 71 52 72 45 73 47 74
REMARK SMILES IDX 53 75 46 76 48 77 49 78 50 79 51 80 75 81 76 82 84 83 77 84
REMARK SMILES IDX 79 85 85 86 78 87 80 88 81 89 82 90 83 91 60 92 61 93 69 94
REMARK SMILES IDX 62 95 64 96 70 97 63 98 65 99 66 100 67 101 68 102
REMARK H PARENT 90 55 58 66
REMARK Flexibility Score: inf
ROOT
ATOM      1  C   UNL A   1      31.862  28.488  26.466  1.00  0.00     0.202 C 
ENDROOT
BRANCH   1   2
ATOM      2  C   UNL A   1      31.344  28.609  25.027  1.00  0.00     0.261 C 
BRANCH   2   3
ATOM      3  O   UNL A   1      32.177  28.034  24.009  1.00  0.00    -0.463 OA
BRANCH   3   4
ATOM      4  C   UNL A   1      31.502  27.406  23.010  1.00  0.00     0.310 C 
ATOM      5  O   UNL A   1      30.950  27.982  22.077  1.00  0.00    -0.252 OA
BRANCH   4   6
ATOM      6  C   UNL A   1      31.404  25.909  23.162  1.00  0.00     0.158 C 
BRANCH   6   7
ATOM      7  C   UNL A   1      32.554  25.148  23.772  1.00  0.00    -0.037 A 
ATOM      8  C   UNL A   1      34.855  24.004  24.904  1.00  0.00     0.000 A 
ATOM      9  C   UNL A   1      33.852  24.516  25.729  1.00  0.00     0.010 A 
ATOM     10  C   UNL A   1      34.691  24.043  23.513  1.00  0.00     0.010 A 
ATOM     11  C   UNL A   1      32.707  25.076  25.166  1.00  0.00     0.005 A 
ATOM     12  C   UNL A   1      33.548  24.605  22.950  1.00  0.00     0.005 A 
BRANCH   8  13
ATOM     13  C   UNL A   1      36.105  23.496  25.447  1.00  0.00     0.075 A 
ATOM     14  N   UNL A   1      36.504  22.168  25.634  1.00  0.00    -0.233 N 
ATOM     15  N   UNL A   1      37.783  22.112  26.092  1.00  0.00    -0.163 NA
ATOM     16  C   UNL A   1      38.165  23.391  26.291  1.00  0.00     0.167 A 
ATOM     17  C   UNL A   1      37.115  24.270  25.970  1.00  0.00     0.064 A 
BRANCH  14  18
ATOM     18  C   UNL A   1      35.770  20.976  25.310  1.00  0.00     0.065 A 
ATOM     19  C   UNL A   1      34.233  18.674  24.635  1.00  0.00     0.067 A 
ATOM     20  C   UNL A   1      33.631  19.839  25.088  1.00  0.00     0.022 A 
ATOM     21  C   UNL A   1      35.630  18.631  24.573  1.00  0.00     0.022 A 
ATOM     22  C   UNL A   1      34.383  20.965  25.437  1.00  0.00     0.030 A 
ATOM     23  C   UNL A   1      36.395  19.799  24.866  1.00  0.00     0.030 A 
BRANCH  19  24
ATOM     24  S   UNL A   1      33.154  17.350  24.078  1.00  0.00     0.175 S 
ATOM     25  C   UNL A   1      32.368  17.844  22.558  1.00  0.00     0.163 C 
ATOM     26  O   UNL A   1      32.100  17.249  25.077  1.00  0.00    -0.224 OA
ATOM     27  O   UNL A   1      33.992  16.201  23.796  1.00  0.00    -0.224 OA
ENDBRANCH  19  24
ENDBRANCH  14  18
BRANCH  16  28
ATOM     28  C   UNL A   1      39.522  23.893  26.741  1.00  0.00     0.435 C 
ATOM     29  F   UNL A   1      39.990  23.242  27.835  1.00  0.00    -0.164 F 
ATOM     30  F   UNL A   1      40.464  23.958  25.775  1.00  0.00    -0.164 F 
ATOM     31  F   UNL A   1      39.379  25.196  27.177  1.00  0.00    -0.164 F 
ENDBRANCH  16  28
ENDBRANCH   8  13
ENDBRANCH   6   7
ENDBRANCH   4   6
ENDBRANCH   3   4
ENDBRANCH   2   3
ENDBRANCH   1   2
BRANCH   1  32
ATOM     32  O   UNL A   1      32.184  29.672  27.179  1.00  0.00    -0.374 OA
BRANCH  32  33
ATOM     33  C   UNL A   1      33.478  30.229  26.983  1.00  0.00     0.202 C 
BRANCH  33  34
ATOM     34  C   UNL A   1      34.698  29.416  27.398  1.00  0.00     0.261 C 
BRANCH  34  35
ATOM     35  O   UNL A   1      35.862  30.202  27.709  1.00  0.00    -0.460 OA
BRANCH  35  36
ATOM     36  C   UNL A   1      36.423  29.930  28.930  1.00  0.00     0.338 C 
ATOM     37  O   UNL A   1      36.149  30.447  29.979  1.00  0.00    -0.246 OA
BRANCH  36  38
ATOM     38  C   UNL A   1      37.656  29.133  28.712  1.00  0.00     0.060 A 
ATOM     39  C   UNL A   1      37.985  28.251  29.744  1.00  0.00     0.016 A 
ATOM     40  C   UNL A   1      38.611  29.518  27.768  1.00  0.00     0.016 A 
ATOM     41  C   UNL A   1      39.319  27.951  29.972  1.00  0.00     0.010 A 
ATOM     42  C   UNL A   1      39.950  29.261  28.039  1.00  0.00     0.010 A 
ATOM     43  C   UNL A   1      40.310  28.564  29.199  1.00  0.00    -0.014 A 
BRANCH  43  44
ATOM     44  C   UNL A   1      41.716  28.204  29.421  1.00  0.00     0.031 A 
ATOM     45  C   UNL A   1      42.132  27.253  28.391  1.00  0.00     0.074 A 
ATOM     46  C   UNL A   1      42.562  28.625  30.391  1.00  0.00     0.049 A 
ATOM     47  N   UNL A   1      42.350  25.998  28.600  1.00  0.00    -0.248 NA
ATOM     48  C   UNL A   1      42.037  27.638  26.976  1.00  0.00     0.031 C 
ATOM     49  C   UNL A   1      42.216  29.512  31.470  1.00  0.00     0.029 A 
ATOM     50  N   UNL A   1      43.902  28.434  30.625  1.00  0.00    -0.354 N 
ATOM     51  C   UNL A   1      42.791  25.545  27.374  1.00  0.00     0.074 A 
ATOM     52  C   UNL A   1      42.312  26.475  26.385  1.00  0.00     0.031 C 
ATOM     53  C   UNL A   1      43.299  29.987  32.109  1.00  0.00     0.029 A 
ATOM     54  C   UNL A   1      44.454  29.355  31.537  1.00  0.00     0.049 A 
ATOM     55  H   UNL A   1      44.427  27.719  30.197  1.00  0.00     0.167 HD
ATOM     56  C   UNL A   1      43.900  24.764  27.346  1.00  0.00     0.034 A 
ATOM     57  C   UNL A   1      45.748  29.600  31.869  1.00  0.00     0.034 A 
ATOM     58  C   UNL A   1      44.093  24.047  28.582  1.00  0.00     0.049 A 
ATOM     59  C   UNL A   1      46.447  28.329  31.615  1.00  0.00     0.074 A 
ATOM     60  C   UNL A   1      43.297  23.250  29.382  1.00  0.00     0.029 A 
ATOM     61  N   UNL A   1      45.167  24.416  29.350  1.00  0.00    -0.354 N 
ATOM     62  N   UNL A   1      46.306  27.278  32.374  1.00  0.00    -0.248 NA
ATOM     63  C   UNL A   1      46.994  28.087  30.293  1.00  0.00     0.031 C 
ATOM     64  C   UNL A   1      43.747  23.466  30.714  1.00  0.00     0.029 A 
ATOM     65  C   UNL A   1      44.831  24.344  30.674  1.00  0.00     0.049 A 
ATOM     66  H   UNL A   1      46.046  24.692  29.001  1.00  0.00     0.167 HD
ATOM     67  C   UNL A   1      46.250  26.232  31.467  1.00  0.00     0.074 A 
ATOM     68  C   UNL A   1      46.838  26.763  30.240  1.00  0.00     0.031 C 
ATOM     69  C   UNL A   1      45.452  25.150  31.705  1.00  0.00     0.034 A 
BRANCH  56  70
ATOM     70  C   UNL A   1      45.017  25.057  26.380  1.00  0.00     0.023 A 
ATOM     71  C   UNL A   1      45.513  23.991  25.615  1.00  0.00     0.012 A 
ATOM     72  C   UNL A   1      45.759  26.265  26.364  1.00  0.00     0.148 A 
ATOM     73  C   UNL A   1      46.683  24.130  24.862  1.00  0.00     0.002 A 
ATOM     74  C   UNL A   1      46.841  26.438  25.518  1.00  0.00     0.091 A 
ATOM     75  F   UNL A   1      45.535  27.211  27.281  1.00  0.00    -0.205 F 
ATOM     76  C   UNL A   1      47.329  25.361  24.785  1.00  0.00     0.022 A 
BRANCH  74  77
ATOM     77  S   UNL A   1      47.619  28.048  25.343  1.00  0.00     0.127 S 
ATOM     78  O   UNL A   1      48.120  28.283  26.692  1.00  0.00    -0.237 OA
ATOM     79  O   UNL A   1      48.643  27.778  24.334  1.00  0.00    -0.237 OA
ATOM     80  O   UNL A   1      46.558  28.938  24.882  1.00  0.00    -0.744 OA
ENDBRANCH  74  77
ENDBRANCH  56  70
BRANCH  57  81
ATOM     81  C   UNL A   1      46.454  30.803  32.406  1.00  0.00     0.023 A 
ATOM     82  C   UNL A   1      46.999  30.747  33.709  1.00  0.00     0.012 A 
ATOM     83  C   UNL A   1      46.847  31.892  31.592  1.00  0.00     0.148 A 
ATOM     84  C   UNL A   1      47.955  31.671  34.151  1.00  0.00     0.002 A 
ATOM     85  C   UNL A   1      47.789  32.821  32.043  1.00  0.00     0.091 A 
ATOM     86  F   UNL A   1      46.362  31.984  30.349  1.00  0.00    -0.205 F 
ATOM     87  C   UNL A   1      48.365  32.696  33.311  1.00  0.00     0.022 A 
BRANCH  85  88
ATOM     88  S   UNL A   1      48.381  34.175  31.018  1.00  0.00     0.127 S 
ATOM     89  O   UNL A   1      49.660  34.517  31.642  1.00  0.00    -0.237 OA
ATOM     90  O   UNL A   1      48.506  33.522  29.720  1.00  0.00    -0.237 OA
ATOM     91  O   UNL A   1      47.376  35.224  31.129  1.00  0.00    -0.744 OA
ENDBRANCH  85  88
ENDBRANCH  57  81
BRANCH  69  92
ATOM     92  C   UNL A   1      44.999  24.896  33.121  1.00  0.00     0.023 A 
ATOM     93  C   UNL A   1      45.690  24.058  34.020  1.00  0.00     0.012 A 
ATOM     94  C   UNL A   1      43.917  25.659  33.598  1.00  0.00     0.148 A 
ATOM     95  C   UNL A   1      45.298  23.975  35.361  1.00  0.00     0.002 A 
ATOM     96  C   UNL A   1      43.563  25.611  34.940  1.00  0.00     0.091 A 
ATOM     97  F   UNL A   1      43.263  26.443  32.727  1.00  0.00    -0.205 F 
ATOM     98  C   UNL A   1      44.245  24.763  35.825  1.00  0.00     0.022 A 
BRANCH  96  99
ATOM     99  S   UNL A   1      42.302  26.701  35.606  1.00  0.00     0.127 S 
ATOM    100  O   UNL A   1      42.834  28.021  35.282  1.00  0.00    -0.237 OA
ATOM    101  O   UNL A   1      41.114  26.313  34.843  1.00  0.00    -0.237 OA
ATOM    102  O   UNL A   1      42.218  26.388  37.028  1.00  0.00    -0.744 OA
ENDBRANCH  96  99
ENDBRANCH  69  92
ENDBRANCH  43  44
ENDBRANCH  36  38
ENDBRANCH  35  36
ENDBRANCH  34  35
ENDBRANCH  33  34
ENDBRANCH  32  33
ENDBRANCH   1  32
TORSDOF 22
ENDMDL
