MODEL 1
REMARK VINA RESULT:     -11.9      0.000      0.000
REMARK SMILES CC(C)(C)c1ccc(OCC(=O)NNC(=O)[C@H]2[C@@H](C(=O)OCCOCCOC(=O)c3ccc(-c4c5nc(c(-c6cccc(S(=O)(=O)[O-])c6F)c6ccc([nH]6)c(-c6cccc(S(=O)(=O)[O-])c6F)c6nc(c(-c7cccc(S(=O)(=O)[O-])c7F)c7ccc4[nH]7)C=C6)C=C5)cc3)[C@@H]3C=C[C@H]2C3)cc1
REMARK SMILES IDX 22 1 21 2 19 3 20 4 18 5 17 6 96 7 93 8 95 9 97 10 94 11
REMARK SMILES IDX 15 12 14 13 16 15 13 16 11 17 12 18 10 20 9 21 8 22 5 23
REMARK SMILES IDX 6 24 99 25 7 26 98 27 2 28 1 29 3 30 4 31 23 32 24 33 25 34
REMARK SMILES IDX 26 35 27 36 28 37 29 38 30 39 31 40 92 41 32 42 91 43 33 44
REMARK SMILES IDX 34 45 35 46 85 47 36 48 90 49 84 50 86 51 37 52 89 53 83 54
REMARK SMILES IDX 82 55 38 57 70 58 50 59 69 60 51 61 54 62 68 63 87 64 52 65
REMARK SMILES IDX 53 66 67 68 88 69 55 70 39 71 40 72 48 73 41 74 43 75 49 76
REMARK SMILES IDX 42 77 44 78 45 79 46 80 47 81 71 82 72 83 80 84 73 85 75 86
REMARK SMILES IDX 81 87 74 88 76 89 77 90 78 91 79 92 56 93 57 94 65 95 58 96
REMARK SMILES IDX 60 97 66 98 59 99 61 100 62 101 63 102 64 103
REMARK H PARENT 14 14 13 19 86 56 54 67
REMARK Flexibility Score: inf
ROOT
ATOM      1  C   UNL A   1      33.410  26.899  26.127  1.00  0.00     0.261 C 
ENDROOT
BRANCH   1   2
ATOM      2  O   UNL A   1      34.070  26.172  25.087  1.00  0.00    -0.463 OA
BRANCH   2   3
ATOM      3  C   UNL A   1      33.782  24.843  25.045  1.00  0.00     0.310 C 
ATOM      4  O   UNL A   1      32.720  24.342  25.386  1.00  0.00    -0.252 OA
BRANCH   3   5
ATOM      5  C   UNL A   1      34.982  24.072  24.517  1.00  0.00     0.119 C 
ATOM      6  C   UNL A   1      34.718  22.711  23.762  1.00  0.00     0.102 C 
ATOM      7  C   UNL A   1      35.401  21.683  24.711  1.00  0.00     0.025 C 
ATOM      8  C   UNL A   1      35.847  23.631  25.719  1.00  0.00     0.027 C 
ATOM      9  C   UNL A   1      36.893  21.909  24.600  1.00  0.00    -0.027 C 
ATOM     10  C   UNL A   1      35.189  22.299  26.095  1.00  0.00     0.017 C 
ATOM     11  C   UNL A   1      37.157  23.088  25.186  1.00  0.00    -0.027 C 
BRANCH   6  12
ATOM     12  C   UNL A   1      33.280  22.340  23.425  1.00  0.00     0.242 C 
ATOM     13  N   UNL A   1      32.670  22.918  22.340  1.00  0.00    -0.267 N 
ATOM     14  H   UNL A   1      31.753  22.622  22.142  1.00  0.00     0.191 HD
ATOM     15  O   UNL A   1      32.595  21.591  24.116  1.00  0.00    -0.273 OA
BRANCH  13  16
ATOM     16  N   UNL A   1      33.209  23.878  21.492  1.00  0.00    -0.265 N 
ATOM     17  C   UNL A   1      32.622  25.109  21.291  1.00  0.00     0.276 C 
ATOM     18  O   UNL A   1      33.103  25.892  20.468  1.00  0.00    -0.269 OA
ATOM     19  H   UNL A   1      34.044  23.671  21.015  1.00  0.00     0.191 HD
BRANCH  17  20
ATOM     20  C   UNL A   1      31.404  25.502  22.146  1.00  0.00     0.331 C 
BRANCH  20  21
ATOM     21  O   UNL A   1      31.588  26.521  23.117  1.00  0.00    -0.484 OA
BRANCH  21  22
ATOM     22  C   UNL A   1      30.922  27.701  22.939  1.00  0.00     0.120 A 
ATOM     23  C   UNL A   1      29.283  29.998  22.608  1.00  0.00    -0.042 A 
ATOM     24  C   UNL A   1      28.804  28.844  23.253  1.00  0.00     0.008 A 
ATOM     25  C   UNL A   1      30.608  29.970  22.149  1.00  0.00     0.008 A 
ATOM     26  C   UNL A   1      29.613  27.714  23.418  1.00  0.00     0.047 A 
ATOM     27  C   UNL A   1      31.421  28.840  22.317  1.00  0.00     0.047 A 
BRANCH  23  28
ATOM     28  C   UNL A   1      28.366  31.219  22.416  1.00  0.00    -0.013 C 
ATOM     29  C   UNL A   1      27.271  31.217  23.504  1.00  0.00     0.016 C 
ATOM     30  C   UNL A   1      27.653  31.248  21.044  1.00  0.00     0.016 C 
ATOM     31  C   UNL A   1      29.190  32.520  22.527  1.00  0.00     0.016 C 
ENDBRANCH  23  28
ENDBRANCH  21  22
ENDBRANCH  20  21
ENDBRANCH  17  20
ENDBRANCH  13  16
ENDBRANCH   6  12
ENDBRANCH   3   5
ENDBRANCH   2   3
ENDBRANCH   1   2
BRANCH   1  32
ATOM     32  C   UNL A   1      33.193  28.361  25.724  1.00  0.00     0.202 C 
BRANCH  32  33
ATOM     33  O   UNL A   1      32.052  29.045  26.239  1.00  0.00    -0.374 OA
BRANCH  33  34
ATOM     34  C   UNL A   1      31.679  30.292  25.653  1.00  0.00     0.202 C 
BRANCH  34  35
ATOM     35  C   UNL A   1      31.789  31.563  26.503  1.00  0.00     0.261 C 
BRANCH  35  36
ATOM     36  O   UNL A   1      32.682  31.432  27.618  1.00  0.00    -0.460 OA
BRANCH  36  37
ATOM     37  C   UNL A   1      33.660  32.365  27.674  1.00  0.00     0.338 C 
ATOM     38  O   UNL A   1      33.528  33.583  27.612  1.00  0.00    -0.246 OA
BRANCH  37  39
ATOM     39  C   UNL A   1      34.940  31.727  28.007  1.00  0.00     0.060 A 
ATOM     40  C   UNL A   1      34.969  30.332  28.149  1.00  0.00     0.016 A 
ATOM     41  C   UNL A   1      36.069  32.499  28.278  1.00  0.00     0.016 A 
ATOM     42  C   UNL A   1      36.121  29.704  28.610  1.00  0.00     0.010 A 
ATOM     43  C   UNL A   1      37.219  31.870  28.754  1.00  0.00     0.010 A 
ATOM     44  C   UNL A   1      37.233  30.477  28.960  1.00  0.00    -0.014 A 
BRANCH  44  45
ATOM     45  C   UNL A   1      38.346  29.868  29.720  1.00  0.00     0.031 A 
ATOM     46  C   UNL A   1      38.613  30.364  31.114  1.00  0.00     0.074 A 
ATOM     47  C   UNL A   1      39.118  28.918  29.167  1.00  0.00     0.049 A 
ATOM     48  N   UNL A   1      39.598  30.077  31.921  1.00  0.00    -0.248 NA
ATOM     49  C   UNL A   1      37.640  31.324  31.666  1.00  0.00     0.031 C 
ATOM     50  C   UNL A   1      38.934  28.348  27.834  1.00  0.00     0.029 A 
ATOM     51  N   UNL A   1      40.239  28.293  29.652  1.00  0.00    -0.354 N 
ATOM     52  C   UNL A   1      39.392  30.853  33.056  1.00  0.00     0.074 A 
ATOM     53  C   UNL A   1      38.189  31.625  32.833  1.00  0.00     0.031 C 
ATOM     54  C   UNL A   1      39.935  27.486  27.588  1.00  0.00     0.029 A 
ATOM     55  C   UNL A   1      40.846  27.474  28.730  1.00  0.00     0.049 A 
ATOM     56  H   UNL A   1      40.576  28.419  30.568  1.00  0.00     0.167 HD
ATOM     57  C   UNL A   1      40.136  30.910  34.184  1.00  0.00     0.034 A 
ATOM     58  C   UNL A   1      42.022  26.820  28.793  1.00  0.00     0.034 A 
ATOM     59  C   UNL A   1      41.319  30.123  34.401  1.00  0.00     0.049 A 
ATOM     60  C   UNL A   1      42.847  26.920  30.051  1.00  0.00     0.074 A 
ATOM     61  C   UNL A   1      42.125  30.073  35.523  1.00  0.00     0.029 A 
ATOM     62  N   UNL A   1      41.873  29.260  33.467  1.00  0.00    -0.354 N 
ATOM     63  N   UNL A   1      42.596  27.585  31.153  1.00  0.00    -0.248 NA
ATOM     64  C   UNL A   1      44.103  26.156  30.086  1.00  0.00     0.031 C 
ATOM     65  C   UNL A   1      43.186  29.201  35.256  1.00  0.00     0.029 A 
ATOM     66  C   UNL A   1      43.016  28.677  33.984  1.00  0.00     0.049 A 
ATOM     67  H   UNL A   1      41.506  29.087  32.570  1.00  0.00     0.167 HD
ATOM     68  C   UNL A   1      43.633  27.280  32.029  1.00  0.00     0.074 A 
ATOM     69  C   UNL A   1      44.513  26.366  31.329  1.00  0.00     0.031 C 
ATOM     70  C   UNL A   1      43.843  27.721  33.294  1.00  0.00     0.034 A 
BRANCH  57  71
ATOM     71  C   UNL A   1      39.688  31.849  35.273  1.00  0.00     0.023 A 
ATOM     72  C   UNL A   1      40.046  33.211  35.220  1.00  0.00     0.012 A 
ATOM     73  C   UNL A   1      38.872  31.390  36.326  1.00  0.00     0.148 A 
ATOM     74  C   UNL A   1      39.628  34.095  36.214  1.00  0.00     0.002 A 
ATOM     75  C   UNL A   1      38.419  32.286  37.287  1.00  0.00     0.091 A 
ATOM     76  F   UNL A   1      38.562  30.086  36.373  1.00  0.00    -0.205 F 
ATOM     77  C   UNL A   1      38.806  33.635  37.240  1.00  0.00     0.022 A 
BRANCH  75  78
ATOM     78  S   UNL A   1      37.293  31.808  38.602  1.00  0.00     0.127 S 
ATOM     79  O   UNL A   1      37.024  30.410  38.267  1.00  0.00    -0.237 OA
ATOM     80  O   UNL A   1      38.115  32.001  39.796  1.00  0.00    -0.237 OA
ATOM     81  O   UNL A   1      36.150  32.704  38.499  1.00  0.00    -0.744 OA
ENDBRANCH  75  78
ENDBRANCH  57  71
BRANCH  58  82
ATOM     82  C   UNL A   1      42.481  25.996  27.639  1.00  0.00     0.023 A 
ATOM     83  C   UNL A   1      43.369  26.553  26.698  1.00  0.00     0.012 A 
ATOM     84  C   UNL A   1      42.054  24.664  27.477  1.00  0.00     0.148 A 
ATOM     85  C   UNL A   1      43.797  25.810  25.598  1.00  0.00     0.002 A 
ATOM     86  C   UNL A   1      42.529  23.911  26.409  1.00  0.00     0.091 A 
ATOM     87  F   UNL A   1      41.199  24.157  28.376  1.00  0.00    -0.205 F 
ATOM     88  C   UNL A   1      43.386  24.488  25.459  1.00  0.00     0.022 A 
BRANCH  86  89
ATOM     89  S   UNL A   1      42.151  22.165  26.215  1.00  0.00     0.127 S 
ATOM     90  O   UNL A   1      40.699  22.190  26.052  1.00  0.00    -0.237 OA
ATOM     91  O   UNL A   1      42.902  21.828  25.006  1.00  0.00    -0.237 OA
ATOM     92  O   UNL A   1      42.639  21.519  27.426  1.00  0.00    -0.744 OA
ENDBRANCH  86  89
ENDBRANCH  58  82
BRANCH  70  93
ATOM     93  C   UNL A   1      45.030  27.173  34.043  1.00  0.00     0.023 A 
ATOM     94  C   UNL A   1      46.260  27.858  34.023  1.00  0.00     0.012 A 
ATOM     95  C   UNL A   1      44.889  26.025  34.848  1.00  0.00     0.148 A 
ATOM     96  C   UNL A   1      47.340  27.390  34.770  1.00  0.00     0.002 A 
ATOM     97  C   UNL A   1      45.952  25.596  35.631  1.00  0.00     0.091 A 
ATOM     98  F   UNL A   1      43.713  25.379  34.839  1.00  0.00    -0.205 F 
ATOM     99  C   UNL A   1      47.184  26.270  35.584  1.00  0.00     0.022 A 
BRANCH  97 100
ATOM    100  S   UNL A   1      45.809  24.228  36.785  1.00  0.00     0.127 S 
ATOM    101  O   UNL A   1      45.249  23.179  35.935  1.00  0.00    -0.237 OA
ATOM    102  O   UNL A   1      47.200  24.013  37.184  1.00  0.00    -0.237 OA
ATOM    103  O   UNL A   1      44.938  24.692  37.856  1.00  0.00    -0.744 OA
ENDBRANCH  97 100
ENDBRANCH  70  93
ENDBRANCH  44  45
ENDBRANCH  37  39
ENDBRANCH  36  37
ENDBRANCH  35  36
ENDBRANCH  34  35
ENDBRANCH  33  34
ENDBRANCH  32  33
ENDBRANCH   1  32
TORSDOF 23
ENDMDL
MODEL 2
REMARK VINA RESULT:     -11.3      5.111     10.002
REMARK SMILES CC(C)(C)c1ccc(OCC(=O)NNC(=O)[C@H]2[C@@H](C(=O)OCCOCCOC(=O)c3ccc(-c4c5nc(c(-c6cccc(S(=O)(=O)[O-])c6F)c6ccc([nH]6)c(-c6cccc(S(=O)(=O)[O-])c6F)c6nc(c(-c7cccc(S(=O)(=O)[O-])c7F)c7ccc4[nH]7)C=C6)C=C5)cc3)[C@@H]3C=C[C@H]2C3)cc1
REMARK SMILES IDX 22 1 21 2 19 3 20 4 18 5 17 6 96 7 93 8 95 9 97 10 94 11
REMARK SMILES IDX 15 12 14 13 16 15 13 16 11 17 12 18 10 20 9 21 8 22 5 23
REMARK SMILES IDX 6 24 99 25 7 26 98 27 2 28 1 29 3 30 4 31 23 32 24 33 25 34
REMARK SMILES IDX 26 35 27 36 28 37 29 38 30 39 31 40 92 41 32 42 91 43 33 44
REMARK SMILES IDX 34 45 35 46 85 47 36 48 90 49 84 50 86 51 37 52 89 53 83 54
REMARK SMILES IDX 82 55 38 57 70 58 50 59 69 60 51 61 54 62 68 63 87 64 52 65
REMARK SMILES IDX 53 66 67 68 88 69 55 70 39 71 40 72 48 73 41 74 43 75 49 76
REMARK SMILES IDX 42 77 44 78 45 79 46 80 47 81 71 82 72 83 80 84 73 85 75 86
REMARK SMILES IDX 81 87 74 88 76 89 77 90 78 91 79 92 56 93 57 94 65 95 58 96
REMARK SMILES IDX 60 97 66 98 59 99 61 100 62 101 63 102 64 103
REMARK H PARENT 14 14 13 19 86 56 54 67
REMARK Flexibility Score: inf
ROOT
ATOM      1  C   UNL A   1      36.642  22.719  23.899  1.00  0.00     0.261 C 
ENDROOT
BRANCH   1   2
ATOM      2  O   UNL A   1      35.454  23.371  24.354  1.00  0.00    -0.463 OA
BRANCH   2   3
ATOM      3  C   UNL A   1      34.653  22.613  25.152  1.00  0.00     0.310 C 
ATOM      4  O   UNL A   1      34.423  22.836  26.332  1.00  0.00    -0.252 OA
BRANCH   3   5
ATOM      5  C   UNL A   1      34.093  21.443  24.358  1.00  0.00     0.119 C 
ATOM      6  C   UNL A   1      32.531  21.370  24.145  1.00  0.00     0.102 C 
ATOM      7  C   UNL A   1      32.164  20.069  24.919  1.00  0.00     0.025 C 
ATOM      8  C   UNL A   1      34.391  20.140  25.132  1.00  0.00     0.027 C 
ATOM      9  C   UNL A   1      32.724  18.912  24.120  1.00  0.00    -0.027 C 
ATOM     10  C   UNL A   1      33.178  20.056  26.064  1.00  0.00     0.017 C 
ATOM     11  C   UNL A   1      34.060  18.968  24.231  1.00  0.00    -0.027 C 
BRANCH   6  12
ATOM     12  C   UNL A   1      31.687  22.566  24.565  1.00  0.00     0.242 C 
ATOM     13  N   UNL A   1      31.466  23.584  23.671  1.00  0.00    -0.267 N 
ATOM     14  H   UNL A   1      30.887  24.319  23.977  1.00  0.00     0.191 HD
ATOM     15  O   UNL A   1      31.240  22.713  25.699  1.00  0.00    -0.273 OA
BRANCH  13  16
ATOM     16  N   UNL A   1      31.972  23.688  22.382  1.00  0.00    -0.265 N 
ATOM     17  C   UNL A   1      32.858  24.675  22.006  1.00  0.00     0.276 C 
ATOM     18  O   UNL A   1      33.214  24.765  20.828  1.00  0.00    -0.269 OA
ATOM     19  H   UNL A   1      31.686  23.030  21.709  1.00  0.00     0.191 HD
BRANCH  17  20
ATOM     20  C   UNL A   1      33.428  25.613  23.085  1.00  0.00     0.331 C 
BRANCH  20  21
ATOM     21  O   UNL A   1      32.541  26.057  24.100  1.00  0.00    -0.484 OA
BRANCH  21  22
ATOM     22  C   UNL A   1      31.717  27.109  23.812  1.00  0.00     0.120 A 
ATOM     23  C   UNL A   1      29.783  29.092  23.181  1.00  0.00    -0.042 A 
ATOM     24  C   UNL A   1      29.402  27.814  23.627  1.00  0.00     0.008 A 
ATOM     25  C   UNL A   1      31.158  29.348  23.075  1.00  0.00     0.008 A 
ATOM     26  C   UNL A   1      30.355  26.839  23.941  1.00  0.00     0.047 A 
ATOM     27  C   UNL A   1      32.115  28.373  23.392  1.00  0.00     0.047 A 
BRANCH  23  28
ATOM     28  C   UNL A   1      28.716  30.140  22.818  1.00  0.00    -0.013 C 
ATOM     29  C   UNL A   1      28.868  31.370  23.737  1.00  0.00     0.016 C 
ATOM     30  C   UNL A   1      27.266  29.626  22.973  1.00  0.00     0.016 C 
ATOM     31  C   UNL A   1      28.886  30.579  21.347  1.00  0.00     0.016 C 
ENDBRANCH  23  28
ENDBRANCH  21  22
ENDBRANCH  20  21
ENDBRANCH  17  20
ENDBRANCH  13  16
ENDBRANCH   6  12
ENDBRANCH   3   5
ENDBRANCH   2   3
ENDBRANCH   1   2
BRANCH   1  32
ATOM     32  C   UNL A   1      37.708  22.686  25.001  1.00  0.00     0.202 C 
BRANCH  32  33
ATOM     33  O   UNL A   1      37.879  21.480  25.743  1.00  0.00    -0.374 OA
BRANCH  33  34
ATOM     34  C   UNL A   1      38.043  20.255  25.031  1.00  0.00     0.202 C 
BRANCH  34  35
ATOM     35  C   UNL A   1      39.117  19.269  25.506  1.00  0.00     0.261 C 
BRANCH  35  36
ATOM     36  O   UNL A   1      39.990  19.811  26.508  1.00  0.00    -0.460 OA
BRANCH  36  37
ATOM     37  C   UNL A   1      41.309  19.665  26.249  1.00  0.00     0.338 C 
ATOM     38  O   UNL A   1      41.867  18.686  25.765  1.00  0.00    -0.246 OA
BRANCH  37  39
ATOM     39  C   UNL A   1      42.003  20.942  26.464  1.00  0.00     0.060 A 
ATOM     40  C   UNL A   1      42.178  21.388  27.782  1.00  0.00     0.016 A 
ATOM     41  C   UNL A   1      42.382  21.735  25.382  1.00  0.00     0.016 A 
ATOM     42  C   UNL A   1      42.694  22.657  28.024  1.00  0.00     0.010 A 
ATOM     43  C   UNL A   1      42.885  23.013  25.625  1.00  0.00     0.010 A 
ATOM     44  C   UNL A   1      43.003  23.492  26.944  1.00  0.00    -0.014 A 
BRANCH  44  45
ATOM     45  C   UNL A   1      43.267  24.929  27.173  1.00  0.00     0.031 A 
ATOM     46  C   UNL A   1      44.632  25.464  26.845  1.00  0.00     0.074 A 
ATOM     47  C   UNL A   1      42.319  25.728  27.690  1.00  0.00     0.049 A 
ATOM     48  N   UNL A   1      45.136  26.646  27.074  1.00  0.00    -0.248 NA
ATOM     49  C   UNL A   1      45.560  24.531  26.178  1.00  0.00     0.031 C 
ATOM     50  C   UNL A   1      40.956  25.320  28.022  1.00  0.00     0.029 A 
ATOM     51  N   UNL A   1      42.377  27.047  28.062  1.00  0.00    -0.354 N 
ATOM     52  C   UNL A   1      46.450  26.589  26.624  1.00  0.00     0.074 A 
ATOM     53  C   UNL A   1      46.668  25.255  26.110  1.00  0.00     0.031 C 
ATOM     54  C   UNL A   1      40.317  26.356  28.590  1.00  0.00     0.029 A 
ATOM     55  C   UNL A   1      41.238  27.486  28.692  1.00  0.00     0.049 A 
ATOM     56  H   UNL A   1      43.158  27.622  27.894  1.00  0.00     0.167 HD
ATOM     57  C   UNL A   1      47.387  27.564  26.633  1.00  0.00     0.034 A 
ATOM     58  C   UNL A   1      40.986  28.655  29.314  1.00  0.00     0.034 A 
ATOM     59  C   UNL A   1      47.152  28.892  27.130  1.00  0.00     0.049 A 
ATOM     60  C   UNL A   1      42.055  29.716  29.334  1.00  0.00     0.074 A 
ATOM     61  C   UNL A   1      48.019  29.969  27.149  1.00  0.00     0.029 A 
ATOM     62  N   UNL A   1      45.967  29.319  27.709  1.00  0.00    -0.354 N 
ATOM     63  N   UNL A   1      43.263  29.683  28.824  1.00  0.00    -0.248 NA
ATOM     64  C   UNL A   1      41.718  30.989  29.989  1.00  0.00     0.031 C 
ATOM     65  C   UNL A   1      47.367  31.039  27.769  1.00  0.00     0.029 A 
ATOM     66  C   UNL A   1      46.080  30.641  28.097  1.00  0.00     0.049 A 
ATOM     67  H   UNL A   1      45.163  28.762  27.826  1.00  0.00     0.167 HD
ATOM     68  C   UNL A   1      43.810  30.942  29.051  1.00  0.00     0.074 A 
ATOM     69  C   UNL A   1      42.798  31.716  29.741  1.00  0.00     0.031 C 
ATOM     70  C   UNL A   1      45.039  31.413  28.726  1.00  0.00     0.034 A 
BRANCH  57  71
ATOM     71  C   UNL A   1      48.750  27.233  26.083  1.00  0.00     0.023 A 
ATOM     72  C   UNL A   1      49.708  26.605  26.905  1.00  0.00     0.012 A 
ATOM     73  C   UNL A   1      49.065  27.501  24.736  1.00  0.00     0.148 A 
ATOM     74  C   UNL A   1      50.969  26.282  26.406  1.00  0.00     0.002 A 
ATOM     75  C   UNL A   1      50.306  27.131  24.233  1.00  0.00     0.091 A 
ATOM     76  F   UNL A   1      48.149  28.120  23.977  1.00  0.00    -0.205 F 
ATOM     77  C   UNL A   1      51.263  26.534  25.069  1.00  0.00     0.022 A 
BRANCH  75  78
ATOM     78  S   UNL A   1      50.751  27.340  22.506  1.00  0.00     0.127 S 
ATOM     79  O   UNL A   1      49.660  26.637  21.833  1.00  0.00    -0.237 OA
ATOM     80  O   UNL A   1      50.724  28.795  22.355  1.00  0.00    -0.237 OA
ATOM     81  O   UNL A   1      52.068  26.738  22.353  1.00  0.00    -0.744 OA
ENDBRANCH  75  78
ENDBRANCH  57  71
BRANCH  58  82
ATOM     82  C   UNL A   1      39.659  28.890  29.949  1.00  0.00     0.023 A 
ATOM     83  C   UNL A   1      39.406  28.380  31.238  1.00  0.00     0.012 A 
ATOM     84  C   UNL A   1      38.654  29.627  29.292  1.00  0.00     0.148 A 
ATOM     85  C   UNL A   1      38.165  28.570  31.846  1.00  0.00     0.002 A 
ATOM     86  C   UNL A   1      37.440  29.860  29.928  1.00  0.00     0.091 A 
ATOM     87  F   UNL A   1      38.910  30.093  28.062  1.00  0.00    -0.205 F 
ATOM     88  C   UNL A   1      37.187  29.317  31.197  1.00  0.00     0.022 A 
BRANCH  86  89
ATOM     89  S   UNL A   1      36.167  30.912  29.220  1.00  0.00     0.127 S 
ATOM     90  O   UNL A   1      36.965  31.954  28.577  1.00  0.00    -0.237 OA
ATOM     91  O   UNL A   1      35.495  29.994  28.301  1.00  0.00    -0.237 OA
ATOM     92  O   UNL A   1      35.347  31.348  30.342  1.00  0.00    -0.744 OA
ENDBRANCH  86  89
ENDBRANCH  58  82
BRANCH  70  93
ATOM     93  C   UNL A   1      45.347  32.854  29.040  1.00  0.00     0.023 A 
ATOM     94  C   UNL A   1      45.930  33.202  30.274  1.00  0.00     0.012 A 
ATOM     95  C   UNL A   1      45.146  33.849  28.063  1.00  0.00     0.148 A 
ATOM     96  C   UNL A   1      46.279  34.525  30.541  1.00  0.00     0.002 A 
ATOM     97  C   UNL A   1      45.545  35.155  28.316  1.00  0.00     0.091 A 
ATOM     98  F   UNL A   1      44.575  33.498  26.902  1.00  0.00    -0.205 F 
ATOM     99  C   UNL A   1      46.101  35.498  29.559  1.00  0.00     0.022 A 
BRANCH  97 100
ATOM    100  S   UNL A   1      45.450  36.449  27.074  1.00  0.00     0.127 S 
ATOM    101  O   UNL A   1      44.006  36.580  26.892  1.00  0.00    -0.237 OA
ATOM    102  O   UNL A   1      46.085  37.578  27.755  1.00  0.00    -0.237 OA
ATOM    103  O   UNL A   1      46.181  35.952  25.917  1.00  0.00    -0.744 OA
ENDBRANCH  97 100
ENDBRANCH  70  93
ENDBRANCH  44  45
ENDBRANCH  37  39
ENDBRANCH  36  37
ENDBRANCH  35  36
ENDBRANCH  34  35
ENDBRANCH  33  34
ENDBRANCH  32  33
ENDBRANCH   1  32
TORSDOF 23
ENDMDL
MODEL 3
REMARK VINA RESULT:     -11.3      1.429      7.288
REMARK SMILES CC(C)(C)c1ccc(OCC(=O)NNC(=O)[C@H]2[C@@H](C(=O)OCCOCCOC(=O)c3ccc(-c4c5nc(c(-c6cccc(S(=O)(=O)[O-])c6F)c6ccc([nH]6)c(-c6cccc(S(=O)(=O)[O-])c6F)c6nc(c(-c7cccc(S(=O)(=O)[O-])c7F)c7ccc4[nH]7)C=C6)C=C5)cc3)[C@@H]3C=C[C@H]2C3)cc1
REMARK SMILES IDX 22 1 21 2 19 3 20 4 18 5 17 6 96 7 93 8 95 9 97 10 94 11
REMARK SMILES IDX 15 12 14 13 16 15 13 16 11 17 12 18 10 20 9 21 8 22 5 23
REMARK SMILES IDX 6 24 99 25 7 26 98 27 2 28 1 29 3 30 4 31 23 32 24 33 25 34
REMARK SMILES IDX 26 35 27 36 28 37 29 38 30 39 31 40 92 41 32 42 91 43 33 44
REMARK SMILES IDX 34 45 35 46 85 47 36 48 90 49 84 50 86 51 37 52 89 53 83 54
REMARK SMILES IDX 82 55 38 57 70 58 50 59 69 60 51 61 54 62 68 63 87 64 52 65
REMARK SMILES IDX 53 66 67 68 88 69 55 70 39 71 40 72 48 73 41 74 43 75 49 76
REMARK SMILES IDX 42 77 44 78 45 79 46 80 47 81 71 82 72 83 80 84 73 85 75 86
REMARK SMILES IDX 81 87 74 88 76 89 77 90 78 91 79 92 56 93 57 94 65 95 58 96
REMARK SMILES IDX 60 97 66 98 59 99 61 100 62 101 63 102 64 103
REMARK H PARENT 14 14 13 19 86 56 54 67
REMARK Flexibility Score: inf
ROOT
ATOM      1  C   UNL A   1      33.338  26.406  26.346  1.00  0.00     0.261 C 
ENDROOT
BRANCH   1   2
ATOM      2  O   UNL A   1      32.739  25.284  25.694  1.00  0.00    -0.463 OA
BRANCH   2   3
ATOM      3  C   UNL A   1      33.375  24.098  25.894  1.00  0.00     0.310 C 
ATOM      4  O   UNL A   1      33.001  23.220  26.659  1.00  0.00    -0.252 OA
BRANCH   3   5
ATOM      5  C   UNL A   1      34.625  24.030  25.030  1.00  0.00     0.119 C 
ATOM      6  C   UNL A   1      34.638  23.016  23.821  1.00  0.00     0.102 C 
ATOM      7  C   UNL A   1      35.767  22.030  24.244  1.00  0.00     0.025 C 
ATOM      8  C   UNL A   1      35.797  23.531  25.904  1.00  0.00     0.027 C 
ATOM      9  C   UNL A   1      37.073  22.788  24.134  1.00  0.00    -0.027 C 
ATOM     10  C   UNL A   1      35.652  22.012  25.769  1.00  0.00     0.017 C 
ATOM     11  C   UNL A   1      37.080  23.702  25.118  1.00  0.00    -0.027 C 
BRANCH   6  12
ATOM     12  C   UNL A   1      33.340  22.308  23.457  1.00  0.00     0.242 C 
ATOM     13  N   UNL A   1      32.763  22.541  22.234  1.00  0.00    -0.267 N 
ATOM     14  H   UNL A   1      31.944  22.036  22.031  1.00  0.00     0.191 HD
ATOM     15  O   UNL A   1      32.728  21.578  24.232  1.00  0.00    -0.273 OA
BRANCH  13  16
ATOM     16  N   UNL A   1      33.211  23.417  21.252  1.00  0.00    -0.265 N 
ATOM     17  C   UNL A   1      32.673  24.673  21.071  1.00  0.00     0.276 C 
ATOM     18  O   UNL A   1      33.058  25.377  20.134  1.00  0.00    -0.269 OA
ATOM     19  H   UNL A   1      33.942  23.128  20.661  1.00  0.00     0.191 HD
BRANCH  17  20
ATOM     20  C   UNL A   1      31.637  25.192  22.085  1.00  0.00     0.331 C 
BRANCH  20  21
ATOM     21  O   UNL A   1      32.001  26.314  22.875  1.00  0.00    -0.484 OA
BRANCH  21  22
ATOM     22  C   UNL A   1      31.230  27.439  22.779  1.00  0.00     0.120 A 
ATOM     23  C   UNL A   1      29.391  29.600  22.633  1.00  0.00    -0.042 A 
ATOM     24  C   UNL A   1      29.052  28.391  23.266  1.00  0.00     0.008 A 
ATOM     25  C   UNL A   1      30.681  29.695  22.090  1.00  0.00     0.008 A 
ATOM     26  C   UNL A   1      29.959  27.329  23.341  1.00  0.00     0.047 A 
ATOM     27  C   UNL A   1      31.593  28.633  22.167  1.00  0.00     0.047 A 
BRANCH  23  28
ATOM     28  C   UNL A   1      28.367  30.745  22.541  1.00  0.00    -0.013 C 
ATOM     29  C   UNL A   1      27.953  30.948  21.068  1.00  0.00     0.016 C 
ATOM     30  C   UNL A   1      28.904  32.098  23.060  1.00  0.00     0.016 C 
ATOM     31  C   UNL A   1      27.116  30.402  23.378  1.00  0.00     0.016 C 
ENDBRANCH  23  28
ENDBRANCH  21  22
ENDBRANCH  20  21
ENDBRANCH  17  20
ENDBRANCH  13  16
ENDBRANCH   6  12
ENDBRANCH   3   5
ENDBRANCH   2   3
ENDBRANCH   1   2
BRANCH   1  32
ATOM     32  C   UNL A   1      32.935  27.719  25.664  1.00  0.00     0.202 C 
BRANCH  32  33
ATOM     33  O   UNL A   1      31.882  28.488  26.241  1.00  0.00    -0.374 OA
BRANCH  33  34
ATOM     34  C   UNL A   1      31.560  29.752  25.661  1.00  0.00     0.202 C 
BRANCH  34  35
ATOM     35  C   UNL A   1      31.901  31.026  26.444  1.00  0.00     0.261 C 
BRANCH  35  36
ATOM     36  O   UNL A   1      32.909  30.830  27.446  1.00  0.00    -0.460 OA
BRANCH  36  37
ATOM     37  C   UNL A   1      33.710  31.899  27.660  1.00  0.00     0.338 C 
ATOM     38  O   UNL A   1      33.373  33.076  27.732  1.00  0.00    -0.246 OA
BRANCH  37  39
ATOM     39  C   UNL A   1      35.069  31.447  27.984  1.00  0.00     0.060 A 
ATOM     40  C   UNL A   1      35.253  30.105  28.347  1.00  0.00     0.016 A 
ATOM     41  C   UNL A   1      36.127  32.354  28.029  1.00  0.00     0.016 A 
ATOM     42  C   UNL A   1      36.493  29.672  28.805  1.00  0.00     0.010 A 
ATOM     43  C   UNL A   1      37.366  31.922  28.503  1.00  0.00     0.010 A 
ATOM     44  C   UNL A   1      37.540  30.592  28.931  1.00  0.00    -0.014 A 
BRANCH  44  45
ATOM     45  C   UNL A   1      38.759  30.226  29.683  1.00  0.00     0.031 A 
ATOM     46  C   UNL A   1      39.682  29.199  29.089  1.00  0.00     0.074 A 
ATOM     47  C   UNL A   1      39.018  30.774  30.882  1.00  0.00     0.049 A 
ATOM     48  N   UNL A   1      40.734  28.629  29.612  1.00  0.00    -0.248 NA
ATOM     49  C   UNL A   1      39.366  28.746  27.722  1.00  0.00     0.031 C 
ATOM     50  C   UNL A   1      38.204  31.794  31.539  1.00  0.00     0.029 A 
ATOM     51  N   UNL A   1      40.026  30.516  31.776  1.00  0.00    -0.354 N 
ATOM     52  C   UNL A   1      41.179  27.718  28.661  1.00  0.00     0.074 A 
ATOM     53  C   UNL A   1      40.283  27.809  27.530  1.00  0.00     0.031 C 
ATOM     54  C   UNL A   1      38.720  32.046  32.754  1.00  0.00     0.029 A 
ATOM     55  C   UNL A   1      39.876  31.179  32.970  1.00  0.00     0.049 A 
ATOM     56  H   UNL A   1      40.780  29.914  31.582  1.00  0.00     0.167 HD
ATOM     57  C   UNL A   1      42.244  26.887  28.724  1.00  0.00     0.034 A 
ATOM     58  C   UNL A   1      40.574  31.067  34.118  1.00  0.00     0.034 A 
ATOM     59  C   UNL A   1      43.138  26.820  29.848  1.00  0.00     0.049 A 
ATOM     60  C   UNL A   1      41.740  30.114  34.173  1.00  0.00     0.074 A 
ATOM     61  C   UNL A   1      44.272  26.043  30.000  1.00  0.00     0.029 A 
ATOM     62  N   UNL A   1      42.990  27.549  31.018  1.00  0.00    -0.354 N 
ATOM     63  N   UNL A   1      42.208  29.324  33.236  1.00  0.00    -0.248 NA
ATOM     64  C   UNL A   1      42.495  30.058  35.434  1.00  0.00     0.031 C 
ATOM     65  C   UNL A   1      44.792  26.279  31.276  1.00  0.00     0.029 A 
ATOM     66  C   UNL A   1      44.007  27.235  31.902  1.00  0.00     0.049 A 
ATOM     67  H   UNL A   1      42.268  28.195  31.193  1.00  0.00     0.167 HD
ATOM     68  C   UNL A   1      43.337  28.718  33.775  1.00  0.00     0.074 A 
ATOM     69  C   UNL A   1      43.486  29.235  35.120  1.00  0.00     0.031 C 
ATOM     70  C   UNL A   1      44.172  27.809  33.212  1.00  0.00     0.034 A 
BRANCH  57  71
ATOM     71  C   UNL A   1      42.504  25.988  27.544  1.00  0.00     0.023 A 
ATOM     72  C   UNL A   1      43.275  26.454  26.460  1.00  0.00     0.012 A 
ATOM     73  C   UNL A   1      42.024  24.663  27.531  1.00  0.00     0.148 A 
ATOM     74  C   UNL A   1      43.534  25.629  25.366  1.00  0.00     0.002 A 
ATOM     75  C   UNL A   1      42.327  23.832  26.461  1.00  0.00     0.091 A 
ATOM     76  F   UNL A   1      41.273  24.246  28.561  1.00  0.00    -0.205 F 
ATOM     77  C   UNL A   1      43.070  24.316  25.372  1.00  0.00     0.022 A 
BRANCH  75  78
ATOM     78  S   UNL A   1      41.845  22.102  26.411  1.00  0.00     0.127 S 
ATOM     79  O   UNL A   1      42.677  21.595  25.321  1.00  0.00    -0.237 OA
ATOM     80  O   UNL A   1      42.235  21.636  27.743  1.00  0.00    -0.237 OA
ATOM     81  O   UNL A   1      40.412  22.090  26.158  1.00  0.00    -0.744 OA
ENDBRANCH  75  78
ENDBRANCH  57  71
BRANCH  58  82
ATOM     82  C   UNL A   1      40.202  31.893  35.300  1.00  0.00     0.023 A 
ATOM     83  C   UNL A   1      40.807  33.152  35.486  1.00  0.00     0.012 A 
ATOM     84  C   UNL A   1      39.245  31.447  36.232  1.00  0.00     0.148 A 
ATOM     85  C   UNL A   1      40.490  33.936  36.595  1.00  0.00     0.002 A 
ATOM     86  C   UNL A   1      38.894  32.258  37.305  1.00  0.00     0.091 A 
ATOM     87  F   UNL A   1      38.691  30.241  36.045  1.00  0.00    -0.205 F 
ATOM     88  C   UNL A   1      39.528  33.494  37.498  1.00  0.00     0.022 A 
BRANCH  86  89
ATOM     89  S   UNL A   1      37.578  31.826  38.451  1.00  0.00     0.127 S 
ATOM     90  O   UNL A   1      36.628  32.917  38.239  1.00  0.00    -0.237 OA
ATOM     91  O   UNL A   1      37.148  30.526  37.937  1.00  0.00    -0.237 OA
ATOM     92  O   UNL A   1      38.200  31.778  39.767  1.00  0.00    -0.744 OA
ENDBRANCH  86  89
ENDBRANCH  58  82
BRANCH  70  93
ATOM     93  C   UNL A   1      45.368  27.361  34.011  1.00  0.00     0.023 A 
ATOM     94  C   UNL A   1      45.279  26.233  34.850  1.00  0.00     0.012 A 
ATOM     95  C   UNL A   1      46.609  28.009  33.850  1.00  0.00     0.148 A 
ATOM     96  C   UNL A   1      46.403  25.775  35.538  1.00  0.00     0.002 A 
ATOM     97  C   UNL A   1      47.734  27.516  34.496  1.00  0.00     0.091 A 
ATOM     98  F   UNL A   1      46.666  29.091  33.059  1.00  0.00    -0.205 F 
ATOM     99  C   UNL A   1      47.632  26.406  35.351  1.00  0.00     0.022 A 
BRANCH  97 100
ATOM    100  S   UNL A   1      49.374  28.199  34.233  1.00  0.00     0.127 S 
ATOM    101  O   UNL A   1      50.212  27.005  34.320  1.00  0.00    -0.237 OA
ATOM    102  O   UNL A   1      49.260  28.767  32.889  1.00  0.00    -0.237 OA
ATOM    103  O   UNL A   1      49.577  29.181  35.288  1.00  0.00    -0.744 OA
ENDBRANCH  97 100
ENDBRANCH  70  93
ENDBRANCH  44  45
ENDBRANCH  37  39
ENDBRANCH  36  37
ENDBRANCH  35  36
ENDBRANCH  34  35
ENDBRANCH  33  34
ENDBRANCH  32  33
ENDBRANCH   1  32
TORSDOF 23
ENDMDL
