MODEL 1
REMARK VINA RESULT:     -10.8      0.000      0.000
REMARK SMILES O=C(CCCNS(=O)(=O)c1ccc2c3c(cccc13)C(=O)N2)OCCOCCOC(=O)c1ccc(-c2c3nc(c(-c4cccc(S(=O)(=O)[O-])c4F)c4ccc([nH]4)c(-c4cccc(S(=O)(=O)[O-])c4F)c4nc(c(-c5cccc(S(=O)(=O)[O-])c5F)c5ccc2[nH]5)C=C4)C=C3)cc1
REMARK SMILES IDX 25 1 24 2 23 3 2 4 1 5 3 6 4 7 5 8 6 9 7 11 8 12 9 13 10 14
REMARK SMILES IDX 11 15 19 16 12 17 14 18 18 19 13 20 15 21 17 22 22 23 16 24
REMARK SMILES IDX 20 25 21 27 26 28 27 29 28 30 29 31 30 32 31 33 32 34 33 35
REMARK SMILES IDX 94 36 34 37 93 38 35 39 36 40 37 41 87 42 38 43 92 44 86 45
REMARK SMILES IDX 88 46 39 47 91 48 85 49 84 50 40 52 72 53 52 54 71 55 53 56
REMARK SMILES IDX 56 57 70 58 89 59 54 60 55 61 69 63 90 64 57 65 41 66 42 67
REMARK SMILES IDX 50 68 43 69 45 70 51 71 44 72 46 73 47 74 48 75 49 76 73 77
REMARK SMILES IDX 74 78 82 79 75 80 77 81 83 82 76 83 78 84 79 85 80 86 81 87
REMARK SMILES IDX 58 88 59 89 67 90 60 91 62 92 68 93 61 94 63 95 64 96 65 97
REMARK SMILES IDX 66 98
REMARK H PARENT 6 10 22 26 88 51 56 62
REMARK Flexibility Score: inf
ROOT
ATOM      1  C   UNL A   1      31.943  29.919  26.850  1.00  0.00     0.202 C 
ENDROOT
BRANCH   1   2
ATOM      2  C   UNL A   1      31.801  28.568  27.517  1.00  0.00     0.261 C 
BRANCH   2   3
ATOM      3  O   UNL A   1      32.182  27.485  26.666  1.00  0.00    -0.463 OA
BRANCH   3   4
ATOM      4  C   UNL A   1      31.320  26.551  26.220  1.00  0.00     0.305 C 
ATOM      5  O   UNL A   1      31.181  25.507  26.861  1.00  0.00    -0.252 OA
BRANCH   4   6
ATOM      6  C   UNL A   1      30.577  26.733  24.912  1.00  0.00     0.124 C 
BRANCH   6   7
ATOM      7  C   UNL A   1      31.126  27.736  23.900  1.00  0.00     0.028 C 
BRANCH   7   8
ATOM      8  C   UNL A   1      30.856  27.504  22.409  1.00  0.00     0.099 C 
BRANCH   8   9
ATOM      9  N   UNL A   1      31.397  26.228  21.937  1.00  0.00    -0.211 NA
ATOM     10  H   UNL A   1      30.977  26.060  21.023  1.00  0.00     0.141 HD
BRANCH   9  11
ATOM     11  S   UNL A   1      33.052  25.972  21.748  1.00  0.00     0.241 S 
ATOM     12  O   UNL A   1      33.230  25.138  20.579  1.00  0.00    -0.207 OA
ATOM     13  O   UNL A   1      33.670  27.272  21.837  1.00  0.00    -0.207 OA
BRANCH  11  14
ATOM     14  C   UNL A   1      33.509  25.054  23.194  1.00  0.00     0.090 A 
ATOM     15  C   UNL A   1      34.232  25.769  24.187  1.00  0.00     0.024 A 
ATOM     16  C   UNL A   1      33.137  23.684  23.376  1.00  0.00     0.005 A 
ATOM     17  C   UNL A   1      34.569  25.180  25.415  1.00  0.00     0.028 A 
ATOM     18  C   UNL A   1      33.479  23.184  24.599  1.00  0.00     0.019 A 
ATOM     19  C   UNL A   1      32.475  22.735  22.542  1.00  0.00     0.010 A 
ATOM     20  C   UNL A   1      34.149  23.877  25.584  1.00  0.00     0.050 A 
ATOM     21  C   UNL A   1      33.212  21.908  25.075  1.00  0.00     0.050 A 
ATOM     22  C   UNL A   1      32.199  21.424  22.982  1.00  0.00     0.002 A 
ATOM     23  N   UNL A   1      34.283  23.029  26.666  1.00  0.00    -0.321 N 
ATOM     24  C   UNL A   1      32.554  20.988  24.265  1.00  0.00     0.014 A 
ATOM     25  C   UNL A   1      33.711  21.773  26.428  1.00  0.00     0.256 C 
ATOM     26  H   UNL A   1      34.728  23.279  27.509  1.00  0.00     0.170 HD
ATOM     27  O   UNL A   1      33.685  20.860  27.241  1.00  0.00    -0.269 OA
ENDBRANCH  11  14
ENDBRANCH   9  11
ENDBRANCH   8   9
ENDBRANCH   7   8
ENDBRANCH   6   7
ENDBRANCH   4   6
ENDBRANCH   3   4
ENDBRANCH   2   3
ENDBRANCH   1   2
BRANCH   1  28
ATOM     28  O   UNL A   1      33.279  30.387  26.691  1.00  0.00    -0.374 OA
BRANCH  28  29
ATOM     29  C   UNL A   1      33.615  31.434  27.601  1.00  0.00     0.202 C 
BRANCH  29  30
ATOM     30  C   UNL A   1      32.619  32.607  27.604  1.00  0.00     0.261 C 
BRANCH  30  31
ATOM     31  O   UNL A   1      33.276  33.889  27.539  1.00  0.00    -0.460 OA
BRANCH  31  32
ATOM     32  C   UNL A   1      33.352  34.569  28.717  1.00  0.00     0.338 C 
ATOM     33  O   UNL A   1      32.529  35.358  29.151  1.00  0.00    -0.246 OA
BRANCH  32  34
ATOM     34  C   UNL A   1      34.478  34.030  29.527  1.00  0.00     0.060 A 
ATOM     35  C   UNL A   1      35.784  34.241  29.055  1.00  0.00     0.016 A 
ATOM     36  C   UNL A   1      34.283  33.388  30.753  1.00  0.00     0.016 A 
ATOM     37  C   UNL A   1      36.888  33.820  29.797  1.00  0.00     0.010 A 
ATOM     38  C   UNL A   1      35.389  32.917  31.474  1.00  0.00     0.010 A 
ATOM     39  C   UNL A   1      36.695  33.107  30.985  1.00  0.00    -0.014 A 
BRANCH  39  40
ATOM     40  C   UNL A   1      37.826  32.324  31.541  1.00  0.00     0.031 A 
ATOM     41  C   UNL A   1      38.364  32.754  32.881  1.00  0.00     0.074 A 
ATOM     42  C   UNL A   1      38.360  31.261  30.912  1.00  0.00     0.049 A 
ATOM     43  N   UNL A   1      39.347  32.250  33.577  1.00  0.00    -0.248 NA
ATOM     44  C   UNL A   1      37.700  33.903  33.524  1.00  0.00     0.031 C 
ATOM     45  C   UNL A   1      37.926  30.726  29.623  1.00  0.00     0.029 A 
ATOM     46  N   UNL A   1      39.412  30.451  31.274  1.00  0.00    -0.354 N 
ATOM     47  C   UNL A   1      39.430  33.029  34.724  1.00  0.00     0.074 A 
ATOM     48  C   UNL A   1      38.401  34.038  34.640  1.00  0.00     0.031 C 
ATOM     49  C   UNL A   1      38.729  29.698  29.287  1.00  0.00     0.029 A 
ATOM     50  C   UNL A   1      39.743  29.512  30.326  1.00  0.00     0.049 A 
ATOM     51  H   UNL A   1      39.884  30.538  32.134  1.00  0.00     0.167 HD
ATOM     52  C   UNL A   1      40.281  32.908  35.765  1.00  0.00     0.034 A 
ATOM     53  C   UNL A   1      40.758  28.623  30.291  1.00  0.00     0.034 A 
ATOM     54  C   UNL A   1      41.294  31.902  35.872  1.00  0.00     0.049 A 
ATOM     55  C   UNL A   1      41.722  28.536  31.450  1.00  0.00     0.074 A 
ATOM     56  C   UNL A   1      42.168  31.683  36.921  1.00  0.00     0.029 A 
ATOM     57  N   UNL A   1      41.581  30.963  34.899  1.00  0.00    -0.354 N 
ATOM     58  N   UNL A   1      41.715  29.206  32.576  1.00  0.00    -0.248 NA
ATOM     59  C   UNL A   1      42.822  27.561  31.344  1.00  0.00     0.031 C 
ATOM     60  C   UNL A   1      43.005  30.624  36.570  1.00  0.00     0.029 A 
ATOM     61  C   UNL A   1      42.634  30.172  35.315  1.00  0.00     0.049 A 
ATOM     62  H   UNL A   1      41.106  30.871  34.042  1.00  0.00     0.167 HD
ATOM     63  C   UNL A   1      42.790  28.723  33.317  1.00  0.00     0.074 A 
ATOM     64  C   UNL A   1      43.420  27.692  32.522  1.00  0.00     0.031 C 
ATOM     65  C   UNL A   1      43.221  29.111  34.541  1.00  0.00     0.034 A 
BRANCH  52  66
ATOM     66  C   UNL A   1      40.147  33.870  36.908  1.00  0.00     0.023 A 
ATOM     67  C   UNL A   1      40.581  35.198  36.743  1.00  0.00     0.012 A 
ATOM     68  C   UNL A   1      39.465  33.494  38.079  1.00  0.00     0.148 A 
ATOM     69  C   UNL A   1      40.326  36.148  37.728  1.00  0.00     0.002 A 
ATOM     70  C   UNL A   1      39.188  34.452  39.044  1.00  0.00     0.091 A 
ATOM     71  F   UNL A   1      39.078  32.216  38.209  1.00  0.00    -0.205 F 
ATOM     72  C   UNL A   1      39.617  35.778  38.870  1.00  0.00     0.022 A 
BRANCH  70  73
ATOM     73  S   UNL A   1      38.239  34.094  40.524  1.00  0.00     0.127 S 
ATOM     74  O   UNL A   1      37.041  33.471  39.962  1.00  0.00    -0.237 OA
ATOM     75  O   UNL A   1      39.126  33.179  41.240  1.00  0.00    -0.237 OA
ATOM     76  O   UNL A   1      38.011  35.374  41.181  1.00  0.00    -0.744 OA
ENDBRANCH  70  73
ENDBRANCH  52  66
BRANCH  53  77
ATOM     77  C   UNL A   1      40.921  27.725  29.112  1.00  0.00     0.023 A 
ATOM     78  C   UNL A   1      40.241  26.493  29.071  1.00  0.00     0.012 A 
ATOM     79  C   UNL A   1      41.741  28.096  28.029  1.00  0.00     0.148 A 
ATOM     80  C   UNL A   1      40.387  25.638  27.977  1.00  0.00     0.002 A 
ATOM     81  C   UNL A   1      41.853  27.257  26.926  1.00  0.00     0.091 A 
ATOM     82  F   UNL A   1      42.389  29.267  28.098  1.00  0.00    -0.205 F 
ATOM     83  C   UNL A   1      41.185  26.023  26.903  1.00  0.00     0.022 A 
BRANCH  81  84
ATOM     84  S   UNL A   1      42.794  27.700  25.461  1.00  0.00     0.127 S 
ATOM     85  O   UNL A   1      42.623  26.513  24.625  1.00  0.00    -0.237 OA
ATOM     86  O   UNL A   1      42.079  28.889  24.998  1.00  0.00    -0.237 OA
ATOM     87  O   UNL A   1      44.153  27.950  25.923  1.00  0.00    -0.744 OA
ENDBRANCH  81  84
ENDBRANCH  53  77
BRANCH  65  88
ATOM     88  C   UNL A   1      44.424  28.438  35.142  1.00  0.00     0.023 A 
ATOM     89  C   UNL A   1      45.708  28.929  34.840  1.00  0.00     0.012 A 
ATOM     90  C   UNL A   1      44.269  27.462  36.146  1.00  0.00     0.148 A 
ATOM     91  C   UNL A   1      46.823  28.463  35.535  1.00  0.00     0.002 A 
ATOM     92  C   UNL A   1      45.381  27.025  36.857  1.00  0.00     0.091 A 
ATOM     93  F   UNL A   1      43.033  27.019  36.419  1.00  0.00    -0.205 F 
ATOM     94  C   UNL A   1      46.658  27.524  36.552  1.00  0.00     0.022 A 
BRANCH  92  95
ATOM     95  S   UNL A   1      45.265  25.877  38.234  1.00  0.00     0.127 S 
ATOM     96  O   UNL A   1      44.844  24.649  37.562  1.00  0.00    -0.237 OA
ATOM     97  O   UNL A   1      46.638  25.858  38.738  1.00  0.00    -0.237 OA
ATOM     98  O   UNL A   1      44.284  26.441  39.152  1.00  0.00    -0.744 OA
ENDBRANCH  92  95
ENDBRANCH  65  88
ENDBRANCH  39  40
ENDBRANCH  32  34
ENDBRANCH  31  32
ENDBRANCH  30  31
ENDBRANCH  29  30
ENDBRANCH  28  29
ENDBRANCH   1  28
TORSDOF 22
ENDMDL
MODEL 2
REMARK VINA RESULT:     -10.4      2.117      7.805
REMARK SMILES O=C(CCCNS(=O)(=O)c1ccc2c3c(cccc13)C(=O)N2)OCCOCCOC(=O)c1ccc(-c2c3nc(c(-c4cccc(S(=O)(=O)[O-])c4F)c4ccc([nH]4)c(-c4cccc(S(=O)(=O)[O-])c4F)c4nc(c(-c5cccc(S(=O)(=O)[O-])c5F)c5ccc2[nH]5)C=C4)C=C3)cc1
REMARK SMILES IDX 25 1 24 2 23 3 2 4 1 5 3 6 4 7 5 8 6 9 7 11 8 12 9 13 10 14
REMARK SMILES IDX 11 15 19 16 12 17 14 18 18 19 13 20 15 21 17 22 22 23 16 24
REMARK SMILES IDX 20 25 21 27 26 28 27 29 28 30 29 31 30 32 31 33 32 34 33 35
REMARK SMILES IDX 94 36 34 37 93 38 35 39 36 40 37 41 87 42 38 43 92 44 86 45
REMARK SMILES IDX 88 46 39 47 91 48 85 49 84 50 40 52 72 53 52 54 71 55 53 56
REMARK SMILES IDX 56 57 70 58 89 59 54 60 55 61 69 63 90 64 57 65 41 66 42 67
REMARK SMILES IDX 50 68 43 69 45 70 51 71 44 72 46 73 47 74 48 75 49 76 73 77
REMARK SMILES IDX 74 78 82 79 75 80 77 81 83 82 76 83 78 84 79 85 80 86 81 87
REMARK SMILES IDX 58 88 59 89 67 90 60 91 62 92 68 93 61 94 63 95 64 96 65 97
REMARK SMILES IDX 66 98
REMARK H PARENT 6 10 22 26 88 51 56 62
REMARK Flexibility Score: inf
ROOT
ATOM      1  C   UNL A   1      32.347  29.590  25.262  1.00  0.00     0.202 C 
ENDROOT
BRANCH   1   2
ATOM      2  C   UNL A   1      31.026  29.451  24.537  1.00  0.00     0.261 C 
BRANCH   2   3
ATOM      3  O   UNL A   1      30.834  28.150  23.978  1.00  0.00    -0.463 OA
BRANCH   3   4
ATOM      4  C   UNL A   1      30.698  27.921  22.657  1.00  0.00     0.305 C 
ATOM      5  O   UNL A   1      29.973  28.662  21.991  1.00  0.00    -0.252 OA
BRANCH   4   6
ATOM      6  C   UNL A   1      31.363  26.730  21.998  1.00  0.00     0.124 C 
BRANCH   6   7
ATOM      7  C   UNL A   1      32.125  25.744  22.882  1.00  0.00     0.028 C 
BRANCH   7   8
ATOM      8  C   UNL A   1      33.654  25.844  22.950  1.00  0.00     0.099 C 
BRANCH   8   9
ATOM      9  N   UNL A   1      34.268  24.623  23.474  1.00  0.00    -0.211 NA
ATOM     10  H   UNL A   1      35.265  24.696  23.273  1.00  0.00     0.141 HD
BRANCH   9  11
ATOM     11  S   UNL A   1      34.147  24.184  25.097  1.00  0.00     0.241 S 
ATOM     12  O   UNL A   1      35.434  24.434  25.710  1.00  0.00    -0.207 OA
ATOM     13  O   UNL A   1      32.949  24.815  25.592  1.00  0.00    -0.207 OA
BRANCH  11  14
ATOM     14  C   UNL A   1      33.856  22.436  25.044  1.00  0.00     0.090 A 
ATOM     15  C   UNL A   1      32.494  22.028  25.018  1.00  0.00     0.024 A 
ATOM     16  C   UNL A   1      34.925  21.486  24.988  1.00  0.00     0.005 A 
ATOM     17  C   UNL A   1      32.135  20.679  24.881  1.00  0.00     0.028 A 
ATOM     18  C   UNL A   1      34.503  20.198  24.836  1.00  0.00     0.019 A 
ATOM     19  C   UNL A   1      36.344  21.613  25.051  1.00  0.00     0.010 A 
ATOM     20  C   UNL A   1      33.186  19.792  24.774  1.00  0.00     0.050 A 
ATOM     21  C   UNL A   1      35.306  19.073  24.708  1.00  0.00     0.050 A 
ATOM     22  C   UNL A   1      37.196  20.493  24.941  1.00  0.00     0.002 A 
ATOM     23  N   UNL A   1      33.184  18.423  24.598  1.00  0.00    -0.321 N 
ATOM     24  C   UNL A   1      36.690  19.200  24.757  1.00  0.00     0.014 A 
ATOM     25  C   UNL A   1      34.481  17.895  24.539  1.00  0.00     0.256 C 
ATOM     26  H   UNL A   1      32.366  17.879  24.523  1.00  0.00     0.170 HD
ATOM     27  O   UNL A   1      34.738  16.712  24.368  1.00  0.00    -0.269 OA
ENDBRANCH  11  14
ENDBRANCH   9  11
ENDBRANCH   8   9
ENDBRANCH   7   8
ENDBRANCH   6   7
ENDBRANCH   4   6
ENDBRANCH   3   4
ENDBRANCH   2   3
ENDBRANCH   1   2
BRANCH   1  28
ATOM     28  O   UNL A   1      32.267  30.101  26.590  1.00  0.00    -0.374 OA
BRANCH  28  29
ATOM     29  C   UNL A   1      31.815  31.453  26.641  1.00  0.00     0.202 C 
BRANCH  29  30
ATOM     30  C   UNL A   1      32.838  32.435  27.241  1.00  0.00     0.261 C 
BRANCH  30  31
ATOM     31  O   UNL A   1      32.237  33.682  27.643  1.00  0.00    -0.460 OA
BRANCH  31  32
ATOM     32  C   UNL A   1      33.041  34.518  28.355  1.00  0.00     0.338 C 
ATOM     33  O   UNL A   1      32.755  35.638  28.746  1.00  0.00    -0.246 OA
BRANCH  32  34
ATOM     34  C   UNL A   1      34.252  33.777  28.805  1.00  0.00     0.060 A 
ATOM     35  C   UNL A   1      34.068  32.695  29.680  1.00  0.00     0.016 A 
ATOM     36  C   UNL A   1      35.534  34.080  28.340  1.00  0.00     0.016 A 
ATOM     37  C   UNL A   1      35.152  31.917  30.090  1.00  0.00     0.010 A 
ATOM     38  C   UNL A   1      36.630  33.333  28.793  1.00  0.00     0.010 A 
ATOM     39  C   UNL A   1      36.447  32.265  29.691  1.00  0.00    -0.014 A 
BRANCH  39  40
ATOM     40  C   UNL A   1      37.600  31.706  30.438  1.00  0.00     0.031 A 
ATOM     41  C   UNL A   1      38.399  30.625  29.757  1.00  0.00     0.074 A 
ATOM     42  C   UNL A   1      37.955  32.133  31.664  1.00  0.00     0.049 A 
ATOM     43  N   UNL A   1      39.439  29.967  30.192  1.00  0.00    -0.248 NA
ATOM     44  C   UNL A   1      37.969  30.240  28.399  1.00  0.00     0.031 C 
ATOM     45  C   UNL A   1      37.285  33.181  32.429  1.00  0.00     0.029 A 
ATOM     46  N   UNL A   1      38.970  31.709  32.492  1.00  0.00    -0.354 N 
ATOM     47  C   UNL A   1      39.774  29.082  29.175  1.00  0.00     0.074 A 
ATOM     48  C   UNL A   1      38.834  29.283  28.098  1.00  0.00     0.031 C 
ATOM     49  C   UNL A   1      37.885  33.294  33.630  1.00  0.00     0.029 A 
ATOM     50  C   UNL A   1      38.971  32.317  33.725  1.00  0.00     0.049 A 
ATOM     51  H   UNL A   1      39.634  31.033  32.224  1.00  0.00     0.167 HD
ATOM     52  C   UNL A   1      40.784  28.188  29.135  1.00  0.00     0.034 A 
ATOM     53  C   UNL A   1      39.743  32.095  34.810  1.00  0.00     0.034 A 
ATOM     54  C   UNL A   1      41.735  27.991  30.187  1.00  0.00     0.049 A 
ATOM     55  C   UNL A   1      40.839  31.058  34.753  1.00  0.00     0.074 A 
ATOM     56  C   UNL A   1      42.819  27.134  30.203  1.00  0.00     0.029 A 
ATOM     57  N   UNL A   1      41.708  28.639  31.408  1.00  0.00    -0.354 N 
ATOM     58  N   UNL A   1      41.211  30.310  33.744  1.00  0.00    -0.248 NA
ATOM     59  C   UNL A   1      41.633  30.845  35.976  1.00  0.00     0.031 C 
ATOM     60  C   UNL A   1      43.438  27.244  31.449  1.00  0.00     0.029 A 
ATOM     61  C   UNL A   1      42.749  28.186  32.195  1.00  0.00     0.049 A 
ATOM     62  H   UNL A   1      41.049  29.319  31.674  1.00  0.00     0.167 HD
ATOM     63  C   UNL A   1      42.290  29.558  34.200  1.00  0.00     0.074 A 
ATOM     64  C   UNL A   1      42.524  29.947  35.574  1.00  0.00     0.031 C 
ATOM     65  C   UNL A   1      43.010  28.619  33.542  1.00  0.00     0.034 A 
BRANCH  52  66
ATOM     66  C   UNL A   1      40.950  27.359  27.896  1.00  0.00     0.023 A 
ATOM     67  C   UNL A   1      41.584  27.922  26.773  1.00  0.00     0.012 A 
ATOM     68  C   UNL A   1      40.610  25.994  27.901  1.00  0.00     0.148 A 
ATOM     69  C   UNL A   1      41.891  27.130  25.670  1.00  0.00     0.002 A 
ATOM     70  C   UNL A   1      40.945  25.204  26.810  1.00  0.00     0.091 A 
ATOM     71  F   UNL A   1      39.994  25.495  28.982  1.00  0.00    -0.205 F 
ATOM     72  C   UNL A   1      41.586  25.770  25.695  1.00  0.00     0.022 A 
BRANCH  70  73
ATOM     73  S   UNL A   1      40.644  23.436  26.763  1.00  0.00     0.127 S 
ATOM     74  O   UNL A   1      39.220  23.388  26.432  1.00  0.00    -0.237 OA
ATOM     75  O   UNL A   1      41.537  23.004  25.688  1.00  0.00    -0.237 OA
ATOM     76  O   UNL A   1      40.982  22.931  28.087  1.00  0.00    -0.744 OA
ENDBRANCH  70  73
ENDBRANCH  52  66
BRANCH  53  77
ATOM     77  C   UNL A   1      39.514  32.876  36.059  1.00  0.00     0.023 A 
ATOM     78  C   UNL A   1      40.146  34.122  36.230  1.00  0.00     0.012 A 
ATOM     79  C   UNL A   1      38.664  32.389  37.071  1.00  0.00     0.148 A 
ATOM     80  C   UNL A   1      39.947  34.865  37.396  1.00  0.00     0.002 A 
ATOM     81  C   UNL A   1      38.441  33.150  38.213  1.00  0.00     0.091 A 
ATOM     82  F   UNL A   1      38.086  31.193  36.892  1.00  0.00    -0.205 F 
ATOM     83  C   UNL A   1      39.090  34.383  38.382  1.00  0.00     0.022 A 
BRANCH  81  84
ATOM     84  S   UNL A   1      37.295  32.651  39.504  1.00  0.00     0.127 S 
ATOM     85  O   UNL A   1      37.859  31.370  39.926  1.00  0.00    -0.237 OA
ATOM     86  O   UNL A   1      37.447  33.739  40.471  1.00  0.00    -0.237 OA
ATOM     87  O   UNL A   1      35.987  32.581  38.868  1.00  0.00    -0.744 OA
ENDBRANCH  81  84
ENDBRANCH  53  77
BRANCH  65  88
ATOM     88  C   UNL A   1      44.139  27.926  34.255  1.00  0.00     0.023 A 
ATOM     89  C   UNL A   1      45.406  28.537  34.289  1.00  0.00     0.012 A 
ATOM     90  C   UNL A   1      43.890  26.788  35.048  1.00  0.00     0.148 A 
ATOM     91  C   UNL A   1      46.412  28.027  35.108  1.00  0.00     0.002 A 
ATOM     92  C   UNL A   1      44.888  26.304  35.886  1.00  0.00     0.091 A 
ATOM     93  F   UNL A   1      42.671  26.233  35.002  1.00  0.00    -0.205 F 
ATOM     94  C   UNL A   1      46.149  26.922  35.916  1.00  0.00     0.022 A 
BRANCH  92  95
ATOM     95  S   UNL A   1      44.627  24.936  37.021  1.00  0.00     0.127 S 
ATOM     96  O   UNL A   1      44.637  23.791  36.112  1.00  0.00    -0.237 OA
ATOM     97  O   UNL A   1      45.794  25.032  37.895  1.00  0.00    -0.237 OA
ATOM     98  O   UNL A   1      43.349  25.188  37.674  1.00  0.00    -0.744 OA
ENDBRANCH  92  95
ENDBRANCH  65  88
ENDBRANCH  39  40
ENDBRANCH  32  34
ENDBRANCH  31  32
ENDBRANCH  30  31
ENDBRANCH  29  30
ENDBRANCH  28  29
ENDBRANCH   1  28
TORSDOF 22
ENDMDL
MODEL 3
REMARK VINA RESULT:     -10.2      1.511      2.048
REMARK SMILES O=C(CCCNS(=O)(=O)c1ccc2c3c(cccc13)C(=O)N2)OCCOCCOC(=O)c1ccc(-c2c3nc(c(-c4cccc(S(=O)(=O)[O-])c4F)c4ccc([nH]4)c(-c4cccc(S(=O)(=O)[O-])c4F)c4nc(c(-c5cccc(S(=O)(=O)[O-])c5F)c5ccc2[nH]5)C=C4)C=C3)cc1
REMARK SMILES IDX 25 1 24 2 23 3 2 4 1 5 3 6 4 7 5 8 6 9 7 11 8 12 9 13 10 14
REMARK SMILES IDX 11 15 19 16 12 17 14 18 18 19 13 20 15 21 17 22 22 23 16 24
REMARK SMILES IDX 20 25 21 27 26 28 27 29 28 30 29 31 30 32 31 33 32 34 33 35
REMARK SMILES IDX 94 36 34 37 93 38 35 39 36 40 37 41 87 42 38 43 92 44 86 45
REMARK SMILES IDX 88 46 39 47 91 48 85 49 84 50 40 52 72 53 52 54 71 55 53 56
REMARK SMILES IDX 56 57 70 58 89 59 54 60 55 61 69 63 90 64 57 65 41 66 42 67
REMARK SMILES IDX 50 68 43 69 45 70 51 71 44 72 46 73 47 74 48 75 49 76 73 77
REMARK SMILES IDX 74 78 82 79 75 80 77 81 83 82 76 83 78 84 79 85 80 86 81 87
REMARK SMILES IDX 58 88 59 89 67 90 60 91 62 92 68 93 61 94 63 95 64 96 65 97
REMARK SMILES IDX 66 98
REMARK H PARENT 6 10 22 26 88 51 56 62
REMARK Flexibility Score: inf
ROOT
ATOM      1  C   UNL A   1      32.111  29.496  27.035  1.00  0.00     0.202 C 
ENDROOT
BRANCH   1   2
ATOM      2  C   UNL A   1      32.108  27.986  26.943  1.00  0.00     0.261 C 
BRANCH   2   3
ATOM      3  O   UNL A   1      31.164  27.489  25.993  1.00  0.00    -0.463 OA
BRANCH   3   4
ATOM      4  C   UNL A   1      30.855  26.183  25.866  1.00  0.00     0.305 C 
ATOM      5  O   UNL A   1      31.175  25.401  26.763  1.00  0.00    -0.252 OA
BRANCH   4   6
ATOM      6  C   UNL A   1      30.188  25.655  24.612  1.00  0.00     0.124 C 
BRANCH   6   7
ATOM      7  C   UNL A   1      29.955  26.623  23.454  1.00  0.00     0.028 C 
BRANCH   7   8
ATOM      8  C   UNL A   1      31.170  27.226  22.739  1.00  0.00     0.099 C 
BRANCH   8   9
ATOM      9  N   UNL A   1      31.474  26.539  21.482  1.00  0.00    -0.211 NA
ATOM     10  H   UNL A   1      31.411  27.245  20.749  1.00  0.00     0.141 HD
BRANCH   9  11
ATOM     11  S   UNL A   1      32.931  25.730  21.233  1.00  0.00     0.241 S 
ATOM     12  O   UNL A   1      32.906  25.200  19.887  1.00  0.00    -0.207 OA
ATOM     13  O   UNL A   1      33.968  26.636  21.659  1.00  0.00    -0.207 OA
BRANCH  11  14
ATOM     14  C   UNL A   1      32.875  24.388  22.389  1.00  0.00     0.090 A 
ATOM     15  C   UNL A   1      32.283  23.183  21.922  1.00  0.00     0.024 A 
ATOM     16  C   UNL A   1      33.429  24.491  23.705  1.00  0.00     0.005 A 
ATOM     17  C   UNL A   1      32.263  22.022  22.709  1.00  0.00     0.028 A 
ATOM     18  C   UNL A   1      33.393  23.321  24.405  1.00  0.00     0.019 A 
ATOM     19  C   UNL A   1      34.019  25.567  24.431  1.00  0.00     0.010 A 
ATOM     20  C   UNL A   1      32.854  22.136  23.951  1.00  0.00     0.050 A 
ATOM     21  C   UNL A   1      33.893  23.105  25.682  1.00  0.00     0.050 A 
ATOM     22  C   UNL A   1      34.524  25.394  25.737  1.00  0.00     0.002 A 
ATOM     23  N   UNL A   1      33.033  21.194  24.945  1.00  0.00    -0.321 N 
ATOM     24  C   UNL A   1      34.479  24.152  26.385  1.00  0.00     0.014 A 
ATOM     25  C   UNL A   1      33.686  21.723  26.065  1.00  0.00     0.256 C 
ATOM     26  H   UNL A   1      32.735  20.257  24.874  1.00  0.00     0.170 HD
ATOM     27  O   UNL A   1      33.976  21.081  27.063  1.00  0.00    -0.269 OA
ENDBRANCH  11  14
ENDBRANCH   9  11
ENDBRANCH   8   9
ENDBRANCH   7   8
ENDBRANCH   6   7
ENDBRANCH   4   6
ENDBRANCH   3   4
ENDBRANCH   2   3
ENDBRANCH   1   2
BRANCH   1  28
ATOM     28  O   UNL A   1      33.302  30.136  26.583  1.00  0.00    -0.374 OA
BRANCH  28  29
ATOM     29  C   UNL A   1      33.692  31.234  27.406  1.00  0.00     0.202 C 
BRANCH  29  30
ATOM     30  C   UNL A   1      32.686  32.399  27.417  1.00  0.00     0.261 C 
BRANCH  30  31
ATOM     31  O   UNL A   1      33.333  33.687  27.400  1.00  0.00    -0.460 OA
BRANCH  31  32
ATOM     32  C   UNL A   1      33.466  34.293  28.613  1.00  0.00     0.338 C 
ATOM     33  O   UNL A   1      32.683  35.081  29.117  1.00  0.00    -0.246 OA
BRANCH  32  34
ATOM     34  C   UNL A   1      34.596  33.671  29.356  1.00  0.00     0.060 A 
ATOM     35  C   UNL A   1      35.900  33.950  28.916  1.00  0.00     0.016 A 
ATOM     36  C   UNL A   1      34.405  32.885  30.495  1.00  0.00     0.016 A 
ATOM     37  C   UNL A   1      37.007  33.453  29.605  1.00  0.00     0.010 A 
ATOM     38  C   UNL A   1      35.514  32.341  31.157  1.00  0.00     0.010 A 
ATOM     39  C   UNL A   1      36.819  32.601  30.699  1.00  0.00    -0.014 A 
BRANCH  39  40
ATOM     40  C   UNL A   1      37.956  31.766  31.159  1.00  0.00     0.031 A 
ATOM     41  C   UNL A   1      38.496  32.045  32.538  1.00  0.00     0.074 A 
ATOM     42  C   UNL A   1      38.496  30.786  30.412  1.00  0.00     0.049 A 
ATOM     43  N   UNL A   1      39.484  31.472  33.171  1.00  0.00    -0.248 NA
ATOM     44  C   UNL A   1      37.826  33.108  33.309  1.00  0.00     0.031 C 
ATOM     45  C   UNL A   1      38.062  30.398  29.072  1.00  0.00     0.029 A 
ATOM     46  N   UNL A   1      39.555  29.947  30.678  1.00  0.00    -0.354 N 
ATOM     47  C   UNL A   1      39.565  32.115  34.399  1.00  0.00     0.074 A 
ATOM     48  C   UNL A   1      38.529  33.120  34.432  1.00  0.00     0.031 C 
ATOM     49  C   UNL A   1      38.871  29.421  28.618  1.00  0.00     0.029 A 
ATOM     50  C   UNL A   1      39.889  29.125  29.628  1.00  0.00     0.049 A 
ATOM     51  H   UNL A   1      40.028  29.938  31.541  1.00  0.00     0.167 HD
ATOM     52  C   UNL A   1      40.419  31.882  35.418  1.00  0.00     0.034 A 
ATOM     53  C   UNL A   1      40.909  28.252  29.490  1.00  0.00     0.034 A 
ATOM     54  C   UNL A   1      41.438  30.877  35.407  1.00  0.00     0.049 A 
ATOM     55  C   UNL A   1      41.877  28.041  30.630  1.00  0.00     0.074 A 
ATOM     56  C   UNL A   1      42.317  30.546  36.423  1.00  0.00     0.029 A 
ATOM     57  N   UNL A   1      41.729  30.057  34.333  1.00  0.00    -0.354 N 
ATOM     58  N   UNL A   1      41.869  28.578  31.825  1.00  0.00    -0.248 NA
ATOM     59  C   UNL A   1      42.983  27.091  30.412  1.00  0.00     0.031 C 
ATOM     60  C   UNL A   1      43.160  29.539  35.952  1.00  0.00     0.029 A 
ATOM     61  C   UNL A   1      42.788  29.231  34.654  1.00  0.00     0.049 A 
ATOM     62  H   UNL A   1      41.253  30.061  33.472  1.00  0.00     0.167 HD
ATOM     63  C   UNL A   1      42.949  28.020  32.504  1.00  0.00     0.074 A 
ATOM     64  C   UNL A   1      43.583  27.091  31.595  1.00  0.00     0.031 C 
ATOM     65  C   UNL A   1      43.380  28.269  33.763  1.00  0.00     0.034 A 
BRANCH  52  66
ATOM     66  C   UNL A   1      40.281  32.706  36.663  1.00  0.00     0.023 A 
ATOM     67  C   UNL A   1      41.064  33.867  36.809  1.00  0.00     0.012 A 
ATOM     68  C   UNL A   1      39.282  32.409  37.608  1.00  0.00     0.148 A 
ATOM     69  C   UNL A   1      40.845  34.732  37.878  1.00  0.00     0.002 A 
ATOM     70  C   UNL A   1      39.050  33.290  38.654  1.00  0.00     0.091 A 
ATOM     71  F   UNL A   1      38.565  31.288  37.445  1.00  0.00    -0.205 F 
ATOM     72  C   UNL A   1      39.829  34.451  38.790  1.00  0.00     0.022 A 
BRANCH  70  73
ATOM     73  S   UNL A   1      37.735  33.051  39.852  1.00  0.00     0.127 S 
ATOM     74  O   UNL A   1      36.561  32.956  38.985  1.00  0.00    -0.237 OA
ATOM     75  O   UNL A   1      38.128  31.795  40.488  1.00  0.00    -0.237 OA
ATOM     76  O   UNL A   1      37.760  34.219  40.722  1.00  0.00    -0.744 OA
ENDBRANCH  70  73
ENDBRANCH  52  66
BRANCH  53  77
ATOM     77  C   UNL A   1      41.075  27.496  28.216  1.00  0.00     0.023 A 
ATOM     78  C   UNL A   1      41.694  28.112  27.112  1.00  0.00     0.012 A 
ATOM     79  C   UNL A   1      40.626  26.165  28.101  1.00  0.00     0.148 A 
ATOM     80  C   UNL A   1      41.852  27.420  25.910  1.00  0.00     0.002 A 
ATOM     81  C   UNL A   1      40.820  25.470  26.913  1.00  0.00     0.091 A 
ATOM     82  F   UNL A   1      40.026  25.606  29.161  1.00  0.00    -0.205 F 
ATOM     83  C   UNL A   1      41.423  26.099  25.813  1.00  0.00     0.022 A 
BRANCH  81  84
ATOM     84  S   UNL A   1      40.371  23.741  26.716  1.00  0.00     0.127 S 
ATOM     85  O   UNL A   1      40.729  23.188  28.020  1.00  0.00    -0.237 OA
ATOM     86  O   UNL A   1      38.933  23.836  26.460  1.00  0.00    -0.237 OA
ATOM     87  O   UNL A   1      41.156  23.253  25.591  1.00  0.00    -0.744 OA
ENDBRANCH  81  84
ENDBRANCH  53  77
BRANCH  65  88
ATOM     88  C   UNL A   1      44.590  27.540  34.281  1.00  0.00     0.023 A 
ATOM     89  C   UNL A   1      45.849  28.164  34.213  1.00  0.00     0.012 A 
ATOM     90  C   UNL A   1      44.443  26.340  35.005  1.00  0.00     0.148 A 
ATOM     91  C   UNL A   1      46.948  27.607  34.865  1.00  0.00     0.002 A 
ATOM     92  C   UNL A   1      45.537  25.807  35.679  1.00  0.00     0.091 A 
ATOM     93  F   UNL A   1      43.230  25.772  35.060  1.00  0.00    -0.205 F 
ATOM     94  C   UNL A   1      46.789  26.439  35.609  1.00  0.00     0.022 A 
BRANCH  92  95
ATOM     95  S   UNL A   1      45.419  24.351  36.725  1.00  0.00     0.127 S 
ATOM     96  O   UNL A   1      44.401  24.761  37.690  1.00  0.00    -0.237 OA
ATOM     97  O   UNL A   1      44.985  23.324  35.778  1.00  0.00    -0.237 OA
ATOM     98  O   UNL A   1      46.748  24.144  37.285  1.00  0.00    -0.744 OA
ENDBRANCH  92  95
ENDBRANCH  65  88
ENDBRANCH  39  40
ENDBRANCH  32  34
ENDBRANCH  31  32
ENDBRANCH  30  31
ENDBRANCH  29  30
ENDBRANCH  28  29
ENDBRANCH   1  28
TORSDOF 22
ENDMDL
