MODEL 1
REMARK VINA RESULT:     -10.8      0.000      0.000
REMARK SMILES O=C(C[C@@H]1CN(C(=O)[C@H]2C[C@H](O)C[NH2+]2)CCO1)OCCOCCOC(=O)c1ccc(-c2c3nc(c(-c4cccc(S(=O)(=O)[O-])c4F)c4ccc([nH]4)c(-c4cccc(S(=O)(=O)[O-])c4F)c4nc(c(-c5cccc(S(=O)(=O)[O-])c5F)c5ccc2[nH]5)C=C4)C=C3)cc1
REMARK SMILES IDX 20 1 19 2 18 3 2 4 1 5 3 6 4 7 5 8 17 9 6 10 16 11 15 12
REMARK SMILES IDX 7 13 8 14 9 15 10 16 14 17 11 18 13 19 12 22 21 24 22 25
REMARK SMILES IDX 23 26 24 27 25 28 26 29 27 30 28 31 89 32 29 33 88 34 30 35
REMARK SMILES IDX 31 36 32 37 82 38 33 39 87 40 81 41 83 42 34 43 86 44 80 45
REMARK SMILES IDX 79 46 35 48 67 49 47 50 66 51 48 52 51 53 65 54 84 55 49 56
REMARK SMILES IDX 50 57 64 59 85 60 52 61 36 62 37 63 45 64 38 65 40 66 46 67
REMARK SMILES IDX 39 68 41 69 42 70 43 71 44 72 68 73 69 74 77 75 70 76 72 77
REMARK SMILES IDX 78 78 71 79 73 80 74 81 75 82 76 83 53 84 54 85 62 86 55 87
REMARK SMILES IDX 57 88 63 89 56 90 58 91 59 92 60 93 61 94
REMARK H PARENT 14 20 14 21 12 23 83 47 51 58
REMARK Flexibility Score: inf
ROOT
ATOM      1  C   UNL A   1      36.358  21.839  24.517  1.00  0.00     0.202 C 
ENDROOT
BRANCH   1   2
ATOM      2  C   UNL A   1      35.143  21.015  24.921  1.00  0.00     0.261 C 
BRANCH   2   3
ATOM      3  O   UNL A   1      34.101  21.775  25.556  1.00  0.00    -0.463 OA
BRANCH   3   4
ATOM      4  C   UNL A   1      34.266  22.945  26.203  1.00  0.00     0.308 C 
ATOM      5  O   UNL A   1      34.250  22.970  27.433  1.00  0.00    -0.252 OA
BRANCH   4   6
ATOM      6  C   UNL A   1      34.454  24.228  25.434  1.00  0.00     0.156 C 
BRANCH   6   7
ATOM      7  C   UNL A   1      33.247  24.552  24.587  1.00  0.00     0.148 C 
ATOM      8  C   UNL A   1      32.020  24.808  25.444  1.00  0.00     0.152 C 
ATOM      9  O   UNL A   1      32.921  23.465  23.692  1.00  0.00    -0.374 OA
ATOM     10  N   UNL A   1      31.024  25.376  24.559  1.00  0.00    -0.333 N 
ATOM     11  C   UNL A   1      31.860  23.852  22.788  1.00  0.00     0.182 C 
ATOM     12  C   UNL A   1      30.619  24.404  23.529  1.00  0.00     0.148 C 
BRANCH  10  13
ATOM     13  C   UNL A   1      30.743  26.723  24.402  1.00  0.00     0.281 C 
ATOM     14  O   UNL A   1      31.177  27.533  25.231  1.00  0.00    -0.268 OA
BRANCH  13  15
ATOM     15  C   UNL A   1      29.819  27.254  23.254  1.00  0.00     0.275 C 
ATOM     16  C   UNL A   1      28.329  27.471  23.490  1.00  0.00     0.113 C 
ATOM     17  N   UNL A   1      30.354  28.488  22.634  1.00  0.00    -0.334 N 
ATOM     18  C   UNL A   1      28.072  28.945  23.184  1.00  0.00     0.175 C 
ATOM     19  C   UNL A   1      29.217  29.329  22.252  1.00  0.00     0.293 C 
ATOM     20  H   UNL A   1      30.901  28.250  21.806  1.00  0.00     0.347 HD
ATOM     21  H   UNL A   1      30.958  28.982  23.289  1.00  0.00     0.347 HD
BRANCH  18  22
ATOM     22  O   UNL A   1      26.777  29.116  22.632  1.00  0.00    -0.387 OA
ATOM     23  H   UNL A   1      26.314  28.263  22.621  1.00  0.00     0.211 HD
ENDBRANCH  18  22
ENDBRANCH  13  15
ENDBRANCH  10  13
ENDBRANCH   6   7
ENDBRANCH   4   6
ENDBRANCH   3   4
ENDBRANCH   2   3
ENDBRANCH   1   2
BRANCH   1  24
ATOM     24  O   UNL A   1      37.644  21.326  24.844  1.00  0.00    -0.374 OA
BRANCH  24  25
ATOM     25  C   UNL A   1      37.741  19.900  24.961  1.00  0.00     0.202 C 
BRANCH  25  26
ATOM     26  C   UNL A   1      39.013  19.384  25.632  1.00  0.00     0.261 C 
BRANCH  26  27
ATOM     27  O   UNL A   1      40.002  20.417  25.712  1.00  0.00    -0.460 OA
BRANCH  27  28
ATOM     28  C   UNL A   1      40.668  20.493  26.888  1.00  0.00     0.338 C 
ATOM     29  O   UNL A   1      41.257  19.592  27.464  1.00  0.00    -0.246 OA
BRANCH  28  30
ATOM     30  C   UNL A   1      40.799  21.919  27.250  1.00  0.00     0.060 A 
ATOM     31  C   UNL A   1      40.033  22.856  26.537  1.00  0.00     0.016 A 
ATOM     32  C   UNL A   1      41.628  22.324  28.297  1.00  0.00     0.016 A 
ATOM     33  C   UNL A   1      40.144  24.211  26.826  1.00  0.00     0.010 A 
ATOM     34  C   UNL A   1      41.749  23.680  28.577  1.00  0.00     0.010 A 
ATOM     35  C   UNL A   1      41.045  24.626  27.810  1.00  0.00    -0.014 A 
BRANCH  35  36
ATOM     36  C   UNL A   1      41.447  26.043  27.900  1.00  0.00     0.031 A 
ATOM     37  C   UNL A   1      42.813  26.409  27.398  1.00  0.00     0.074 A 
ATOM     38  C   UNL A   1      40.652  26.952  28.485  1.00  0.00     0.049 A 
ATOM     39  N   UNL A   1      43.468  27.530  27.518  1.00  0.00    -0.248 NA
ATOM     40  C   UNL A   1      43.550  25.351  26.682  1.00  0.00     0.031 C 
ATOM     41  C   UNL A   1      39.312  26.692  29.004  1.00  0.00     0.029 A 
ATOM     42  N   UNL A   1      40.889  28.267  28.791  1.00  0.00    -0.354 N 
ATOM     43  C   UNL A   1      44.713  27.297  26.947  1.00  0.00     0.074 A 
ATOM     44  C   UNL A   1      44.724  25.930  26.480  1.00  0.00     0.031 C 
ATOM     45  C   UNL A   1      38.865  27.798  29.621  1.00  0.00     0.029 A 
ATOM     46  C   UNL A   1      39.905  28.825  29.571  1.00  0.00     0.049 A 
ATOM     47  H   UNL A   1      41.683  28.761  28.483  1.00  0.00     0.167 HD
ATOM     48  C   UNL A   1      45.755  28.151  26.826  1.00  0.00     0.034 A 
ATOM     49  C   UNL A   1      39.876  30.008  30.214  1.00  0.00     0.034 A 
ATOM     50  C   UNL A   1      45.721  29.508  27.289  1.00  0.00     0.049 A 
ATOM     51  C   UNL A   1      41.047  30.943  30.074  1.00  0.00     0.074 A 
ATOM     52  C   UNL A   1      46.686  30.488  27.153  1.00  0.00     0.029 A 
ATOM     53  N   UNL A   1      44.672  30.071  28.003  1.00  0.00    -0.354 N 
ATOM     54  N   UNL A   1      42.174  30.762  29.426  1.00  0.00    -0.248 NA
ATOM     55  C   UNL A   1      40.936  32.256  30.726  1.00  0.00     0.031 C 
ATOM     56  C   UNL A   1      46.240  31.629  27.826  1.00  0.00     0.029 A 
ATOM     57  C   UNL A   1      44.975  31.377  28.335  1.00  0.00     0.049 A 
ATOM     58  H   UNL A   1      43.836  29.607  28.237  1.00  0.00     0.167 HD
ATOM     59  C   UNL A   1      42.889  31.947  29.559  1.00  0.00     0.074 A 
ATOM     60  C   UNL A   1      42.063  32.843  30.346  1.00  0.00     0.031 C 
ATOM     61  C   UNL A   1      44.116  32.265  29.079  1.00  0.00     0.034 A 
BRANCH  48  62
ATOM     62  C   UNL A   1      47.012  27.631  26.181  1.00  0.00     0.023 A 
ATOM     63  C   UNL A   1      47.958  26.917  26.944  1.00  0.00     0.012 A 
ATOM     64  C   UNL A   1      47.245  27.835  24.808  1.00  0.00     0.148 A 
ATOM     65  C   UNL A   1      49.137  26.455  26.361  1.00  0.00     0.002 A 
ATOM     66  C   UNL A   1      48.398  27.326  24.222  1.00  0.00     0.091 A 
ATOM     67  F   UNL A   1      46.349  28.540  24.103  1.00  0.00    -0.205 F 
ATOM     68  C   UNL A   1      49.352  26.650  24.999  1.00  0.00     0.022 A 
BRANCH  66  69
ATOM     69  S   UNL A   1      48.722  27.453  22.460  1.00  0.00     0.127 S 
ATOM     70  O   UNL A   1      48.717  26.047  22.057  1.00  0.00    -0.237 OA
ATOM     71  O   UNL A   1      47.570  28.226  21.992  1.00  0.00    -0.237 OA
ATOM     72  O   UNL A   1      50.002  28.136  22.336  1.00  0.00    -0.744 OA
ENDBRANCH  66  69
ENDBRANCH  48  62
BRANCH  49  73
ATOM     73  C   UNL A   1      38.691  30.361  31.042  1.00  0.00     0.023 A 
ATOM     74  C   UNL A   1      38.674  30.037  32.412  1.00  0.00     0.012 A 
ATOM     75  C   UNL A   1      37.606  31.069  30.487  1.00  0.00     0.148 A 
ATOM     76  C   UNL A   1      37.589  30.397  33.211  1.00  0.00     0.002 A 
ATOM     77  C   UNL A   1      36.556  31.473  31.301  1.00  0.00     0.091 A 
ATOM     78  F   UNL A   1      37.642  31.358  29.179  1.00  0.00    -0.205 F 
ATOM     79  C   UNL A   1      36.537  31.125  32.660  1.00  0.00     0.022 A 
BRANCH  77  80
ATOM     80  S   UNL A   1      35.225  32.525  30.710  1.00  0.00     0.127 S 
ATOM     81  O   UNL A   1      34.805  31.824  29.499  1.00  0.00    -0.237 OA
ATOM     82  O   UNL A   1      34.278  32.460  31.822  1.00  0.00    -0.237 OA
ATOM     83  O   UNL A   1      35.821  33.838  30.501  1.00  0.00    -0.744 OA
ENDBRANCH  77  80
ENDBRANCH  49  73
BRANCH  61  84
ATOM     84  C   UNL A   1      44.635  33.657  29.330  1.00  0.00     0.023 A 
ATOM     85  C   UNL A   1      45.407  33.930  30.475  1.00  0.00     0.012 A 
ATOM     86  C   UNL A   1      44.449  34.663  28.360  1.00  0.00     0.148 A 
ATOM     87  C   UNL A   1      45.973  35.191  30.659  1.00  0.00     0.002 A 
ATOM     88  C   UNL A   1      45.061  35.899  28.524  1.00  0.00     0.091 A 
ATOM     89  F   UNL A   1      43.698  34.382  27.286  1.00  0.00    -0.205 F 
ATOM     90  C   UNL A   1      45.813  36.169  29.679  1.00  0.00     0.022 A 
BRANCH  88  91
ATOM     91  S   UNL A   1      45.000  37.179  27.267  1.00  0.00     0.127 S 
ATOM     92  O   UNL A   1      45.557  38.325  27.983  1.00  0.00    -0.237 OA
ATOM     93  O   UNL A   1      45.869  36.629  26.225  1.00  0.00    -0.237 OA
ATOM     94  O   UNL A   1      43.601  37.308  26.885  1.00  0.00    -0.744 OA
ENDBRANCH  88  91
ENDBRANCH  61  84
ENDBRANCH  35  36
ENDBRANCH  28  30
ENDBRANCH  27  28
ENDBRANCH  26  27
ENDBRANCH  25  26
ENDBRANCH  24  25
ENDBRANCH   1  24
TORSDOF 21
ENDMDL
MODEL 2
REMARK VINA RESULT:     -10.7      1.679      2.356
REMARK SMILES O=C(C[C@@H]1CN(C(=O)[C@H]2C[C@H](O)C[NH2+]2)CCO1)OCCOCCOC(=O)c1ccc(-c2c3nc(c(-c4cccc(S(=O)(=O)[O-])c4F)c4ccc([nH]4)c(-c4cccc(S(=O)(=O)[O-])c4F)c4nc(c(-c5cccc(S(=O)(=O)[O-])c5F)c5ccc2[nH]5)C=C4)C=C3)cc1
REMARK SMILES IDX 20 1 19 2 18 3 2 4 1 5 3 6 4 7 5 8 17 9 6 10 16 11 15 12
REMARK SMILES IDX 7 13 8 14 9 15 10 16 14 17 11 18 13 19 12 22 21 24 22 25
REMARK SMILES IDX 23 26 24 27 25 28 26 29 27 30 28 31 89 32 29 33 88 34 30 35
REMARK SMILES IDX 31 36 32 37 82 38 33 39 87 40 81 41 83 42 34 43 86 44 80 45
REMARK SMILES IDX 79 46 35 48 67 49 47 50 66 51 48 52 51 53 65 54 84 55 49 56
REMARK SMILES IDX 50 57 64 59 85 60 52 61 36 62 37 63 45 64 38 65 40 66 46 67
REMARK SMILES IDX 39 68 41 69 42 70 43 71 44 72 68 73 69 74 77 75 70 76 72 77
REMARK SMILES IDX 78 78 71 79 73 80 74 81 75 82 76 83 53 84 54 85 62 86 55 87
REMARK SMILES IDX 57 88 63 89 56 90 58 91 59 92 60 93 61 94
REMARK H PARENT 14 20 14 21 12 23 83 47 51 58
REMARK Flexibility Score: inf
ROOT
ATOM      1  C   UNL A   1      35.401  20.836  25.410  1.00  0.00     0.202 C 
ENDROOT
BRANCH   1   2
ATOM      2  C   UNL A   1      35.787  22.243  25.844  1.00  0.00     0.261 C 
BRANCH   2   3
ATOM      3  O   UNL A   1      35.494  23.260  24.872  1.00  0.00    -0.463 OA
BRANCH   3   4
ATOM      4  C   UNL A   1      35.205  23.045  23.573  1.00  0.00     0.308 C 
ATOM      5  O   UNL A   1      36.116  22.956  22.751  1.00  0.00    -0.252 OA
BRANCH   4   6
ATOM      6  C   UNL A   1      33.773  22.929  23.116  1.00  0.00     0.156 C 
BRANCH   6   7
ATOM      7  C   UNL A   1      33.166  24.282  22.833  1.00  0.00     0.148 C 
ATOM      8  C   UNL A   1      31.681  24.301  23.152  1.00  0.00     0.152 C 
ATOM      9  O   UNL A   1      33.304  24.643  21.440  1.00  0.00    -0.374 OA
ATOM     10  N   UNL A   1      31.282  25.693  23.116  1.00  0.00    -0.333 N 
ATOM     11  C   UNL A   1      32.854  26.000  21.220  1.00  0.00     0.182 C 
ATOM     12  C   UNL A   1      31.424  26.246  21.757  1.00  0.00     0.148 C 
BRANCH  10  13
ATOM     13  C   UNL A   1      31.155  26.536  24.207  1.00  0.00     0.281 C 
ATOM     14  O   UNL A   1      30.090  27.144  24.383  1.00  0.00    -0.268 OA
BRANCH  13  15
ATOM     15  C   UNL A   1      32.344  26.819  25.186  1.00  0.00     0.275 C 
ATOM     16  C   UNL A   1      33.446  27.802  24.811  1.00  0.00     0.113 C 
ATOM     17  N   UNL A   1      31.875  27.175  26.545  1.00  0.00    -0.334 N 
ATOM     18  C   UNL A   1      33.444  28.864  25.909  1.00  0.00     0.175 C 
ATOM     19  C   UNL A   1      32.811  28.154  27.102  1.00  0.00     0.293 C 
ATOM     20  H   UNL A   1      31.855  26.342  27.134  1.00  0.00     0.347 HD
ATOM     21  H   UNL A   1      30.934  27.565  26.505  1.00  0.00     0.347 HD
BRANCH  18  22
ATOM     22  O   UNL A   1      34.759  29.344  26.135  1.00  0.00    -0.387 OA
ATOM     23  H   UNL A   1      34.720  30.262  26.448  1.00  0.00     0.211 HD
ENDBRANCH  18  22
ENDBRANCH  13  15
ENDBRANCH  10  13
ENDBRANCH   6   7
ENDBRANCH   4   6
ENDBRANCH   3   4
ENDBRANCH   2   3
ENDBRANCH   1   2
BRANCH   1  24
ATOM     24  O   UNL A   1      36.445  19.959  25.002  1.00  0.00    -0.374 OA
BRANCH  24  25
ATOM     25  C   UNL A   1      37.759  20.530  24.945  1.00  0.00     0.202 C 
BRANCH  25  26
ATOM     26  C   UNL A   1      38.882  19.641  25.477  1.00  0.00     0.261 C 
BRANCH  26  27
ATOM     27  O   UNL A   1      40.094  20.388  25.631  1.00  0.00    -0.460 OA
BRANCH  27  28
ATOM     28  C   UNL A   1      40.568  20.468  26.897  1.00  0.00     0.338 C 
ATOM     29  O   UNL A   1      41.002  19.556  27.584  1.00  0.00    -0.246 OA
BRANCH  28  30
ATOM     30  C   UNL A   1      40.726  21.896  27.238  1.00  0.00     0.060 A 
ATOM     31  C   UNL A   1      39.899  22.827  26.588  1.00  0.00     0.016 A 
ATOM     32  C   UNL A   1      41.642  22.310  28.206  1.00  0.00     0.016 A 
ATOM     33  C   UNL A   1      40.030  24.184  26.859  1.00  0.00     0.010 A 
ATOM     34  C   UNL A   1      41.784  23.667  28.467  1.00  0.00     0.010 A 
ATOM     35  C   UNL A   1      41.013  24.607  27.758  1.00  0.00    -0.014 A 
BRANCH  35  36
ATOM     36  C   UNL A   1      41.418  26.026  27.804  1.00  0.00     0.031 A 
ATOM     37  C   UNL A   1      42.766  26.380  27.249  1.00  0.00     0.074 A 
ATOM     38  C   UNL A   1      40.642  26.948  28.396  1.00  0.00     0.049 A 
ATOM     39  N   UNL A   1      43.424  27.503  27.324  1.00  0.00    -0.248 NA
ATOM     40  C   UNL A   1      43.479  25.306  26.532  1.00  0.00     0.031 C 
ATOM     41  C   UNL A   1      39.320  26.699  28.965  1.00  0.00     0.029 A 
ATOM     42  N   UNL A   1      40.889  28.269  28.666  1.00  0.00    -0.354 N 
ATOM     43  C   UNL A   1      44.650  27.257  26.718  1.00  0.00     0.074 A 
ATOM     44  C   UNL A   1      44.645  25.880  26.280  1.00  0.00     0.031 C 
ATOM     45  C   UNL A   1      38.894  27.819  29.572  1.00  0.00     0.029 A 
ATOM     46  C   UNL A   1      39.931  28.843  29.465  1.00  0.00     0.049 A 
ATOM     47  H   UNL A   1      41.673  28.755  28.321  1.00  0.00     0.167 HD
ATOM     48  C   UNL A   1      45.687  28.107  26.543  1.00  0.00     0.034 A 
ATOM     49  C   UNL A   1      39.923  30.040  30.084  1.00  0.00     0.034 A 
ATOM     50  C   UNL A   1      45.668  29.475  26.978  1.00  0.00     0.049 A 
ATOM     51  C   UNL A   1      41.089  30.972  29.885  1.00  0.00     0.074 A 
ATOM     52  C   UNL A   1      46.628  30.451  26.789  1.00  0.00     0.029 A 
ATOM     53  N   UNL A   1      44.643  30.053  27.714  1.00  0.00    -0.354 N 
ATOM     54  N   UNL A   1      42.194  30.776  29.204  1.00  0.00    -0.248 NA
ATOM     55  C   UNL A   1      40.999  32.298  30.512  1.00  0.00     0.031 C 
ATOM     56  C   UNL A   1      46.204  31.606  27.452  1.00  0.00     0.029 A 
ATOM     57  C   UNL A   1      44.957  31.366  28.008  1.00  0.00     0.049 A 
ATOM     58  H   UNL A   1      43.815  29.595  27.986  1.00  0.00     0.167 HD
ATOM     59  C   UNL A   1      42.912  31.964  29.288  1.00  0.00     0.074 A 
ATOM     60  C   UNL A   1      42.113  32.876  30.082  1.00  0.00     0.031 C 
ATOM     61  C   UNL A   1      44.123  32.270  28.760  1.00  0.00     0.034 A 
BRANCH  48  62
ATOM     62  C   UNL A   1      46.922  27.573  25.869  1.00  0.00     0.023 A 
ATOM     63  C   UNL A   1      47.853  26.805  26.597  1.00  0.00     0.012 A 
ATOM     64  C   UNL A   1      47.150  27.818  24.501  1.00  0.00     0.148 A 
ATOM     65  C   UNL A   1      49.013  26.329  25.986  1.00  0.00     0.002 A 
ATOM     66  C   UNL A   1      48.281  27.295  23.887  1.00  0.00     0.091 A 
ATOM     67  F   UNL A   1      46.269  28.574  23.829  1.00  0.00    -0.205 F 
ATOM     68  C   UNL A   1      49.221  26.564  24.630  1.00  0.00     0.022 A 
BRANCH  66  69
ATOM     69  S   UNL A   1      48.593  27.475  22.127  1.00  0.00     0.127 S 
ATOM     70  O   UNL A   1      48.653  26.079  21.695  1.00  0.00    -0.237 OA
ATOM     71  O   UNL A   1      47.405  28.201  21.678  1.00  0.00    -0.237 OA
ATOM     72  O   UNL A   1      49.839  28.220  22.014  1.00  0.00    -0.744 OA
ENDBRANCH  66  69
ENDBRANCH  48  62
BRANCH  49  73
ATOM     73  C   UNL A   1      38.767  30.412  30.943  1.00  0.00     0.023 A 
ATOM     74  C   UNL A   1      38.784  30.096  32.314  1.00  0.00     0.012 A 
ATOM     75  C   UNL A   1      37.675  31.130  30.414  1.00  0.00     0.148 A 
ATOM     76  C   UNL A   1      37.727  30.473  33.142  1.00  0.00     0.002 A 
ATOM     77  C   UNL A   1      36.652  31.550  31.256  1.00  0.00     0.091 A 
ATOM     78  F   UNL A   1      37.676  31.410  29.104  1.00  0.00    -0.205 F 
ATOM     79  C   UNL A   1      36.667  31.209  32.616  1.00  0.00     0.022 A 
BRANCH  77  80
ATOM     80  S   UNL A   1      35.318  32.614  30.696  1.00  0.00     0.127 S 
ATOM     81  O   UNL A   1      36.033  33.849  30.379  1.00  0.00    -0.237 OA
ATOM     82  O   UNL A   1      34.814  31.877  29.538  1.00  0.00    -0.237 OA
ATOM     83  O   UNL A   1      34.383  32.699  31.811  1.00  0.00    -0.744 OA
ENDBRANCH  77  80
ENDBRANCH  49  73
BRANCH  61  84
ATOM     84  C   UNL A   1      44.649  33.667  28.965  1.00  0.00     0.023 A 
ATOM     85  C   UNL A   1      44.319  34.690  28.056  1.00  0.00     0.012 A 
ATOM     86  C   UNL A   1      45.377  33.981  30.131  1.00  0.00     0.148 A 
ATOM     87  C   UNL A   1      44.721  36.003  28.296  1.00  0.00     0.002 A 
ATOM     88  C   UNL A   1      45.726  35.299  30.391  1.00  0.00     0.091 A 
ATOM     89  F   UNL A   1      45.690  32.986  30.974  1.00  0.00    -0.205 F 
ATOM     90  C   UNL A   1      45.410  36.310  29.468  1.00  0.00     0.022 A 
BRANCH  88  91
ATOM     91  S   UNL A   1      46.516  35.804  31.922  1.00  0.00     0.127 S 
ATOM     92  O   UNL A   1      47.523  34.758  32.095  1.00  0.00    -0.237 OA
ATOM     93  O   UNL A   1      47.055  37.118  31.572  1.00  0.00    -0.237 OA
ATOM     94  O   UNL A   1      45.467  35.827  32.932  1.00  0.00    -0.744 OA
ENDBRANCH  88  91
ENDBRANCH  61  84
ENDBRANCH  35  36
ENDBRANCH  28  30
ENDBRANCH  27  28
ENDBRANCH  26  27
ENDBRANCH  25  26
ENDBRANCH  24  25
ENDBRANCH   1  24
TORSDOF 21
ENDMDL
MODEL 3
REMARK VINA RESULT:     -10.7      4.760      7.188
REMARK SMILES O=C(C[C@@H]1CN(C(=O)[C@H]2C[C@H](O)C[NH2+]2)CCO1)OCCOCCOC(=O)c1ccc(-c2c3nc(c(-c4cccc(S(=O)(=O)[O-])c4F)c4ccc([nH]4)c(-c4cccc(S(=O)(=O)[O-])c4F)c4nc(c(-c5cccc(S(=O)(=O)[O-])c5F)c5ccc2[nH]5)C=C4)C=C3)cc1
REMARK SMILES IDX 20 1 19 2 18 3 2 4 1 5 3 6 4 7 5 8 17 9 6 10 16 11 15 12
REMARK SMILES IDX 7 13 8 14 9 15 10 16 14 17 11 18 13 19 12 22 21 24 22 25
REMARK SMILES IDX 23 26 24 27 25 28 26 29 27 30 28 31 89 32 29 33 88 34 30 35
REMARK SMILES IDX 31 36 32 37 82 38 33 39 87 40 81 41 83 42 34 43 86 44 80 45
REMARK SMILES IDX 79 46 35 48 67 49 47 50 66 51 48 52 51 53 65 54 84 55 49 56
REMARK SMILES IDX 50 57 64 59 85 60 52 61 36 62 37 63 45 64 38 65 40 66 46 67
REMARK SMILES IDX 39 68 41 69 42 70 43 71 44 72 68 73 69 74 77 75 70 76 72 77
REMARK SMILES IDX 78 78 71 79 73 80 74 81 75 82 76 83 53 84 54 85 62 86 55 87
REMARK SMILES IDX 57 88 63 89 56 90 58 91 59 92 60 93 61 94
REMARK H PARENT 14 20 14 21 12 23 83 47 51 58
REMARK Flexibility Score: inf
ROOT
ATOM      1  C   UNL A   1      39.189  22.142  26.285  1.00  0.00     0.202 C 
ENDROOT
BRANCH   1   2
ATOM      2  C   UNL A   1      38.141  21.675  25.284  1.00  0.00     0.261 C 
BRANCH   2   3
ATOM      3  O   UNL A   1      36.795  21.693  25.789  1.00  0.00    -0.463 OA
BRANCH   3   4
ATOM      4  C   UNL A   1      35.852  22.603  25.479  1.00  0.00     0.308 C 
ATOM      5  O   UNL A   1      35.882  23.165  24.385  1.00  0.00    -0.252 OA
BRANCH   4   6
ATOM      6  C   UNL A   1      34.768  22.951  26.467  1.00  0.00     0.156 C 
BRANCH   6   7
ATOM      7  C   UNL A   1      33.483  23.336  25.774  1.00  0.00     0.148 C 
ATOM      8  C   UNL A   1      33.104  24.777  26.066  1.00  0.00     0.152 C 
ATOM      9  O   UNL A   1      32.379  22.510  26.210  1.00  0.00    -0.374 OA
ATOM     10  N   UNL A   1      32.040  25.108  25.141  1.00  0.00    -0.333 N 
ATOM     11  C   UNL A   1      31.195  22.791  25.428  1.00  0.00     0.182 C 
ATOM     12  C   UNL A   1      30.839  24.297  25.409  1.00  0.00     0.148 C 
BRANCH  10  13
ATOM     13  C   UNL A   1      32.182  25.774  23.935  1.00  0.00     0.281 C 
ATOM     14  O   UNL A   1      32.428  25.125  22.910  1.00  0.00    -0.268 OA
BRANCH  13  15
ATOM     15  C   UNL A   1      32.129  27.336  23.834  1.00  0.00     0.275 C 
ATOM     16  C   UNL A   1      32.137  28.030  22.477  1.00  0.00     0.113 C 
ATOM     17  N   UNL A   1      31.011  27.908  24.619  1.00  0.00    -0.334 N 
ATOM     18  C   UNL A   1      30.856  28.862  22.431  1.00  0.00     0.175 C 
ATOM     19  C   UNL A   1      30.512  29.083  23.901  1.00  0.00     0.293 C 
ATOM     20  H   UNL A   1      31.342  28.182  25.544  1.00  0.00     0.347 HD
ATOM     21  H   UNL A   1      30.268  27.219  24.733  1.00  0.00     0.347 HD
BRANCH  18  22
ATOM     22  O   UNL A   1      31.066  30.051  21.687  1.00  0.00    -0.387 OA
ATOM     23  H   UNL A   1      31.472  30.722  22.258  1.00  0.00     0.211 HD
ENDBRANCH  18  22
ENDBRANCH  13  15
ENDBRANCH  10  13
ENDBRANCH   6   7
ENDBRANCH   4   6
ENDBRANCH   3   4
ENDBRANCH   2   3
ENDBRANCH   1   2
BRANCH   1  24
ATOM     24  O   UNL A   1      40.033  21.155  26.867  1.00  0.00    -0.374 OA
BRANCH  24  25
ATOM     25  C   UNL A   1      41.132  20.712  26.059  1.00  0.00     0.202 C 
BRANCH  25  26
ATOM     26  C   UNL A   1      42.412  21.536  26.188  1.00  0.00     0.261 C 
BRANCH  26  27
ATOM     27  O   UNL A   1      42.481  22.534  25.162  1.00  0.00    -0.460 OA
BRANCH  27  28
ATOM     28  C   UNL A   1      43.374  23.528  25.380  1.00  0.00     0.338 C 
ATOM     29  O   UNL A   1      44.465  23.672  24.850  1.00  0.00    -0.246 OA
BRANCH  28  30
ATOM     30  C   UNL A   1      42.709  24.576  26.180  1.00  0.00     0.060 A 
ATOM     31  C   UNL A   1      43.116  25.907  25.996  1.00  0.00     0.016 A 
ATOM     32  C   UNL A   1      41.677  24.260  27.065  1.00  0.00     0.016 A 
ATOM     33  C   UNL A   1      42.535  26.923  26.747  1.00  0.00     0.010 A 
ATOM     34  C   UNL A   1      41.105  25.274  27.825  1.00  0.00     0.010 A 
ATOM     35  C   UNL A   1      41.568  26.597  27.702  1.00  0.00    -0.014 A 
BRANCH  35  36
ATOM     36  C   UNL A   1      41.193  27.572  28.744  1.00  0.00     0.031 A 
ATOM     37  C   UNL A   1      41.999  27.578  30.009  1.00  0.00     0.074 A 
ATOM     38  C   UNL A   1      40.120  28.365  28.595  1.00  0.00     0.049 A 
ATOM     39  N   UNL A   1      41.775  28.204  31.131  1.00  0.00    -0.248 NA
ATOM     40  C   UNL A   1      43.213  26.742  30.014  1.00  0.00     0.031 C 
ATOM     41  C   UNL A   1      39.276  28.428  27.405  1.00  0.00     0.029 A 
ATOM     42  N   UNL A   1      39.527  29.225  29.483  1.00  0.00    -0.354 N 
ATOM     43  C   UNL A   1      42.783  27.792  31.994  1.00  0.00     0.074 A 
ATOM     44  C   UNL A   1      43.620  26.866  31.268  1.00  0.00     0.031 C 
ATOM     45  C   UNL A   1      38.234  29.239  27.656  1.00  0.00     0.029 A 
ATOM     46  C   UNL A   1      38.324  29.715  29.036  1.00  0.00     0.049 A 
ATOM     47  H   UNL A   1      39.923  29.466  30.351  1.00  0.00     0.167 HD
ATOM     48  C   UNL A   1      42.989  28.157  33.280  1.00  0.00     0.034 A 
ATOM     49  C   UNL A   1      37.381  30.422  29.688  1.00  0.00     0.034 A 
ATOM     50  C   UNL A   1      42.150  29.086  33.981  1.00  0.00     0.049 A 
ATOM     51  C   UNL A   1      37.623  30.813  31.122  1.00  0.00     0.074 A 
ATOM     52  C   UNL A   1      42.305  29.590  35.259  1.00  0.00     0.029 A 
ATOM     53  N   UNL A   1      40.982  29.633  33.470  1.00  0.00    -0.354 N 
ATOM     54  N   UNL A   1      38.644  30.522  31.894  1.00  0.00    -0.248 NA
ATOM     55  C   UNL A   1      36.604  31.653  31.766  1.00  0.00     0.031 C 
ATOM     56  C   UNL A   1      41.203  30.404  35.538  1.00  0.00     0.029 A 
ATOM     57  C   UNL A   1      40.391  30.451  34.414  1.00  0.00     0.049 A 
ATOM     58  H   UNL A   1      40.627  29.464  32.567  1.00  0.00     0.167 HD
ATOM     59  C   UNL A   1      38.409  31.172  33.101  1.00  0.00     0.074 A 
ATOM     60  C   UNL A   1      37.151  31.878  32.954  1.00  0.00     0.031 C 
ATOM     61  C   UNL A   1      39.162  31.182  34.228  1.00  0.00     0.034 A 
BRANCH  48  62
ATOM     62  C   UNL A   1      44.156  27.537  34.003  1.00  0.00     0.023 A 
ATOM     63  C   UNL A   1      45.406  28.186  34.019  1.00  0.00     0.012 A 
ATOM     64  C   UNL A   1      44.003  26.315  34.685  1.00  0.00     0.148 A 
ATOM     65  C   UNL A   1      46.499  27.606  34.664  1.00  0.00     0.002 A 
ATOM     66  C   UNL A   1      45.082  25.769  35.369  1.00  0.00     0.091 A 
ATOM     67  F   UNL A   1      42.814  25.696  34.635  1.00  0.00    -0.205 F 
ATOM     68  C   UNL A   1      46.334  26.404  35.347  1.00  0.00     0.022 A 
BRANCH  66  69
ATOM     69  S   UNL A   1      44.946  24.268  36.347  1.00  0.00     0.127 S 
ATOM     70  O   UNL A   1      46.305  23.736  36.261  1.00  0.00    -0.237 OA
ATOM     71  O   UNL A   1      44.579  24.793  37.663  1.00  0.00    -0.237 OA
ATOM     72  O   UNL A   1      43.916  23.463  35.705  1.00  0.00    -0.744 OA
ENDBRANCH  66  69
ENDBRANCH  48  62
BRANCH  49  73
ATOM     73  C   UNL A   1      36.128  30.798  28.979  1.00  0.00     0.023 A 
ATOM     74  C   UNL A   1      35.298  29.795  28.444  1.00  0.00     0.012 A 
ATOM     75  C   UNL A   1      35.728  32.147  28.884  1.00  0.00     0.148 A 
ATOM     76  C   UNL A   1      34.100  30.128  27.813  1.00  0.00     0.002 A 
ATOM     77  C   UNL A   1      34.507  32.466  28.303  1.00  0.00     0.091 A 
ATOM     78  F   UNL A   1      36.539  33.085  29.392  1.00  0.00    -0.205 F 
ATOM     79  C   UNL A   1      33.699  31.461  27.752  1.00  0.00     0.022 A 
BRANCH  77  80
ATOM     80  S   UNL A   1      33.847  34.136  28.300  1.00  0.00     0.127 S 
ATOM     81  O   UNL A   1      34.798  34.832  27.436  1.00  0.00    -0.237 OA
ATOM     82  O   UNL A   1      32.521  33.931  27.719  1.00  0.00    -0.237 OA
ATOM     83  O   UNL A   1      33.836  34.562  29.694  1.00  0.00    -0.744 OA
ENDBRANCH  77  80
ENDBRANCH  49  73
BRANCH  61  84
ATOM     84  C   UNL A   1      38.692  32.023  35.385  1.00  0.00     0.023 A 
ATOM     85  C   UNL A   1      38.659  33.426  35.275  1.00  0.00     0.012 A 
ATOM     86  C   UNL A   1      38.170  31.404  36.539  1.00  0.00     0.148 A 
ATOM     87  C   UNL A   1      38.131  34.202  36.306  1.00  0.00     0.002 A 
ATOM     88  C   UNL A   1      37.595  32.179  37.537  1.00  0.00     0.091 A 
ATOM     89  F   UNL A   1      38.225  30.067  36.625  1.00  0.00    -0.205 F 
ATOM     90  C   UNL A   1      37.586  33.580  37.428  1.00  0.00     0.022 A 
BRANCH  88  91
ATOM     91  S   UNL A   1      36.774  31.462  38.963  1.00  0.00     0.127 S 
ATOM     92  O   UNL A   1      36.595  30.075  38.537  1.00  0.00    -0.237 OA
ATOM     93  O   UNL A   1      37.769  31.652  40.019  1.00  0.00    -0.237 OA
ATOM     94  O   UNL A   1      35.542  32.218  39.146  1.00  0.00    -0.744 OA
ENDBRANCH  88  91
ENDBRANCH  61  84
ENDBRANCH  35  36
ENDBRANCH  28  30
ENDBRANCH  27  28
ENDBRANCH  26  27
ENDBRANCH  25  26
ENDBRANCH  24  25
ENDBRANCH   1  24
TORSDOF 21
ENDMDL
