MODEL 1
REMARK VINA RESULT:     -11.6      0.000      0.000
REMARK SMILES CC(C)(CC(=O)Nc1cccc(C(=O)NC2CC2)c1)CC(=O)OCCOCCOC(=O)c1ccc(-c2c3nc(c(-c4cccc(S(=O)(=O)[O-])c4F)c4ccc([nH]4)c(-c4cccc(S(=O)(=O)[O-])c4F)c4nc(c(-c5cccc(S(=O)(=O)[O-])c5F)c5ccc2[nH]5)C=C4)C=C3)cc1
REMARK SMILES IDX 24 1 23 2 21 3 22 4 20 5 2 6 1 7 3 8 4 9 5 10 6 11 7 12 8 14
REMARK SMILES IDX 9 15 19 16 10 17 12 18 11 19 13 20 14 21 15 22 16 24 17 25
REMARK SMILES IDX 18 26 25 27 26 28 27 29 28 30 29 31 30 32 31 33 32 34 33 35
REMARK SMILES IDX 94 36 34 37 93 38 35 39 36 40 37 41 87 42 38 43 92 44 86 45
REMARK SMILES IDX 88 46 39 47 91 48 85 49 84 50 40 52 72 53 52 54 71 55 53 56
REMARK SMILES IDX 56 57 70 58 89 59 54 60 55 61 69 63 90 64 57 65 41 66 42 67
REMARK SMILES IDX 50 68 43 69 45 70 51 71 44 72 46 73 47 74 48 75 49 76 73 77
REMARK SMILES IDX 74 78 82 79 75 80 77 81 83 82 76 83 78 84 79 85 80 86 81 87
REMARK SMILES IDX 58 88 59 89 67 90 60 91 62 92 68 93 61 94 63 95 64 96 65 97
REMARK SMILES IDX 66 98
REMARK H PARENT 7 13 15 23 88 51 56 62
REMARK Flexibility Score: inf
ROOT
ATOM      1  C   UNL A   1      33.668  26.810  24.173  1.00  0.00     0.261 C 
ENDROOT
BRANCH   1   2
ATOM      2  O   UNL A   1      34.280  25.557  24.562  1.00  0.00    -0.463 OA
BRANCH   2   3
ATOM      3  C   UNL A   1      34.482  24.616  23.617  1.00  0.00     0.306 C 
ATOM      4  O   UNL A   1      34.070  24.693  22.466  1.00  0.00    -0.252 OA
BRANCH   3   5
ATOM      5  C   UNL A   1      35.094  23.344  24.188  1.00  0.00     0.129 C 
BRANCH   5   6
ATOM      6  C   UNL A   1      35.513  23.110  25.669  1.00  0.00    -0.016 C 
ATOM      7  C   UNL A   1      36.824  23.761  26.119  1.00  0.00     0.012 C 
ATOM      8  C   UNL A   1      35.915  21.597  25.718  1.00  0.00     0.012 C 
BRANCH   6   9
ATOM      9  C   UNL A   1      34.407  23.342  26.718  1.00  0.00     0.107 C 
BRANCH   9  10
ATOM     10  C   UNL A   1      33.372  22.314  27.161  1.00  0.00     0.224 C 
ATOM     11  O   UNL A   1      33.096  22.254  28.370  1.00  0.00    -0.275 OA
ATOM     12  N   UNL A   1      32.538  21.597  26.373  1.00  0.00    -0.326 N 
ATOM     13  H   UNL A   1      31.761  21.289  26.895  1.00  0.00     0.169 HD
BRANCH  12  14
ATOM     14  C   UNL A   1      32.432  21.155  25.054  1.00  0.00     0.041 A 
ATOM     15  C   UNL A   1      32.048  22.087  24.089  1.00  0.00     0.026 A 
ATOM     16  C   UNL A   1      32.440  19.807  24.705  1.00  0.00     0.040 A 
ATOM     17  C   UNL A   1      31.825  21.687  22.773  1.00  0.00     0.003 A 
ATOM     18  C   UNL A   1      32.344  19.381  23.379  1.00  0.00     0.041 A 
ATOM     19  C   UNL A   1      32.011  20.352  22.416  1.00  0.00     0.014 A 
BRANCH  18  20
ATOM     20  C   UNL A   1      32.638  18.002  22.866  1.00  0.00     0.251 C 
ATOM     21  O   UNL A   1      32.562  17.815  21.644  1.00  0.00    -0.269 OA
ATOM     22  N   UNL A   1      33.059  16.911  23.596  1.00  0.00    -0.349 N 
ATOM     23  H   UNL A   1      33.334  16.164  23.018  1.00  0.00     0.164 HD
BRANCH  22  24
ATOM     24  C   UNL A   1      33.197  16.593  24.975  1.00  0.00     0.082 C 
ATOM     25  C   UNL A   1      32.010  16.142  25.775  1.00  0.00     0.027 C 
ATOM     26  C   UNL A   1      33.091  15.161  25.433  1.00  0.00     0.027 C 
ENDBRANCH  22  24
ENDBRANCH  18  20
ENDBRANCH  12  14
ENDBRANCH   9  10
ENDBRANCH   6   9
ENDBRANCH   5   6
ENDBRANCH   3   5
ENDBRANCH   2   3
ENDBRANCH   1   2
BRANCH   1  27
ATOM     27  C   UNL A   1      33.018  27.586  25.324  1.00  0.00     0.202 C 
BRANCH  27  28
ATOM     28  O   UNL A   1      33.244  28.997  25.281  1.00  0.00    -0.374 OA
BRANCH  28  29
ATOM     29  C   UNL A   1      32.059  29.791  25.230  1.00  0.00     0.202 C 
BRANCH  29  30
ATOM     30  C   UNL A   1      31.840  30.643  26.487  1.00  0.00     0.261 C 
BRANCH  30  31
ATOM     31  O   UNL A   1      32.961  30.501  27.384  1.00  0.00    -0.460 OA
BRANCH  31  32
ATOM     32  C   UNL A   1      33.697  31.619  27.594  1.00  0.00     0.338 C 
ATOM     33  O   UNL A   1      33.293  32.761  27.671  1.00  0.00    -0.246 OA
BRANCH  32  34
ATOM     34  C   UNL A   1      35.084  31.217  27.919  1.00  0.00     0.060 A 
ATOM     35  C   UNL A   1      35.349  29.850  28.017  1.00  0.00     0.016 A 
ATOM     36  C   UNL A   1      36.105  32.144  28.141  1.00  0.00     0.016 A 
ATOM     37  C   UNL A   1      36.619  29.412  28.396  1.00  0.00     0.010 A 
ATOM     38  C   UNL A   1      37.399  31.699  28.437  1.00  0.00     0.010 A 
ATOM     39  C   UNL A   1      37.649  30.332  28.645  1.00  0.00    -0.014 A 
BRANCH  39  40
ATOM     40  C   UNL A   1      38.903  29.867  29.307  1.00  0.00     0.031 A 
ATOM     41  C   UNL A   1      39.263  30.413  30.670  1.00  0.00     0.074 A 
ATOM     42  C   UNL A   1      39.686  28.923  28.747  1.00  0.00     0.049 A 
ATOM     43  N   UNL A   1      40.238  30.062  31.471  1.00  0.00    -0.248 NA
ATOM     44  C   UNL A   1      38.424  31.500  31.202  1.00  0.00     0.031 C 
ATOM     45  C   UNL A   1      39.489  28.330  27.426  1.00  0.00     0.029 A 
ATOM     46  N   UNL A   1      40.809  28.294  29.231  1.00  0.00    -0.354 N 
ATOM     47  C   UNL A   1      40.143  30.900  32.577  1.00  0.00     0.074 A 
ATOM     48  C   UNL A   1      39.045  31.806  32.329  1.00  0.00     0.031 C 
ATOM     49  C   UNL A   1      40.448  27.413  27.210  1.00  0.00     0.029 A 
ATOM     50  C   UNL A   1      41.341  27.365  28.367  1.00  0.00     0.049 A 
ATOM     51  H   UNL A   1      41.198  28.491  30.114  1.00  0.00     0.167 HD
ATOM     52  C   UNL A   1      40.874  30.903  33.717  1.00  0.00     0.034 A 
ATOM     53  C   UNL A   1      42.421  26.564  28.493  1.00  0.00     0.034 A 
ATOM     54  C   UNL A   1      41.939  29.982  33.997  1.00  0.00     0.049 A 
ATOM     55  C   UNL A   1      43.219  26.584  29.774  1.00  0.00     0.074 A 
ATOM     56  C   UNL A   1      42.683  29.858  35.158  1.00  0.00     0.029 A 
ATOM     57  N   UNL A   1      42.425  29.040  33.108  1.00  0.00    -0.354 N 
ATOM     58  N   UNL A   1      43.013  27.276  30.868  1.00  0.00    -0.248 NA
ATOM     59  C   UNL A   1      44.381  25.683  29.849  1.00  0.00     0.031 C 
ATOM     60  C   UNL A   1      43.647  28.868  34.955  1.00  0.00     0.029 A 
ATOM     61  C   UNL A   1      43.474  28.344  33.683  1.00  0.00     0.049 A 
ATOM     62  H   UNL A   1      42.076  28.886  32.199  1.00  0.00     0.167 HD
ATOM     63  C   UNL A   1      43.989  26.864  31.771  1.00  0.00     0.074 A 
ATOM     64  C   UNL A   1      44.775  25.849  31.103  1.00  0.00     0.031 C 
ATOM     65  C   UNL A   1      44.220  27.296  33.035  1.00  0.00     0.034 A 
BRANCH  52  66
ATOM     66  C   UNL A   1      40.521  31.920  34.770  1.00  0.00     0.023 A 
ATOM     67  C   UNL A   1      41.273  33.108  34.881  1.00  0.00     0.012 A 
ATOM     68  C   UNL A   1      39.410  31.724  35.613  1.00  0.00     0.148 A 
ATOM     69  C   UNL A   1      40.947  34.068  35.837  1.00  0.00     0.002 A 
ATOM     70  C   UNL A   1      39.061  32.708  36.531  1.00  0.00     0.091 A 
ATOM     71  F   UNL A   1      38.722  30.579  35.509  1.00  0.00    -0.205 F 
ATOM     72  C   UNL A   1      39.836  33.874  36.654  1.00  0.00     0.022 A 
BRANCH  70  73
ATOM     73  S   UNL A   1      37.602  32.589  37.569  1.00  0.00     0.127 S 
ATOM     74  O   UNL A   1      36.553  33.035  36.654  1.00  0.00    -0.237 OA
ATOM     75  O   UNL A   1      37.568  31.162  37.887  1.00  0.00    -0.237 OA
ATOM     76  O   UNL A   1      37.847  33.461  38.710  1.00  0.00    -0.744 OA
ENDBRANCH  70  73
ENDBRANCH  52  66
BRANCH  53  77
ATOM     77  C   UNL A   1      42.793  25.628  27.392  1.00  0.00     0.023 A 
ATOM     78  C   UNL A   1      43.658  26.062  26.368  1.00  0.00     0.012 A 
ATOM     79  C   UNL A   1      42.286  24.316  27.350  1.00  0.00     0.148 A 
ATOM     80  C   UNL A   1      43.982  25.219  25.304  1.00  0.00     0.002 A 
ATOM     81  C   UNL A   1      42.658  23.462  26.318  1.00  0.00     0.091 A 
ATOM     82  F   UNL A   1      41.450  23.927  28.323  1.00  0.00    -0.205 F 
ATOM     83  C   UNL A   1      43.490  23.918  25.284  1.00  0.00     0.022 A 
BRANCH  81  84
ATOM     84  S   UNL A   1      42.171  21.733  26.272  1.00  0.00     0.127 S 
ATOM     85  O   UNL A   1      40.749  21.831  25.950  1.00  0.00    -0.237 OA
ATOM     86  O   UNL A   1      43.012  21.214  25.193  1.00  0.00    -0.237 OA
ATOM     87  O   UNL A   1      42.483  21.199  27.590  1.00  0.00    -0.744 OA
ENDBRANCH  81  84
ENDBRANCH  53  77
BRANCH  65  88
ATOM     88  C   UNL A   1      45.339  26.653  33.815  1.00  0.00     0.023 A 
ATOM     89  C   UNL A   1      46.634  27.206  33.778  1.00  0.00     0.012 A 
ATOM     90  C   UNL A   1      45.087  25.547  34.651  1.00  0.00     0.148 A 
ATOM     91  C   UNL A   1      47.667  26.648  34.533  1.00  0.00     0.002 A 
ATOM     92  C   UNL A   1      46.106  25.028  35.439  1.00  0.00     0.091 A 
ATOM     93  F   UNL A   1      43.851  25.024  34.664  1.00  0.00    -0.205 F 
ATOM     94  C   UNL A   1      47.401  25.569  35.372  1.00  0.00     0.022 A 
BRANCH  92  95
ATOM     95  S   UNL A   1      45.834  23.704  36.625  1.00  0.00     0.127 S 
ATOM     96  O   UNL A   1      44.899  24.329  37.559  1.00  0.00    -0.237 OA
ATOM     97  O   UNL A   1      45.249  22.655  35.788  1.00  0.00    -0.237 OA
ATOM     98  O   UNL A   1      47.143  23.380  37.175  1.00  0.00    -0.744 OA
ENDBRANCH  92  95
ENDBRANCH  65  88
ENDBRANCH  39  40
ENDBRANCH  32  34
ENDBRANCH  31  32
ENDBRANCH  30  31
ENDBRANCH  29  30
ENDBRANCH  28  29
ENDBRANCH  27  28
ENDBRANCH   1  27
TORSDOF 23
ENDMDL
MODEL 2
REMARK VINA RESULT:     -11.1      1.393      7.518
REMARK SMILES CC(C)(CC(=O)Nc1cccc(C(=O)NC2CC2)c1)CC(=O)OCCOCCOC(=O)c1ccc(-c2c3nc(c(-c4cccc(S(=O)(=O)[O-])c4F)c4ccc([nH]4)c(-c4cccc(S(=O)(=O)[O-])c4F)c4nc(c(-c5cccc(S(=O)(=O)[O-])c5F)c5ccc2[nH]5)C=C4)C=C3)cc1
REMARK SMILES IDX 24 1 23 2 21 3 22 4 20 5 2 6 1 7 3 8 4 9 5 10 6 11 7 12 8 14
REMARK SMILES IDX 9 15 19 16 10 17 12 18 11 19 13 20 14 21 15 22 16 24 17 25
REMARK SMILES IDX 18 26 25 27 26 28 27 29 28 30 29 31 30 32 31 33 32 34 33 35
REMARK SMILES IDX 94 36 34 37 93 38 35 39 36 40 37 41 87 42 38 43 92 44 86 45
REMARK SMILES IDX 88 46 39 47 91 48 85 49 84 50 40 52 72 53 52 54 71 55 53 56
REMARK SMILES IDX 56 57 70 58 89 59 54 60 55 61 69 63 90 64 57 65 41 66 42 67
REMARK SMILES IDX 50 68 43 69 45 70 51 71 44 72 46 73 47 74 48 75 49 76 73 77
REMARK SMILES IDX 74 78 82 79 75 80 77 81 83 82 76 83 78 84 79 85 80 86 81 87
REMARK SMILES IDX 58 88 59 89 67 90 60 91 62 92 68 93 61 94 63 95 64 96 65 97
REMARK SMILES IDX 66 98
REMARK H PARENT 7 13 15 23 88 51 56 62
REMARK Flexibility Score: inf
ROOT
ATOM      1  C   UNL A   1      32.774  26.356  24.161  1.00  0.00     0.261 C 
ENDROOT
BRANCH   1   2
ATOM      2  O   UNL A   1      33.866  25.473  24.513  1.00  0.00    -0.463 OA
BRANCH   2   3
ATOM      3  C   UNL A   1      34.357  24.644  23.569  1.00  0.00     0.306 C 
ATOM      4  O   UNL A   1      34.088  24.719  22.376  1.00  0.00    -0.252 OA
BRANCH   3   5
ATOM      5  C   UNL A   1      35.114  23.467  24.169  1.00  0.00     0.129 C 
BRANCH   5   6
ATOM      6  C   UNL A   1      35.430  23.251  25.677  1.00  0.00    -0.016 C 
ATOM      7  C   UNL A   1      36.702  23.916  26.211  1.00  0.00     0.012 C 
ATOM      8  C   UNL A   1      35.838  21.741  25.770  1.00  0.00     0.012 C 
BRANCH   6   9
ATOM      9  C   UNL A   1      34.253  23.484  26.645  1.00  0.00     0.107 C 
BRANCH   9  10
ATOM     10  C   UNL A   1      33.226  22.437  27.065  1.00  0.00     0.224 C 
ATOM     11  O   UNL A   1      32.921  22.375  28.268  1.00  0.00    -0.275 OA
ATOM     12  N   UNL A   1      32.427  21.701  26.260  1.00  0.00    -0.326 N 
ATOM     13  H   UNL A   1      31.644  21.379  26.763  1.00  0.00     0.169 HD
BRANCH  12  14
ATOM     14  C   UNL A   1      32.364  21.253  24.940  1.00  0.00     0.041 A 
ATOM     15  C   UNL A   1      31.995  22.175  23.961  1.00  0.00     0.026 A 
ATOM     16  C   UNL A   1      32.397  19.904  24.598  1.00  0.00     0.040 A 
ATOM     17  C   UNL A   1      31.814  21.767  22.641  1.00  0.00     0.003 A 
ATOM     18  C   UNL A   1      32.343  19.470  23.271  1.00  0.00     0.041 A 
ATOM     19  C   UNL A   1      32.026  20.433  22.295  1.00  0.00     0.014 A 
BRANCH  18  20
ATOM     20  C   UNL A   1      32.668  18.093  22.772  1.00  0.00     0.251 C 
ATOM     21  O   UNL A   1      32.164  17.737  21.700  1.00  0.00    -0.269 OA
ATOM     22  N   UNL A   1      33.534  17.183  23.339  1.00  0.00    -0.349 N 
ATOM     23  H   UNL A   1      33.699  16.414  22.748  1.00  0.00     0.164 HD
BRANCH  22  24
ATOM     24  C   UNL A   1      34.251  17.074  24.563  1.00  0.00     0.082 C 
ATOM     25  C   UNL A   1      33.608  16.454  25.769  1.00  0.00     0.027 C 
ATOM     26  C   UNL A   1      34.705  15.724  25.054  1.00  0.00     0.027 C 
ENDBRANCH  22  24
ENDBRANCH  18  20
ENDBRANCH  12  14
ENDBRANCH   9  10
ENDBRANCH   6   9
ENDBRANCH   5   6
ENDBRANCH   3   5
ENDBRANCH   2   3
ENDBRANCH   1   2
BRANCH   1  27
ATOM     27  C   UNL A   1      32.423  27.394  25.232  1.00  0.00     0.202 C 
BRANCH  27  28
ATOM     28  O   UNL A   1      32.550  28.751  24.798  1.00  0.00    -0.374 OA
BRANCH  28  29
ATOM     29  C   UNL A   1      31.343  29.510  24.848  1.00  0.00     0.202 C 
BRANCH  29  30
ATOM     30  C   UNL A   1      31.437  30.747  25.752  1.00  0.00     0.261 C 
BRANCH  30  31
ATOM     31  O   UNL A   1      32.474  30.563  26.739  1.00  0.00    -0.460 OA
BRANCH  31  32
ATOM     32  C   UNL A   1      33.085  31.691  27.174  1.00  0.00     0.338 C 
ATOM     33  O   UNL A   1      32.597  32.798  27.277  1.00  0.00    -0.246 OA
BRANCH  32  34
ATOM     34  C   UNL A   1      34.418  31.331  27.706  1.00  0.00     0.060 A 
ATOM     35  C   UNL A   1      34.682  29.975  27.909  1.00  0.00     0.016 A 
ATOM     36  C   UNL A   1      35.388  32.286  28.016  1.00  0.00     0.016 A 
ATOM     37  C   UNL A   1      35.892  29.580  28.480  1.00  0.00     0.010 A 
ATOM     38  C   UNL A   1      36.634  31.880  28.509  1.00  0.00     0.010 A 
ATOM     39  C   UNL A   1      36.868  30.529  28.819  1.00  0.00    -0.014 A 
BRANCH  39  40
ATOM     40  C   UNL A   1      38.025  30.121  29.670  1.00  0.00     0.031 A 
ATOM     41  C   UNL A   1      39.089  29.221  29.085  1.00  0.00     0.074 A 
ATOM     42  C   UNL A   1      38.176  30.590  30.924  1.00  0.00     0.049 A 
ATOM     43  N   UNL A   1      40.229  28.841  29.604  1.00  0.00    -0.248 NA
ATOM     44  C   UNL A   1      38.838  28.669  27.743  1.00  0.00     0.031 C 
ATOM     45  C   UNL A   1      37.219  31.434  31.637  1.00  0.00     0.029 A 
ATOM     46  N   UNL A   1      39.204  30.420  31.822  1.00  0.00    -0.354 N 
ATOM     47  C   UNL A   1      40.809  27.990  28.669  1.00  0.00     0.074 A 
ATOM     48  C   UNL A   1      39.880  27.873  27.569  1.00  0.00     0.031 C 
ATOM     49  C   UNL A   1      37.711  31.723  32.854  1.00  0.00     0.029 A 
ATOM     50  C   UNL A   1      39.008  31.069  33.020  1.00  0.00     0.049 A 
ATOM     51  H   UNL A   1      40.006  29.884  31.627  1.00  0.00     0.167 HD
ATOM     52  C   UNL A   1      42.019  27.383  28.695  1.00  0.00     0.034 A 
ATOM     53  C   UNL A   1      39.784  31.131  34.123  1.00  0.00     0.034 A 
ATOM     54  C   UNL A   1      42.972  27.524  29.760  1.00  0.00     0.049 A 
ATOM     55  C   UNL A   1      41.130  30.448  34.127  1.00  0.00     0.074 A 
ATOM     56  C   UNL A   1      44.255  27.011  29.836  1.00  0.00     0.029 A 
ATOM     57  N   UNL A   1      42.745  28.212  30.939  1.00  0.00    -0.354 N 
ATOM     58  N   UNL A   1      41.723  29.780  33.169  1.00  0.00    -0.248 NA
ATOM     59  C   UNL A   1      41.930  30.561  35.359  1.00  0.00     0.031 C 
ATOM     60  C   UNL A   1      44.789  27.355  31.081  1.00  0.00     0.029 A 
ATOM     61  C   UNL A   1      43.854  28.119  31.761  1.00  0.00     0.049 A 
ATOM     62  H   UNL A   1      41.916  28.697  31.161  1.00  0.00     0.167 HD
ATOM     63  C   UNL A   1      42.976  29.430  33.665  1.00  0.00     0.074 A 
ATOM     64  C   UNL A   1      43.065  29.976  35.002  1.00  0.00     0.031 C 
ATOM     65  C   UNL A   1      43.960  28.711  33.070  1.00  0.00     0.034 A 
BRANCH  52  66
ATOM     66  C   UNL A   1      42.400  26.532  27.512  1.00  0.00     0.023 A 
ATOM     67  C   UNL A   1      43.182  27.079  26.474  1.00  0.00     0.012 A 
ATOM     68  C   UNL A   1      42.030  25.174  27.456  1.00  0.00     0.148 A 
ATOM     69  C   UNL A   1      43.559  26.299  25.382  1.00  0.00     0.002 A 
ATOM     70  C   UNL A   1      42.451  24.390  26.389  1.00  0.00     0.091 A 
ATOM     71  F   UNL A   1      41.267  24.678  28.441  1.00  0.00    -0.205 F 
ATOM     72  C   UNL A   1      43.204  24.954  25.345  1.00  0.00     0.022 A 
BRANCH  70  73
ATOM     73  S   UNL A   1      42.117  22.629  26.291  1.00  0.00     0.127 S 
ATOM     74  O   UNL A   1      42.725  22.285  25.007  1.00  0.00    -0.237 OA
ATOM     75  O   UNL A   1      42.829  22.116  27.461  1.00  0.00    -0.237 OA
ATOM     76  O   UNL A   1      40.668  22.491  26.352  1.00  0.00    -0.744 OA
ENDBRANCH  70  73
ENDBRANCH  52  66
BRANCH  53  77
ATOM     77  C   UNL A   1      39.336  31.915  35.311  1.00  0.00     0.023 A 
ATOM     78  C   UNL A   1      38.475  31.321  36.256  1.00  0.00     0.012 A 
ATOM     79  C   UNL A   1      39.751  33.246  35.504  1.00  0.00     0.148 A 
ATOM     80  C   UNL A   1      38.007  32.050  37.350  1.00  0.00     0.002 A 
ATOM     81  C   UNL A   1      39.328  33.948  36.627  1.00  0.00     0.091 A 
ATOM     82  F   UNL A   1      40.556  33.799  34.586  1.00  0.00    -0.205 F 
ATOM     83  C   UNL A   1      38.439  33.359  37.540  1.00  0.00     0.022 A 
BRANCH  81  84
ATOM     84  S   UNL A   1      39.927  35.596  37.018  1.00  0.00     0.127 S 
ATOM     85  O   UNL A   1      39.211  35.889  38.257  1.00  0.00    -0.237 OA
ATOM     86  O   UNL A   1      41.362  35.362  37.177  1.00  0.00    -0.237 OA
ATOM     87  O   UNL A   1      39.575  36.427  35.875  1.00  0.00    -0.744 OA
ENDBRANCH  81  84
ENDBRANCH  53  77
BRANCH  65  88
ATOM     88  C   UNL A   1      45.246  28.499  33.828  1.00  0.00     0.023 A 
ATOM     89  C   UNL A   1      46.309  29.413  33.687  1.00  0.00     0.012 A 
ATOM     90  C   UNL A   1      45.370  27.436  34.747  1.00  0.00     0.148 A 
ATOM     91  C   UNL A   1      47.485  29.254  34.420  1.00  0.00     0.002 A 
ATOM     92  C   UNL A   1      46.523  27.313  35.511  1.00  0.00     0.091 A 
ATOM     93  F   UNL A   1      44.354  26.567  34.860  1.00  0.00    -0.205 F 
ATOM     94  C   UNL A   1      47.588  28.213  35.340  1.00  0.00     0.022 A 
BRANCH  92  95
ATOM     95  S   UNL A   1      46.705  26.066  36.793  1.00  0.00     0.127 S 
ATOM     96  O   UNL A   1      47.858  25.308  36.308  1.00  0.00    -0.237 OA
ATOM     97  O   UNL A   1      46.966  26.879  37.982  1.00  0.00    -0.237 OA
ATOM     98  O   UNL A   1      45.446  25.335  36.825  1.00  0.00    -0.744 OA
ENDBRANCH  92  95
ENDBRANCH  65  88
ENDBRANCH  39  40
ENDBRANCH  32  34
ENDBRANCH  31  32
ENDBRANCH  30  31
ENDBRANCH  29  30
ENDBRANCH  28  29
ENDBRANCH  27  28
ENDBRANCH   1  27
TORSDOF 23
ENDMDL
MODEL 3
REMARK VINA RESULT:     -10.9      1.996      2.311
REMARK SMILES CC(C)(CC(=O)Nc1cccc(C(=O)NC2CC2)c1)CC(=O)OCCOCCOC(=O)c1ccc(-c2c3nc(c(-c4cccc(S(=O)(=O)[O-])c4F)c4ccc([nH]4)c(-c4cccc(S(=O)(=O)[O-])c4F)c4nc(c(-c5cccc(S(=O)(=O)[O-])c5F)c5ccc2[nH]5)C=C4)C=C3)cc1
REMARK SMILES IDX 24 1 23 2 21 3 22 4 20 5 2 6 1 7 3 8 4 9 5 10 6 11 7 12 8 14
REMARK SMILES IDX 9 15 19 16 10 17 12 18 11 19 13 20 14 21 15 22 16 24 17 25
REMARK SMILES IDX 18 26 25 27 26 28 27 29 28 30 29 31 30 32 31 33 32 34 33 35
REMARK SMILES IDX 94 36 34 37 93 38 35 39 36 40 37 41 87 42 38 43 92 44 86 45
REMARK SMILES IDX 88 46 39 47 91 48 85 49 84 50 40 52 72 53 52 54 71 55 53 56
REMARK SMILES IDX 56 57 70 58 89 59 54 60 55 61 69 63 90 64 57 65 41 66 42 67
REMARK SMILES IDX 50 68 43 69 45 70 51 71 44 72 46 73 47 74 48 75 49 76 73 77
REMARK SMILES IDX 74 78 82 79 75 80 77 81 83 82 76 83 78 84 79 85 80 86 81 87
REMARK SMILES IDX 58 88 59 89 67 90 60 91 62 92 68 93 61 94 63 95 64 96 65 97
REMARK SMILES IDX 66 98
REMARK H PARENT 7 13 15 23 88 51 56 62
REMARK Flexibility Score: inf
ROOT
ATOM      1  C   UNL A   1      33.342  26.378  24.322  1.00  0.00     0.261 C 
ENDROOT
BRANCH   1   2
ATOM      2  O   UNL A   1      34.505  25.518  24.402  1.00  0.00    -0.463 OA
BRANCH   2   3
ATOM      3  C   UNL A   1      34.616  24.500  23.524  1.00  0.00     0.306 C 
ATOM      4  O   UNL A   1      34.135  24.502  22.398  1.00  0.00    -0.252 OA
BRANCH   3   5
ATOM      5  C   UNL A   1      35.219  23.253  24.158  1.00  0.00     0.129 C 
BRANCH   5   6
ATOM      6  C   UNL A   1      35.565  23.064  25.664  1.00  0.00    -0.016 C 
ATOM      7  C   UNL A   1      36.876  23.689  26.148  1.00  0.00     0.012 C 
ATOM      8  C   UNL A   1      35.914  21.541  25.788  1.00  0.00     0.012 C 
BRANCH   6   9
ATOM      9  C   UNL A   1      34.423  23.370  26.653  1.00  0.00     0.107 C 
BRANCH   9  10
ATOM     10  C   UNL A   1      33.327  22.398  27.076  1.00  0.00     0.224 C 
ATOM     11  O   UNL A   1      33.018  22.360  28.278  1.00  0.00    -0.275 OA
ATOM     12  N   UNL A   1      32.479  21.716  26.272  1.00  0.00    -0.326 N 
ATOM     13  H   UNL A   1      31.676  21.450  26.776  1.00  0.00     0.169 HD
BRANCH  12  14
ATOM     14  C   UNL A   1      32.386  21.269  24.953  1.00  0.00     0.041 A 
ATOM     15  C   UNL A   1      32.057  22.208  23.975  1.00  0.00     0.026 A 
ATOM     16  C   UNL A   1      32.350  19.920  24.613  1.00  0.00     0.040 A 
ATOM     17  C   UNL A   1      31.846  21.808  22.657  1.00  0.00     0.003 A 
ATOM     18  C   UNL A   1      32.266  19.488  23.288  1.00  0.00     0.041 A 
ATOM     19  C   UNL A   1      31.990  20.464  22.313  1.00  0.00     0.014 A 
BRANCH  18  20
ATOM     20  C   UNL A   1      32.520  18.096  22.789  1.00  0.00     0.251 C 
ATOM     21  O   UNL A   1      32.298  17.865  21.594  1.00  0.00    -0.269 OA
ATOM     22  N   UNL A   1      33.047  17.038  23.499  1.00  0.00    -0.349 N 
ATOM     23  H   UNL A   1      33.262  16.275  22.917  1.00  0.00     0.164 HD
BRANCH  22  24
ATOM     24  C   UNL A   1      33.359  16.771  24.860  1.00  0.00     0.082 C 
ATOM     25  C   UNL A   1      32.519  15.821  25.662  1.00  0.00     0.027 C 
ATOM     26  C   UNL A   1      33.907  15.425  25.259  1.00  0.00     0.027 C 
ENDBRANCH  22  24
ENDBRANCH  18  20
ENDBRANCH  12  14
ENDBRANCH   9  10
ENDBRANCH   6   9
ENDBRANCH   5   6
ENDBRANCH   3   5
ENDBRANCH   2   3
ENDBRANCH   1   2
BRANCH   1  27
ATOM     27  C   UNL A   1      33.032  27.149  25.609  1.00  0.00     0.202 C 
BRANCH  27  28
ATOM     28  O   UNL A   1      32.978  28.569  25.443  1.00  0.00    -0.374 OA
BRANCH  28  29
ATOM     29  C   UNL A   1      32.070  29.238  26.317  1.00  0.00     0.202 C 
BRANCH  29  30
ATOM     30  C   UNL A   1      32.639  30.532  26.915  1.00  0.00     0.261 C 
BRANCH  30  31
ATOM     31  O   UNL A   1      33.875  30.255  27.608  1.00  0.00    -0.460 OA
BRANCH  31  32
ATOM     32  C   UNL A   1      34.726  31.301  27.739  1.00  0.00     0.338 C 
ATOM     33  O   UNL A   1      34.508  32.465  27.473  1.00  0.00    -0.246 OA
BRANCH  32  34
ATOM     34  C   UNL A   1      35.935  30.838  28.458  1.00  0.00     0.060 A 
ATOM     35  C   UNL A   1      37.097  31.597  28.313  1.00  0.00     0.016 A 
ATOM     36  C   UNL A   1      35.947  29.685  29.246  1.00  0.00     0.016 A 
ATOM     37  C   UNL A   1      38.287  31.169  28.904  1.00  0.00     0.010 A 
ATOM     38  C   UNL A   1      37.121  29.305  29.908  1.00  0.00     0.010 A 
ATOM     39  C   UNL A   1      38.321  30.000  29.679  1.00  0.00    -0.014 A 
BRANCH  39  40
ATOM     40  C   UNL A   1      39.638  29.417  30.069  1.00  0.00     0.031 A 
ATOM     41  C   UNL A   1      40.331  29.926  31.312  1.00  0.00     0.074 A 
ATOM     42  C   UNL A   1      40.191  28.402  29.375  1.00  0.00     0.049 A 
ATOM     43  N   UNL A   1      41.417  29.483  31.895  1.00  0.00    -0.248 NA
ATOM     44  C   UNL A   1      39.731  31.089  31.987  1.00  0.00     0.031 C 
ATOM     45  C   UNL A   1      39.661  27.830  28.139  1.00  0.00     0.029 A 
ATOM     46  N   UNL A   1      41.328  27.668  29.623  1.00  0.00    -0.354 N 
ATOM     47  C   UNL A   1      41.639  30.327  32.978  1.00  0.00     0.074 A 
ATOM     48  C   UNL A   1      40.604  31.334  32.950  1.00  0.00     0.031 C 
ATOM     49  C   UNL A   1      40.462  26.824  27.744  1.00  0.00     0.029 A 
ATOM     50  C   UNL A   1      41.573  26.690  28.685  1.00  0.00     0.049 A 
ATOM     51  H   UNL A   1      41.913  27.827  30.398  1.00  0.00     0.167 HD
ATOM     52  C   UNL A   1      42.594  30.260  33.936  1.00  0.00     0.034 A 
ATOM     53  C   UNL A   1      42.574  25.790  28.596  1.00  0.00     0.034 A 
ATOM     54  C   UNL A   1      43.603  29.241  34.002  1.00  0.00     0.049 A 
ATOM     55  C   UNL A   1      43.626  25.734  29.677  1.00  0.00     0.074 A 
ATOM     56  C   UNL A   1      44.562  29.047  34.981  1.00  0.00     0.029 A 
ATOM     57  N   UNL A   1      43.797  28.256  33.050  1.00  0.00    -0.354 N 
ATOM     58  N   UNL A   1      43.724  26.442  30.774  1.00  0.00    -0.248 NA
ATOM     59  C   UNL A   1      44.687  24.724  29.522  1.00  0.00     0.031 C 
ATOM     60  C   UNL A   1      45.363  27.968  34.599  1.00  0.00     0.029 A 
ATOM     61  C   UNL A   1      44.874  27.463  33.405  1.00  0.00     0.049 A 
ATOM     62  H   UNL A   1      43.249  28.136  32.241  1.00  0.00     0.167 HD
ATOM     63  C   UNL A   1      44.827  25.939  31.458  1.00  0.00     0.074 A 
ATOM     64  C   UNL A   1      45.354  24.852  30.660  1.00  0.00     0.031 C 
ATOM     65  C   UNL A   1      45.363  26.347  32.635  1.00  0.00     0.034 A 
BRANCH  52  66
ATOM     66  C   UNL A   1      42.571  31.307  35.019  1.00  0.00     0.023 A 
ATOM     67  C   UNL A   1      41.888  31.056  36.226  1.00  0.00     0.012 A 
ATOM     68  C   UNL A   1      43.274  32.517  34.862  1.00  0.00     0.148 A 
ATOM     69  C   UNL A   1      41.874  32.006  37.246  1.00  0.00     0.002 A 
ATOM     70  C   UNL A   1      43.297  33.439  35.902  1.00  0.00     0.091 A 
ATOM     71  F   UNL A   1      43.898  32.748  33.698  1.00  0.00    -0.205 F 
ATOM     72  C   UNL A   1      42.587  33.191  37.088  1.00  0.00     0.022 A 
BRANCH  70  73
ATOM     73  S   UNL A   1      44.253  34.957  35.829  1.00  0.00     0.127 S 
ATOM     74  O   UNL A   1      43.616  35.652  34.712  1.00  0.00    -0.237 OA
ATOM     75  O   UNL A   1      43.994  35.546  37.142  1.00  0.00    -0.237 OA
ATOM     76  O   UNL A   1      45.635  34.552  35.606  1.00  0.00    -0.744 OA
ENDBRANCH  70  73
ENDBRANCH  52  66
BRANCH  53  77
ATOM     77  C   UNL A   1      42.613  24.822  27.460  1.00  0.00     0.023 A 
ATOM     78  C   UNL A   1      43.335  25.141  26.293  1.00  0.00     0.012 A 
ATOM     79  C   UNL A   1      41.930  23.593  27.529  1.00  0.00     0.148 A 
ATOM     80  C   UNL A   1      43.346  24.271  25.202  1.00  0.00     0.002 A 
ATOM     81  C   UNL A   1      41.992  22.705  26.460  1.00  0.00     0.091 A 
ATOM     82  F   UNL A   1      41.234  23.314  28.640  1.00  0.00    -0.205 F 
ATOM     83  C   UNL A   1      42.683  23.051  25.289  1.00  0.00     0.022 A 
BRANCH  81  84
ATOM     84  S   UNL A   1      41.271  21.062  26.528  1.00  0.00     0.127 S 
ATOM     85  O   UNL A   1      39.862  21.342  26.259  1.00  0.00    -0.237 OA
ATOM     86  O   UNL A   1      41.979  20.379  25.445  1.00  0.00    -0.237 OA
ATOM     87  O   UNL A   1      41.570  20.552  27.858  1.00  0.00    -0.744 OA
ENDBRANCH  81  84
ENDBRANCH  53  77
BRANCH  65  88
ATOM     88  C   UNL A   1      46.557  25.600  33.172  1.00  0.00     0.023 A 
ATOM     89  C   UNL A   1      47.858  26.088  32.942  1.00  0.00     0.012 A 
ATOM     90  C   UNL A   1      46.384  24.456  33.979  1.00  0.00     0.148 A 
ATOM     91  C   UNL A   1      48.968  25.431  33.475  1.00  0.00     0.002 A 
ATOM     92  C   UNL A   1      47.489  23.837  34.548  1.00  0.00     0.091 A 
ATOM     93  F   UNL A   1      45.138  23.997  34.177  1.00  0.00    -0.205 F 
ATOM     94  C   UNL A   1      48.783  24.315  34.287  1.00  0.00     0.022 A 
BRANCH  92  95
ATOM     95  S   UNL A   1      47.342  22.455  35.689  1.00  0.00     0.127 S 
ATOM     96  O   UNL A   1      46.659  21.460  34.864  1.00  0.00    -0.237 OA
ATOM     97  O   UNL A   1      48.742  22.146  35.983  1.00  0.00    -0.237 OA
ATOM     98  O   UNL A   1      46.580  22.952  36.827  1.00  0.00    -0.744 OA
ENDBRANCH  92  95
ENDBRANCH  65  88
ENDBRANCH  39  40
ENDBRANCH  32  34
ENDBRANCH  31  32
ENDBRANCH  30  31
ENDBRANCH  29  30
ENDBRANCH  28  29
ENDBRANCH  27  28
ENDBRANCH   1  27
TORSDOF 23
ENDMDL
