MODEL 1
REMARK VINA RESULT:     -11.8      0.000      0.000
REMARK SMILES Cc1cc(F)c(-c2ccc(F)c(C(=O)OCCOCCOC(=O)c3ccc(-c4c5nc(c(-c6cccc(S(=O)(=O)[O-])c6F)c6ccc([nH]6)c(-c6cccc(S(=O)(=O)[O-])c6F)c6nc(c(-c7cccc(S(=O)(=O)[O-])c7F)c7ccc4[nH]7)C=C6)C=C5)cc3)c2)cc1F
REMARK SMILES IDX 19 1 18 2 17 3 16 4 15 5 13 6 14 7 12 8 7 9 8 10 87 11 9 12
REMARK SMILES IDX 10 13 11 14 6 15 1 16 2 17 3 18 89 19 4 20 88 21 90 22 5 23
REMARK SMILES IDX 20 24 21 25 22 26 23 27 24 28 25 29 86 30 26 31 85 32 27 33
REMARK SMILES IDX 28 34 29 35 79 36 30 37 84 38 78 39 80 40 31 41 83 42 77 43
REMARK SMILES IDX 76 44 32 46 64 47 44 48 63 49 45 50 48 51 62 52 81 53 46 54
REMARK SMILES IDX 47 55 61 57 82 58 49 59 33 60 34 61 42 62 35 63 37 64 43 65
REMARK SMILES IDX 36 66 38 67 39 68 40 69 41 70 65 71 66 72 74 73 67 74 69 75
REMARK SMILES IDX 75 76 68 77 70 78 71 79 72 80 73 81 50 82 51 83 59 84 52 85
REMARK SMILES IDX 54 86 60 87 53 88 55 89 56 90 57 91 58 92
REMARK H PARENT 80 45 48 56
REMARK Flexibility Score: inf
ROOT
ATOM      1  C   UNL A   1      31.460  28.934  24.946  1.00  0.00     0.202 C 
ENDROOT
BRANCH   1   2
ATOM      2  O   UNL A   1      30.588  28.768  23.829  1.00  0.00    -0.374 OA
BRANCH   2   3
ATOM      3  C   UNL A   1      30.214  27.441  23.465  1.00  0.00     0.202 C 
BRANCH   3   4
ATOM      4  C   UNL A   1      31.272  26.342  23.619  1.00  0.00     0.261 C 
BRANCH   4   5
ATOM      5  O   UNL A   1      30.791  25.258  24.429  1.00  0.00    -0.460 OA
BRANCH   5   6
ATOM      6  C   UNL A   1      31.397  25.132  25.637  1.00  0.00     0.341 C 
ATOM      7  O   UNL A   1      30.947  25.462  26.721  1.00  0.00    -0.246 OA
BRANCH   6   8
ATOM      8  C   UNL A   1      32.656  24.382  25.474  1.00  0.00     0.096 A 
ATOM      9  C   UNL A   1      33.909  22.335  25.021  1.00  0.00    -0.014 A 
ATOM     10  C   UNL A   1      35.098  23.080  25.169  1.00  0.00     0.012 A 
ATOM     11  C   UNL A   1      32.683  23.007  25.194  1.00  0.00     0.027 A 
ATOM     12  C   UNL A   1      35.070  24.440  25.479  1.00  0.00     0.041 A 
ATOM     13  C   UNL A   1      33.851  25.083  25.625  1.00  0.00     0.137 A 
ATOM     14  F   UNL A   1      33.860  26.381  25.958  1.00  0.00    -0.206 F 
BRANCH   9  15
ATOM     15  C   UNL A   1      33.981  20.909  24.642  1.00  0.00     0.020 A 
ATOM     16  C   UNL A   1      34.018  16.619  23.979  1.00  0.00     0.047 C 
ATOM     17  C   UNL A   1      34.029  18.108  24.142  1.00  0.00    -0.012 A 
ATOM     18  C   UNL A   1      35.158  18.760  24.645  1.00  0.00     0.046 A 
ATOM     19  C   UNL A   1      32.892  18.869  23.872  1.00  0.00     0.126 A 
ATOM     20  C   UNL A   1      35.128  20.136  24.885  1.00  0.00     0.131 A 
ATOM     21  C   UNL A   1      32.866  20.246  24.103  1.00  0.00     0.051 A 
ATOM     22  F   UNL A   1      31.783  18.276  23.409  1.00  0.00    -0.207 F 
ATOM     23  F   UNL A   1      36.223  20.702  25.416  1.00  0.00    -0.206 F 
ENDBRANCH   9  15
ENDBRANCH   6   8
ENDBRANCH   5   6
ENDBRANCH   4   5
ENDBRANCH   3   4
ENDBRANCH   2   3
ENDBRANCH   1   2
BRANCH   1  24
ATOM     24  C   UNL A   1      31.723  30.359  25.450  1.00  0.00     0.261 C 
BRANCH  24  25
ATOM     25  O   UNL A   1      32.221  30.394  26.797  1.00  0.00    -0.460 OA
BRANCH  25  26
ATOM     26  C   UNL A   1      32.885  31.530  27.135  1.00  0.00     0.338 C 
ATOM     27  O   UNL A   1      32.440  32.666  27.142  1.00  0.00    -0.246 OA
BRANCH  26  28
ATOM     28  C   UNL A   1      34.198  31.167  27.700  1.00  0.00     0.060 A 
ATOM     29  C   UNL A   1      35.150  32.141  28.002  1.00  0.00     0.016 A 
ATOM     30  C   UNL A   1      34.464  29.812  27.943  1.00  0.00     0.016 A 
ATOM     31  C   UNL A   1      36.368  31.754  28.567  1.00  0.00     0.010 A 
ATOM     32  C   UNL A   1      35.680  29.429  28.506  1.00  0.00     0.010 A 
ATOM     33  C   UNL A   1      36.637  30.398  28.835  1.00  0.00    -0.014 A 
BRANCH  33  34
ATOM     34  C   UNL A   1      37.861  30.019  29.582  1.00  0.00     0.031 A 
ATOM     35  C   UNL A   1      38.136  30.532  30.963  1.00  0.00     0.074 A 
ATOM     36  C   UNL A   1      38.755  29.215  28.974  1.00  0.00     0.049 A 
ATOM     37  N   UNL A   1      39.112  30.211  31.772  1.00  0.00    -0.248 NA
ATOM     38  C   UNL A   1      37.209  31.535  31.508  1.00  0.00     0.031 C 
ATOM     39  C   UNL A   1      38.630  28.709  27.606  1.00  0.00     0.029 A 
ATOM     40  N   UNL A   1      39.937  28.685  29.422  1.00  0.00    -0.354 N 
ATOM     41  C   UNL A   1      38.932  30.978  32.914  1.00  0.00     0.074 A 
ATOM     42  C   UNL A   1      37.756  31.793  32.690  1.00  0.00     0.031 C 
ATOM     43  C   UNL A   1      39.679  27.918  27.335  1.00  0.00     0.029 A 
ATOM     44  C   UNL A   1      40.559  27.877  28.500  1.00  0.00     0.049 A 
ATOM     45  H   UNL A   1      40.306  28.866  30.317  1.00  0.00     0.167 HD
ATOM     46  C   UNL A   1      39.670  30.988  34.049  1.00  0.00     0.034 A 
ATOM     47  C   UNL A   1      41.703  27.170  28.581  1.00  0.00     0.034 A 
ATOM     48  C   UNL A   1      40.831  30.166  34.272  1.00  0.00     0.049 A 
ATOM     49  C   UNL A   1      42.493  27.183  29.855  1.00  0.00     0.074 A 
ATOM     50  C   UNL A   1      41.584  30.046  35.427  1.00  0.00     0.029 A 
ATOM     51  N   UNL A   1      41.422  29.350  33.322  1.00  0.00    -0.354 N 
ATOM     52  N   UNL A   1      42.220  27.794  30.982  1.00  0.00    -0.248 NA
ATOM     53  C   UNL A   1      43.734  26.395  29.883  1.00  0.00     0.031 C 
ATOM     54  C   UNL A   1      42.651  29.181  35.166  1.00  0.00     0.029 A 
ATOM     55  C   UNL A   1      42.545  28.740  33.856  1.00  0.00     0.049 A 
ATOM     56  H   UNL A   1      41.093  29.222  32.403  1.00  0.00     0.167 HD
ATOM     57  C   UNL A   1      43.240  27.450  31.860  1.00  0.00     0.074 A 
ATOM     58  C   UNL A   1      44.135  26.568  31.137  1.00  0.00     0.031 C 
ATOM     59  C   UNL A   1      43.417  27.840  33.145  1.00  0.00     0.034 A 
BRANCH  46  60
ATOM     60  C   UNL A   1      39.231  31.888  35.171  1.00  0.00     0.023 A 
ATOM     61  C   UNL A   1      38.305  31.407  36.119  1.00  0.00     0.012 A 
ATOM     62  C   UNL A   1      39.814  33.157  35.350  1.00  0.00     0.148 A 
ATOM     63  C   UNL A   1      37.955  32.184  37.222  1.00  0.00     0.002 A 
ATOM     64  C   UNL A   1      39.483  33.913  36.468  1.00  0.00     0.091 A 
ATOM     65  F   UNL A   1      40.684  33.594  34.429  1.00  0.00    -0.205 F 
ATOM     66  C   UNL A   1      38.550  33.430  37.402  1.00  0.00     0.022 A 
BRANCH  64  67
ATOM     67  S   UNL A   1      40.230  35.508  36.821  1.00  0.00     0.127 S 
ATOM     68  O   UNL A   1      39.902  35.677  38.236  1.00  0.00    -0.237 OA
ATOM     69  O   UNL A   1      41.644  35.251  36.549  1.00  0.00    -0.237 OA
ATOM     70  O   UNL A   1      39.596  36.459  35.919  1.00  0.00    -0.744 OA
ENDBRANCH  64  67
ENDBRANCH  46  60
BRANCH  47  71
ATOM     71  C   UNL A   1      42.099  26.323  27.426  1.00  0.00     0.023 A 
ATOM     72  C   UNL A   1      42.949  26.864  26.443  1.00  0.00     0.012 A 
ATOM     73  C   UNL A   1      41.740  24.964  27.363  1.00  0.00     0.148 A 
ATOM     74  C   UNL A   1      43.441  26.060  25.415  1.00  0.00     0.002 A 
ATOM     75  C   UNL A   1      42.262  24.161  26.357  1.00  0.00     0.091 A 
ATOM     76  F   UNL A   1      40.938  24.478  28.321  1.00  0.00    -0.205 F 
ATOM     77  C   UNL A   1      43.108  24.708  25.379  1.00  0.00     0.022 A 
BRANCH  75  78
ATOM     78  S   UNL A   1      41.972  22.390  26.279  1.00  0.00     0.127 S 
ATOM     79  O   UNL A   1      40.521  22.332  26.122  1.00  0.00    -0.237 OA
ATOM     80  O   UNL A   1      42.736  22.019  25.088  1.00  0.00    -0.237 OA
ATOM     81  O   UNL A   1      42.483  21.847  27.529  1.00  0.00    -0.744 OA
ENDBRANCH  75  78
ENDBRANCH  47  71
BRANCH  59  82
ATOM     82  C   UNL A   1      44.620  27.327  33.887  1.00  0.00     0.023 A 
ATOM     83  C   UNL A   1      45.800  28.097  33.912  1.00  0.00     0.012 A 
ATOM     84  C   UNL A   1      44.536  26.158  34.668  1.00  0.00     0.148 A 
ATOM     85  C   UNL A   1      46.880  27.708  34.703  1.00  0.00     0.002 A 
ATOM     86  C   UNL A   1      45.604  25.795  35.481  1.00  0.00     0.091 A 
ATOM     87  F   UNL A   1      43.405  25.440  34.622  1.00  0.00    -0.205 F 
ATOM     88  C   UNL A   1      46.777  26.567  35.497  1.00  0.00     0.022 A 
BRANCH  86  89
ATOM     89  S   UNL A   1      45.543  24.384  36.591  1.00  0.00     0.127 S 
ATOM     90  O   UNL A   1      46.843  24.470  37.255  1.00  0.00    -0.237 OA
ATOM     91  O   UNL A   1      44.399  24.711  37.443  1.00  0.00    -0.237 OA
ATOM     92  O   UNL A   1      45.359  23.210  35.747  1.00  0.00    -0.744 OA
ENDBRANCH  86  89
ENDBRANCH  59  82
ENDBRANCH  33  34
ENDBRANCH  26  28
ENDBRANCH  25  26
ENDBRANCH  24  25
ENDBRANCH   1  24
TORSDOF 18
ENDMDL
MODEL 2
REMARK VINA RESULT:     -11.7      5.062     10.428
REMARK SMILES Cc1cc(F)c(-c2ccc(F)c(C(=O)OCCOCCOC(=O)c3ccc(-c4c5nc(c(-c6cccc(S(=O)(=O)[O-])c6F)c6ccc([nH]6)c(-c6cccc(S(=O)(=O)[O-])c6F)c6nc(c(-c7cccc(S(=O)(=O)[O-])c7F)c7ccc4[nH]7)C=C6)C=C5)cc3)c2)cc1F
REMARK SMILES IDX 19 1 18 2 17 3 16 4 15 5 13 6 14 7 12 8 7 9 8 10 87 11 9 12
REMARK SMILES IDX 10 13 11 14 6 15 1 16 2 17 3 18 89 19 4 20 88 21 90 22 5 23
REMARK SMILES IDX 20 24 21 25 22 26 23 27 24 28 25 29 86 30 26 31 85 32 27 33
REMARK SMILES IDX 28 34 29 35 79 36 30 37 84 38 78 39 80 40 31 41 83 42 77 43
REMARK SMILES IDX 76 44 32 46 64 47 44 48 63 49 45 50 48 51 62 52 81 53 46 54
REMARK SMILES IDX 47 55 61 57 82 58 49 59 33 60 34 61 42 62 35 63 37 64 43 65
REMARK SMILES IDX 36 66 38 67 39 68 40 69 41 70 65 71 66 72 74 73 67 74 69 75
REMARK SMILES IDX 75 76 68 77 70 78 71 79 72 80 73 81 50 82 51 83 59 84 52 85
REMARK SMILES IDX 54 86 60 87 53 88 55 89 56 90 57 91 58 92
REMARK H PARENT 80 45 48 56
REMARK Flexibility Score: inf
ROOT
ATOM      1  C   UNL A   1      36.031  19.687  24.959  1.00  0.00     0.202 C 
ENDROOT
BRANCH   1   2
ATOM      2  O   UNL A   1      34.745  20.259  24.723  1.00  0.00    -0.374 OA
BRANCH   2   3
ATOM      3  C   UNL A   1      34.132  20.985  25.787  1.00  0.00     0.202 C 
BRANCH   3   4
ATOM      4  C   UNL A   1      34.433  22.484  25.884  1.00  0.00     0.261 C 
BRANCH   4   5
ATOM      5  O   UNL A   1      33.515  23.259  25.096  1.00  0.00    -0.460 OA
BRANCH   5   6
ATOM      6  C   UNL A   1      33.729  24.599  25.118  1.00  0.00     0.341 C 
ATOM      7  O   UNL A   1      34.508  25.206  25.833  1.00  0.00    -0.246 OA
BRANCH   6   8
ATOM      8  C   UNL A   1      32.973  25.230  24.019  1.00  0.00     0.096 A 
ATOM      9  C   UNL A   1      31.326  26.815  23.161  1.00  0.00    -0.014 A 
ATOM     10  C   UNL A   1      31.626  26.358  21.861  1.00  0.00     0.012 A 
ATOM     11  C   UNL A   1      32.007  26.222  24.243  1.00  0.00     0.027 A 
ATOM     12  C   UNL A   1      32.564  25.350  21.643  1.00  0.00     0.041 A 
ATOM     13  C   UNL A   1      33.235  24.795  22.721  1.00  0.00     0.137 A 
ATOM     14  F   UNL A   1      34.103  23.803  22.481  1.00  0.00    -0.206 F 
BRANCH   9  15
ATOM     15  C   UNL A   1      30.364  27.921  23.346  1.00  0.00     0.020 A 
ATOM     16  C   UNL A   1      27.588  31.258  23.405  1.00  0.00     0.047 C 
ATOM     17  C   UNL A   1      28.534  30.097  23.454  1.00  0.00    -0.012 A 
ATOM     18  C   UNL A   1      29.894  30.299  23.705  1.00  0.00     0.046 A 
ATOM     19  C   UNL A   1      28.099  28.803  23.172  1.00  0.00     0.126 A 
ATOM     20  C   UNL A   1      30.786  29.225  23.654  1.00  0.00     0.131 A 
ATOM     21  C   UNL A   1      28.989  27.728  23.130  1.00  0.00     0.051 A 
ATOM     22  F   UNL A   1      26.805  28.574  22.903  1.00  0.00    -0.207 F 
ATOM     23  F   UNL A   1      32.087  29.483  23.855  1.00  0.00    -0.206 F 
ENDBRANCH   9  15
ENDBRANCH   6   8
ENDBRANCH   5   6
ENDBRANCH   4   5
ENDBRANCH   3   4
ENDBRANCH   2   3
ENDBRANCH   1   2
BRANCH   1  24
ATOM     24  C   UNL A   1      37.267  20.523  24.603  1.00  0.00     0.261 C 
BRANCH  24  25
ATOM     25  O   UNL A   1      37.723  21.341  25.692  1.00  0.00    -0.460 OA
BRANCH  25  26
ATOM     26  C   UNL A   1      39.008  21.123  26.075  1.00  0.00     0.338 C 
ATOM     27  O   UNL A   1      39.672  20.119  25.881  1.00  0.00    -0.246 OA
BRANCH  26  28
ATOM     28  C   UNL A   1      39.571  22.383  26.599  1.00  0.00     0.060 A 
ATOM     29  C   UNL A   1      40.637  22.379  27.500  1.00  0.00     0.016 A 
ATOM     30  C   UNL A   1      39.017  23.592  26.155  1.00  0.00     0.016 A 
ATOM     31  C   UNL A   1      41.160  23.597  27.943  1.00  0.00     0.010 A 
ATOM     32  C   UNL A   1      39.541  24.805  26.600  1.00  0.00     0.010 A 
ATOM     33  C   UNL A   1      40.626  24.817  27.488  1.00  0.00    -0.014 A 
BRANCH  33  34
ATOM     34  C   UNL A   1      41.293  26.095  27.837  1.00  0.00     0.031 A 
ATOM     35  C   UNL A   1      42.696  26.399  27.407  1.00  0.00     0.074 A 
ATOM     36  C   UNL A   1      40.615  26.982  28.591  1.00  0.00     0.049 A 
ATOM     37  N   UNL A   1      43.371  27.509  27.555  1.00  0.00    -0.248 NA
ATOM     38  C   UNL A   1      43.441  25.327  26.731  1.00  0.00     0.031 C 
ATOM     39  C   UNL A   1      39.269  26.768  29.128  1.00  0.00     0.029 A 
ATOM     40  N   UNL A   1      40.958  28.233  29.033  1.00  0.00    -0.354 N 
ATOM     41  C   UNL A   1      44.624  27.271  27.009  1.00  0.00     0.074 A 
ATOM     42  C   UNL A   1      44.622  25.903  26.534  1.00  0.00     0.031 C 
ATOM     43  C   UNL A   1      38.890  27.862  29.804  1.00  0.00     0.029 A 
ATOM     44  C   UNL A   1      39.969  28.845  29.766  1.00  0.00     0.049 A 
ATOM     45  H   UNL A   1      41.829  28.652  28.846  1.00  0.00     0.167 HD
ATOM     46  C   UNL A   1      45.672  28.122  26.900  1.00  0.00     0.034 A 
ATOM     47  C   UNL A   1      39.925  30.065  30.336  1.00  0.00     0.034 A 
ATOM     48  C   UNL A   1      45.665  29.485  27.362  1.00  0.00     0.049 A 
ATOM     49  C   UNL A   1      41.092  30.996  30.186  1.00  0.00     0.074 A 
ATOM     50  C   UNL A   1      46.651  30.444  27.210  1.00  0.00     0.029 A 
ATOM     51  N   UNL A   1      44.642  30.075  28.085  1.00  0.00    -0.354 N 
ATOM     52  N   UNL A   1      42.209  30.808  29.528  1.00  0.00    -0.248 NA
ATOM     53  C   UNL A   1      40.987  32.312  30.832  1.00  0.00     0.031 C 
ATOM     54  C   UNL A   1      46.237  31.605  27.869  1.00  0.00     0.029 A 
ATOM     55  C   UNL A   1      44.981  31.378  28.407  1.00  0.00     0.049 A 
ATOM     56  H   UNL A   1      43.798  29.633  28.334  1.00  0.00     0.167 HD
ATOM     57  C   UNL A   1      42.933  31.985  29.661  1.00  0.00     0.074 A 
ATOM     58  C   UNL A   1      42.124  32.887  30.457  1.00  0.00     0.031 C 
ATOM     59  C   UNL A   1      44.162  32.283  29.173  1.00  0.00     0.034 A 
BRANCH  46  60
ATOM     60  C   UNL A   1      46.917  27.627  26.217  1.00  0.00     0.023 A 
ATOM     61  C   UNL A   1      47.806  26.792  26.923  1.00  0.00     0.012 A 
ATOM     62  C   UNL A   1      47.150  27.896  24.854  1.00  0.00     0.148 A 
ATOM     63  C   UNL A   1      48.916  26.241  26.285  1.00  0.00     0.002 A 
ATOM     64  C   UNL A   1      48.242  27.320  24.218  1.00  0.00     0.091 A 
ATOM     65  F   UNL A   1      46.294  28.701  24.209  1.00  0.00    -0.205 F 
ATOM     66  C   UNL A   1      49.129  26.497  24.933  1.00  0.00     0.022 A 
BRANCH  64  67
ATOM     67  S   UNL A   1      48.578  27.542  22.467  1.00  0.00     0.127 S 
ATOM     68  O   UNL A   1      47.408  28.309  22.040  1.00  0.00    -0.237 OA
ATOM     69  O   UNL A   1      49.829  28.298  22.488  1.00  0.00    -0.237 OA
ATOM     70  O   UNL A   1      48.681  26.204  21.903  1.00  0.00    -0.744 OA
ENDBRANCH  64  67
ENDBRANCH  46  60
BRANCH  47  71
ATOM     71  C   UNL A   1      38.677  30.484  31.024  1.00  0.00     0.023 A 
ATOM     72  C   UNL A   1      38.589  30.347  32.422  1.00  0.00     0.012 A 
ATOM     73  C   UNL A   1      37.638  31.123  30.321  1.00  0.00     0.148 A 
ATOM     74  C   UNL A   1      37.484  30.847  33.112  1.00  0.00     0.002 A 
ATOM     75  C   UNL A   1      36.558  31.649  31.019  1.00  0.00     0.091 A 
ATOM     76  F   UNL A   1      37.758  31.246  28.992  1.00  0.00    -0.205 F 
ATOM     77  C   UNL A   1      36.476  31.506  32.413  1.00  0.00     0.022 A 
BRANCH  75  78
ATOM     78  S   UNL A   1      35.258  32.599  30.224  1.00  0.00     0.127 S 
ATOM     79  O   UNL A   1      34.282  32.730  31.303  1.00  0.00    -0.237 OA
ATOM     80  O   UNL A   1      35.965  33.833  29.878  1.00  0.00    -0.237 OA
ATOM     81  O   UNL A   1      34.821  31.803  29.086  1.00  0.00    -0.744 OA
ENDBRANCH  75  78
ENDBRANCH  47  71
BRANCH  59  82
ATOM     82  C   UNL A   1      44.736  33.642  29.466  1.00  0.00     0.023 A 
ATOM     83  C   UNL A   1      45.468  33.844  30.653  1.00  0.00     0.012 A 
ATOM     84  C   UNL A   1      44.668  34.671  28.506  1.00  0.00     0.148 A 
ATOM     85  C   UNL A   1      46.123  35.054  30.881  1.00  0.00     0.002 A 
ATOM     86  C   UNL A   1      45.352  35.861  28.725  1.00  0.00     0.091 A 
ATOM     87  F   UNL A   1      43.961  34.455  27.389  1.00  0.00    -0.205 F 
ATOM     88  C   UNL A   1      46.076  36.055  29.913  1.00  0.00     0.022 A 
BRANCH  86  89
ATOM     89  S   UNL A   1      45.412  37.183  27.510  1.00  0.00     0.127 S 
ATOM     90  O   UNL A   1      43.994  37.501  27.344  1.00  0.00    -0.237 OA
ATOM     91  O   UNL A   1      46.190  38.207  28.207  1.00  0.00    -0.237 OA
ATOM     92  O   UNL A   1      46.060  36.622  26.331  1.00  0.00    -0.744 OA
ENDBRANCH  86  89
ENDBRANCH  59  82
ENDBRANCH  33  34
ENDBRANCH  26  28
ENDBRANCH  25  26
ENDBRANCH  24  25
ENDBRANCH   1  24
TORSDOF 18
ENDMDL
MODEL 3
REMARK VINA RESULT:     -11.7      1.700      2.275
REMARK SMILES Cc1cc(F)c(-c2ccc(F)c(C(=O)OCCOCCOC(=O)c3ccc(-c4c5nc(c(-c6cccc(S(=O)(=O)[O-])c6F)c6ccc([nH]6)c(-c6cccc(S(=O)(=O)[O-])c6F)c6nc(c(-c7cccc(S(=O)(=O)[O-])c7F)c7ccc4[nH]7)C=C6)C=C5)cc3)c2)cc1F
REMARK SMILES IDX 19 1 18 2 17 3 16 4 15 5 13 6 14 7 12 8 7 9 8 10 87 11 9 12
REMARK SMILES IDX 10 13 11 14 6 15 1 16 2 17 3 18 89 19 4 20 88 21 90 22 5 23
REMARK SMILES IDX 20 24 21 25 22 26 23 27 24 28 25 29 86 30 26 31 85 32 27 33
REMARK SMILES IDX 28 34 29 35 79 36 30 37 84 38 78 39 80 40 31 41 83 42 77 43
REMARK SMILES IDX 76 44 32 46 64 47 44 48 63 49 45 50 48 51 62 52 81 53 46 54
REMARK SMILES IDX 47 55 61 57 82 58 49 59 33 60 34 61 42 62 35 63 37 64 43 65
REMARK SMILES IDX 36 66 38 67 39 68 40 69 41 70 65 71 66 72 74 73 67 74 69 75
REMARK SMILES IDX 75 76 68 77 70 78 71 79 72 80 73 81 50 82 51 83 59 84 52 85
REMARK SMILES IDX 54 86 60 87 53 88 55 89 56 90 57 91 58 92
REMARK H PARENT 80 45 48 56
REMARK Flexibility Score: inf
ROOT
ATOM      1  C   UNL A   1      31.739  30.374  25.780  1.00  0.00     0.202 C 
ENDROOT
BRANCH   1   2
ATOM      2  O   UNL A   1      32.491  29.262  26.264  1.00  0.00    -0.374 OA
BRANCH   2   3
ATOM      3  C   UNL A   1      33.689  28.914  25.572  1.00  0.00     0.202 C 
BRANCH   3   4
ATOM      4  C   UNL A   1      33.668  27.638  24.723  1.00  0.00     0.261 C 
BRANCH   4   5
ATOM      5  O   UNL A   1      33.052  27.865  23.446  1.00  0.00    -0.460 OA
BRANCH   5   6
ATOM      6  C   UNL A   1      33.223  26.867  22.542  1.00  0.00     0.341 C 
ATOM      7  O   UNL A   1      34.026  26.836  21.626  1.00  0.00    -0.246 OA
BRANCH   6   8
ATOM      8  C   UNL A   1      32.375  25.720  22.919  1.00  0.00     0.096 A 
ATOM      9  C   UNL A   1      32.042  23.356  23.435  1.00  0.00    -0.014 A 
ATOM     10  C   UNL A   1      30.678  23.639  23.655  1.00  0.00     0.012 A 
ATOM     11  C   UNL A   1      32.884  24.418  23.049  1.00  0.00     0.027 A 
ATOM     12  C   UNL A   1      30.168  24.928  23.495  1.00  0.00     0.041 A 
ATOM     13  C   UNL A   1      31.019  25.960  23.132  1.00  0.00     0.137 A 
ATOM     14  F   UNL A   1      30.490  27.178  22.952  1.00  0.00    -0.206 F 
BRANCH   9  15
ATOM     15  C   UNL A   1      32.553  21.989  23.666  1.00  0.00     0.020 A 
ATOM     16  C   UNL A   1      33.650  17.898  24.617  1.00  0.00     0.047 C 
ATOM     17  C   UNL A   1      33.330  19.315  24.250  1.00  0.00    -0.012 A 
ATOM     18  C   UNL A   1      33.765  20.373  25.052  1.00  0.00     0.046 A 
ATOM     19  C   UNL A   1      32.527  19.608  23.148  1.00  0.00     0.126 A 
ATOM     20  C   UNL A   1      33.382  21.683  24.758  1.00  0.00     0.131 A 
ATOM     21  C   UNL A   1      32.152  20.919  22.847  1.00  0.00     0.051 A 
ATOM     22  F   UNL A   1      32.072  18.618  22.367  1.00  0.00    -0.207 F 
ATOM     23  F   UNL A   1      33.787  22.655  25.589  1.00  0.00    -0.206 F 
ENDBRANCH   9  15
ENDBRANCH   6   8
ENDBRANCH   5   6
ENDBRANCH   4   5
ENDBRANCH   3   4
ENDBRANCH   2   3
ENDBRANCH   1   2
BRANCH   1  24
ATOM     24  C   UNL A   1      31.882  31.714  26.513  1.00  0.00     0.261 C 
BRANCH  24  25
ATOM     25  O   UNL A   1      32.798  31.654  27.618  1.00  0.00    -0.460 OA
BRANCH  25  26
ATOM     26  C   UNL A   1      33.754  32.619  27.625  1.00  0.00     0.338 C 
ATOM     27  O   UNL A   1      33.598  33.809  27.409  1.00  0.00    -0.246 OA
BRANCH  26  28
ATOM     28  C   UNL A   1      35.011  32.044  28.141  1.00  0.00     0.060 A 
ATOM     29  C   UNL A   1      36.167  32.817  28.255  1.00  0.00     0.016 A 
ATOM     30  C   UNL A   1      35.012  30.698  28.533  1.00  0.00     0.016 A 
ATOM     31  C   UNL A   1      37.325  32.239  28.782  1.00  0.00     0.010 A 
ATOM     32  C   UNL A   1      36.171  30.124  29.056  1.00  0.00     0.010 A 
ATOM     33  C   UNL A   1      37.333  30.894  29.197  1.00  0.00    -0.014 A 
BRANCH  33  34
ATOM     34  C   UNL A   1      38.516  30.343  29.901  1.00  0.00     0.031 A 
ATOM     35  C   UNL A   1      38.874  30.763  31.295  1.00  0.00     0.074 A 
ATOM     36  C   UNL A   1      39.297  29.464  29.244  1.00  0.00     0.049 A 
ATOM     37  N   UNL A   1      39.819  30.296  32.068  1.00  0.00    -0.248 NA
ATOM     38  C   UNL A   1      38.083  31.845  31.898  1.00  0.00     0.031 C 
ATOM     39  C   UNL A   1      39.089  29.032  27.860  1.00  0.00     0.029 A 
ATOM     40  N   UNL A   1      40.415  28.779  29.645  1.00  0.00    -0.354 N 
ATOM     41  C   UNL A   1      39.751  31.032  33.243  1.00  0.00     0.074 A 
ATOM     42  C   UNL A   1      38.677  31.989  33.077  1.00  0.00     0.031 C 
ATOM     43  C   UNL A   1      40.030  28.134  27.536  1.00  0.00     0.029 A 
ATOM     44  C   UNL A   1      40.919  27.942  28.679  1.00  0.00     0.049 A 
ATOM     45  H   UNL A   1      40.818  28.879  30.538  1.00  0.00     0.167 HD
ATOM     46  C   UNL A   1      40.505  30.908  34.361  1.00  0.00     0.034 A 
ATOM     47  C   UNL A   1      41.972  27.102  28.707  1.00  0.00     0.034 A 
ATOM     48  C   UNL A   1      41.564  29.947  34.526  1.00  0.00     0.049 A 
ATOM     49  C   UNL A   1      42.781  26.969  29.963  1.00  0.00     0.074 A 
ATOM     50  C   UNL A   1      42.318  29.691  35.659  1.00  0.00     0.029 A 
ATOM     51  N   UNL A   1      42.037  29.105  33.533  1.00  0.00    -0.354 N 
ATOM     52  N   UNL A   1      42.602  27.562  31.118  1.00  0.00    -0.248 NA
ATOM     53  C   UNL A   1      43.919  26.039  29.933  1.00  0.00     0.031 C 
ATOM     54  C   UNL A   1      43.268  28.717  35.341  1.00  0.00     0.029 A 
ATOM     55  C   UNL A   1      43.088  28.346  34.018  1.00  0.00     0.049 A 
ATOM     56  H   UNL A   1      41.679  29.054  32.618  1.00  0.00     0.167 HD
ATOM     57  C   UNL A   1      43.589  27.064  31.959  1.00  0.00     0.074 A 
ATOM     58  C   UNL A   1      44.360  26.113  31.184  1.00  0.00     0.031 C 
ATOM     59  C   UNL A   1      43.834  27.378  33.254  1.00  0.00     0.034 A 
BRANCH  46  60
ATOM     60  C   UNL A   1      40.197  31.807  35.526  1.00  0.00     0.023 A 
ATOM     61  C   UNL A   1      40.975  32.965  35.730  1.00  0.00     0.012 A 
ATOM     62  C   UNL A   1      39.078  31.569  36.347  1.00  0.00     0.148 A 
ATOM     63  C   UNL A   1      40.651  33.865  36.743  1.00  0.00     0.002 A 
ATOM     64  C   UNL A   1      38.744  32.486  37.336  1.00  0.00     0.091 A 
ATOM     65  F   UNL A   1      38.360  30.456  36.139  1.00  0.00    -0.205 F 
ATOM     66  C   UNL A   1      39.532  33.632  37.538  1.00  0.00     0.022 A 
BRANCH  64  67
ATOM     67  S   UNL A   1      37.293  32.307  38.380  1.00  0.00     0.127 S 
ATOM     68  O   UNL A   1      37.751  32.925  39.624  1.00  0.00    -0.237 OA
ATOM     69  O   UNL A   1      36.291  33.080  37.648  1.00  0.00    -0.237 OA
ATOM     70  O   UNL A   1      37.027  30.878  38.459  1.00  0.00    -0.744 OA
ENDBRANCH  64  67
ENDBRANCH  46  60
BRANCH  47  71
ATOM     71  C   UNL A   1      42.244  26.262  27.512  1.00  0.00     0.023 A 
ATOM     72  C   UNL A   1      43.030  26.791  26.470  1.00  0.00     0.012 A 
ATOM     73  C   UNL A   1      41.835  24.916  27.460  1.00  0.00     0.148 A 
ATOM     74  C   UNL A   1      43.409  25.988  25.395  1.00  0.00     0.002 A 
ATOM     75  C   UNL A   1      42.247  24.113  26.404  1.00  0.00     0.091 A 
ATOM     76  F   UNL A   1      41.097  24.441  28.474  1.00  0.00    -0.205 F 
ATOM     77  C   UNL A   1      43.028  24.649  25.367  1.00  0.00     0.022 A 
BRANCH  75  78
ATOM     78  S   UNL A   1      41.891  22.354  26.325  1.00  0.00     0.127 S 
ATOM     79  O   UNL A   1      42.466  21.877  27.580  1.00  0.00    -0.237 OA
ATOM     80  O   UNL A   1      40.429  22.352  26.276  1.00  0.00    -0.237 OA
ATOM     81  O   UNL A   1      42.546  21.870  25.118  1.00  0.00    -0.744 OA
ENDBRANCH  75  78
ENDBRANCH  47  71
BRANCH  59  82
ATOM     82  C   UNL A   1      44.980  26.697  33.949  1.00  0.00     0.023 A 
ATOM     83  C   UNL A   1      46.259  27.287  33.920  1.00  0.00     0.012 A 
ATOM     84  C   UNL A   1      44.760  25.552  34.740  1.00  0.00     0.148 A 
ATOM     85  C   UNL A   1      47.304  26.746  34.669  1.00  0.00     0.002 A 
ATOM     86  C   UNL A   1      45.797  25.038  35.510  1.00  0.00     0.091 A 
ATOM     87  F   UNL A   1      43.536  25.005  34.745  1.00  0.00    -0.205 F 
ATOM     88  C   UNL A   1      47.070  25.632  35.473  1.00  0.00     0.022 A 
BRANCH  86  89
ATOM     89  S   UNL A   1      45.580  23.651  36.631  1.00  0.00     0.127 S 
ATOM     90  O   UNL A   1      46.958  23.376  37.037  1.00  0.00    -0.237 OA
ATOM     91  O   UNL A   1      44.738  24.230  37.678  1.00  0.00    -0.237 OA
ATOM     92  O   UNL A   1      44.945  22.595  35.851  1.00  0.00    -0.744 OA
ENDBRANCH  86  89
ENDBRANCH  59  82
ENDBRANCH  33  34
ENDBRANCH  26  28
ENDBRANCH  25  26
ENDBRANCH  24  25
ENDBRANCH   1  24
TORSDOF 18
ENDMDL
