MODEL 1
REMARK VINA RESULT:     -11.5      0.000      0.000
REMARK SMILES O=C(OCCOCCOC(=O)c1cc2nn[nH]n2n1)c1ccc(-c2c3nc(c(-c4cccc(S(=O)(=O)[O-])c4F)c4ccc([nH]4)c(-c4cccc(S(=O)(=O)[O-])c4F)c4nc(c(-c5cccc(S(=O)(=O)[O-])c5F)c5ccc2[nH]5)C=C4)C=C3)cc1
REMARK SMILES IDX 4 1 3 2 2 3 1 4 20 5 21 6 82 7 22 8 81 9 23 10 24 11 25 12
REMARK SMILES IDX 75 13 26 14 80 15 74 16 76 17 27 18 79 19 73 20 72 21 28 23
REMARK SMILES IDX 60 24 40 25 59 26 41 27 44 28 58 29 77 30 42 31 43 32 57 34
REMARK SMILES IDX 78 35 45 36 29 37 30 38 38 39 31 40 33 41 39 42 32 43 34 44
REMARK SMILES IDX 35 45 36 46 37 47 61 48 62 49 70 50 63 51 65 52 71 53 64 54
REMARK SMILES IDX 66 55 67 56 68 57 69 58 46 59 47 60 55 61 48 62 50 63 56 64
REMARK SMILES IDX 49 65 51 66 52 67 53 68 54 69 5 70 6 71 7 72 8 73 9 74 10 75
REMARK SMILES IDX 11 76 12 77 13 78 19 79 14 80 18 81 15 82 17 83 16 84
REMARK H PARENT 76 22 44 33 17 85
REMARK Flexibility Score: inf
ROOT
ATOM      1  C   UNL A   1      33.193  31.076  27.138  1.00  0.00     0.261 C 
ENDROOT
BRANCH   1   2
ATOM      2  O   UNL A   1      34.107  30.698  28.189  1.00  0.00    -0.460 OA
BRANCH   2   3
ATOM      3  C   UNL A   1      35.045  31.558  28.655  1.00  0.00     0.338 C 
ATOM      4  O   UNL A   1      34.751  32.527  29.346  1.00  0.00    -0.246 OA
BRANCH   3   5
ATOM      5  C   UNL A   1      36.439  31.059  28.546  1.00  0.00     0.060 A 
ATOM      6  C   UNL A   1      36.753  29.845  27.936  1.00  0.00     0.016 A 
ATOM      7  C   UNL A   1      37.453  31.796  29.176  1.00  0.00     0.016 A 
ATOM      8  C   UNL A   1      37.996  29.277  28.111  1.00  0.00     0.010 A 
ATOM      9  C   UNL A   1      38.724  31.246  29.317  1.00  0.00     0.010 A 
ATOM     10  C   UNL A   1      38.957  29.947  28.863  1.00  0.00    -0.014 A 
BRANCH  10  11
ATOM     11  C   UNL A   1      40.164  29.188  29.168  1.00  0.00     0.031 A 
ATOM     12  C   UNL A   1      40.460  28.954  30.607  1.00  0.00     0.074 A 
ATOM     13  C   UNL A   1      40.972  28.714  28.201  1.00  0.00     0.049 A 
ATOM     14  N   UNL A   1      41.513  29.298  31.280  1.00  0.00    -0.248 NA
ATOM     15  C   UNL A   1      39.405  28.328  31.415  1.00  0.00     0.031 C 
ATOM     16  C   UNL A   1      40.696  28.633  26.764  1.00  0.00     0.029 A 
ATOM     17  N   UNL A   1      42.161  28.059  28.332  1.00  0.00    -0.354 N 
ATOM     18  C   UNL A   1      41.341  28.750  32.551  1.00  0.00     0.074 A 
ATOM     19  C   UNL A   1      39.981  28.282  32.615  1.00  0.00     0.031 C 
ATOM     20  C   UNL A   1      41.528  27.727  26.212  1.00  0.00     0.029 A 
ATOM     21  C   UNL A   1      42.473  27.288  27.223  1.00  0.00     0.049 A 
ATOM     22  H   UNL A   1      42.736  28.127  29.128  1.00  0.00     0.167 HD
ATOM     23  C   UNL A   1      42.380  28.534  33.404  1.00  0.00     0.034 A 
ATOM     24  C   UNL A   1      43.367  26.277  27.173  1.00  0.00     0.034 A 
ATOM     25  C   UNL A   1      43.544  29.303  33.067  1.00  0.00     0.049 A 
ATOM     26  C   UNL A   1      44.311  26.438  28.300  1.00  0.00     0.074 A 
ATOM     27  C   UNL A   1      43.845  30.645  32.964  1.00  0.00     0.029 A 
ATOM     28  N   UNL A   1      44.601  28.636  32.501  1.00  0.00    -0.354 N 
ATOM     29  N   UNL A   1      45.180  27.407  28.395  1.00  0.00    -0.248 NA
ATOM     30  C   UNL A   1      44.062  25.700  29.527  1.00  0.00     0.031 C 
ATOM     31  C   UNL A   1      44.843  30.727  31.950  1.00  0.00     0.029 A 
ATOM     32  C   UNL A   1      45.085  29.428  31.497  1.00  0.00     0.049 A 
ATOM     33  H   UNL A   1      44.947  27.754  32.769  1.00  0.00     0.167 HD
ATOM     34  C   UNL A   1      45.269  27.667  29.756  1.00  0.00     0.074 A 
ATOM     35  C   UNL A   1      44.675  26.501  30.400  1.00  0.00     0.031 C 
ATOM     36  C   UNL A   1      45.548  28.922  30.221  1.00  0.00     0.034 A 
BRANCH  23  37
ATOM     37  C   UNL A   1      42.456  27.382  34.379  1.00  0.00     0.023 A 
ATOM     38  C   UNL A   1      42.027  27.609  35.706  1.00  0.00     0.012 A 
ATOM     39  C   UNL A   1      43.172  26.189  34.134  1.00  0.00     0.148 A 
ATOM     40  C   UNL A   1      42.332  26.717  36.740  1.00  0.00     0.002 A 
ATOM     41  C   UNL A   1      43.397  25.265  35.150  1.00  0.00     0.091 A 
ATOM     42  F   UNL A   1      43.765  25.991  32.952  1.00  0.00    -0.205 F 
ATOM     43  C   UNL A   1      43.007  25.538  36.461  1.00  0.00     0.022 A 
BRANCH  41  44
ATOM     44  S   UNL A   1      44.201  23.699  34.794  1.00  0.00     0.127 S 
ATOM     45  O   UNL A   1      43.208  23.042  33.949  1.00  0.00    -0.237 OA
ATOM     46  O   UNL A   1      45.419  24.124  34.103  1.00  0.00    -0.237 OA
ATOM     47  O   UNL A   1      44.442  23.104  36.104  1.00  0.00    -0.744 OA
ENDBRANCH  41  44
ENDBRANCH  23  37
BRANCH  24  48
ATOM     48  C   UNL A   1      43.287  25.047  26.359  1.00  0.00     0.023 A 
ATOM     49  C   UNL A   1      44.250  24.799  25.365  1.00  0.00     0.012 A 
ATOM     50  C   UNL A   1      42.394  24.004  26.701  1.00  0.00     0.148 A 
ATOM     51  C   UNL A   1      44.325  23.552  24.735  1.00  0.00     0.002 A 
ATOM     52  C   UNL A   1      42.457  22.775  26.056  1.00  0.00     0.091 A 
ATOM     53  F   UNL A   1      41.542  24.187  27.719  1.00  0.00    -0.205 F 
ATOM     54  C   UNL A   1      43.429  22.541  25.078  1.00  0.00     0.022 A 
BRANCH  52  55
ATOM     55  S   UNL A   1      41.318  21.438  26.444  1.00  0.00     0.127 S 
ATOM     56  O   UNL A   1      40.039  21.981  25.983  1.00  0.00    -0.237 OA
ATOM     57  O   UNL A   1      41.846  20.344  25.635  1.00  0.00    -0.237 OA
ATOM     58  O   UNL A   1      41.400  21.259  27.889  1.00  0.00    -0.744 OA
ENDBRANCH  52  55
ENDBRANCH  24  48
BRANCH  36  59
ATOM     59  C   UNL A   1      46.042  29.961  29.245  1.00  0.00     0.023 A 
ATOM     60  C   UNL A   1      47.407  30.052  28.903  1.00  0.00     0.012 A 
ATOM     61  C   UNL A   1      45.105  30.705  28.504  1.00  0.00     0.148 A 
ATOM     62  C   UNL A   1      47.833  30.881  27.864  1.00  0.00     0.002 A 
ATOM     63  C   UNL A   1      45.529  31.493  27.438  1.00  0.00     0.091 A 
ATOM     64  F   UNL A   1      43.808  30.600  28.829  1.00  0.00    -0.205 F 
ATOM     65  C   UNL A   1      46.893  31.591  27.122  1.00  0.00     0.022 A 
BRANCH  63  66
ATOM     66  S   UNL A   1      44.361  32.315  26.348  1.00  0.00     0.127 S 
ATOM     67  O   UNL A   1      43.474  31.220  25.966  1.00  0.00    -0.237 OA
ATOM     68  O   UNL A   1      43.755  33.314  27.229  1.00  0.00    -0.237 OA
ATOM     69  O   UNL A   1      45.159  32.885  25.269  1.00  0.00    -0.744 OA
ENDBRANCH  63  66
ENDBRANCH  36  59
ENDBRANCH  10  11
ENDBRANCH   3   5
ENDBRANCH   2   3
ENDBRANCH   1   2
BRANCH   1  70
ATOM     70  C   UNL A   1      32.515  29.926  26.401  1.00  0.00     0.202 C 
BRANCH  70  71
ATOM     71  O   UNL A   1      32.784  29.874  25.001  1.00  0.00    -0.374 OA
BRANCH  71  72
ATOM     72  C   UNL A   1      32.722  28.570  24.406  1.00  0.00     0.202 C 
BRANCH  72  73
ATOM     73  C   UNL A   1      31.453  27.745  24.667  1.00  0.00     0.261 C 
BRANCH  73  74
ATOM     74  O   UNL A   1      30.273  28.415  24.183  1.00  0.00    -0.458 OA
BRANCH  74  75
ATOM     75  C   UNL A   1      30.207  28.585  22.828  1.00  0.00     0.359 C 
ATOM     76  O   UNL A   1      30.481  27.717  22.005  1.00  0.00    -0.244 OA
BRANCH  75  77
ATOM     77  C   UNL A   1      29.631  29.891  22.468  1.00  0.00     0.174 A 
ATOM     78  C   UNL A   1      29.254  30.971  23.348  1.00  0.00     0.091 A 
ATOM     79  N   UNL A   1      29.304  30.175  21.178  1.00  0.00    -0.142 NA
ATOM     80  C   UNL A   1      28.714  31.906  22.508  1.00  0.00     0.199 A 
ATOM     81  N   UNL A   1      28.771  31.370  21.290  1.00  0.00    -0.135 N 
ATOM     82  N   UNL A   1      28.128  33.123  22.429  1.00  0.00    -0.109 NA
ATOM     83  N   UNL A   1      28.215  32.236  20.464  1.00  0.00    -0.177 N 
ATOM     84  N   UNL A   1      27.771  33.312  21.212  1.00  0.00    -0.050 NA
ATOM     85  H   UNL A   1      28.131  32.135  19.489  1.00  0.00     0.216 HD
ENDBRANCH  75  77
ENDBRANCH  74  75
ENDBRANCH  73  74
ENDBRANCH  72  73
ENDBRANCH  71  72
ENDBRANCH  70  71
ENDBRANCH   1  70
TORSDOF 17
ENDMDL
MODEL 2
REMARK VINA RESULT:     -11.4      4.263      5.376
REMARK SMILES O=C(OCCOCCOC(=O)c1cc2nn[nH]n2n1)c1ccc(-c2c3nc(c(-c4cccc(S(=O)(=O)[O-])c4F)c4ccc([nH]4)c(-c4cccc(S(=O)(=O)[O-])c4F)c4nc(c(-c5cccc(S(=O)(=O)[O-])c5F)c5ccc2[nH]5)C=C4)C=C3)cc1
REMARK SMILES IDX 4 1 3 2 2 3 1 4 20 5 21 6 82 7 22 8 81 9 23 10 24 11 25 12
REMARK SMILES IDX 75 13 26 14 80 15 74 16 76 17 27 18 79 19 73 20 72 21 28 23
REMARK SMILES IDX 60 24 40 25 59 26 41 27 44 28 58 29 77 30 42 31 43 32 57 34
REMARK SMILES IDX 78 35 45 36 29 37 30 38 38 39 31 40 33 41 39 42 32 43 34 44
REMARK SMILES IDX 35 45 36 46 37 47 61 48 62 49 70 50 63 51 65 52 71 53 64 54
REMARK SMILES IDX 66 55 67 56 68 57 69 58 46 59 47 60 55 61 48 62 50 63 56 64
REMARK SMILES IDX 49 65 51 66 52 67 53 68 54 69 5 70 6 71 7 72 8 73 9 74 10 75
REMARK SMILES IDX 11 76 12 77 13 78 19 79 14 80 18 81 15 82 17 83 16 84
REMARK H PARENT 76 22 44 33 17 85
REMARK Flexibility Score: inf
ROOT
ATOM      1  C   UNL A   1      33.989  32.588  28.665  1.00  0.00     0.261 C 
ENDROOT
BRANCH   1   2
ATOM      2  O   UNL A   1      35.268  32.280  28.073  1.00  0.00    -0.460 OA
BRANCH   2   3
ATOM      3  C   UNL A   1      36.415  32.833  28.539  1.00  0.00     0.338 C 
ATOM      4  O   UNL A   1      36.521  34.038  28.738  1.00  0.00    -0.246 OA
BRANCH   3   5
ATOM      5  C   UNL A   1      37.384  31.853  29.090  1.00  0.00     0.060 A 
ATOM      6  C   UNL A   1      38.485  32.238  29.854  1.00  0.00     0.016 A 
ATOM      7  C   UNL A   1      37.230  30.504  28.735  1.00  0.00     0.016 A 
ATOM      8  C   UNL A   1      39.511  31.350  30.096  1.00  0.00     0.010 A 
ATOM      9  C   UNL A   1      38.244  29.593  29.016  1.00  0.00     0.010 A 
ATOM     10  C   UNL A   1      39.420  30.048  29.614  1.00  0.00    -0.014 A 
BRANCH  10  11
ATOM     11  C   UNL A   1      40.629  29.243  29.735  1.00  0.00     0.031 A 
ATOM     12  C   UNL A   1      41.099  28.946  31.115  1.00  0.00     0.074 A 
ATOM     13  C   UNL A   1      41.291  28.782  28.656  1.00  0.00     0.049 A 
ATOM     14  N   UNL A   1      42.241  29.231  31.658  1.00  0.00    -0.248 NA
ATOM     15  C   UNL A   1      40.134  28.321  32.030  1.00  0.00     0.031 C 
ATOM     16  C   UNL A   1      40.830  28.764  27.265  1.00  0.00     0.029 A 
ATOM     17  N   UNL A   1      42.463  28.087  28.611  1.00  0.00    -0.354 N 
ATOM     18  C   UNL A   1      42.214  28.641  32.921  1.00  0.00     0.074 A 
ATOM     19  C   UNL A   1      40.857  28.212  33.144  1.00  0.00     0.031 C 
ATOM     20  C   UNL A   1      41.554  27.855  26.580  1.00  0.00     0.029 A 
ATOM     21  C   UNL A   1      42.605  27.350  27.445  1.00  0.00     0.049 A 
ATOM     22  H   UNL A   1      43.137  28.107  29.328  1.00  0.00     0.167 HD
ATOM     23  C   UNL A   1      43.345  28.362  33.625  1.00  0.00     0.034 A 
ATOM     24  C   UNL A   1      43.450  26.316  27.246  1.00  0.00     0.034 A 
ATOM     25  C   UNL A   1      44.482  29.108  33.167  1.00  0.00     0.049 A 
ATOM     26  C   UNL A   1      44.535  26.406  28.246  1.00  0.00     0.074 A 
ATOM     27  C   UNL A   1      44.814  30.443  33.072  1.00  0.00     0.029 A 
ATOM     28  N   UNL A   1      45.434  28.433  32.448  1.00  0.00    -0.354 N 
ATOM     29  N   UNL A   1      45.441  27.344  28.261  1.00  0.00    -0.248 NA
ATOM     30  C   UNL A   1      44.419  25.629  29.470  1.00  0.00     0.031 C 
ATOM     31  C   UNL A   1      45.676  30.534  31.941  1.00  0.00     0.029 A 
ATOM     32  C   UNL A   1      45.813  29.247  31.416  1.00  0.00     0.049 A 
ATOM     33  H   UNL A   1      45.782  27.531  32.638  1.00  0.00     0.167 HD
ATOM     34  C   UNL A   1      45.712  27.549  29.607  1.00  0.00     0.074 A 
ATOM     35  C   UNL A   1      45.166  26.377  30.283  1.00  0.00     0.031 C 
ATOM     36  C   UNL A   1      46.092  28.776  30.076  1.00  0.00     0.034 A 
BRANCH  23  37
ATOM     37  C   UNL A   1      43.505  27.172  34.542  1.00  0.00     0.023 A 
ATOM     38  C   UNL A   1      43.625  27.417  35.929  1.00  0.00     0.012 A 
ATOM     39  C   UNL A   1      43.816  25.868  34.095  1.00  0.00     0.148 A 
ATOM     40  C   UNL A   1      44.071  26.430  36.814  1.00  0.00     0.002 A 
ATOM     41  C   UNL A   1      44.176  24.868  34.992  1.00  0.00     0.091 A 
ATOM     42  F   UNL A   1      43.902  25.610  32.786  1.00  0.00    -0.205 F 
ATOM     43  C   UNL A   1      44.336  25.149  36.348  1.00  0.00     0.022 A 
BRANCH  41  44
ATOM     44  S   UNL A   1      44.447  23.187  34.419  1.00  0.00     0.127 S 
ATOM     45  O   UNL A   1      43.232  22.936  33.652  1.00  0.00    -0.237 OA
ATOM     46  O   UNL A   1      45.667  23.323  33.622  1.00  0.00    -0.237 OA
ATOM     47  O   UNL A   1      44.623  22.408  35.640  1.00  0.00    -0.744 OA
ENDBRANCH  41  44
ENDBRANCH  23  37
BRANCH  24  48
ATOM     48  C   UNL A   1      43.224  25.120  26.407  1.00  0.00     0.023 A 
ATOM     49  C   UNL A   1      44.057  24.871  25.303  1.00  0.00     0.012 A 
ATOM     50  C   UNL A   1      42.330  24.102  26.816  1.00  0.00     0.148 A 
ATOM     51  C   UNL A   1      44.005  23.645  24.629  1.00  0.00     0.002 A 
ATOM     52  C   UNL A   1      42.265  22.896  26.130  1.00  0.00     0.091 A 
ATOM     53  F   UNL A   1      41.607  24.283  27.931  1.00  0.00    -0.205 F 
ATOM     54  C   UNL A   1      43.110  22.660  25.040  1.00  0.00     0.022 A 
BRANCH  52  55
ATOM     55  S   UNL A   1      41.120  21.593  26.603  1.00  0.00     0.127 S 
ATOM     56  O   UNL A   1      41.509  21.330  27.989  1.00  0.00    -0.237 OA
ATOM     57  O   UNL A   1      39.827  22.252  26.445  1.00  0.00    -0.237 OA
ATOM     58  O   UNL A   1      41.386  20.486  25.692  1.00  0.00    -0.744 OA
ENDBRANCH  52  55
ENDBRANCH  24  48
BRANCH  36  59
ATOM     59  C   UNL A   1      46.492  29.837  29.080  1.00  0.00     0.023 A 
ATOM     60  C   UNL A   1      47.817  29.931  28.605  1.00  0.00     0.012 A 
ATOM     61  C   UNL A   1      45.491  30.602  28.453  1.00  0.00     0.148 A 
ATOM     62  C   UNL A   1      48.143  30.783  27.549  1.00  0.00     0.002 A 
ATOM     63  C   UNL A   1      45.812  31.414  27.370  1.00  0.00     0.091 A 
ATOM     64  F   UNL A   1      44.232  30.493  28.904  1.00  0.00    -0.205 F 
ATOM     65  C   UNL A   1      47.138  31.514  26.921  1.00  0.00     0.022 A 
BRANCH  63  66
ATOM     66  S   UNL A   1      44.546  32.266  26.421  1.00  0.00     0.127 S 
ATOM     67  O   UNL A   1      45.295  32.728  25.255  1.00  0.00    -0.237 OA
ATOM     68  O   UNL A   1      43.584  31.199  26.145  1.00  0.00    -0.237 OA
ATOM     69  O   UNL A   1      44.032  33.313  27.295  1.00  0.00    -0.744 OA
ENDBRANCH  63  66
ENDBRANCH  36  59
ENDBRANCH  10  11
ENDBRANCH   3   5
ENDBRANCH   2   3
ENDBRANCH   1   2
BRANCH   1  70
ATOM     70  C   UNL A   1      33.063  33.467  27.830  1.00  0.00     0.202 C 
BRANCH  70  71
ATOM     71  O   UNL A   1      32.661  34.680  28.464  1.00  0.00    -0.374 OA
BRANCH  71  72
ATOM     72  C   UNL A   1      33.662  35.706  28.529  1.00  0.00     0.202 C 
BRANCH  72  73
ATOM     73  C   UNL A   1      33.304  36.979  29.309  1.00  0.00     0.261 C 
BRANCH  73  74
ATOM     74  O   UNL A   1      32.563  36.678  30.507  1.00  0.00    -0.458 OA
BRANCH  74  75
ATOM     75  C   UNL A   1      33.111  37.141  31.671  1.00  0.00     0.359 C 
ATOM     76  O   UNL A   1      32.959  38.276  32.107  1.00  0.00    -0.244 OA
BRANCH  75  77
ATOM     77  C   UNL A   1      33.795  36.070  32.416  1.00  0.00     0.174 A 
ATOM     78  C   UNL A   1      33.988  34.695  32.024  1.00  0.00     0.091 A 
ATOM     79  N   UNL A   1      34.264  36.291  33.674  1.00  0.00    -0.142 NA
ATOM     80  C   UNL A   1      34.613  34.131  33.102  1.00  0.00     0.199 A 
ATOM     81  N   UNL A   1      34.724  35.105  34.004  1.00  0.00    -0.135 N 
ATOM     82  N   UNL A   1      35.125  32.989  33.618  1.00  0.00    -0.109 NA
ATOM     83  N   UNL A   1      35.285  34.575  35.074  1.00  0.00    -0.177 N 
ATOM     84  N   UNL A   1      35.483  33.228  34.827  1.00  0.00    -0.050 NA
ATOM     85  H   UNL A   1      35.521  35.053  35.901  1.00  0.00     0.216 HD
ENDBRANCH  75  77
ENDBRANCH  74  75
ENDBRANCH  73  74
ENDBRANCH  72  73
ENDBRANCH  71  72
ENDBRANCH  70  71
ENDBRANCH   1  70
TORSDOF 17
ENDMDL
MODEL 3
REMARK VINA RESULT:     -11.2      1.368      1.809
REMARK SMILES O=C(OCCOCCOC(=O)c1cc2nn[nH]n2n1)c1ccc(-c2c3nc(c(-c4cccc(S(=O)(=O)[O-])c4F)c4ccc([nH]4)c(-c4cccc(S(=O)(=O)[O-])c4F)c4nc(c(-c5cccc(S(=O)(=O)[O-])c5F)c5ccc2[nH]5)C=C4)C=C3)cc1
REMARK SMILES IDX 4 1 3 2 2 3 1 4 20 5 21 6 82 7 22 8 81 9 23 10 24 11 25 12
REMARK SMILES IDX 75 13 26 14 80 15 74 16 76 17 27 18 79 19 73 20 72 21 28 23
REMARK SMILES IDX 60 24 40 25 59 26 41 27 44 28 58 29 77 30 42 31 43 32 57 34
REMARK SMILES IDX 78 35 45 36 29 37 30 38 38 39 31 40 33 41 39 42 32 43 34 44
REMARK SMILES IDX 35 45 36 46 37 47 61 48 62 49 70 50 63 51 65 52 71 53 64 54
REMARK SMILES IDX 66 55 67 56 68 57 69 58 46 59 47 60 55 61 48 62 50 63 56 64
REMARK SMILES IDX 49 65 51 66 52 67 53 68 54 69 5 70 6 71 7 72 8 73 9 74 10 75
REMARK SMILES IDX 11 76 12 77 13 78 19 79 14 80 18 81 15 82 17 83 16 84
REMARK H PARENT 76 22 44 33 17 85
REMARK Flexibility Score: inf
ROOT
ATOM      1  C   UNL A   1      33.000  31.200  27.272  1.00  0.00     0.261 C 
ENDROOT
BRANCH   1   2
ATOM      2  O   UNL A   1      34.433  31.030  27.247  1.00  0.00    -0.460 OA
BRANCH   2   3
ATOM      3  C   UNL A   1      35.250  31.801  28.006  1.00  0.00     0.338 C 
ATOM      4  O   UNL A   1      34.923  32.921  28.380  1.00  0.00    -0.246 OA
BRANCH   3   5
ATOM      5  C   UNL A   1      36.392  31.069  28.608  1.00  0.00     0.060 A 
ATOM      6  C   UNL A   1      37.479  31.723  29.187  1.00  0.00     0.016 A 
ATOM      7  C   UNL A   1      36.413  29.670  28.492  1.00  0.00     0.016 A 
ATOM      8  C   UNL A   1      38.640  31.036  29.465  1.00  0.00     0.010 A 
ATOM      9  C   UNL A   1      37.568  28.965  28.814  1.00  0.00     0.010 A 
ATOM     10  C   UNL A   1      38.707  29.669  29.210  1.00  0.00    -0.014 A 
BRANCH  10  11
ATOM     11  C   UNL A   1      40.027  29.065  29.338  1.00  0.00     0.031 A 
ATOM     12  C   UNL A   1      40.576  28.945  30.716  1.00  0.00     0.074 A 
ATOM     13  C   UNL A   1      40.719  28.629  28.269  1.00  0.00     0.049 A 
ATOM     14  N   UNL A   1      41.677  29.438  31.191  1.00  0.00    -0.248 NA
ATOM     15  C   UNL A   1      39.745  28.253  31.710  1.00  0.00     0.031 C 
ATOM     16  C   UNL A   1      40.227  28.439  26.901  1.00  0.00     0.029 A 
ATOM     17  N   UNL A   1      41.982  28.116  28.224  1.00  0.00    -0.354 N 
ATOM     18  C   UNL A   1      41.777  28.947  32.493  1.00  0.00     0.074 A 
ATOM     19  C   UNL A   1      40.508  28.337  32.798  1.00  0.00     0.031 C 
ATOM     20  C   UNL A   1      41.060  27.600  26.253  1.00  0.00     0.029 A 
ATOM     21  C   UNL A   1      42.200  27.324  27.108  1.00  0.00     0.049 A 
ATOM     22  H   UNL A   1      42.666  28.290  28.911  1.00  0.00     0.167 HD
ATOM     23  C   UNL A   1      42.957  28.893  33.168  1.00  0.00     0.034 A 
ATOM     24  C   UNL A   1      43.186  26.416  26.947  1.00  0.00     0.034 A 
ATOM     25  C   UNL A   1      43.954  29.765  32.614  1.00  0.00     0.049 A 
ATOM     26  C   UNL A   1      44.274  26.741  27.895  1.00  0.00     0.074 A 
ATOM     27  C   UNL A   1      44.075  31.124  32.414  1.00  0.00     0.029 A 
ATOM     28  N   UNL A   1      44.976  29.188  31.906  1.00  0.00    -0.354 N 
ATOM     29  N   UNL A   1      45.027  27.803  27.808  1.00  0.00    -0.248 NA
ATOM     30  C   UNL A   1      44.313  26.050  29.173  1.00  0.00     0.031 C 
ATOM     31  C   UNL A   1      44.880  31.258  31.245  1.00  0.00     0.029 A 
ATOM     32  C   UNL A   1      45.197  29.971  30.806  1.00  0.00     0.049 A 
ATOM     33  H   UNL A   1      45.462  28.365  32.145  1.00  0.00     0.167 HD
ATOM     34  C   UNL A   1      45.303  28.146  29.125  1.00  0.00     0.074 A 
ATOM     35  C   UNL A   1      44.961  26.960  29.902  1.00  0.00     0.031 C 
ATOM     36  C   UNL A   1      45.505  29.448  29.491  1.00  0.00     0.034 A 
BRANCH  23  37
ATOM     37  C   UNL A   1      43.323  27.812  34.159  1.00  0.00     0.023 A 
ATOM     38  C   UNL A   1      43.672  28.208  35.470  1.00  0.00     0.012 A 
ATOM     39  C   UNL A   1      43.604  26.476  33.798  1.00  0.00     0.148 A 
ATOM     40  C   UNL A   1      44.306  27.331  36.358  1.00  0.00     0.002 A 
ATOM     41  C   UNL A   1      44.156  25.585  34.714  1.00  0.00     0.091 A 
ATOM     42  F   UNL A   1      43.472  26.080  32.527  1.00  0.00    -0.205 F 
ATOM     43  C   UNL A   1      44.538  26.015  35.985  1.00  0.00     0.022 A 
BRANCH  41  44
ATOM     44  S   UNL A   1      44.392  23.859  34.276  1.00  0.00     0.127 S 
ATOM     45  O   UNL A   1      45.115  23.356  35.440  1.00  0.00    -0.237 OA
ATOM     46  O   UNL A   1      43.015  23.380  34.147  1.00  0.00    -0.237 OA
ATOM     47  O   UNL A   1      45.125  23.897  33.016  1.00  0.00    -0.744 OA
ENDBRANCH  41  44
ENDBRANCH  23  37
BRANCH  24  48
ATOM     48  C   UNL A   1      43.120  25.140  26.203  1.00  0.00     0.023 A 
ATOM     49  C   UNL A   1      44.053  24.873  25.186  1.00  0.00     0.012 A 
ATOM     50  C   UNL A   1      42.281  24.087  26.637  1.00  0.00     0.148 A 
ATOM     51  C   UNL A   1      44.150  23.597  24.621  1.00  0.00     0.002 A 
ATOM     52  C   UNL A   1      42.365  22.827  26.057  1.00  0.00     0.091 A 
ATOM     53  F   UNL A   1      41.463  24.296  27.678  1.00  0.00    -0.205 F 
ATOM     54  C   UNL A   1      43.307  22.575  25.053  1.00  0.00     0.022 A 
BRANCH  52  55
ATOM     55  S   UNL A   1      41.293  21.474  26.561  1.00  0.00     0.127 S 
ATOM     56  O   UNL A   1      41.571  21.382  27.996  1.00  0.00    -0.237 OA
ATOM     57  O   UNL A   1      39.970  21.994  26.227  1.00  0.00    -0.237 OA
ATOM     58  O   UNL A   1      41.736  20.316  25.795  1.00  0.00    -0.744 OA
ENDBRANCH  52  55
ENDBRANCH  24  48
BRANCH  36  59
ATOM     59  C   UNL A   1      45.709  30.479  28.409  1.00  0.00     0.023 A 
ATOM     60  C   UNL A   1      44.615  31.144  27.818  1.00  0.00     0.012 A 
ATOM     61  C   UNL A   1      47.011  30.940  28.138  1.00  0.00     0.148 A 
ATOM     62  C   UNL A   1      44.812  32.226  26.958  1.00  0.00     0.002 A 
ATOM     63  C   UNL A   1      47.200  32.049  27.319  1.00  0.00     0.091 A 
ATOM     64  F   UNL A   1      48.043  30.309  28.718  1.00  0.00    -0.205 F 
ATOM     65  C   UNL A   1      46.103  32.689  26.720  1.00  0.00     0.022 A 
BRANCH  63  66
ATOM     66  S   UNL A   1      48.821  32.789  27.090  1.00  0.00     0.127 S 
ATOM     67  O   UNL A   1      49.198  33.134  28.458  1.00  0.00    -0.237 OA
ATOM     68  O   UNL A   1      49.590  31.690  26.503  1.00  0.00    -0.237 OA
ATOM     69  O   UNL A   1      48.620  33.916  26.188  1.00  0.00    -0.744 OA
ENDBRANCH  63  66
ENDBRANCH  36  59
ENDBRANCH  10  11
ENDBRANCH   3   5
ENDBRANCH   2   3
ENDBRANCH   1   2
BRANCH   1  70
ATOM     70  C   UNL A   1      32.185  30.064  26.662  1.00  0.00     0.202 C 
BRANCH  70  71
ATOM     71  O   UNL A   1      32.866  29.314  25.658  1.00  0.00    -0.374 OA
BRANCH  71  72
ATOM     72  C   UNL A   1      32.230  29.280  24.372  1.00  0.00     0.202 C 
BRANCH  72  73
ATOM     73  C   UNL A   1      31.336  28.069  24.070  1.00  0.00     0.261 C 
BRANCH  73  74
ATOM     74  O   UNL A   1      30.611  28.236  22.836  1.00  0.00    -0.458 OA
BRANCH  74  75
ATOM     75  C   UNL A   1      29.274  28.486  22.968  1.00  0.00     0.359 C 
ATOM     76  O   UNL A   1      28.474  27.722  23.498  1.00  0.00    -0.244 OA
BRANCH  75  77
ATOM     77  C   UNL A   1      28.926  29.847  22.526  1.00  0.00     0.174 A 
ATOM     78  C   UNL A   1      28.807  31.041  23.328  1.00  0.00     0.091 A 
ATOM     79  N   UNL A   1      28.580  30.090  21.233  1.00  0.00    -0.142 NA
ATOM     80  C   UNL A   1      28.398  31.995  22.437  1.00  0.00     0.199 A 
ATOM     81  N   UNL A   1      28.281  31.369  21.267  1.00  0.00    -0.135 N 
ATOM     82  N   UNL A   1      28.040  33.291  22.283  1.00  0.00    -0.109 NA
ATOM     83  N   UNL A   1      27.844  32.260  20.397  1.00  0.00    -0.177 N 
ATOM     84  N   UNL A   1      27.651  33.452  21.072  1.00  0.00    -0.050 NA
ATOM     85  H   UNL A   1      27.685  32.103  19.439  1.00  0.00     0.216 HD
ENDBRANCH  75  77
ENDBRANCH  74  75
ENDBRANCH  73  74
ENDBRANCH  72  73
ENDBRANCH  71  72
ENDBRANCH  70  71
ENDBRANCH   1  70
TORSDOF 17
ENDMDL
