MODEL 1
REMARK VINA RESULT:      -7.4      0.000      0.000
REMARK SMILES CC(=O)Oc1ccccc1SCCCCCC(=O)OCCOCCOC(=O)c1ccc(-c2c3nc(c(-c4cccc(S(=O)(=O)[O-])c4F)c4ccc([nH]4)c(-c4cccc(S(=O)(=O)[O-])c4F)c4nc(c(-c5cccc(S(=O)(=O)[O-])c5F)c5ccc2[nH]5)C=C4)C=C3)cc1
REMARK SMILES IDX 20 1 19 2 17 3 18 4 16 5 15 6 14 7 13 8 12 9 11 10 10 11
REMARK SMILES IDX 5 12 6 13 7 14 9 15 8 16 4 17 2 18 1 19 3 20 21 21 22 22
REMARK SMILES IDX 23 23 24 24 25 25 26 26 27 27 28 28 29 29 90 30 30 31 89 32
REMARK SMILES IDX 31 33 32 34 33 35 83 36 34 37 88 38 82 39 84 40 35 41 87 42
REMARK SMILES IDX 81 43 80 44 36 46 68 47 48 48 67 49 49 50 52 51 66 52 85 53
REMARK SMILES IDX 50 54 51 55 65 57 86 58 53 59 37 60 38 61 46 62 39 63 41 64
REMARK SMILES IDX 47 65 40 66 42 67 43 68 44 69 45 70 69 71 70 72 78 73 71 74
REMARK SMILES IDX 73 75 79 76 72 77 74 78 75 79 76 80 77 81 54 82 55 83 63 84
REMARK SMILES IDX 56 85 58 86 64 87 57 88 59 89 60 90 61 91 62 92
REMARK H PARENT 84 45 52 56
REMARK Flexibility Score: inf
ROOT
ATOM      1  C   UNL A   1      42.855  36.354  38.070  1.00  0.00     0.261 C 
ENDROOT
BRANCH   1   2
ATOM      2  O   UNL A   1      44.245  36.492  38.413  1.00  0.00    -0.463 OA
BRANCH   2   3
ATOM      3  C   UNL A   1      45.042  37.082  37.490  1.00  0.00     0.305 C 
ATOM      4  O   UNL A   1      46.220  37.373  37.653  1.00  0.00    -0.252 OA
BRANCH   3   5
ATOM      5  C   UNL A   1      44.290  37.244  36.182  1.00  0.00     0.123 C 
BRANCH   5   6
ATOM      6  C   UNL A   1      44.908  36.388  35.060  1.00  0.00     0.012 C 
BRANCH   6   7
ATOM      7  C   UNL A   1      45.305  34.916  35.274  1.00  0.00     0.001 C 
BRANCH   7   8
ATOM      8  C   UNL A   1      46.390  34.145  34.514  1.00  0.00     0.011 C 
BRANCH   8   9
ATOM      9  C   UNL A   1      46.384  33.732  33.029  1.00  0.00     0.075 C 
BRANCH   9  10
ATOM     10  S   UNL A   1      45.273  34.376  31.708  1.00  0.00    -0.122 SA
BRANCH  10  11
ATOM     11  C   UNL A   1      44.687  33.004  30.739  1.00  0.00     0.050 A 
ATOM     12  C   UNL A   1      44.004  33.042  29.518  1.00  0.00     0.144 A 
ATOM     13  C   UNL A   1      43.742  31.859  28.803  1.00  0.00     0.048 A 
ATOM     14  C   UNL A   1      44.074  30.620  29.357  1.00  0.00     0.004 A 
ATOM     15  C   UNL A   1      44.875  31.744  31.334  1.00  0.00     0.019 A 
ATOM     16  C   UNL A   1      44.578  30.562  30.652  1.00  0.00     0.001 A 
BRANCH  12  17
ATOM     17  O   UNL A   1      43.466  34.248  29.037  1.00  0.00    -0.426 OA
BRANCH  17  18
ATOM     18  C   UNL A   1      44.011  34.547  27.821  1.00  0.00     0.308 C 
ATOM     19  C   UNL A   1      45.427  35.000  27.878  1.00  0.00     0.139 C 
ATOM     20  O   UNL A   1      43.430  34.473  26.750  1.00  0.00    -0.252 OA
ENDBRANCH  17  18
ENDBRANCH  12  17
ENDBRANCH  10  11
ENDBRANCH   9  10
ENDBRANCH   8   9
ENDBRANCH   7   8
ENDBRANCH   6   7
ENDBRANCH   5   6
ENDBRANCH   3   5
ENDBRANCH   2   3
ENDBRANCH   1   2
BRANCH   1  21
ATOM     21  C   UNL A   1      42.001  36.752  39.281  1.00  0.00     0.202 C 
BRANCH  21  22
ATOM     22  O   UNL A   1      42.009  35.826  40.369  1.00  0.00    -0.374 OA
BRANCH  22  23
ATOM     23  C   UNL A   1      41.968  34.433  40.056  1.00  0.00     0.202 C 
BRANCH  23  24
ATOM     24  C   UNL A   1      40.612  33.713  40.231  1.00  0.00     0.261 C 
BRANCH  24  25
ATOM     25  O   UNL A   1      39.498  34.397  39.627  1.00  0.00    -0.460 OA
BRANCH  25  26
ATOM     26  C   UNL A   1      38.398  33.630  39.427  1.00  0.00     0.338 C 
ATOM     27  O   UNL A   1      37.453  33.496  40.188  1.00  0.00    -0.246 OA
BRANCH  26  28
ATOM     28  C   UNL A   1      38.380  33.096  38.049  1.00  0.00     0.060 A 
ATOM     29  C   UNL A   1      37.845  31.812  37.866  1.00  0.00     0.016 A 
ATOM     30  C   UNL A   1      38.961  33.776  36.977  1.00  0.00     0.016 A 
ATOM     31  C   UNL A   1      37.948  31.176  36.630  1.00  0.00     0.010 A 
ATOM     32  C   UNL A   1      39.071  33.131  35.738  1.00  0.00     0.010 A 
ATOM     33  C   UNL A   1      38.608  31.811  35.571  1.00  0.00    -0.014 A 
BRANCH  33  34
ATOM     34  C   UNL A   1      38.980  31.033  34.362  1.00  0.00     0.031 A 
ATOM     35  C   UNL A   1      40.239  30.206  34.397  1.00  0.00     0.074 A 
ATOM     36  C   UNL A   1      38.220  31.059  33.251  1.00  0.00     0.049 A 
ATOM     37  N   UNL A   1      40.814  29.531  33.436  1.00  0.00    -0.248 NA
ATOM     38  C   UNL A   1      40.947  30.134  35.687  1.00  0.00     0.031 C 
ATOM     39  C   UNL A   1      36.966  31.794  33.101  1.00  0.00     0.029 A 
ATOM     40  N   UNL A   1      38.418  30.475  32.023  1.00  0.00    -0.354 N 
ATOM     41  C   UNL A   1      41.972  28.996  33.990  1.00  0.00     0.074 A 
ATOM     42  C   UNL A   1      42.016  29.417  35.372  1.00  0.00     0.031 C 
ATOM     43  C   UNL A   1      36.529  31.654  31.837  1.00  0.00     0.029 A 
ATOM     44  C   UNL A   1      37.488  30.851  31.081  1.00  0.00     0.049 A 
ATOM     45  H   UNL A   1      39.153  29.847  31.836  1.00  0.00     0.167 HD
ATOM     46  C   UNL A   1      42.912  28.222  33.401  1.00  0.00     0.034 A 
ATOM     47  C   UNL A   1      37.441  30.609  29.755  1.00  0.00     0.034 A 
ATOM     48  C   UNL A   1      42.848  27.773  32.037  1.00  0.00     0.049 A 
ATOM     49  C   UNL A   1      38.515  29.760  29.119  1.00  0.00     0.074 A 
ATOM     50  C   UNL A   1      43.726  26.941  31.366  1.00  0.00     0.029 A 
ATOM     51  N   UNL A   1      41.858  28.126  31.134  1.00  0.00    -0.354 N 
ATOM     52  N   UNL A   1      39.546  29.177  29.680  1.00  0.00    -0.248 NA
ATOM     53  C   UNL A   1      38.404  29.510  27.673  1.00  0.00     0.031 C 
ATOM     54  C   UNL A   1      43.287  26.817  30.046  1.00  0.00     0.029 A 
ATOM     55  C   UNL A   1      42.112  27.538  29.908  1.00  0.00     0.049 A 
ATOM     56  H   UNL A   1      41.092  28.709  31.335  1.00  0.00     0.167 HD
ATOM     57  C   UNL A   1      40.173  28.453  28.671  1.00  0.00     0.074 A 
ATOM     58  C   UNL A   1      39.404  28.664  27.464  1.00  0.00     0.031 C 
ATOM     59  C   UNL A   1      41.290  27.689  28.736  1.00  0.00     0.034 A 
BRANCH  46  60
ATOM     60  C   UNL A   1      44.097  27.791  34.221  1.00  0.00     0.023 A 
ATOM     61  C   UNL A   1      45.213  28.642  34.347  1.00  0.00     0.012 A 
ATOM     62  C   UNL A   1      44.057  26.585  34.952  1.00  0.00     0.148 A 
ATOM     63  C   UNL A   1      46.281  28.291  35.172  1.00  0.00     0.002 A 
ATOM     64  C   UNL A   1      45.104  26.265  35.806  1.00  0.00     0.091 A 
ATOM     65  F   UNL A   1      42.994  25.783  34.802  1.00  0.00    -0.205 F 
ATOM     66  C   UNL A   1      46.221  27.111  35.911  1.00  0.00     0.022 A 
BRANCH  64  67
ATOM     67  S   UNL A   1      45.083  24.812  36.863  1.00  0.00     0.127 S 
ATOM     68  O   UNL A   1      46.428  24.848  37.440  1.00  0.00    -0.237 OA
ATOM     69  O   UNL A   1      44.008  25.131  37.801  1.00  0.00    -0.237 OA
ATOM     70  O   UNL A   1      44.816  23.679  35.989  1.00  0.00    -0.744 OA
ENDBRANCH  64  67
ENDBRANCH  46  60
BRANCH  47  71
ATOM     71  C   UNL A   1      36.338  31.176  28.924  1.00  0.00     0.023 A 
ATOM     72  C   UNL A   1      36.279  32.563  28.692  1.00  0.00     0.012 A 
ATOM     73  C   UNL A   1      35.337  30.347  28.379  1.00  0.00     0.148 A 
ATOM     74  C   UNL A   1      35.221  33.120  27.973  1.00  0.00     0.002 A 
ATOM     75  C   UNL A   1      34.319  30.902  27.612  1.00  0.00     0.091 A 
ATOM     76  F   UNL A   1      35.396  29.031  28.626  1.00  0.00    -0.205 F 
ATOM     77  C   UNL A   1      34.247  32.290  27.425  1.00  0.00     0.022 A 
BRANCH  75  78
ATOM     78  S   UNL A   1      33.100  29.890  26.764  1.00  0.00     0.127 S 
ATOM     79  O   UNL A   1      33.917  29.213  25.762  1.00  0.00    -0.237 OA
ATOM     80  O   UNL A   1      32.614  29.032  27.847  1.00  0.00    -0.237 OA
ATOM     81  O   UNL A   1      32.106  30.824  26.253  1.00  0.00    -0.744 OA
ENDBRANCH  75  78
ENDBRANCH  47  71
BRANCH  59  82
ATOM     82  C   UNL A   1      41.722  26.945  27.500  1.00  0.00     0.023 A 
ATOM     83  C   UNL A   1      42.412  27.616  26.473  1.00  0.00     0.012 A 
ATOM     84  C   UNL A   1      41.549  25.548  27.422  1.00  0.00     0.148 A 
ATOM     85  C   UNL A   1      42.906  26.910  25.376  1.00  0.00     0.002 A 
ATOM     86  C   UNL A   1      42.088  24.844  26.353  1.00  0.00     0.091 A 
ATOM     87  F   UNL A   1      40.876  24.933  28.405  1.00  0.00    -0.205 F 
ATOM     88  C   UNL A   1      42.758  25.525  25.323  1.00  0.00     0.022 A 
BRANCH  86  89
ATOM     89  S   UNL A   1      42.039  23.051  26.253  1.00  0.00     0.127 S 
ATOM     90  O   UNL A   1      40.599  22.794  26.223  1.00  0.00    -0.237 OA
ATOM     91  O   UNL A   1      42.731  22.793  24.991  1.00  0.00    -0.237 OA
ATOM     92  O   UNL A   1      42.731  22.561  27.437  1.00  0.00    -0.744 OA
ENDBRANCH  86  89
ENDBRANCH  59  82
ENDBRANCH  33  34
ENDBRANCH  26  28
ENDBRANCH  25  26
ENDBRANCH  24  25
ENDBRANCH  23  24
ENDBRANCH  22  23
ENDBRANCH  21  22
ENDBRANCH   1  21
TORSDOF 25
ENDMDL
MODEL 2
REMARK VINA RESULT:      -7.4      4.828     13.250
REMARK SMILES CC(=O)Oc1ccccc1SCCCCCC(=O)OCCOCCOC(=O)c1ccc(-c2c3nc(c(-c4cccc(S(=O)(=O)[O-])c4F)c4ccc([nH]4)c(-c4cccc(S(=O)(=O)[O-])c4F)c4nc(c(-c5cccc(S(=O)(=O)[O-])c5F)c5ccc2[nH]5)C=C4)C=C3)cc1
REMARK SMILES IDX 20 1 19 2 17 3 18 4 16 5 15 6 14 7 13 8 12 9 11 10 10 11
REMARK SMILES IDX 5 12 6 13 7 14 9 15 8 16 4 17 2 18 1 19 3 20 21 21 22 22
REMARK SMILES IDX 23 23 24 24 25 25 26 26 27 27 28 28 29 29 90 30 30 31 89 32
REMARK SMILES IDX 31 33 32 34 33 35 83 36 34 37 88 38 82 39 84 40 35 41 87 42
REMARK SMILES IDX 81 43 80 44 36 46 68 47 48 48 67 49 49 50 52 51 66 52 85 53
REMARK SMILES IDX 50 54 51 55 65 57 86 58 53 59 37 60 38 61 46 62 39 63 41 64
REMARK SMILES IDX 47 65 40 66 42 67 43 68 44 69 45 70 69 71 70 72 78 73 71 74
REMARK SMILES IDX 73 75 79 76 72 77 74 78 75 79 76 80 77 81 54 82 55 83 63 84
REMARK SMILES IDX 56 85 58 86 64 87 57 88 59 89 60 90 61 91 62 92
REMARK H PARENT 84 45 52 56
REMARK Flexibility Score: inf
ROOT
ATOM      1  C   UNL A   1      41.136  28.174  29.056  1.00  0.00     0.261 C 
ENDROOT
BRANCH   1   2
ATOM      2  O   UNL A   1      41.253  27.197  28.008  1.00  0.00    -0.463 OA
BRANCH   2   3
ATOM      3  C   UNL A   1      41.205  25.896  28.383  1.00  0.00     0.305 C 
ATOM      4  O   UNL A   1      42.173  25.209  28.681  1.00  0.00    -0.252 OA
BRANCH   3   5
ATOM      5  C   UNL A   1      39.763  25.434  28.473  1.00  0.00     0.123 C 
BRANCH   5   6
ATOM      6  C   UNL A   1      39.516  24.171  27.627  1.00  0.00     0.012 C 
BRANCH   6   7
ATOM      7  C   UNL A   1      38.814  24.222  26.259  1.00  0.00     0.001 C 
BRANCH   7   8
ATOM      8  C   UNL A   1      37.567  23.433  25.844  1.00  0.00     0.011 C 
BRANCH   8   9
ATOM      9  C   UNL A   1      36.475  23.859  24.843  1.00  0.00     0.075 C 
BRANCH   9  10
ATOM     10  S   UNL A   1      34.680  24.084  25.197  1.00  0.00    -0.122 SA
BRANCH  10  11
ATOM     11  C   UNL A   1      33.914  22.481  25.288  1.00  0.00     0.050 A 
ATOM     12  C   UNL A   1      32.740  22.126  25.963  1.00  0.00     0.144 A 
ATOM     13  C   UNL A   1      32.184  20.843  25.812  1.00  0.00     0.048 A 
ATOM     14  C   UNL A   1      32.857  19.874  25.063  1.00  0.00     0.004 A 
ATOM     15  C   UNL A   1      34.638  21.449  24.667  1.00  0.00     0.019 A 
ATOM     16  C   UNL A   1      34.116  20.159  24.548  1.00  0.00     0.001 A 
BRANCH  12  17
ATOM     17  O   UNL A   1      32.156  23.003  26.892  1.00  0.00    -0.426 OA
BRANCH  17  18
ATOM     18  C   UNL A   1      30.880  23.303  26.509  1.00  0.00     0.308 C 
ATOM     19  C   UNL A   1      30.730  23.612  25.062  1.00  0.00     0.139 C 
ATOM     20  O   UNL A   1      29.911  23.336  27.251  1.00  0.00    -0.252 OA
ENDBRANCH  17  18
ENDBRANCH  12  17
ENDBRANCH  10  11
ENDBRANCH   9  10
ENDBRANCH   8   9
ENDBRANCH   7   8
ENDBRANCH   6   7
ENDBRANCH   5   6
ENDBRANCH   3   5
ENDBRANCH   2   3
ENDBRANCH   1   2
BRANCH   1  21
ATOM     21  C   UNL A   1      40.339  29.376  28.531  1.00  0.00     0.202 C 
BRANCH  21  22
ATOM     22  O   UNL A   1      38.955  29.398  28.888  1.00  0.00    -0.374 OA
BRANCH  22  23
ATOM     23  C   UNL A   1      38.017  28.877  27.945  1.00  0.00     0.202 C 
BRANCH  23  24
ATOM     24  C   UNL A   1      36.735  29.702  27.698  1.00  0.00     0.261 C 
BRANCH  24  25
ATOM     25  O   UNL A   1      35.882  29.827  28.852  1.00  0.00    -0.460 OA
BRANCH  25  26
ATOM     26  C   UNL A   1      35.404  31.075  29.078  1.00  0.00     0.338 C 
ATOM     27  O   UNL A   1      34.354  31.541  28.663  1.00  0.00    -0.246 OA
BRANCH  26  28
ATOM     28  C   UNL A   1      36.240  31.780  30.072  1.00  0.00     0.060 A 
ATOM     29  C   UNL A   1      36.205  33.181  30.062  1.00  0.00     0.016 A 
ATOM     30  C   UNL A   1      37.115  31.103  30.925  1.00  0.00     0.016 A 
ATOM     31  C   UNL A   1      37.088  33.914  30.851  1.00  0.00     0.010 A 
ATOM     32  C   UNL A   1      38.009  31.843  31.710  1.00  0.00     0.010 A 
ATOM     33  C   UNL A   1      38.033  33.249  31.642  1.00  0.00    -0.014 A 
BRANCH  33  34
ATOM     34  C   UNL A   1      39.156  34.011  32.246  1.00  0.00     0.031 A 
ATOM     35  C   UNL A   1      40.325  34.384  31.371  1.00  0.00     0.074 A 
ATOM     36  C   UNL A   1      39.146  34.364  33.545  1.00  0.00     0.049 A 
ATOM     37  N   UNL A   1      41.456  34.953  31.696  1.00  0.00    -0.248 NA
ATOM     38  C   UNL A   1      40.204  34.067  29.936  1.00  0.00     0.031 C 
ATOM     39  C   UNL A   1      38.063  34.091  34.487  1.00  0.00     0.029 A 
ATOM     40  N   UNL A   1      40.099  35.001  34.302  1.00  0.00    -0.354 N 
ATOM     41  C   UNL A   1      42.198  35.019  30.522  1.00  0.00     0.074 A 
ATOM     42  C   UNL A   1      41.389  34.440  29.474  1.00  0.00     0.031 C 
ATOM     43  C   UNL A   1      38.432  34.517  35.708  1.00  0.00     0.029 A 
ATOM     44  C   UNL A   1      39.788  35.059  35.641  1.00  0.00     0.049 A 
ATOM     45  H   UNL A   1      40.926  35.380  33.922  1.00  0.00     0.167 HD
ATOM     46  C   UNL A   1      43.441  35.520  30.334  1.00  0.00     0.034 A 
ATOM     47  C   UNL A   1      40.528  35.464  36.693  1.00  0.00     0.034 A 
ATOM     48  C   UNL A   1      44.229  36.130  31.370  1.00  0.00     0.049 A 
ATOM     49  C   UNL A   1      41.919  35.998  36.457  1.00  0.00     0.074 A 
ATOM     50  C   UNL A   1      45.479  36.715  31.263  1.00  0.00     0.029 A 
ATOM     51  N   UNL A   1      43.852  36.224  32.699  1.00  0.00    -0.354 N 
ATOM     52  N   UNL A   1      42.565  36.149  35.326  1.00  0.00    -0.248 NA
ATOM     53  C   UNL A   1      42.675  36.446  37.638  1.00  0.00     0.031 C 
ATOM     54  C   UNL A   1      45.873  37.133  32.536  1.00  0.00     0.029 A 
ATOM     55  C   UNL A   1      44.851  36.846  33.426  1.00  0.00     0.049 A 
ATOM     56  H   UNL A   1      43.003  35.895  33.071  1.00  0.00     0.167 HD
ATOM     57  C   UNL A   1      43.774  36.754  35.653  1.00  0.00     0.074 A 
ATOM     58  C   UNL A   1      43.772  36.949  37.087  1.00  0.00     0.031 C 
ATOM     59  C   UNL A   1      44.798  37.110  34.840  1.00  0.00     0.034 A 
BRANCH  46  60
ATOM     60  C   UNL A   1      44.038  35.447  28.955  1.00  0.00     0.023 A 
ATOM     61  C   UNL A   1      44.063  36.595  28.138  1.00  0.00     0.012 A 
ATOM     62  C   UNL A   1      44.666  34.265  28.512  1.00  0.00     0.148 A 
ATOM     63  C   UNL A   1      44.688  36.562  26.892  1.00  0.00     0.002 A 
ATOM     64  C   UNL A   1      45.325  34.254  27.290  1.00  0.00     0.091 A 
ATOM     65  F   UNL A   1      44.613  33.182  29.299  1.00  0.00    -0.205 F 
ATOM     66  C   UNL A   1      45.330  35.398  26.475  1.00  0.00     0.022 A 
BRANCH  64  67
ATOM     67  S   UNL A   1      46.253  32.832  26.702  1.00  0.00     0.127 S 
ATOM     68  O   UNL A   1      45.280  32.193  25.815  1.00  0.00    -0.237 OA
ATOM     69  O   UNL A   1      47.380  33.464  26.016  1.00  0.00    -0.237 OA
ATOM     70  O   UNL A   1      46.611  32.064  27.885  1.00  0.00    -0.744 OA
ENDBRANCH  64  67
ENDBRANCH  46  60
BRANCH  47  71
ATOM     71  C   UNL A   1      39.976  35.385  38.077  1.00  0.00     0.023 A 
ATOM     72  C   UNL A   1      39.369  36.517  38.655  1.00  0.00     0.012 A 
ATOM     73  C   UNL A   1      40.067  34.197  38.831  1.00  0.00     0.148 A 
ATOM     74  C   UNL A   1      38.905  36.482  39.970  1.00  0.00     0.002 A 
ATOM     75  C   UNL A   1      39.548  34.152  40.119  1.00  0.00     0.091 A 
ATOM     76  F   UNL A   1      40.666  33.135  38.275  1.00  0.00    -0.205 F 
ATOM     77  C   UNL A   1      38.985  35.299  40.699  1.00  0.00     0.022 A 
BRANCH  75  78
ATOM     78  S   UNL A   1      39.495  32.633  41.077  1.00  0.00     0.127 S 
ATOM     79  O   UNL A   1      39.341  33.140  42.437  1.00  0.00    -0.237 OA
ATOM     80  O   UNL A   1      38.309  31.971  40.528  1.00  0.00    -0.237 OA
ATOM     81  O   UNL A   1      40.746  31.946  40.788  1.00  0.00    -0.744 OA
ENDBRANCH  75  78
ENDBRANCH  47  71
BRANCH  59  82
ATOM     82  C   UNL A   1      45.979  37.823  35.445  1.00  0.00     0.023 A 
ATOM     83  C   UNL A   1      47.081  37.091  35.924  1.00  0.00     0.012 A 
ATOM     84  C   UNL A   1      46.040  39.231  35.419  1.00  0.00     0.148 A 
ATOM     85  C   UNL A   1      48.220  37.750  36.388  1.00  0.00     0.002 A 
ATOM     86  C   UNL A   1      47.196  39.880  35.833  1.00  0.00     0.091 A 
ATOM     87  F   UNL A   1      44.973  39.908  34.972  1.00  0.00    -0.205 F 
ATOM     88  C   UNL A   1      48.283  39.141  36.328  1.00  0.00     0.022 A 
BRANCH  86  89
ATOM     89  S   UNL A   1      47.409  41.658  35.695  1.00  0.00     0.127 S 
ATOM     90  O   UNL A   1      47.197  41.872  34.263  1.00  0.00    -0.237 OA
ATOM     91  O   UNL A   1      46.337  42.165  36.552  1.00  0.00    -0.237 OA
ATOM     92  O   UNL A   1      48.754  41.943  36.172  1.00  0.00    -0.744 OA
ENDBRANCH  86  89
ENDBRANCH  59  82
ENDBRANCH  33  34
ENDBRANCH  26  28
ENDBRANCH  25  26
ENDBRANCH  24  25
ENDBRANCH  23  24
ENDBRANCH  22  23
ENDBRANCH  21  22
ENDBRANCH   1  21
TORSDOF 25
ENDMDL
MODEL 3
REMARK VINA RESULT:      -7.4      6.890     12.196
REMARK SMILES CC(=O)Oc1ccccc1SCCCCCC(=O)OCCOCCOC(=O)c1ccc(-c2c3nc(c(-c4cccc(S(=O)(=O)[O-])c4F)c4ccc([nH]4)c(-c4cccc(S(=O)(=O)[O-])c4F)c4nc(c(-c5cccc(S(=O)(=O)[O-])c5F)c5ccc2[nH]5)C=C4)C=C3)cc1
REMARK SMILES IDX 20 1 19 2 17 3 18 4 16 5 15 6 14 7 13 8 12 9 11 10 10 11
REMARK SMILES IDX 5 12 6 13 7 14 9 15 8 16 4 17 2 18 1 19 3 20 21 21 22 22
REMARK SMILES IDX 23 23 24 24 25 25 26 26 27 27 28 28 29 29 90 30 30 31 89 32
REMARK SMILES IDX 31 33 32 34 33 35 83 36 34 37 88 38 82 39 84 40 35 41 87 42
REMARK SMILES IDX 81 43 80 44 36 46 68 47 48 48 67 49 49 50 52 51 66 52 85 53
REMARK SMILES IDX 50 54 51 55 65 57 86 58 53 59 37 60 38 61 46 62 39 63 41 64
REMARK SMILES IDX 47 65 40 66 42 67 43 68 44 69 45 70 69 71 70 72 78 73 71 74
REMARK SMILES IDX 73 75 79 76 72 77 74 78 75 79 76 80 77 81 54 82 55 83 63 84
REMARK SMILES IDX 56 85 58 86 64 87 57 88 59 89 60 90 61 91 62 92
REMARK H PARENT 84 45 52 56
REMARK Flexibility Score: inf
ROOT
ATOM      1  C   UNL A   1      35.864  34.031  29.799  1.00  0.00     0.261 C 
ENDROOT
BRANCH   1   2
ATOM      2  O   UNL A   1      34.648  34.014  29.031  1.00  0.00    -0.463 OA
BRANCH   2   3
ATOM      3  C   UNL A   1      34.079  35.216  28.770  1.00  0.00     0.305 C 
ATOM      4  O   UNL A   1      34.469  36.017  27.931  1.00  0.00    -0.252 OA
BRANCH   3   5
ATOM      5  C   UNL A   1      32.825  35.389  29.605  1.00  0.00     0.123 C 
BRANCH   5   6
ATOM      6  C   UNL A   1      33.112  36.151  30.913  1.00  0.00     0.012 C 
BRANCH   6   7
ATOM      7  C   UNL A   1      33.458  35.427  32.226  1.00  0.00     0.001 C 
BRANCH   7   8
ATOM      8  C   UNL A   1      34.737  35.600  33.053  1.00  0.00     0.011 C 
BRANCH   8   9
ATOM      9  C   UNL A   1      35.588  34.495  33.711  1.00  0.00     0.075 C 
BRANCH   9  10
ATOM     10  S   UNL A   1      35.668  32.722  33.216  1.00  0.00    -0.122 SA
BRANCH  10  11
ATOM     11  C   UNL A   1      37.358  32.313  32.840  1.00  0.00     0.050 A 
ATOM     12  C   UNL A   1      37.834  31.256  32.055  1.00  0.00     0.144 A 
ATOM     13  C   UNL A   1      39.199  31.159  31.730  1.00  0.00     0.048 A 
ATOM     14  C   UNL A   1      40.113  32.065  32.275  1.00  0.00     0.004 A 
ATOM     15  C   UNL A   1      38.313  33.116  33.487  1.00  0.00     0.019 A 
ATOM     16  C   UNL A   1      39.676  33.001  33.207  1.00  0.00     0.001 A 
BRANCH  12  17
ATOM     17  O   UNL A   1      36.978  30.210  31.671  1.00  0.00    -0.426 OA
BRANCH  17  18
ATOM     18  C   UNL A   1      37.482  29.016  32.102  1.00  0.00     0.308 C 
ATOM     19  C   UNL A   1      38.161  28.218  31.046  1.00  0.00     0.139 C 
ATOM     20  O   UNL A   1      37.404  28.589  33.243  1.00  0.00    -0.252 OA
ENDBRANCH  17  18
ENDBRANCH  12  17
ENDBRANCH  10  11
ENDBRANCH   9  10
ENDBRANCH   8   9
ENDBRANCH   7   8
ENDBRANCH   6   7
ENDBRANCH   5   6
ENDBRANCH   3   5
ENDBRANCH   2   3
ENDBRANCH   1   2
BRANCH   1  21
ATOM     21  C   UNL A   1      36.934  33.222  29.053  1.00  0.00     0.202 C 
BRANCH  21  22
ATOM     22  O   UNL A   1      38.108  33.950  28.686  1.00  0.00    -0.374 OA
BRANCH  22  23
ATOM     23  C   UNL A   1      38.819  34.630  29.721  1.00  0.00     0.202 C 
BRANCH  23  24
ATOM     24  C   UNL A   1      40.340  34.812  29.527  1.00  0.00     0.261 C 
BRANCH  24  25
ATOM     25  O   UNL A   1      40.702  35.540  28.338  1.00  0.00    -0.460 OA
BRANCH  25  26
ATOM     26  C   UNL A   1      41.996  35.938  28.283  1.00  0.00     0.338 C 
ATOM     27  O   UNL A   1      42.439  37.031  28.603  1.00  0.00    -0.246 OA
BRANCH  26  28
ATOM     28  C   UNL A   1      42.877  34.799  27.953  1.00  0.00     0.060 A 
ATOM     29  C   UNL A   1      43.444  34.094  29.024  1.00  0.00     0.016 A 
ATOM     30  C   UNL A   1      43.229  34.484  26.638  1.00  0.00     0.016 A 
ATOM     31  C   UNL A   1      44.413  33.120  28.793  1.00  0.00     0.010 A 
ATOM     32  C   UNL A   1      44.210  33.511  26.409  1.00  0.00     0.010 A 
ATOM     33  C   UNL A   1      44.841  32.858  27.486  1.00  0.00    -0.014 A 
BRANCH  33  34
ATOM     34  C   UNL A   1      46.066  32.049  27.259  1.00  0.00     0.031 A 
ATOM     35  C   UNL A   1      47.339  32.762  26.883  1.00  0.00     0.074 A 
ATOM     36  C   UNL A   1      46.054  30.709  27.380  1.00  0.00     0.049 A 
ATOM     37  N   UNL A   1      48.498  32.263  26.540  1.00  0.00    -0.248 NA
ATOM     38  C   UNL A   1      47.299  34.235  26.891  1.00  0.00     0.031 C 
ATOM     39  C   UNL A   1      44.896  29.905  27.768  1.00  0.00     0.029 A 
ATOM     40  N   UNL A   1      47.045  29.785  27.153  1.00  0.00    -0.354 N 
ATOM     41  C   UNL A   1      49.307  33.355  26.245  1.00  0.00     0.074 A 
ATOM     42  C   UNL A   1      48.513  34.543  26.457  1.00  0.00     0.031 C 
ATOM     43  C   UNL A   1      45.230  28.604  27.707  1.00  0.00     0.029 A 
ATOM     44  C   UNL A   1      46.611  28.482  27.243  1.00  0.00     0.049 A 
ATOM     45  H   UNL A   1      47.975  30.031  26.946  1.00  0.00     0.167 HD
ATOM     46  C   UNL A   1      50.598  33.365  25.837  1.00  0.00     0.034 A 
ATOM     47  C   UNL A   1      47.243  27.328  26.944  1.00  0.00     0.034 A 
ATOM     48  C   UNL A   1      51.398  32.184  25.663  1.00  0.00     0.049 A 
ATOM     49  C   UNL A   1      48.675  27.371  26.470  1.00  0.00     0.074 A 
ATOM     50  C   UNL A   1      52.731  32.098  25.305  1.00  0.00     0.029 A 
ATOM     51  N   UNL A   1      50.939  30.887  25.823  1.00  0.00    -0.354 N 
ATOM     52  N   UNL A   1      49.457  28.408  26.297  1.00  0.00    -0.248 NA
ATOM     53  C   UNL A   1      49.324  26.082  26.180  1.00  0.00     0.031 C 
ATOM     54  C   UNL A   1      53.071  30.746  25.215  1.00  0.00     0.029 A 
ATOM     55  C   UNL A   1      51.960  29.993  25.559  1.00  0.00     0.049 A 
ATOM     56  H   UNL A   1      50.023  30.640  26.085  1.00  0.00     0.167 HD
ATOM     57  C   UNL A   1      50.697  27.896  25.929  1.00  0.00     0.074 A 
ATOM     58  C   UNL A   1      50.567  26.455  25.910  1.00  0.00     0.031 C 
ATOM     59  C   UNL A   1      51.839  28.560  25.627  1.00  0.00     0.034 A 
BRANCH  46  60
ATOM     60  C   UNL A   1      51.245  34.694  25.556  1.00  0.00     0.023 A 
ATOM     61  C   UNL A   1      51.239  35.217  24.248  1.00  0.00     0.012 A 
ATOM     62  C   UNL A   1      51.767  35.469  26.611  1.00  0.00     0.148 A 
ATOM     63  C   UNL A   1      51.761  36.484  23.990  1.00  0.00     0.002 A 
ATOM     64  C   UNL A   1      52.243  36.748  26.354  1.00  0.00     0.091 A 
ATOM     65  F   UNL A   1      51.779  34.944  27.844  1.00  0.00    -0.205 F 
ATOM     66  C   UNL A   1      52.249  37.254  25.043  1.00  0.00     0.022 A 
BRANCH  64  67
ATOM     67  S   UNL A   1      52.815  37.850  27.653  1.00  0.00     0.127 S 
ATOM     68  O   UNL A   1      54.125  37.280  27.967  1.00  0.00    -0.237 OA
ATOM     69  O   UNL A   1      52.859  39.139  26.964  1.00  0.00    -0.237 OA
ATOM     70  O   UNL A   1      51.830  37.762  28.721  1.00  0.00    -0.744 OA
ENDBRANCH  64  67
ENDBRANCH  46  60
BRANCH  47  71
ATOM     71  C   UNL A   1      46.533  26.023  27.081  1.00  0.00     0.023 A 
ATOM     72  C   UNL A   1      46.576  25.328  28.305  1.00  0.00     0.012 A 
ATOM     73  C   UNL A   1      45.831  25.458  25.998  1.00  0.00     0.148 A 
ATOM     74  C   UNL A   1      45.973  24.076  28.435  1.00  0.00     0.002 A 
ATOM     75  C   UNL A   1      45.181  24.239  26.152  1.00  0.00     0.091 A 
ATOM     76  F   UNL A   1      45.817  26.122  24.834  1.00  0.00    -0.205 F 
ATOM     77  C   UNL A   1      45.268  23.536  27.363  1.00  0.00     0.022 A 
BRANCH  75  78
ATOM     78  S   UNL A   1      44.145  23.537  24.863  1.00  0.00     0.127 S 
ATOM     79  O   UNL A   1      43.184  24.611  24.632  1.00  0.00    -0.237 OA
ATOM     80  O   UNL A   1      45.110  23.329  23.780  1.00  0.00    -0.237 OA
ATOM     81  O   UNL A   1      43.605  22.306  25.424  1.00  0.00    -0.744 OA
ENDBRANCH  75  78
ENDBRANCH  47  71
BRANCH  59  82
ATOM     82  C   UNL A   1      53.077  27.757  25.327  1.00  0.00     0.023 A 
ATOM     83  C   UNL A   1      53.395  27.411  23.999  1.00  0.00     0.012 A 
ATOM     84  C   UNL A   1      53.988  27.455  26.359  1.00  0.00     0.148 A 
ATOM     85  C   UNL A   1      54.593  26.759  23.706  1.00  0.00     0.002 A 
ATOM     86  C   UNL A   1      55.202  26.852  26.054  1.00  0.00     0.091 A 
ATOM     87  F   UNL A   1      53.658  27.780  27.617  1.00  0.00    -0.205 F 
ATOM     88  C   UNL A   1      55.501  26.494  24.729  1.00  0.00     0.022 A 
BRANCH  86  89
ATOM     89  S   UNL A   1      56.476  26.568  27.288  1.00  0.00     0.127 S 
ATOM     90  O   UNL A   1      57.695  26.822  26.521  1.00  0.00    -0.237 OA
ATOM     91  O   UNL A   1      56.165  27.585  28.293  1.00  0.00    -0.237 OA
ATOM     92  O   UNL A   1      56.303  25.194  27.740  1.00  0.00    -0.744 OA
ENDBRANCH  86  89
ENDBRANCH  59  82
ENDBRANCH  33  34
ENDBRANCH  26  28
ENDBRANCH  25  26
ENDBRANCH  24  25
ENDBRANCH  23  24
ENDBRANCH  22  23
ENDBRANCH  21  22
ENDBRANCH   1  21
TORSDOF 25
ENDMDL
