MODEL 1
REMARK VINA RESULT:     -10.4      0.000      0.000
REMARK SMILES O=C(OCCOCCOC(=O)[C@@H](CCC(F)(F)F)c1ccc(Cl)cc1)c1ccc(-c2c3nc(c(-c4cccc(S(=O)(=O)[O-])c4F)c4ccc([nH]4)c(-c4cccc(S(=O)(=O)[O-])c4F)c4nc(c(-c5cccc(S(=O)(=O)[O-])c5F)c5ccc2[nH]5)C=C4)C=C3)cc1
REMARK SMILES IDX 6 1 5 2 4 3 3 4 2 5 1 6 26 7 27 8 88 9 28 10 87 11 29 12
REMARK SMILES IDX 30 13 31 14 81 15 32 16 86 17 80 18 82 19 33 20 85 21 79 22
REMARK SMILES IDX 78 23 34 25 66 26 46 27 65 28 47 29 50 30 64 31 83 32 48 33
REMARK SMILES IDX 49 34 63 36 84 37 51 38 35 39 36 40 44 41 37 42 39 43 45 44
REMARK SMILES IDX 38 45 40 46 41 47 42 48 43 49 67 50 68 51 76 52 69 53 71 54
REMARK SMILES IDX 77 55 70 56 72 57 73 58 74 59 75 60 52 61 53 62 61 63 54 64
REMARK SMILES IDX 56 65 62 66 55 67 57 68 58 69 59 70 60 71 7 72 8 73 9 74
REMARK SMILES IDX 10 75 11 76 12 77 13 78 14 79 15 80 16 81 17 82 18 83 19 84
REMARK SMILES IDX 20 85 25 86 21 87 24 88 22 89 23 90
REMARK H PARENT 82 24 50 35
REMARK Flexibility Score: inf
ROOT
ATOM      1  O   UNL A   1      31.929  27.653  24.814  1.00  0.00    -0.374 OA
ENDROOT
BRANCH   1   2
ATOM      2  C   UNL A   1      31.679  28.960  25.331  1.00  0.00     0.202 C 
BRANCH   2   3
ATOM      3  C   UNL A   1      32.884  29.819  25.750  1.00  0.00     0.261 C 
BRANCH   3   4
ATOM      4  O   UNL A   1      32.563  30.681  26.858  1.00  0.00    -0.460 OA
BRANCH   4   5
ATOM      5  C   UNL A   1      33.350  31.633  27.425  1.00  0.00     0.338 C 
ATOM      6  O   UNL A   1      32.949  32.793  27.454  1.00  0.00    -0.246 OA
BRANCH   5   7
ATOM      7  C   UNL A   1      34.697  31.327  27.993  1.00  0.00     0.060 A 
ATOM      8  C   UNL A   1      35.056  30.070  28.461  1.00  0.00     0.016 A 
ATOM      9  C   UNL A   1      35.683  32.326  28.006  1.00  0.00     0.016 A 
ATOM     10  C   UNL A   1      36.289  29.787  28.969  1.00  0.00     0.010 A 
ATOM     11  C   UNL A   1      36.970  32.046  28.488  1.00  0.00     0.010 A 
ATOM     12  C   UNL A   1      37.262  30.766  28.970  1.00  0.00    -0.014 A 
BRANCH  12  13
ATOM     13  C   UNL A   1      38.489  30.354  29.650  1.00  0.00     0.031 A 
ATOM     14  C   UNL A   1      38.651  30.759  31.075  1.00  0.00     0.074 A 
ATOM     15  C   UNL A   1      39.222  29.374  29.085  1.00  0.00     0.049 A 
ATOM     16  N   UNL A   1      39.589  30.440  31.916  1.00  0.00    -0.248 NA
ATOM     17  C   UNL A   1      37.586  31.609  31.647  1.00  0.00     0.031 C 
ATOM     18  C   UNL A   1      38.962  28.780  27.764  1.00  0.00     0.029 A 
ATOM     19  N   UNL A   1      40.280  28.659  29.564  1.00  0.00    -0.354 N 
ATOM     20  C   UNL A   1      39.265  31.092  33.095  1.00  0.00     0.074 A 
ATOM     21  C   UNL A   1      38.028  31.804  32.879  1.00  0.00     0.031 C 
ATOM     22  C   UNL A   1      39.841  27.790  27.545  1.00  0.00     0.029 A 
ATOM     23  C   UNL A   1      40.769  27.742  28.665  1.00  0.00     0.049 A 
ATOM     24  H   UNL A   1      40.656  28.787  30.465  1.00  0.00     0.167 HD
ATOM     25  C   UNL A   1      39.963  31.095  34.251  1.00  0.00     0.034 A 
ATOM     26  C   UNL A   1      41.884  26.995  28.730  1.00  0.00     0.034 A 
ATOM     27  C   UNL A   1      41.189  30.371  34.413  1.00  0.00     0.049 A 
ATOM     28  C   UNL A   1      42.703  27.110  29.985  1.00  0.00     0.074 A 
ATOM     29  C   UNL A   1      42.062  30.372  35.481  1.00  0.00     0.029 A 
ATOM     30  N   UNL A   1      41.716  29.511  33.456  1.00  0.00    -0.354 N 
ATOM     31  N   UNL A   1      42.438  27.785  31.080  1.00  0.00    -0.248 NA
ATOM     32  C   UNL A   1      43.961  26.360  30.026  1.00  0.00     0.031 C 
ATOM     33  C   UNL A   1      43.134  29.532  35.157  1.00  0.00     0.029 A 
ATOM     34  C   UNL A   1      42.906  28.974  33.905  1.00  0.00     0.049 A 
ATOM     35  H   UNL A   1      41.302  29.313  32.585  1.00  0.00     0.167 HD
ATOM     36  C   UNL A   1      43.487  27.530  31.948  1.00  0.00     0.074 A 
ATOM     37  C   UNL A   1      44.371  26.604  31.262  1.00  0.00     0.031 C 
ATOM     38  C   UNL A   1      43.723  28.026  33.190  1.00  0.00     0.034 A 
BRANCH  25  39
ATOM     39  C   UNL A   1      39.439  31.961  35.360  1.00  0.00     0.023 A 
ATOM     40  C   UNL A   1      38.424  31.488  36.217  1.00  0.00     0.012 A 
ATOM     41  C   UNL A   1      39.926  33.272  35.519  1.00  0.00     0.148 A 
ATOM     42  C   UNL A   1      37.881  32.320  37.196  1.00  0.00     0.002 A 
ATOM     43  C   UNL A   1      39.411  34.081  36.524  1.00  0.00     0.091 A 
ATOM     44  F   UNL A   1      40.863  33.712  34.668  1.00  0.00    -0.205 F 
ATOM     45  C   UNL A   1      38.379  33.612  37.354  1.00  0.00     0.022 A 
BRANCH  43  46
ATOM     46  S   UNL A   1      40.017  35.740  36.840  1.00  0.00     0.127 S 
ATOM     47  O   UNL A   1      41.450  35.504  37.012  1.00  0.00    -0.237 OA
ATOM     48  O   UNL A   1      39.656  36.434  35.605  1.00  0.00    -0.237 OA
ATOM     49  O   UNL A   1      39.320  36.205  38.033  1.00  0.00    -0.744 OA
ENDBRANCH  43  46
ENDBRANCH  25  39
BRANCH  26  50
ATOM     50  C   UNL A   1      42.317  26.163  27.570  1.00  0.00     0.023 A 
ATOM     51  C   UNL A   1      43.086  26.725  26.535  1.00  0.00     0.012 A 
ATOM     52  C   UNL A   1      41.950  24.803  27.483  1.00  0.00     0.148 A 
ATOM     53  C   UNL A   1      43.444  25.963  25.420  1.00  0.00     0.002 A 
ATOM     54  C   UNL A   1      42.359  24.034  26.401  1.00  0.00     0.091 A 
ATOM     55  F   UNL A   1      41.196  24.282  28.463  1.00  0.00    -0.205 F 
ATOM     56  C   UNL A   1      43.088  24.618  25.356  1.00  0.00     0.022 A 
BRANCH  54  57
ATOM     57  S   UNL A   1      42.046  22.267  26.308  1.00  0.00     0.127 S 
ATOM     58  O   UNL A   1      40.595  22.228  26.160  1.00  0.00    -0.237 OA
ATOM     59  O   UNL A   1      42.800  21.886  25.113  1.00  0.00    -0.237 OA
ATOM     60  O   UNL A   1      42.575  21.712  27.548  1.00  0.00    -0.744 OA
ENDBRANCH  54  57
ENDBRANCH  26  50
BRANCH  38  61
ATOM     61  C   UNL A   1      44.962  27.539  33.883  1.00  0.00     0.023 A 
ATOM     62  C   UNL A   1      46.160  28.269  33.775  1.00  0.00     0.012 A 
ATOM     63  C   UNL A   1      44.910  26.392  34.696  1.00  0.00     0.148 A 
ATOM     64  C   UNL A   1      47.307  27.838  34.436  1.00  0.00     0.002 A 
ATOM     65  C   UNL A   1      46.039  26.004  35.400  1.00  0.00     0.091 A 
ATOM     66  F   UNL A   1      43.761  25.704  34.763  1.00  0.00    -0.205 F 
ATOM     67  C   UNL A   1      47.243  26.715  35.260  1.00  0.00     0.022 A 
BRANCH  65  68
ATOM     68  S   UNL A   1      46.012  24.642  36.567  1.00  0.00     0.127 S 
ATOM     69  O   UNL A   1      45.585  23.531  35.719  1.00  0.00    -0.237 OA
ATOM     70  O   UNL A   1      47.408  24.580  37.000  1.00  0.00    -0.237 OA
ATOM     71  O   UNL A   1      45.074  25.030  37.613  1.00  0.00    -0.744 OA
ENDBRANCH  65  68
ENDBRANCH  38  61
ENDBRANCH  12  13
ENDBRANCH   5   7
ENDBRANCH   4   5
ENDBRANCH   3   4
ENDBRANCH   2   3
ENDBRANCH   1   2
BRANCH   1  72
ATOM     72  C   UNL A   1      33.154  27.013  25.180  1.00  0.00     0.202 C 
BRANCH  72  73
ATOM     73  C   UNL A   1      32.866  25.818  26.081  1.00  0.00     0.261 C 
BRANCH  73  74
ATOM     74  O   UNL A   1      32.369  24.763  25.244  1.00  0.00    -0.463 OA
BRANCH  74  75
ATOM     75  C   UNL A   1      32.901  23.534  25.464  1.00  0.00     0.313 C 
ATOM     76  O   UNL A   1      32.932  22.952  26.548  1.00  0.00    -0.252 OA
BRANCH  75  77
ATOM     77  C   UNL A   1      33.501  22.954  24.194  1.00  0.00     0.129 C 
BRANCH  77  78
ATOM     78  C   UNL A   1      34.875  23.489  23.722  1.00  0.00     0.029 C 
BRANCH  78  79
ATOM     79  C   UNL A   1      35.881  24.120  24.701  1.00  0.00     0.117 C 
BRANCH  79  80
ATOM     80  C   UNL A   1      36.922  23.197  25.284  1.00  0.00     0.389 C 
ATOM     81  F   UNL A   1      37.908  23.892  25.886  1.00  0.00    -0.171 F 
ATOM     82  F   UNL A   1      36.354  22.402  26.220  1.00  0.00    -0.171 F 
ATOM     83  F   UNL A   1      37.466  22.394  24.357  1.00  0.00    -0.171 F 
ENDBRANCH  79  80
ENDBRANCH  78  79
ENDBRANCH  77  78
BRANCH  77  84
ATOM     84  C   UNL A   1      33.355  21.450  24.119  1.00  0.00    -0.034 A 
ATOM     85  C   UNL A   1      34.299  20.646  24.776  1.00  0.00     0.006 A 
ATOM     86  C   UNL A   1      32.336  20.832  23.381  1.00  0.00     0.006 A 
ATOM     87  C   UNL A   1      34.228  19.257  24.685  1.00  0.00     0.021 A 
ATOM     88  C   UNL A   1      32.263  19.444  23.292  1.00  0.00     0.021 A 
ATOM     89  C   UNL A   1      33.210  18.662  23.944  1.00  0.00     0.041 A 
ATOM     90  Cl  UNL A   1      33.124  16.950  23.830  1.00  0.00    -0.084 Cl
ENDBRANCH  77  84
ENDBRANCH  75  77
ENDBRANCH  74  75
ENDBRANCH  73  74
ENDBRANCH  72  73
ENDBRANCH   1  72
TORSDOF 21
ENDMDL
MODEL 2
REMARK VINA RESULT:     -10.3      4.981      7.660
REMARK SMILES O=C(OCCOCCOC(=O)[C@@H](CCC(F)(F)F)c1ccc(Cl)cc1)c1ccc(-c2c3nc(c(-c4cccc(S(=O)(=O)[O-])c4F)c4ccc([nH]4)c(-c4cccc(S(=O)(=O)[O-])c4F)c4nc(c(-c5cccc(S(=O)(=O)[O-])c5F)c5ccc2[nH]5)C=C4)C=C3)cc1
REMARK SMILES IDX 6 1 5 2 4 3 3 4 2 5 1 6 26 7 27 8 88 9 28 10 87 11 29 12
REMARK SMILES IDX 30 13 31 14 81 15 32 16 86 17 80 18 82 19 33 20 85 21 79 22
REMARK SMILES IDX 78 23 34 25 66 26 46 27 65 28 47 29 50 30 64 31 83 32 48 33
REMARK SMILES IDX 49 34 63 36 84 37 51 38 35 39 36 40 44 41 37 42 39 43 45 44
REMARK SMILES IDX 38 45 40 46 41 47 42 48 43 49 67 50 68 51 76 52 69 53 71 54
REMARK SMILES IDX 77 55 70 56 72 57 73 58 74 59 75 60 52 61 53 62 61 63 54 64
REMARK SMILES IDX 56 65 62 66 55 67 57 68 58 69 59 70 60 71 7 72 8 73 9 74
REMARK SMILES IDX 10 75 11 76 12 77 13 78 14 79 15 80 16 81 17 82 18 83 19 84
REMARK SMILES IDX 20 85 25 86 21 87 24 88 22 89 23 90
REMARK H PARENT 82 24 50 35
REMARK Flexibility Score: inf
ROOT
ATOM      1  O   UNL A   1      34.090  21.135  25.574  1.00  0.00    -0.374 OA
ENDROOT
BRANCH   1   2
ATOM      2  C   UNL A   1      35.182  20.390  25.035  1.00  0.00     0.202 C 
BRANCH   2   3
ATOM      3  C   UNL A   1      36.463  21.151  24.653  1.00  0.00     0.261 C 
BRANCH   3   4
ATOM      4  O   UNL A   1      37.188  21.589  25.817  1.00  0.00    -0.460 OA
BRANCH   4   5
ATOM      5  C   UNL A   1      38.534  21.596  26.004  1.00  0.00     0.338 C 
ATOM      6  O   UNL A   1      39.162  20.556  25.831  1.00  0.00    -0.246 OA
BRANCH   5   7
ATOM      7  C   UNL A   1      39.277  22.817  26.436  1.00  0.00     0.060 A 
ATOM      8  C   UNL A   1      38.965  24.095  25.990  1.00  0.00     0.016 A 
ATOM      9  C   UNL A   1      40.303  22.700  27.387  1.00  0.00     0.016 A 
ATOM     10  C   UNL A   1      39.635  25.211  26.393  1.00  0.00     0.010 A 
ATOM     11  C   UNL A   1      40.980  23.840  27.846  1.00  0.00     0.010 A 
ATOM     12  C   UNL A   1      40.636  25.096  27.337  1.00  0.00    -0.014 A 
BRANCH  12  13
ATOM     13  C   UNL A   1      41.340  26.354  27.582  1.00  0.00     0.031 A 
ATOM     14  C   UNL A   1      40.668  27.354  28.461  1.00  0.00     0.074 A 
ATOM     15  C   UNL A   1      42.655  26.404  27.296  1.00  0.00     0.049 A 
ATOM     16  N   UNL A   1      41.120  28.489  28.903  1.00  0.00    -0.248 NA
ATOM     17  C   UNL A   1      39.315  27.009  28.943  1.00  0.00     0.031 C 
ATOM     18  C   UNL A   1      43.415  25.337  26.626  1.00  0.00     0.029 A 
ATOM     19  N   UNL A   1      43.599  27.346  27.588  1.00  0.00    -0.354 N 
ATOM     20  C   UNL A   1      40.093  29.023  29.666  1.00  0.00     0.074 A 
ATOM     21  C   UNL A   1      39.001  28.079  29.655  1.00  0.00     0.031 C 
ATOM     22  C   UNL A   1      44.708  25.690  26.562  1.00  0.00     0.029 A 
ATOM     23  C   UNL A   1      44.847  27.033  27.105  1.00  0.00     0.049 A 
ATOM     24  H   UNL A   1      43.405  28.168  28.095  1.00  0.00     0.167 HD
ATOM     25  C   UNL A   1      40.076  30.212  30.305  1.00  0.00     0.034 A 
ATOM     26  C   UNL A   1      45.958  27.788  27.061  1.00  0.00     0.034 A 
ATOM     27  C   UNL A   1      41.190  31.115  30.283  1.00  0.00     0.049 A 
ATOM     28  C   UNL A   1      45.872  29.155  27.679  1.00  0.00     0.074 A 
ATOM     29  C   UNL A   1      41.276  32.397  30.784  1.00  0.00     0.029 A 
ATOM     30  N   UNL A   1      42.422  30.815  29.712  1.00  0.00    -0.354 N 
ATOM     31  N   UNL A   1      44.874  29.697  28.340  1.00  0.00    -0.248 NA
ATOM     32  C   UNL A   1      47.054  30.012  27.560  1.00  0.00     0.031 C 
ATOM     33  C   UNL A   1      42.555  32.884  30.490  1.00  0.00     0.029 A 
ATOM     34  C   UNL A   1      43.279  31.889  29.846  1.00  0.00     0.049 A 
ATOM     35  H   UNL A   1      42.651  29.962  29.277  1.00  0.00     0.167 HD
ATOM     36  C   UNL A   1      45.312  30.951  28.731  1.00  0.00     0.074 A 
ATOM     37  C   UNL A   1      46.683  31.071  28.265  1.00  0.00     0.031 C 
ATOM     38  C   UNL A   1      44.648  31.932  29.394  1.00  0.00     0.034 A 
BRANCH  25  39
ATOM     39  C   UNL A   1      38.798  30.598  30.992  1.00  0.00     0.023 A 
ATOM     40  C   UNL A   1      38.554  30.201  32.322  1.00  0.00     0.012 A 
ATOM     41  C   UNL A   1      37.813  31.320  30.291  1.00  0.00     0.148 A 
ATOM     42  C   UNL A   1      37.334  30.490  32.933  1.00  0.00     0.002 A 
ATOM     43  C   UNL A   1      36.618  31.641  30.920  1.00  0.00     0.091 A 
ATOM     44  F   UNL A   1      38.053  31.653  29.015  1.00  0.00    -0.205 F 
ATOM     45  C   UNL A   1      36.371  31.215  32.236  1.00  0.00     0.022 A 
BRANCH  43  46
ATOM     46  S   UNL A   1      35.335  32.613  30.127  1.00  0.00     0.127 S 
ATOM     47  O   UNL A   1      34.269  32.570  31.127  1.00  0.00    -0.237 OA
ATOM     48  O   UNL A   1      35.987  33.914  29.984  1.00  0.00    -0.237 OA
ATOM     49  O   UNL A   1      35.032  31.937  28.872  1.00  0.00    -0.744 OA
ENDBRANCH  43  46
ENDBRANCH  25  39
BRANCH  26  50
ATOM     50  C   UNL A   1      47.181  27.309  26.354  1.00  0.00     0.023 A 
ATOM     51  C   UNL A   1      47.361  27.567  24.982  1.00  0.00     0.012 A 
ATOM     52  C   UNL A   1      48.171  26.577  27.044  1.00  0.00     0.148 A 
ATOM     53  C   UNL A   1      48.478  27.069  24.306  1.00  0.00     0.002 A 
ATOM     54  C   UNL A   1      49.308  26.137  26.380  1.00  0.00     0.091 A 
ATOM     55  F   UNL A   1      47.979  26.316  28.346  1.00  0.00    -0.205 F 
ATOM     56  C   UNL A   1      49.454  26.363  25.004  1.00  0.00     0.022 A 
BRANCH  54  57
ATOM     57  S   UNL A   1      50.666  25.329  27.236  1.00  0.00     0.127 S 
ATOM     58  O   UNL A   1      51.099  26.373  28.161  1.00  0.00    -0.237 OA
ATOM     59  O   UNL A   1      49.996  24.188  27.862  1.00  0.00    -0.237 OA
ATOM     60  O   UNL A   1      51.619  24.963  26.197  1.00  0.00    -0.744 OA
ENDBRANCH  54  57
ENDBRANCH  26  50
BRANCH  38  61
ATOM     61  C   UNL A   1      45.416  33.190  29.678  1.00  0.00     0.023 A 
ATOM     62  C   UNL A   1      46.181  33.295  30.854  1.00  0.00     0.012 A 
ATOM     63  C   UNL A   1      45.428  34.236  28.737  1.00  0.00     0.148 A 
ATOM     64  C   UNL A   1      46.917  34.449  31.112  1.00  0.00     0.002 A 
ATOM     65  C   UNL A   1      46.212  35.355  28.971  1.00  0.00     0.091 A 
ATOM     66  F   UNL A   1      44.673  34.117  27.635  1.00  0.00    -0.205 F 
ATOM     67  C   UNL A   1      46.945  35.471  30.164  1.00  0.00     0.022 A 
BRANCH  65  68
ATOM     68  S   UNL A   1      46.394  36.662  27.756  1.00  0.00     0.127 S 
ATOM     69  O   UNL A   1      46.629  35.900  26.531  1.00  0.00    -0.237 OA
ATOM     70  O   UNL A   1      45.092  37.327  27.822  1.00  0.00    -0.237 OA
ATOM     71  O   UNL A   1      47.511  37.479  28.212  1.00  0.00    -0.744 OA
ENDBRANCH  65  68
ENDBRANCH  38  61
ENDBRANCH  12  13
ENDBRANCH   5   7
ENDBRANCH   4   5
ENDBRANCH   3   4
ENDBRANCH   2   3
ENDBRANCH   1   2
BRANCH   1  72
ATOM     72  C   UNL A   1      34.042  21.321  26.990  1.00  0.00     0.202 C 
BRANCH  72  73
ATOM     73  C   UNL A   1      33.483  22.701  27.313  1.00  0.00     0.261 C 
BRANCH  73  74
ATOM     74  O   UNL A   1      32.059  22.569  27.429  1.00  0.00    -0.463 OA
BRANCH  74  75
ATOM     75  C   UNL A   1      31.324  23.542  26.835  1.00  0.00     0.313 C 
ATOM     76  O   UNL A   1      30.205  23.911  27.192  1.00  0.00    -0.252 OA
BRANCH  75  77
ATOM     77  C   UNL A   1      32.039  24.118  25.624  1.00  0.00     0.129 C 
BRANCH  77  78
ATOM     78  C   UNL A   1      31.620  23.620  24.219  1.00  0.00     0.029 C 
BRANCH  78  79
ATOM     79  C   UNL A   1      31.772  24.501  22.967  1.00  0.00     0.117 C 
BRANCH  79  80
ATOM     80  C   UNL A   1      33.079  24.393  22.223  1.00  0.00     0.389 C 
ATOM     81  F   UNL A   1      33.284  23.137  21.776  1.00  0.00    -0.171 F 
ATOM     82  F   UNL A   1      33.060  25.210  21.144  1.00  0.00    -0.171 F 
ATOM     83  F   UNL A   1      34.127  24.757  22.978  1.00  0.00    -0.171 F 
ENDBRANCH  79  80
ENDBRANCH  78  79
ENDBRANCH  77  78
BRANCH  77  84
ATOM     84  C   UNL A   1      32.238  25.614  25.726  1.00  0.00    -0.034 A 
ATOM     85  C   UNL A   1      33.538  26.112  25.899  1.00  0.00     0.006 A 
ATOM     86  C   UNL A   1      31.166  26.516  25.699  1.00  0.00     0.006 A 
ATOM     87  C   UNL A   1      33.755  27.480  26.050  1.00  0.00     0.021 A 
ATOM     88  C   UNL A   1      31.382  27.884  25.847  1.00  0.00     0.021 A 
ATOM     89  C   UNL A   1      32.676  28.360  26.023  1.00  0.00     0.041 A 
ATOM     90  Cl  UNL A   1      32.943  30.047  26.212  1.00  0.00    -0.084 Cl
ENDBRANCH  77  84
ENDBRANCH  75  77
ENDBRANCH  74  75
ENDBRANCH  73  74
ENDBRANCH  72  73
ENDBRANCH   1  72
TORSDOF 21
ENDMDL
MODEL 3
REMARK VINA RESULT:     -10.3      4.974     10.015
REMARK SMILES O=C(OCCOCCOC(=O)[C@@H](CCC(F)(F)F)c1ccc(Cl)cc1)c1ccc(-c2c3nc(c(-c4cccc(S(=O)(=O)[O-])c4F)c4ccc([nH]4)c(-c4cccc(S(=O)(=O)[O-])c4F)c4nc(c(-c5cccc(S(=O)(=O)[O-])c5F)c5ccc2[nH]5)C=C4)C=C3)cc1
REMARK SMILES IDX 6 1 5 2 4 3 3 4 2 5 1 6 26 7 27 8 88 9 28 10 87 11 29 12
REMARK SMILES IDX 30 13 31 14 81 15 32 16 86 17 80 18 82 19 33 20 85 21 79 22
REMARK SMILES IDX 78 23 34 25 66 26 46 27 65 28 47 29 50 30 64 31 83 32 48 33
REMARK SMILES IDX 49 34 63 36 84 37 51 38 35 39 36 40 44 41 37 42 39 43 45 44
REMARK SMILES IDX 38 45 40 46 41 47 42 48 43 49 67 50 68 51 76 52 69 53 71 54
REMARK SMILES IDX 77 55 70 56 72 57 73 58 74 59 75 60 52 61 53 62 61 63 54 64
REMARK SMILES IDX 56 65 62 66 55 67 57 68 58 69 59 70 60 71 7 72 8 73 9 74
REMARK SMILES IDX 10 75 11 76 12 77 13 78 14 79 15 80 16 81 17 82 18 83 19 84
REMARK SMILES IDX 20 85 25 86 21 87 24 88 22 89 23 90
REMARK H PARENT 82 24 50 35
REMARK Flexibility Score: inf
ROOT
ATOM      1  O   UNL A   1      34.925  20.633  24.946  1.00  0.00    -0.374 OA
ENDROOT
BRANCH   1   2
ATOM      2  C   UNL A   1      35.672  21.450  25.846  1.00  0.00     0.202 C 
BRANCH   2   3
ATOM      3  C   UNL A   1      36.806  22.315  25.272  1.00  0.00     0.261 C 
BRANCH   3   4
ATOM      4  O   UNL A   1      38.012  21.552  25.080  1.00  0.00    -0.460 OA
BRANCH   4   5
ATOM      5  C   UNL A   1      39.083  21.466  25.912  1.00  0.00     0.338 C 
ATOM      6  O   UNL A   1      39.529  20.358  26.192  1.00  0.00    -0.246 OA
BRANCH   5   7
ATOM      7  C   UNL A   1      39.725  22.671  26.519  1.00  0.00     0.060 A 
ATOM      8  C   UNL A   1      39.433  23.969  26.121  1.00  0.00     0.016 A 
ATOM      9  C   UNL A   1      40.622  22.510  27.586  1.00  0.00     0.016 A 
ATOM     10  C   UNL A   1      40.010  25.070  26.683  1.00  0.00     0.010 A 
ATOM     11  C   UNL A   1      41.197  23.630  28.205  1.00  0.00     0.010 A 
ATOM     12  C   UNL A   1      40.882  24.911  27.741  1.00  0.00    -0.014 A 
BRANCH  12  13
ATOM     13  C   UNL A   1      41.508  26.164  28.159  1.00  0.00     0.031 A 
ATOM     14  C   UNL A   1      42.862  26.468  27.613  1.00  0.00     0.074 A 
ATOM     15  C   UNL A   1      40.721  27.105  28.717  1.00  0.00     0.049 A 
ATOM     16  N   UNL A   1      43.578  27.544  27.751  1.00  0.00    -0.248 NA
ATOM     17  C   UNL A   1      43.478  25.435  26.756  1.00  0.00     0.031 C 
ATOM     18  C   UNL A   1      39.305  26.920  29.069  1.00  0.00     0.029 A 
ATOM     19  N   UNL A   1      40.968  28.412  29.022  1.00  0.00    -0.354 N 
ATOM     20  C   UNL A   1      44.750  27.300  27.053  1.00  0.00     0.074 A 
ATOM     21  C   UNL A   1      44.645  25.986  26.463  1.00  0.00     0.031 C 
ATOM     22  C   UNL A   1      38.813  28.076  29.540  1.00  0.00     0.029 A 
ATOM     23  C   UNL A   1      39.895  29.047  29.602  1.00  0.00     0.049 A 
ATOM     24  H   UNL A   1      41.828  28.856  28.843  1.00  0.00     0.167 HD
ATOM     25  C   UNL A   1      45.822  28.112  26.935  1.00  0.00     0.034 A 
ATOM     26  C   UNL A   1      39.831  30.261  30.173  1.00  0.00     0.034 A 
ATOM     27  C   UNL A   1      45.876  29.409  27.543  1.00  0.00     0.049 A 
ATOM     28  C   UNL A   1      41.079  31.097  30.128  1.00  0.00     0.074 A 
ATOM     29  C   UNL A   1      46.933  30.293  27.608  1.00  0.00     0.029 A 
ATOM     30  N   UNL A   1      44.806  30.003  28.204  1.00  0.00    -0.354 N 
ATOM     31  N   UNL A   1      42.219  30.839  29.530  1.00  0.00    -0.248 NA
ATOM     32  C   UNL A   1      41.037  32.388  30.820  1.00  0.00     0.031 C 
ATOM     33  C   UNL A   1      46.509  31.412  28.334  1.00  0.00     0.029 A 
ATOM     34  C   UNL A   1      45.175  31.244  28.683  1.00  0.00     0.049 A 
ATOM     35  H   UNL A   1      43.915  29.599  28.314  1.00  0.00     0.167 HD
ATOM     36  C   UNL A   1      43.027  31.942  29.758  1.00  0.00     0.074 A 
ATOM     37  C   UNL A   1      42.227  32.887  30.516  1.00  0.00     0.031 C 
ATOM     38  C   UNL A   1      44.319  32.156  29.400  1.00  0.00     0.034 A 
BRANCH  25  39
ATOM     39  C   UNL A   1      47.009  27.570  26.194  1.00  0.00     0.023 A 
ATOM     40  C   UNL A   1      47.088  27.683  24.791  1.00  0.00     0.012 A 
ATOM     41  C   UNL A   1      48.030  26.900  26.894  1.00  0.00     0.148 A 
ATOM     42  C   UNL A   1      48.151  27.109  24.094  1.00  0.00     0.002 A 
ATOM     43  C   UNL A   1      49.108  26.368  26.198  1.00  0.00     0.091 A 
ATOM     44  F   UNL A   1      47.914  26.772  28.223  1.00  0.00    -0.205 F 
ATOM     45  C   UNL A   1      49.163  26.459  24.797  1.00  0.00     0.022 A 
BRANCH  43  46
ATOM     46  S   UNL A   1      50.485  25.557  27.014  1.00  0.00     0.127 S 
ATOM     47  O   UNL A   1      49.835  24.383  27.595  1.00  0.00    -0.237 OA
ATOM     48  O   UNL A   1      51.375  25.270  25.890  1.00  0.00    -0.237 OA
ATOM     49  O   UNL A   1      51.005  26.516  27.980  1.00  0.00    -0.744 OA
ENDBRANCH  43  46
ENDBRANCH  25  39
BRANCH  26  50
ATOM     50  C   UNL A   1      38.598  30.708  30.884  1.00  0.00     0.023 A 
ATOM     51  C   UNL A   1      38.449  30.483  32.265  1.00  0.00     0.012 A 
ATOM     52  C   UNL A   1      37.555  31.349  30.183  1.00  0.00     0.148 A 
ATOM     53  C   UNL A   1      37.271  30.848  32.922  1.00  0.00     0.002 A 
ATOM     54  C   UNL A   1      36.411  31.765  30.853  1.00  0.00     0.091 A 
ATOM     55  F   UNL A   1      37.696  31.538  28.862  1.00  0.00    -0.205 F 
ATOM     56  C   UNL A   1      36.257  31.496  32.220  1.00  0.00     0.022 A 
BRANCH  54  57
ATOM     57  S   UNL A   1      35.118  32.713  30.044  1.00  0.00     0.127 S 
ATOM     58  O   UNL A   1      35.859  33.871  29.551  1.00  0.00    -0.237 OA
ATOM     59  O   UNL A   1      34.661  31.785  29.008  1.00  0.00    -0.237 OA
ATOM     60  O   UNL A   1      34.128  32.984  31.079  1.00  0.00    -0.744 OA
ENDBRANCH  54  57
ENDBRANCH  26  50
BRANCH  38  61
ATOM     61  C   UNL A   1      44.915  33.476  29.796  1.00  0.00     0.023 A 
ATOM     62  C   UNL A   1      45.601  33.598  31.018  1.00  0.00     0.012 A 
ATOM     63  C   UNL A   1      44.846  34.572  28.916  1.00  0.00     0.148 A 
ATOM     64  C   UNL A   1      46.179  34.812  31.380  1.00  0.00     0.002 A 
ATOM     65  C   UNL A   1      45.477  35.759  29.256  1.00  0.00     0.091 A 
ATOM     66  F   UNL A   1      44.168  34.433  27.769  1.00  0.00    -0.205 F 
ATOM     67  C   UNL A   1      46.130  35.887  30.494  1.00  0.00     0.022 A 
BRANCH  65  68
ATOM     68  S   UNL A   1      45.559  37.151  28.128  1.00  0.00     0.127 S 
ATOM     69  O   UNL A   1      45.933  36.497  26.875  1.00  0.00    -0.237 OA
ATOM     70  O   UNL A   1      44.189  37.661  28.167  1.00  0.00    -0.237 OA
ATOM     71  O   UNL A   1      46.555  38.057  28.684  1.00  0.00    -0.744 OA
ENDBRANCH  65  68
ENDBRANCH  38  61
ENDBRANCH  12  13
ENDBRANCH   5   7
ENDBRANCH   4   5
ENDBRANCH   3   4
ENDBRANCH   2   3
ENDBRANCH   1   2
BRANCH   1  72
ATOM     72  C   UNL A   1      33.505  20.796  24.917  1.00  0.00     0.202 C 
BRANCH  72  73
ATOM     73  C   UNL A   1      33.045  21.553  26.156  1.00  0.00     0.261 C 
BRANCH  73  74
ATOM     74  O   UNL A   1      31.953  22.397  25.762  1.00  0.00    -0.463 OA
BRANCH  74  75
ATOM     75  C   UNL A   1      32.005  23.678  26.204  1.00  0.00     0.313 C 
ATOM     76  O   UNL A   1      31.474  24.101  27.231  1.00  0.00    -0.252 OA
BRANCH  75  77
ATOM     77  C   UNL A   1      32.784  24.565  25.248  1.00  0.00     0.129 C 
BRANCH  77  78
ATOM     78  C   UNL A   1      32.702  24.259  23.732  1.00  0.00     0.029 C 
BRANCH  78  79
ATOM     79  C   UNL A   1      33.612  24.964  22.711  1.00  0.00     0.117 C 
BRANCH  79  80
ATOM     80  C   UNL A   1      32.935  25.900  21.741  1.00  0.00     0.389 C 
ATOM     81  F   UNL A   1      32.886  25.368  20.503  1.00  0.00    -0.171 F 
ATOM     82  F   UNL A   1      31.661  26.126  22.138  1.00  0.00    -0.171 F 
ATOM     83  F   UNL A   1      33.548  27.092  21.672  1.00  0.00    -0.171 F 
ENDBRANCH  79  80
ENDBRANCH  78  79
ENDBRANCH  77  78
BRANCH  77  84
ATOM     84  C   UNL A   1      32.672  26.033  25.598  1.00  0.00    -0.034 A 
ATOM     85  C   UNL A   1      31.457  26.693  25.360  1.00  0.00     0.006 A 
ATOM     86  C   UNL A   1      33.752  26.766  26.109  1.00  0.00     0.006 A 
ATOM     87  C   UNL A   1      31.333  28.056  25.619  1.00  0.00     0.021 A 
ATOM     88  C   UNL A   1      33.627  28.128  26.372  1.00  0.00     0.021 A 
ATOM     89  C   UNL A   1      32.418  28.768  26.125  1.00  0.00     0.041 A 
ATOM     90  Cl  UNL A   1      32.266  30.449  26.443  1.00  0.00    -0.084 Cl
ENDBRANCH  77  84
ENDBRANCH  75  77
ENDBRANCH  74  75
ENDBRANCH  73  74
ENDBRANCH  72  73
ENDBRANCH   1  72
TORSDOF 21
ENDMDL
