MODEL 1
REMARK VINA RESULT:     -10.4      0.000      0.000
REMARK SMILES COc1cc(F)ccc1NCC(C)(C)C(=O)OCCOCCOC(=O)c1ccc(-c2c3nc(c(-c4cccc(S(=O)(=O)[O-])c4F)c4ccc([nH]4)c(-c4cccc(S(=O)(=O)[O-])c4F)c4nc(c(-c5cccc(S(=O)(=O)[O-])c5F)c5ccc2[nH]5)C=C4)C=C3)cc1
REMARK SMILES IDX 19 1 18 2 17 3 15 4 16 5 12 6 13 7 14 8 11 9 10 10 9 12 3 13
REMARK SMILES IDX 4 14 5 15 8 16 6 17 7 18 2 19 1 20 20 21 21 22 22 23 23 24
REMARK SMILES IDX 24 25 25 26 26 27 27 28 88 29 28 30 87 31 29 32 30 33 31 34
REMARK SMILES IDX 81 35 32 36 86 37 80 38 82 39 33 40 85 41 79 42 78 43 34 45
REMARK SMILES IDX 66 46 46 47 65 48 47 49 50 50 64 51 83 52 48 53 49 54 63 56
REMARK SMILES IDX 84 57 51 58 35 59 36 60 44 61 37 62 39 63 45 64 38 65 40 66
REMARK SMILES IDX 41 67 42 68 43 69 67 70 68 71 76 72 69 73 71 74 77 75 70 76
REMARK SMILES IDX 72 77 73 78 74 79 75 80 52 81 53 82 61 83 54 84 56 85 62 86
REMARK SMILES IDX 55 87 57 88 58 89 59 90 60 91
REMARK H PARENT 10 11 82 44 50 55
REMARK Flexibility Score: inf
ROOT
ATOM      1  C   UNL A   1      35.487  21.959  26.330  1.00  0.00     0.202 C 
ENDROOT
BRANCH   1   2
ATOM      2  C   UNL A   1      33.997  22.294  26.448  1.00  0.00     0.261 C 
BRANCH   2   3
ATOM      3  O   UNL A   1      33.296  21.931  25.249  1.00  0.00    -0.463 OA
BRANCH   3   4
ATOM      4  C   UNL A   1      32.434  22.866  24.771  1.00  0.00     0.313 C 
ATOM      5  O   UNL A   1      31.623  23.470  25.463  1.00  0.00    -0.252 OA
BRANCH   4   6
ATOM      6  C   UNL A   1      32.590  23.095  23.263  1.00  0.00     0.080 C 
ATOM      7  C   UNL A   1      32.056  21.836  22.559  1.00  0.00     0.025 C 
ATOM      8  C   UNL A   1      34.065  23.272  22.841  1.00  0.00     0.025 C 
BRANCH   6   9
ATOM      9  C   UNL A   1      31.814  24.362  22.823  1.00  0.00     0.131 C 
BRANCH   9  10
ATOM     10  N   UNL A   1      32.555  25.602  22.987  1.00  0.00    -0.381 N 
ATOM     11  H   UNL A   1      33.174  25.854  22.264  1.00  0.00     0.160 HD
BRANCH  10  12
ATOM     12  C   UNL A   1      32.464  26.464  24.075  1.00  0.00     0.077 A 
ATOM     13  C   UNL A   1      31.403  27.399  24.114  1.00  0.00     0.144 A 
ATOM     14  C   UNL A   1      31.221  28.258  25.199  1.00  0.00     0.087 A 
ATOM     15  C   UNL A   1      32.141  28.233  26.236  1.00  0.00     0.127 A 
ATOM     16  C   UNL A   1      33.396  26.503  25.119  1.00  0.00     0.032 A 
ATOM     17  F   UNL A   1      31.980  29.056  27.281  1.00  0.00    -0.207 F 
ATOM     18  C   UNL A   1      33.232  27.376  26.201  1.00  0.00     0.041 A 
BRANCH  13  19
ATOM     19  O   UNL A   1      30.504  27.372  23.068  1.00  0.00    -0.494 OA
ATOM     20  C   UNL A   1      29.707  28.551  23.012  1.00  0.00     0.278 C 
ENDBRANCH  13  19
ENDBRANCH  10  12
ENDBRANCH   9  10
ENDBRANCH   6   9
ENDBRANCH   4   6
ENDBRANCH   3   4
ENDBRANCH   2   3
ENDBRANCH   1   2
BRANCH   1  21
ATOM     21  O   UNL A   1      35.938  21.483  25.061  1.00  0.00    -0.374 OA
BRANCH  21  22
ATOM     22  C   UNL A   1      36.330  20.115  24.968  1.00  0.00     0.202 C 
BRANCH  22  23
ATOM     23  C   UNL A   1      37.832  19.813  24.917  1.00  0.00     0.261 C 
BRANCH  23  24
ATOM     24  O   UNL A   1      38.649  20.973  25.151  1.00  0.00    -0.460 OA
BRANCH  24  25
ATOM     25  C   UNL A   1      39.666  20.764  26.021  1.00  0.00     0.338 C 
ATOM     26  O   UNL A   1      40.393  19.779  26.079  1.00  0.00    -0.246 OA
BRANCH  25  27
ATOM     27  C   UNL A   1      39.931  21.967  26.829  1.00  0.00     0.060 A 
ATOM     28  C   UNL A   1      39.270  23.142  26.451  1.00  0.00     0.016 A 
ATOM     29  C   UNL A   1      40.897  21.987  27.838  1.00  0.00     0.016 A 
ATOM     30  C   UNL A   1      39.639  24.359  27.011  1.00  0.00     0.010 A 
ATOM     31  C   UNL A   1      41.269  23.215  28.401  1.00  0.00     0.010 A 
ATOM     32  C   UNL A   1      40.685  24.410  27.942  1.00  0.00    -0.014 A 
BRANCH  32  33
ATOM     33  C   UNL A   1      41.288  25.729  28.248  1.00  0.00     0.031 A 
ATOM     34  C   UNL A   1      42.679  26.021  27.747  1.00  0.00     0.074 A 
ATOM     35  C   UNL A   1      40.586  26.684  28.882  1.00  0.00     0.049 A 
ATOM     36  N   UNL A   1      43.360  27.134  27.801  1.00  0.00    -0.248 NA
ATOM     37  C   UNL A   1      43.394  24.911  27.092  1.00  0.00     0.031 C 
ATOM     38  C   UNL A   1      39.231  26.524  29.402  1.00  0.00     0.029 A 
ATOM     39  N   UNL A   1      40.919  27.978  29.193  1.00  0.00    -0.354 N 
ATOM     40  C   UNL A   1      44.582  26.859  27.202  1.00  0.00     0.074 A 
ATOM     41  C   UNL A   1      44.566  25.466  26.817  1.00  0.00     0.031 C 
ATOM     42  C   UNL A   1      38.846  27.678  29.973  1.00  0.00     0.029 A 
ATOM     43  C   UNL A   1      39.933  28.653  29.869  1.00  0.00     0.049 A 
ATOM     44  H   UNL A   1      41.784  28.384  28.954  1.00  0.00     0.167 HD
ATOM     45  C   UNL A   1      45.617  27.699  26.963  1.00  0.00     0.034 A 
ATOM     46  C   UNL A   1      39.907  29.914  30.349  1.00  0.00     0.034 A 
ATOM     47  C   UNL A   1      45.619  29.091  27.311  1.00  0.00     0.049 A 
ATOM     48  C   UNL A   1      41.086  30.821  30.107  1.00  0.00     0.074 A 
ATOM     49  C   UNL A   1      46.591  30.038  27.049  1.00  0.00     0.029 A 
ATOM     50  N   UNL A   1      44.606  29.733  28.005  1.00  0.00    -0.354 N 
ATOM     51  N   UNL A   1      42.178  30.584  29.422  1.00  0.00    -0.248 NA
ATOM     52  C   UNL A   1      41.019  32.175  30.677  1.00  0.00     0.031 C 
ATOM     53  C   UNL A   1      46.179  31.250  27.610  1.00  0.00     0.029 A 
ATOM     54  C   UNL A   1      44.941  31.060  28.206  1.00  0.00     0.049 A 
ATOM     55  H   UNL A   1      43.772  29.308  28.311  1.00  0.00     0.167 HD
ATOM     56  C   UNL A   1      42.921  31.759  29.463  1.00  0.00     0.074 A 
ATOM     57  C   UNL A   1      42.145  32.716  30.225  1.00  0.00     0.031 C 
ATOM     58  C   UNL A   1      44.142  32.016  28.932  1.00  0.00     0.034 A 
BRANCH  45  59
ATOM     59  C   UNL A   1      46.818  27.144  26.245  1.00  0.00     0.023 A 
ATOM     60  C   UNL A   1      46.902  27.263  24.843  1.00  0.00     0.012 A 
ATOM     61  C   UNL A   1      47.885  26.566  26.957  1.00  0.00     0.148 A 
ATOM     62  C   UNL A   1      48.020  26.793  24.157  1.00  0.00     0.002 A 
ATOM     63  C   UNL A   1      49.014  26.134  26.270  1.00  0.00     0.091 A 
ATOM     64  F   UNL A   1      47.774  26.439  28.287  1.00  0.00    -0.205 F 
ATOM     65  C   UNL A   1      49.080  26.239  24.871  1.00  0.00     0.022 A 
BRANCH  63  66
ATOM     66  S   UNL A   1      50.459  25.473  27.107  1.00  0.00     0.127 S 
ATOM     67  O   UNL A   1      50.787  26.558  28.031  1.00  0.00    -0.237 OA
ATOM     68  O   UNL A   1      49.926  24.270  27.745  1.00  0.00    -0.237 OA
ATOM     69  O   UNL A   1      51.444  25.220  26.064  1.00  0.00    -0.744 OA
ENDBRANCH  63  66
ENDBRANCH  45  59
BRANCH  46  70
ATOM     70  C   UNL A   1      38.689  30.396  31.058  1.00  0.00     0.023 A 
ATOM     71  C   UNL A   1      38.617  30.299  32.460  1.00  0.00     0.012 A 
ATOM     72  C   UNL A   1      37.640  31.025  30.356  1.00  0.00     0.148 A 
ATOM     73  C   UNL A   1      37.521  30.816  33.152  1.00  0.00     0.002 A 
ATOM     74  C   UNL A   1      36.577  31.583  31.055  1.00  0.00     0.091 A 
ATOM     75  F   UNL A   1      37.722  31.091  29.021  1.00  0.00    -0.205 F 
ATOM     76  C   UNL A   1      36.509  31.470  32.452  1.00  0.00     0.022 A 
BRANCH  74  77
ATOM     77  S   UNL A   1      35.298  32.559  30.255  1.00  0.00     0.127 S 
ATOM     78  O   UNL A   1      34.329  32.727  31.336  1.00  0.00    -0.237 OA
ATOM     79  O   UNL A   1      36.032  33.772  29.892  1.00  0.00    -0.237 OA
ATOM     80  O   UNL A   1      34.844  31.765  29.122  1.00  0.00    -0.744 OA
ENDBRANCH  74  77
ENDBRANCH  46  70
BRANCH  58  81
ATOM     81  C   UNL A   1      44.750  33.376  29.152  1.00  0.00     0.023 A 
ATOM     82  C   UNL A   1      45.545  33.594  30.294  1.00  0.00     0.012 A 
ATOM     83  C   UNL A   1      44.674  34.372  28.158  1.00  0.00     0.148 A 
ATOM     84  C   UNL A   1      46.253  34.785  30.446  1.00  0.00     0.002 A 
ATOM     85  C   UNL A   1      45.417  35.539  28.296  1.00  0.00     0.091 A 
ATOM     86  F   UNL A   1      43.907  34.143  27.083  1.00  0.00    -0.205 F 
ATOM     87  C   UNL A   1      46.202  35.749  29.442  1.00  0.00     0.022 A 
BRANCH  85  88
ATOM     88  S   UNL A   1      45.500  36.796  27.014  1.00  0.00     0.127 S 
ATOM     89  O   UNL A   1      46.036  36.035  25.885  1.00  0.00    -0.237 OA
ATOM     90  O   UNL A   1      44.096  37.185  26.874  1.00  0.00    -0.237 OA
ATOM     91  O   UNL A   1      46.375  37.841  27.525  1.00  0.00    -0.744 OA
ENDBRANCH  85  88
ENDBRANCH  58  81
ENDBRANCH  32  33
ENDBRANCH  25  27
ENDBRANCH  24  25
ENDBRANCH  23  24
ENDBRANCH  22  23
ENDBRANCH  21  22
ENDBRANCH   1  21
TORSDOF 21
ENDMDL
MODEL 2
REMARK VINA RESULT:     -10.2      1.519      7.795
REMARK SMILES COc1cc(F)ccc1NCC(C)(C)C(=O)OCCOCCOC(=O)c1ccc(-c2c3nc(c(-c4cccc(S(=O)(=O)[O-])c4F)c4ccc([nH]4)c(-c4cccc(S(=O)(=O)[O-])c4F)c4nc(c(-c5cccc(S(=O)(=O)[O-])c5F)c5ccc2[nH]5)C=C4)C=C3)cc1
REMARK SMILES IDX 19 1 18 2 17 3 15 4 16 5 12 6 13 7 14 8 11 9 10 10 9 12 3 13
REMARK SMILES IDX 4 14 5 15 8 16 6 17 7 18 2 19 1 20 20 21 21 22 22 23 23 24
REMARK SMILES IDX 24 25 25 26 26 27 27 28 88 29 28 30 87 31 29 32 30 33 31 34
REMARK SMILES IDX 81 35 32 36 86 37 80 38 82 39 33 40 85 41 79 42 78 43 34 45
REMARK SMILES IDX 66 46 46 47 65 48 47 49 50 50 64 51 83 52 48 53 49 54 63 56
REMARK SMILES IDX 84 57 51 58 35 59 36 60 44 61 37 62 39 63 45 64 38 65 40 66
REMARK SMILES IDX 41 67 42 68 43 69 67 70 68 71 76 72 69 73 71 74 77 75 70 76
REMARK SMILES IDX 72 77 73 78 74 79 75 80 52 81 53 82 61 83 54 84 56 85 62 86
REMARK SMILES IDX 55 87 57 88 58 89 59 90 60 91
REMARK H PARENT 10 11 82 44 50 55
REMARK Flexibility Score: inf
ROOT
ATOM      1  C   UNL A   1      35.484  20.945  25.324  1.00  0.00     0.202 C 
ENDROOT
BRANCH   1   2
ATOM      2  C   UNL A   1      34.296  21.184  24.388  1.00  0.00     0.261 C 
BRANCH   2   3
ATOM      3  O   UNL A   1      33.975  22.582  24.317  1.00  0.00    -0.463 OA
BRANCH   3   4
ATOM      4  C   UNL A   1      32.766  22.931  24.829  1.00  0.00     0.313 C 
ATOM      5  O   UNL A   1      31.692  22.647  24.309  1.00  0.00    -0.252 OA
BRANCH   4   6
ATOM      6  C   UNL A   1      32.886  23.714  26.141  1.00  0.00     0.080 C 
ATOM      7  C   UNL A   1      34.235  24.452  26.102  1.00  0.00     0.025 C 
ATOM      8  C   UNL A   1      32.896  22.794  27.381  1.00  0.00     0.025 C 
BRANCH   6   9
ATOM      9  C   UNL A   1      31.703  24.704  26.292  1.00  0.00     0.131 C 
BRANCH   9  10
ATOM     10  N   UNL A   1      31.731  25.814  25.353  1.00  0.00    -0.381 N 
ATOM     11  H   UNL A   1      31.721  25.591  24.394  1.00  0.00     0.160 HD
BRANCH  10  12
ATOM     12  C   UNL A   1      31.770  27.162  25.693  1.00  0.00     0.077 A 
ATOM     13  C   UNL A   1      31.515  28.123  24.685  1.00  0.00     0.144 A 
ATOM     14  C   UNL A   1      31.487  29.490  24.966  1.00  0.00     0.087 A 
ATOM     15  C   UNL A   1      31.776  29.918  26.252  1.00  0.00     0.127 A 
ATOM     16  C   UNL A   1      32.102  27.637  26.967  1.00  0.00     0.032 A 
ATOM     17  F   UNL A   1      31.757  31.227  26.532  1.00  0.00    -0.207 F 
ATOM     18  C   UNL A   1      32.096  29.008  27.250  1.00  0.00     0.041 A 
BRANCH  13  19
ATOM     19  O   UNL A   1      31.214  27.647  23.426  1.00  0.00    -0.494 OA
ATOM     20  C   UNL A   1      29.877  27.952  23.040  1.00  0.00     0.278 C 
ENDBRANCH  13  19
ENDBRANCH  10  12
ENDBRANCH   9  10
ENDBRANCH   6   9
ENDBRANCH   4   6
ENDBRANCH   3   4
ENDBRANCH   2   3
ENDBRANCH   1   2
BRANCH   1  21
ATOM     21  O   UNL A   1      36.782  20.949  24.725  1.00  0.00    -0.374 OA
BRANCH  21  22
ATOM     22  C   UNL A   1      37.471  19.705  24.629  1.00  0.00     0.202 C 
BRANCH  22  23
ATOM     23  C   UNL A   1      38.692  19.503  25.534  1.00  0.00     0.261 C 
BRANCH  23  24
ATOM     24  O   UNL A   1      39.519  20.675  25.637  1.00  0.00    -0.460 OA
BRANCH  24  25
ATOM     25  C   UNL A   1      40.411  20.632  26.656  1.00  0.00     0.338 C 
ATOM     26  O   UNL A   1      41.099  19.675  26.989  1.00  0.00    -0.246 OA
BRANCH  25  27
ATOM     27  C   UNL A   1      40.600  21.966  27.253  1.00  0.00     0.060 A 
ATOM     28  C   UNL A   1      39.914  23.031  26.657  1.00  0.00     0.016 A 
ATOM     29  C   UNL A   1      41.524  22.197  28.275  1.00  0.00     0.016 A 
ATOM     30  C   UNL A   1      40.217  24.339  27.011  1.00  0.00     0.010 A 
ATOM     31  C   UNL A   1      41.830  23.518  28.630  1.00  0.00     0.010 A 
ATOM     32  C   UNL A   1      41.222  24.592  27.954  1.00  0.00    -0.014 A 
BRANCH  32  33
ATOM     33  C   UNL A   1      41.766  25.968  28.047  1.00  0.00     0.031 A 
ATOM     34  C   UNL A   1      40.909  27.043  28.663  1.00  0.00     0.074 A 
ATOM     35  C   UNL A   1      43.028  26.242  27.673  1.00  0.00     0.049 A 
ATOM     36  N   UNL A   1      41.214  28.282  28.944  1.00  0.00    -0.248 NA
ATOM     37  C   UNL A   1      39.528  26.670  29.014  1.00  0.00     0.031 C 
ATOM     38  C   UNL A   1      43.955  25.284  27.077  1.00  0.00     0.029 A 
ATOM     39  N   UNL A   1      43.745  27.411  27.744  1.00  0.00    -0.354 N 
ATOM     40  C   UNL A   1      40.065  28.839  29.491  1.00  0.00     0.074 A 
ATOM     41  C   UNL A   1      39.046  27.815  29.477  1.00  0.00     0.031 C 
ATOM     42  C   UNL A   1      45.122  25.904  26.831  1.00  0.00     0.029 A 
ATOM     43  C   UNL A   1      45.019  27.305  27.242  1.00  0.00     0.049 A 
ATOM     44  H   UNL A   1      43.380  28.244  28.119  1.00  0.00     0.167 HD
ATOM     45  C   UNL A   1      39.882  30.082  29.992  1.00  0.00     0.034 A 
ATOM     46  C   UNL A   1      45.993  28.232  27.127  1.00  0.00     0.034 A 
ATOM     47  C   UNL A   1      40.906  31.088  30.042  1.00  0.00     0.049 A 
ATOM     48  C   UNL A   1      45.755  29.623  27.656  1.00  0.00     0.074 A 
ATOM     49  C   UNL A   1      40.837  32.354  30.592  1.00  0.00     0.029 A 
ATOM     50  N   UNL A   1      42.178  30.946  29.512  1.00  0.00    -0.354 N 
ATOM     51  N   UNL A   1      44.709  30.093  28.291  1.00  0.00    -0.248 NA
ATOM     52  C   UNL A   1      46.838  30.603  27.478  1.00  0.00     0.031 C 
ATOM     53  C   UNL A   1      42.061  32.990  30.371  1.00  0.00     0.029 A 
ATOM     54  C   UNL A   1      42.898  32.113  29.698  1.00  0.00     0.049 A 
ATOM     55  H   UNL A   1      42.519  30.136  29.069  1.00  0.00     0.167 HD
ATOM     56  C   UNL A   1      45.011  31.415  28.604  1.00  0.00     0.074 A 
ATOM     57  C   UNL A   1      46.347  31.666  28.105  1.00  0.00     0.031 C 
ATOM     58  C   UNL A   1      44.243  32.339  29.232  1.00  0.00     0.034 A 
BRANCH  45  59
ATOM     59  C   UNL A   1      38.535  30.412  30.576  1.00  0.00     0.023 A 
ATOM     60  C   UNL A   1      38.254  30.060  31.912  1.00  0.00     0.012 A 
ATOM     61  C   UNL A   1      37.574  31.121  29.830  1.00  0.00     0.148 A 
ATOM     62  C   UNL A   1      37.028  30.386  32.489  1.00  0.00     0.002 A 
ATOM     63  C   UNL A   1      36.369  31.477  30.425  1.00  0.00     0.091 A 
ATOM     64  F   UNL A   1      37.851  31.423  28.554  1.00  0.00    -0.205 F 
ATOM     65  C   UNL A   1      36.092  31.104  31.750  1.00  0.00     0.022 A 
BRANCH  63  66
ATOM     66  S   UNL A   1      35.129  32.462  29.578  1.00  0.00     0.127 S 
ATOM     67  O   UNL A   1      34.651  31.525  28.563  1.00  0.00    -0.237 OA
ATOM     68  O   UNL A   1      34.172  32.743  30.648  1.00  0.00    -0.237 OA
ATOM     69  O   UNL A   1      35.830  33.634  29.070  1.00  0.00    -0.744 OA
ENDBRANCH  63  66
ENDBRANCH  45  59
BRANCH  46  70
ATOM     70  C   UNL A   1      47.301  27.841  26.531  1.00  0.00     0.023 A 
ATOM     71  C   UNL A   1      48.342  27.401  27.370  1.00  0.00     0.012 A 
ATOM     72  C   UNL A   1      47.488  27.825  25.134  1.00  0.00     0.148 A 
ATOM     73  C   UNL A   1      49.549  26.955  26.829  1.00  0.00     0.002 A 
ATOM     74  C   UNL A   1      48.672  27.331  24.601  1.00  0.00     0.091 A 
ATOM     75  F   UNL A   1      46.489  28.264  24.356  1.00  0.00    -0.205 F 
ATOM     76  C   UNL A   1      49.708  26.906  25.446  1.00  0.00     0.022 A 
BRANCH  74  77
ATOM     77  S   UNL A   1      48.918  27.104  22.835  1.00  0.00     0.127 S 
ATOM     78  O   UNL A   1      50.375  27.096  22.734  1.00  0.00    -0.237 OA
ATOM     79  O   UNL A   1      48.277  25.807  22.609  1.00  0.00    -0.237 OA
ATOM     80  O   UNL A   1      48.249  28.228  22.194  1.00  0.00    -0.744 OA
ENDBRANCH  74  77
ENDBRANCH  46  70
BRANCH  58  81
ATOM     81  C   UNL A   1      44.798  33.727  29.419  1.00  0.00     0.023 A 
ATOM     82  C   UNL A   1      45.571  34.007  30.561  1.00  0.00     0.012 A 
ATOM     83  C   UNL A   1      44.695  34.691  28.395  1.00  0.00     0.148 A 
ATOM     84  C   UNL A   1      46.233  35.228  30.685  1.00  0.00     0.002 A 
ATOM     85  C   UNL A   1      45.394  35.888  28.506  1.00  0.00     0.091 A 
ATOM     86  F   UNL A   1      43.949  34.403  27.320  1.00  0.00    -0.205 F 
ATOM     87  C   UNL A   1      46.158  36.160  29.654  1.00  0.00     0.022 A 
BRANCH  85  88
ATOM     88  S   UNL A   1      45.443  37.110  27.189  1.00  0.00     0.127 S 
ATOM     89  O   UNL A   1      44.023  37.271  26.878  1.00  0.00    -0.237 OA
ATOM     90  O   UNL A   1      46.055  38.258  27.858  1.00  0.00    -0.237 OA
ATOM     91  O   UNL A   1      46.246  36.526  26.124  1.00  0.00    -0.744 OA
ENDBRANCH  85  88
ENDBRANCH  58  81
ENDBRANCH  32  33
ENDBRANCH  25  27
ENDBRANCH  24  25
ENDBRANCH  23  24
ENDBRANCH  22  23
ENDBRANCH  21  22
ENDBRANCH   1  21
TORSDOF 21
ENDMDL
MODEL 3
REMARK VINA RESULT:     -10.1      5.106     10.511
REMARK SMILES COc1cc(F)ccc1NCC(C)(C)C(=O)OCCOCCOC(=O)c1ccc(-c2c3nc(c(-c4cccc(S(=O)(=O)[O-])c4F)c4ccc([nH]4)c(-c4cccc(S(=O)(=O)[O-])c4F)c4nc(c(-c5cccc(S(=O)(=O)[O-])c5F)c5ccc2[nH]5)C=C4)C=C3)cc1
REMARK SMILES IDX 19 1 18 2 17 3 15 4 16 5 12 6 13 7 14 8 11 9 10 10 9 12 3 13
REMARK SMILES IDX 4 14 5 15 8 16 6 17 7 18 2 19 1 20 20 21 21 22 22 23 23 24
REMARK SMILES IDX 24 25 25 26 26 27 27 28 88 29 28 30 87 31 29 32 30 33 31 34
REMARK SMILES IDX 81 35 32 36 86 37 80 38 82 39 33 40 85 41 79 42 78 43 34 45
REMARK SMILES IDX 66 46 46 47 65 48 47 49 50 50 64 51 83 52 48 53 49 54 63 56
REMARK SMILES IDX 84 57 51 58 35 59 36 60 44 61 37 62 39 63 45 64 38 65 40 66
REMARK SMILES IDX 41 67 42 68 43 69 67 70 68 71 76 72 69 73 71 74 77 75 70 76
REMARK SMILES IDX 72 77 73 78 74 79 75 80 52 81 53 82 61 83 54 84 56 85 62 86
REMARK SMILES IDX 55 87 57 88 58 89 59 90 60 91
REMARK H PARENT 10 11 82 44 50 55
REMARK Flexibility Score: inf
ROOT
ATOM      1  C   UNL A   1      32.150  29.737  27.451  1.00  0.00     0.202 C 
ENDROOT
BRANCH   1   2
ATOM      2  C   UNL A   1      32.546  28.284  27.172  1.00  0.00     0.261 C 
BRANCH   2   3
ATOM      3  O   UNL A   1      32.399  27.972  25.778  1.00  0.00    -0.463 OA
BRANCH   3   4
ATOM      4  C   UNL A   1      32.388  26.648  25.474  1.00  0.00     0.313 C 
ATOM      5  O   UNL A   1      31.810  25.796  26.139  1.00  0.00    -0.252 OA
BRANCH   4   6
ATOM      6  C   UNL A   1      33.173  26.331  24.196  1.00  0.00     0.080 C 
ATOM      7  C   UNL A   1      33.681  27.670  23.637  1.00  0.00     0.025 C 
ATOM      8  C   UNL A   1      32.293  25.677  23.108  1.00  0.00     0.025 C 
BRANCH   6   9
ATOM      9  C   UNL A   1      34.345  25.365  24.504  1.00  0.00     0.131 C 
BRANCH   9  10
ATOM     10  N   UNL A   1      34.005  23.957  24.383  1.00  0.00    -0.381 N 
ATOM     11  H   UNL A   1      33.069  23.737  24.170  1.00  0.00     0.160 HD
BRANCH  10  12
ATOM     12  C   UNL A   1      34.887  22.893  24.540  1.00  0.00     0.077 A 
ATOM     13  C   UNL A   1      34.363  21.618  24.858  1.00  0.00     0.144 A 
ATOM     14  C   UNL A   1      35.185  20.496  24.980  1.00  0.00     0.087 A 
ATOM     15  C   UNL A   1      36.556  20.651  24.845  1.00  0.00     0.127 A 
ATOM     16  C   UNL A   1      36.279  23.015  24.457  1.00  0.00     0.032 A 
ATOM     17  F   UNL A   1      37.356  19.583  24.964  1.00  0.00    -0.207 F 
ATOM     18  C   UNL A   1      37.112  21.898  24.599  1.00  0.00     0.041 A 
BRANCH  13  19
ATOM     19  O   UNL A   1      32.992  21.512  24.964  1.00  0.00    -0.494 OA
ATOM     20  C   UNL A   1      32.481  20.393  24.245  1.00  0.00     0.278 C 
ENDBRANCH  13  19
ENDBRANCH  10  12
ENDBRANCH   9  10
ENDBRANCH   6   9
ENDBRANCH   4   6
ENDBRANCH   3   4
ENDBRANCH   2   3
ENDBRANCH   1   2
BRANCH   1  21
ATOM     21  O   UNL A   1      32.249  30.649  26.356  1.00  0.00    -0.374 OA
BRANCH  21  22
ATOM     22  C   UNL A   1      31.413  31.803  26.376  1.00  0.00     0.202 C 
BRANCH  22  23
ATOM     23  C   UNL A   1      31.885  33.003  27.205  1.00  0.00     0.261 C 
BRANCH  23  24
ATOM     24  O   UNL A   1      33.308  33.200  27.153  1.00  0.00    -0.460 OA
BRANCH  24  25
ATOM     25  C   UNL A   1      33.889  33.347  28.367  1.00  0.00     0.338 C 
ATOM     26  O   UNL A   1      33.388  33.852  29.365  1.00  0.00    -0.246 OA
BRANCH  25  27
ATOM     27  C   UNL A   1      35.192  32.661  28.420  1.00  0.00     0.060 A 
ATOM     28  C   UNL A   1      35.174  31.288  28.696  1.00  0.00     0.016 A 
ATOM     29  C   UNL A   1      36.402  33.356  28.342  1.00  0.00     0.016 A 
ATOM     30  C   UNL A   1      36.357  30.622  28.989  1.00  0.00     0.010 A 
ATOM     31  C   UNL A   1      37.594  32.683  28.639  1.00  0.00     0.010 A 
ATOM     32  C   UNL A   1      37.566  31.330  29.026  1.00  0.00    -0.014 A 
BRANCH  32  33
ATOM     33  C   UNL A   1      38.733  30.691  29.679  1.00  0.00     0.031 A 
ATOM     34  C   UNL A   1      39.061  31.067  31.101  1.00  0.00     0.074 A 
ATOM     35  C   UNL A   1      39.440  29.732  29.055  1.00  0.00     0.049 A 
ATOM     36  N   UNL A   1      39.961  30.562  31.902  1.00  0.00    -0.248 NA
ATOM     37  C   UNL A   1      38.262  32.150  31.701  1.00  0.00     0.031 C 
ATOM     38  C   UNL A   1      39.211  29.276  27.687  1.00  0.00     0.029 A 
ATOM     39  N   UNL A   1      40.492  28.969  29.497  1.00  0.00    -0.354 N 
ATOM     40  C   UNL A   1      39.847  31.271  33.092  1.00  0.00     0.074 A 
ATOM     41  C   UNL A   1      38.812  32.261  32.902  1.00  0.00     0.031 C 
ATOM     42  C   UNL A   1      40.101  28.312  27.396  1.00  0.00     0.029 A 
ATOM     43  C   UNL A   1      40.968  28.092  28.554  1.00  0.00     0.049 A 
ATOM     44  H   UNL A   1      40.869  29.045  30.403  1.00  0.00     0.167 HD
ATOM     45  C   UNL A   1      40.521  31.092  34.252  1.00  0.00     0.034 A 
ATOM     46  C   UNL A   1      41.988  27.210  28.617  1.00  0.00     0.034 A 
ATOM     47  C   UNL A   1      41.523  30.084  34.453  1.00  0.00     0.049 A 
ATOM     48  C   UNL A   1      42.752  27.055  29.906  1.00  0.00     0.074 A 
ATOM     49  C   UNL A   1      42.212  29.780  35.612  1.00  0.00     0.029 A 
ATOM     50  N   UNL A   1      41.985  29.223  33.470  1.00  0.00    -0.354 N 
ATOM     51  N   UNL A   1      42.543  27.639  31.061  1.00  0.00    -0.248 NA
ATOM     52  C   UNL A   1      43.873  26.102  29.911  1.00  0.00     0.031 C 
ATOM     53  C   UNL A   1      43.114  28.753  35.323  1.00  0.00     0.029 A 
ATOM     54  C   UNL A   1      42.973  28.405  33.988  1.00  0.00     0.049 A 
ATOM     55  H   UNL A   1      41.660  29.199  32.541  1.00  0.00     0.167 HD
ATOM     56  C   UNL A   1      43.491  27.116  31.935  1.00  0.00     0.074 A 
ATOM     57  C   UNL A   1      44.265  26.151  31.180  1.00  0.00     0.031 C 
ATOM     58  C   UNL A   1      43.710  27.419  33.238  1.00  0.00     0.034 A 
BRANCH  45  59
ATOM     59  C   UNL A   1      40.162  31.978  35.414  1.00  0.00     0.023 A 
ATOM     60  C   UNL A   1      40.847  33.195  35.595  1.00  0.00     0.012 A 
ATOM     61  C   UNL A   1      39.110  31.638  36.287  1.00  0.00     0.148 A 
ATOM     62  C   UNL A   1      40.509  34.052  36.642  1.00  0.00     0.002 A 
ATOM     63  C   UNL A   1      38.752  32.515  37.304  1.00  0.00     0.091 A 
ATOM     64  F   UNL A   1      38.488  30.464  36.113  1.00  0.00    -0.205 F 
ATOM     65  C   UNL A   1      39.455  33.718  37.488  1.00  0.00     0.022 A 
BRANCH  63  66
ATOM     66  S   UNL A   1      37.363  32.207  38.400  1.00  0.00     0.127 S 
ATOM     67  O   UNL A   1      37.195  30.761  38.263  1.00  0.00    -0.237 OA
ATOM     68  O   UNL A   1      37.888  32.639  39.696  1.00  0.00    -0.237 OA
ATOM     69  O   UNL A   1      36.265  33.017  37.891  1.00  0.00    -0.744 OA
ENDBRANCH  63  66
ENDBRANCH  45  59
BRANCH  46  70
ATOM     70  C   UNL A   1      42.296  26.370  27.425  1.00  0.00     0.023 A 
ATOM     71  C   UNL A   1      43.082  26.901  26.386  1.00  0.00     0.012 A 
ATOM     72  C   UNL A   1      41.883  25.024  27.359  1.00  0.00     0.148 A 
ATOM     73  C   UNL A   1      43.449  26.108  25.298  1.00  0.00     0.002 A 
ATOM     74  C   UNL A   1      42.295  24.226  26.299  1.00  0.00     0.091 A 
ATOM     75  F   UNL A   1      41.122  24.545  28.352  1.00  0.00    -0.205 F 
ATOM     76  C   UNL A   1      43.069  24.769  25.261  1.00  0.00     0.022 A 
BRANCH  74  77
ATOM     77  S   UNL A   1      41.969  22.460  26.232  1.00  0.00     0.127 S 
ATOM     78  O   UNL A   1      42.663  22.073  25.006  1.00  0.00    -0.237 OA
ATOM     79  O   UNL A   1      42.597  21.994  27.470  1.00  0.00    -0.237 OA
ATOM     80  O   UNL A   1      40.519  22.326  26.203  1.00  0.00    -0.744 OA
ENDBRANCH  74  77
ENDBRANCH  46  70
BRANCH  58  81
ATOM     81  C   UNL A   1      44.837  26.727  33.957  1.00  0.00     0.023 A 
ATOM     82  C   UNL A   1      46.105  27.338  33.994  1.00  0.00     0.012 A 
ATOM     83  C   UNL A   1      44.601  25.570  34.728  1.00  0.00     0.148 A 
ATOM     84  C   UNL A   1      47.124  26.808  34.784  1.00  0.00     0.002 A 
ATOM     85  C   UNL A   1      45.609  25.073  35.547  1.00  0.00     0.091 A 
ATOM     86  F   UNL A   1      43.388  25.003  34.672  1.00  0.00    -0.205 F 
ATOM     87  C   UNL A   1      46.872  25.687  35.571  1.00  0.00     0.022 A 
BRANCH  85  88
ATOM     88  S   UNL A   1      45.354  23.696  36.674  1.00  0.00     0.127 S 
ATOM     89  O   UNL A   1      44.596  24.330  37.752  1.00  0.00    -0.237 OA
ATOM     90  O   UNL A   1      44.580  22.765  35.852  1.00  0.00    -0.237 OA
ATOM     91  O   UNL A   1      46.680  23.225  37.046  1.00  0.00    -0.744 OA
ENDBRANCH  85  88
ENDBRANCH  58  81
ENDBRANCH  32  33
ENDBRANCH  25  27
ENDBRANCH  24  25
ENDBRANCH  23  24
ENDBRANCH  22  23
ENDBRANCH  21  22
ENDBRANCH   1  21
TORSDOF 21
ENDMDL
