MODEL 1
REMARK VINA RESULT:     -11.9      0.000      0.000
REMARK SMILES O=C(OCCOCCOC(=O)[C@H](c1c[nH]c2ccc(Cl)cc12)[NH+]1CCN(c2cccc(Cl)c2)CC1)c1ccc(-c2c3nc(c(-c4cccc(S(=O)(=O)[O-])c4F)c4ccc([nH]4)c(-c4cccc(S(=O)(=O)[O-])c4F)c4nc(c(-c5cccc(S(=O)(=O)[O-])c5F)c5ccc2[nH]5)C=C4)C=C3)cc1
REMARK SMILES IDX 5 1 4 2 3 3 2 4 1 5 36 6 37 7 98 8 38 9 97 10 39 11 40 12
REMARK SMILES IDX 41 13 91 14 42 15 96 16 90 17 92 18 43 19 95 20 89 21 88 22
REMARK SMILES IDX 44 24 76 25 56 26 75 27 57 28 60 29 74 30 93 31 58 32 59 33
REMARK SMILES IDX 73 35 94 36 61 37 45 38 46 39 54 40 47 41 49 42 55 43 48 44
REMARK SMILES IDX 50 45 51 46 52 47 53 48 77 49 78 50 86 51 79 52 81 53 87 54
REMARK SMILES IDX 80 55 82 56 83 57 84 58 85 59 62 60 63 61 71 62 64 63 66 64
REMARK SMILES IDX 72 65 65 66 67 67 68 68 69 69 70 70 6 71 7 72 8 73 9 74
REMARK SMILES IDX 10 75 11 76 12 77 23 78 24 79 35 80 25 82 34 83 26 84 27 85
REMARK SMILES IDX 28 86 33 87 29 88 31 89 30 90 32 91 13 92 14 93 22 94 15 95
REMARK SMILES IDX 16 96 21 97 17 99 19 100 18 101 20 102
REMARK H PARENT 92 23 60 34 23 81 15 98
REMARK Flexibility Score: inf
ROOT
ATOM      1  C   UNL A   1      38.041  19.596  25.219  1.00  0.00     0.202 C 
ENDROOT
BRANCH   1   2
ATOM      2  C   UNL A   1      39.471  19.207  25.571  1.00  0.00     0.261 C 
BRANCH   2   3
ATOM      3  O   UNL A   1      39.826  19.760  26.841  1.00  0.00    -0.460 OA
BRANCH   3   4
ATOM      4  C   UNL A   1      41.033  20.278  27.171  1.00  0.00     0.338 C 
ATOM      5  O   UNL A   1      42.002  19.524  27.238  1.00  0.00    -0.246 OA
BRANCH   4   6
ATOM      6  C   UNL A   1      41.248  21.734  27.413  1.00  0.00     0.060 A 
ATOM      7  C   UNL A   1      41.859  22.263  28.552  1.00  0.00     0.016 A 
ATOM      8  C   UNL A   1      40.915  22.615  26.377  1.00  0.00     0.016 A 
ATOM      9  C   UNL A   1      42.140  23.603  28.683  1.00  0.00     0.010 A 
ATOM     10  C   UNL A   1      41.229  23.973  26.479  1.00  0.00     0.010 A 
ATOM     11  C   UNL A   1      41.865  24.454  27.629  1.00  0.00    -0.014 A 
BRANCH  11  12
ATOM     12  C   UNL A   1      42.245  25.855  27.814  1.00  0.00     0.031 A 
ATOM     13  C   UNL A   1      43.577  26.295  27.319  1.00  0.00     0.074 A 
ATOM     14  C   UNL A   1      41.327  26.712  28.301  1.00  0.00     0.049 A 
ATOM     15  N   UNL A   1      44.151  27.454  27.444  1.00  0.00    -0.248 NA
ATOM     16  C   UNL A   1      44.364  25.301  26.566  1.00  0.00     0.031 C 
ATOM     17  C   UNL A   1      39.949  26.357  28.666  1.00  0.00     0.029 A 
ATOM     18  N   UNL A   1      41.404  28.050  28.564  1.00  0.00    -0.354 N 
ATOM     19  C   UNL A   1      45.400  27.309  26.862  1.00  0.00     0.074 A 
ATOM     20  C   UNL A   1      45.484  25.969  26.333  1.00  0.00     0.031 C 
ATOM     21  C   UNL A   1      39.319  27.450  29.123  1.00  0.00     0.029 A 
ATOM     22  C   UNL A   1      40.271  28.549  29.166  1.00  0.00     0.049 A 
ATOM     23  H   UNL A   1      42.190  28.602  28.345  1.00  0.00     0.167 HD
ATOM     24  C   UNL A   1      46.390  28.224  26.816  1.00  0.00     0.034 A 
ATOM     25  C   UNL A   1      40.069  29.743  29.751  1.00  0.00     0.034 A 
ATOM     26  C   UNL A   1      46.249  29.549  27.349  1.00  0.00     0.049 A 
ATOM     27  C   UNL A   1      41.219  30.713  29.740  1.00  0.00     0.074 A 
ATOM     28  C   UNL A   1      47.181  30.567  27.380  1.00  0.00     0.029 A 
ATOM     29  N   UNL A   1      45.101  30.027  27.966  1.00  0.00    -0.354 N 
ATOM     30  N   UNL A   1      42.394  30.588  29.168  1.00  0.00    -0.248 NA
ATOM     31  C   UNL A   1      41.023  31.982  30.448  1.00  0.00     0.031 C 
ATOM     32  C   UNL A   1      46.608  31.647  28.058  1.00  0.00     0.029 A 
ATOM     33  C   UNL A   1      45.305  31.317  28.408  1.00  0.00     0.049 A 
ATOM     34  H   UNL A   1      44.264  29.519  28.074  1.00  0.00     0.167 HD
ATOM     35  C   UNL A   1      43.073  31.768  29.432  1.00  0.00     0.074 A 
ATOM     36  C   UNL A   1      42.159  32.610  30.182  1.00  0.00     0.031 C 
ATOM     37  C   UNL A   1      44.342  32.125  29.112  1.00  0.00     0.034 A 
BRANCH  24  38
ATOM     38  C   UNL A   1      47.709  27.793  26.250  1.00  0.00     0.023 A 
ATOM     39  C   UNL A   1      48.761  27.393  27.096  1.00  0.00     0.012 A 
ATOM     40  C   UNL A   1      47.891  27.770  24.854  1.00  0.00     0.148 A 
ATOM     41  C   UNL A   1      49.984  26.993  26.557  1.00  0.00     0.002 A 
ATOM     42  C   UNL A   1      49.094  27.327  24.325  1.00  0.00     0.091 A 
ATOM     43  F   UNL A   1      46.885  28.192  24.074  1.00  0.00    -0.205 F 
ATOM     44  C   UNL A   1      50.146  26.949  25.174  1.00  0.00     0.022 A 
BRANCH  42  45
ATOM     45  S   UNL A   1      49.376  27.175  22.558  1.00  0.00     0.127 S 
ATOM     46  O   UNL A   1      48.501  26.054  22.215  1.00  0.00    -0.237 OA
ATOM     47  O   UNL A   1      48.922  28.475  22.069  1.00  0.00    -0.237 OA
ATOM     48  O   UNL A   1      50.800  26.916  22.394  1.00  0.00    -0.744 OA
ENDBRANCH  42  45
ENDBRANCH  24  38
BRANCH  25  49
ATOM     49  C   UNL A   1      38.787  30.053  30.449  1.00  0.00     0.023 A 
ATOM     50  C   UNL A   1      38.550  29.544  31.741  1.00  0.00     0.012 A 
ATOM     51  C   UNL A   1      37.785  30.828  29.829  1.00  0.00     0.148 A 
ATOM     52  C   UNL A   1      37.326  29.761  32.377  1.00  0.00     0.002 A 
ATOM     53  C   UNL A   1      36.592  31.090  30.493  1.00  0.00     0.091 A 
ATOM     54  F   UNL A   1      38.011  31.288  28.590  1.00  0.00    -0.205 F 
ATOM     55  C   UNL A   1      36.352  30.539  31.759  1.00  0.00     0.022 A 
BRANCH  53  56
ATOM     56  S   UNL A   1      35.340  32.185  29.815  1.00  0.00     0.127 S 
ATOM     57  O   UNL A   1      34.425  32.328  30.945  1.00  0.00    -0.237 OA
ATOM     58  O   UNL A   1      36.120  33.383  29.500  1.00  0.00    -0.237 OA
ATOM     59  O   UNL A   1      34.808  31.495  28.648  1.00  0.00    -0.744 OA
ENDBRANCH  53  56
ENDBRANCH  25  49
BRANCH  37  60
ATOM     60  C   UNL A   1      44.794  33.488  29.548  1.00  0.00     0.023 A 
ATOM     61  C   UNL A   1      45.447  33.647  30.785  1.00  0.00     0.012 A 
ATOM     62  C   UNL A   1      44.653  34.590  28.683  1.00  0.00     0.148 A 
ATOM     63  C   UNL A   1      45.930  34.894  31.169  1.00  0.00     0.002 A 
ATOM     64  C   UNL A   1      45.191  35.815  29.047  1.00  0.00     0.091 A 
ATOM     65  F   UNL A   1      44.012  34.411  27.520  1.00  0.00    -0.205 F 
ATOM     66  C   UNL A   1      45.817  35.973  30.295  1.00  0.00     0.022 A 
BRANCH  64  67
ATOM     67  S   UNL A   1      45.194  37.226  27.939  1.00  0.00     0.127 S 
ATOM     68  O   UNL A   1      45.560  36.604  26.667  1.00  0.00    -0.237 OA
ATOM     69  O   UNL A   1      43.807  37.683  28.020  1.00  0.00    -0.237 OA
ATOM     70  O   UNL A   1      46.172  38.162  28.478  1.00  0.00    -0.744 OA
ENDBRANCH  64  67
ENDBRANCH  37  60
ENDBRANCH  11  12
ENDBRANCH   4   6
ENDBRANCH   3   4
ENDBRANCH   2   3
ENDBRANCH   1   2
BRANCH   1  71
ATOM     71  O   UNL A   1      37.902  20.893  24.662  1.00  0.00    -0.374 OA
BRANCH  71  72
ATOM     72  C   UNL A   1      37.252  21.902  25.426  1.00  0.00     0.202 C 
BRANCH  72  73
ATOM     73  C   UNL A   1      37.363  23.198  24.624  1.00  0.00     0.261 C 
BRANCH  73  74
ATOM     74  O   UNL A   1      36.076  23.833  24.676  1.00  0.00    -0.459 OA
BRANCH  74  75
ATOM     75  C   UNL A   1      35.110  23.285  23.849  1.00  0.00     0.370 C 
ATOM     76  O   UNL A   1      35.297  22.907  22.704  1.00  0.00    -0.245 OA
BRANCH  75  77
ATOM     77  C   UNL A   1      33.779  23.272  24.634  1.00  0.00     0.328 C 
BRANCH  77  78
ATOM     78  N   UNL A   1      32.662  23.634  23.712  1.00  0.00    -0.316 N 
ATOM     79  C   UNL A   1      31.431  24.050  24.420  1.00  0.00     0.284 C 
ATOM     80  C   UNL A   1      33.073  24.782  22.851  1.00  0.00     0.284 C 
ATOM     81  H   UNL A   1      32.464  22.792  23.172  1.00  0.00     0.349 HD
ATOM     82  C   UNL A   1      31.561  25.339  25.261  1.00  0.00     0.178 C 
ATOM     83  C   UNL A   1      33.320  26.098  23.628  1.00  0.00     0.178 C 
ATOM     84  N   UNL A   1      32.166  26.425  24.476  1.00  0.00    -0.360 N 
BRANCH  84  85
ATOM     85  C   UNL A   1      31.357  27.502  24.167  1.00  0.00     0.038 A 
ATOM     86  C   UNL A   1      30.365  27.418  23.183  1.00  0.00     0.026 A 
ATOM     87  C   UNL A   1      31.511  28.710  24.856  1.00  0.00     0.046 A 
ATOM     88  C   UNL A   1      29.549  28.510  22.888  1.00  0.00     0.004 A 
ATOM     89  C   UNL A   1      30.707  29.804  24.555  1.00  0.00     0.043 A 
ATOM     90  C   UNL A   1      29.725  29.709  23.573  1.00  0.00     0.020 A 
ATOM     91  Cl  UNL A   1      30.931  31.288  25.399  1.00  0.00    -0.084 Cl
ENDBRANCH  84  85
ENDBRANCH  77  78
BRANCH  77  92
ATOM     92  C   UNL A   1      33.530  21.976  25.387  1.00  0.00     0.046 A 
ATOM     93  C   UNL A   1      33.627  21.736  26.745  1.00  0.00     0.094 A 
ATOM     94  C   UNL A   1      33.126  20.719  24.789  1.00  0.00     0.011 A 
ATOM     95  N   UNL A   1      33.339  20.419  26.984  1.00  0.00    -0.361 N 
ATOM     96  C   UNL A   1      33.058  19.767  25.805  1.00  0.00     0.046 A 
ATOM     97  C   UNL A   1      32.799  20.310  23.474  1.00  0.00     0.031 A 
ATOM     98  H   UNL A   1      33.335  19.997  27.874  1.00  0.00     0.166 HD
ATOM     99  C   UNL A   1      32.741  18.422  25.567  1.00  0.00     0.028 A 
ATOM    100  C   UNL A   1      32.488  18.972  23.222  1.00  0.00     0.041 A 
ATOM    101  C   UNL A   1      32.470  18.036  24.250  1.00  0.00     0.022 A 
ATOM    102  Cl  UNL A   1      32.132  18.477  21.610  1.00  0.00    -0.084 Cl
ENDBRANCH  77  92
ENDBRANCH  75  77
ENDBRANCH  74  75
ENDBRANCH  73  74
ENDBRANCH  72  73
ENDBRANCH  71  72
ENDBRANCH   1  71
TORSDOF 20
ENDMDL
MODEL 2
REMARK VINA RESULT:     -11.8      1.949      7.637
REMARK SMILES O=C(OCCOCCOC(=O)[C@H](c1c[nH]c2ccc(Cl)cc12)[NH+]1CCN(c2cccc(Cl)c2)CC1)c1ccc(-c2c3nc(c(-c4cccc(S(=O)(=O)[O-])c4F)c4ccc([nH]4)c(-c4cccc(S(=O)(=O)[O-])c4F)c4nc(c(-c5cccc(S(=O)(=O)[O-])c5F)c5ccc2[nH]5)C=C4)C=C3)cc1
REMARK SMILES IDX 5 1 4 2 3 3 2 4 1 5 36 6 37 7 98 8 38 9 97 10 39 11 40 12
REMARK SMILES IDX 41 13 91 14 42 15 96 16 90 17 92 18 43 19 95 20 89 21 88 22
REMARK SMILES IDX 44 24 76 25 56 26 75 27 57 28 60 29 74 30 93 31 58 32 59 33
REMARK SMILES IDX 73 35 94 36 61 37 45 38 46 39 54 40 47 41 49 42 55 43 48 44
REMARK SMILES IDX 50 45 51 46 52 47 53 48 77 49 78 50 86 51 79 52 81 53 87 54
REMARK SMILES IDX 80 55 82 56 83 57 84 58 85 59 62 60 63 61 71 62 64 63 66 64
REMARK SMILES IDX 72 65 65 66 67 67 68 68 69 69 70 70 6 71 7 72 8 73 9 74
REMARK SMILES IDX 10 75 11 76 12 77 23 78 24 79 35 80 25 82 34 83 26 84 27 85
REMARK SMILES IDX 28 86 33 87 29 88 31 89 30 90 32 91 13 92 14 93 22 94 15 95
REMARK SMILES IDX 16 96 21 97 17 99 19 100 18 101 20 102
REMARK H PARENT 92 23 60 34 23 81 15 98
REMARK Flexibility Score: inf
ROOT
ATOM      1  C   UNL A   1      39.280  21.117  25.800  1.00  0.00     0.202 C 
ENDROOT
BRANCH   1   2
ATOM      2  C   UNL A   1      39.530  19.639  26.072  1.00  0.00     0.261 C 
BRANCH   2   3
ATOM      3  O   UNL A   1      40.782  19.245  25.503  1.00  0.00    -0.460 OA
BRANCH   3   4
ATOM      4  C   UNL A   1      42.007  19.572  25.980  1.00  0.00     0.338 C 
ATOM      5  O   UNL A   1      42.855  18.690  26.088  1.00  0.00    -0.246 OA
BRANCH   4   6
ATOM      6  C   UNL A   1      42.386  20.970  26.338  1.00  0.00     0.060 A 
ATOM      7  C   UNL A   1      42.572  21.426  27.644  1.00  0.00     0.016 A 
ATOM      8  C   UNL A   1      42.683  21.846  25.287  1.00  0.00     0.016 A 
ATOM      9  C   UNL A   1      43.033  22.692  27.925  1.00  0.00     0.010 A 
ATOM     10  C   UNL A   1      43.189  23.121  25.555  1.00  0.00     0.010 A 
ATOM     11  C   UNL A   1      43.384  23.526  26.880  1.00  0.00    -0.014 A 
BRANCH  11  12
ATOM     12  C   UNL A   1      43.922  24.835  27.251  1.00  0.00     0.031 A 
ATOM     13  C   UNL A   1      42.999  25.829  27.862  1.00  0.00     0.074 A 
ATOM     14  C   UNL A   1      45.249  25.038  27.148  1.00  0.00     0.049 A 
ATOM     15  N   UNL A   1      43.232  27.064  28.191  1.00  0.00    -0.248 NA
ATOM     16  C   UNL A   1      41.630  25.366  28.158  1.00  0.00     0.031 C 
ATOM     17  C   UNL A   1      46.225  24.040  26.691  1.00  0.00     0.029 A 
ATOM     18  N   UNL A   1      46.010  26.139  27.427  1.00  0.00    -0.354 N 
ATOM     19  C   UNL A   1      42.022  27.556  28.654  1.00  0.00     0.074 A 
ATOM     20  C   UNL A   1      41.068  26.474  28.618  1.00  0.00     0.031 C 
ATOM     21  C   UNL A   1      47.451  24.583  26.704  1.00  0.00     0.029 A 
ATOM     22  C   UNL A   1      47.333  25.984  27.081  1.00  0.00     0.049 A 
ATOM     23  H   UNL A   1      45.648  26.960  27.833  1.00  0.00     0.167 HD
ATOM     24  C   UNL A   1      41.749  28.818  29.041  1.00  0.00     0.034 A 
ATOM     25  C   UNL A   1      48.312  26.903  27.010  1.00  0.00     0.034 A 
ATOM     26  C   UNL A   1      42.740  29.856  29.068  1.00  0.00     0.049 A 
ATOM     27  C   UNL A   1      47.952  28.315  27.384  1.00  0.00     0.074 A 
ATOM     28  C   UNL A   1      42.589  31.180  29.424  1.00  0.00     0.029 A 
ATOM     29  N   UNL A   1      44.067  29.679  28.700  1.00  0.00    -0.354 N 
ATOM     30  N   UNL A   1      46.814  28.778  27.847  1.00  0.00    -0.248 NA
ATOM     31  C   UNL A   1      49.000  29.329  27.229  1.00  0.00     0.031 C 
ATOM     32  C   UNL A   1      43.819  31.815  29.229  1.00  0.00     0.029 A 
ATOM     33  C   UNL A   1      44.745  30.877  28.794  1.00  0.00     0.049 A 
ATOM     34  H   UNL A   1      44.466  28.825  28.414  1.00  0.00     0.167 HD
ATOM     35  C   UNL A   1      47.012  30.135  28.056  1.00  0.00     0.074 A 
ATOM     36  C   UNL A   1      48.393  30.408  27.704  1.00  0.00     0.031 C 
ATOM     37  C   UNL A   1      46.135  31.081  28.473  1.00  0.00     0.034 A 
BRANCH  24  38
ATOM     38  C   UNL A   1      40.326  29.149  29.377  1.00  0.00     0.023 A 
ATOM     39  C   UNL A   1      39.411  29.511  28.370  1.00  0.00     0.012 A 
ATOM     40  C   UNL A   1      39.895  29.077  30.716  1.00  0.00     0.148 A 
ATOM     41  C   UNL A   1      38.090  29.815  28.695  1.00  0.00     0.002 A 
ATOM     42  C   UNL A   1      38.568  29.337  31.026  1.00  0.00     0.091 A 
ATOM     43  F   UNL A   1      40.796  28.767  31.659  1.00  0.00    -0.205 F 
ATOM     44  C   UNL A   1      37.666  29.717  30.019  1.00  0.00     0.022 A 
BRANCH  42  45
ATOM     45  S   UNL A   1      37.913  29.175  32.690  1.00  0.00     0.127 S 
ATOM     46  O   UNL A   1      36.570  29.733  32.533  1.00  0.00    -0.237 OA
ATOM     47  O   UNL A   1      37.954  27.728  32.889  1.00  0.00    -0.237 OA
ATOM     48  O   UNL A   1      38.801  29.942  33.552  1.00  0.00    -0.744 OA
ENDBRANCH  42  45
ENDBRANCH  24  38
BRANCH  25  49
ATOM     49  C   UNL A   1      49.670  26.546  26.504  1.00  0.00     0.023 A 
ATOM     50  C   UNL A   1      50.525  25.751  27.291  1.00  0.00     0.012 A 
ATOM     51  C   UNL A   1      50.132  27.014  25.257  1.00  0.00     0.148 A 
ATOM     52  C   UNL A   1      51.826  25.471  26.867  1.00  0.00     0.002 A 
ATOM     53  C   UNL A   1      51.408  26.681  24.814  1.00  0.00     0.091 A 
ATOM     54  F   UNL A   1      49.319  27.790  24.525  1.00  0.00    -0.205 F 
ATOM     55  C   UNL A   1      52.265  25.928  25.628  1.00  0.00     0.022 A 
BRANCH  53  56
ATOM     56  S   UNL A   1      52.000  27.127  23.177  1.00  0.00     0.127 S 
ATOM     57  O   UNL A   1      52.292  28.549  23.343  1.00  0.00    -0.237 OA
ATOM     58  O   UNL A   1      53.177  26.270  23.034  1.00  0.00    -0.237 OA
ATOM     59  O   UNL A   1      50.911  26.802  22.266  1.00  0.00    -0.744 OA
ENDBRANCH  53  56
ENDBRANCH  25  49
BRANCH  37  60
ATOM     60  C   UNL A   1      46.657  32.483  28.597  1.00  0.00     0.023 A 
ATOM     61  C   UNL A   1      47.218  32.916  29.813  1.00  0.00     0.012 A 
ATOM     62  C   UNL A   1      46.674  33.333  27.475  1.00  0.00     0.148 A 
ATOM     63  C   UNL A   1      47.765  34.191  29.919  1.00  0.00     0.002 A 
ATOM     64  C   UNL A   1      47.275  34.578  27.573  1.00  0.00     0.091 A 
ATOM     65  F   UNL A   1      46.117  32.898  26.336  1.00  0.00    -0.205 F 
ATOM     66  C   UNL A   1      47.809  35.015  28.797  1.00  0.00     0.022 A 
BRANCH  64  67
ATOM     67  S   UNL A   1      47.479  35.656  26.153  1.00  0.00     0.127 S 
ATOM     68  O   UNL A   1      46.144  36.239  26.028  1.00  0.00    -0.237 OA
ATOM     69  O   UNL A   1      48.511  36.583  26.616  1.00  0.00    -0.237 OA
ATOM     70  O   UNL A   1      47.889  34.797  25.049  1.00  0.00    -0.744 OA
ENDBRANCH  64  67
ENDBRANCH  37  60
ENDBRANCH  11  12
ENDBRANCH   4   6
ENDBRANCH   3   4
ENDBRANCH   2   3
ENDBRANCH   1   2
BRANCH   1  71
ATOM     71  O   UNL A   1      38.098  21.392  25.066  1.00  0.00    -0.374 OA
BRANCH  71  72
ATOM     72  C   UNL A   1      37.313  22.520  25.429  1.00  0.00     0.202 C 
BRANCH  72  73
ATOM     73  C   UNL A   1      36.897  23.202  24.126  1.00  0.00     0.261 C 
BRANCH  73  74
ATOM     74  O   UNL A   1      35.614  23.804  24.360  1.00  0.00    -0.459 OA
BRANCH  74  75
ATOM     75  C   UNL A   1      34.623  23.458  23.456  1.00  0.00     0.370 C 
ATOM     76  O   UNL A   1      34.791  23.287  22.261  1.00  0.00    -0.245 OA
BRANCH  75  77
ATOM     77  C   UNL A   1      33.294  23.362  24.240  1.00  0.00     0.328 C 
BRANCH  77  78
ATOM     78  N   UNL A   1      32.153  23.450  23.281  1.00  0.00    -0.316 N 
ATOM     79  C   UNL A   1      30.837  23.572  23.948  1.00  0.00     0.284 C 
ATOM     80  C   UNL A   1      32.313  24.658  22.419  1.00  0.00     0.284 C 
ATOM     81  H   UNL A   1      32.173  22.583  22.745  1.00  0.00     0.349 HD
ATOM     82  C   UNL A   1      30.640  24.860  24.778  1.00  0.00     0.178 C 
ATOM     83  C   UNL A   1      32.223  26.000  23.188  1.00  0.00     0.178 C 
ATOM     84  N   UNL A   1      31.000  26.054  23.998  1.00  0.00    -0.360 N 
BRANCH  84  85
ATOM     85  C   UNL A   1      29.973  26.911  23.653  1.00  0.00     0.038 A 
ATOM     86  C   UNL A   1      28.641  26.633  23.979  1.00  0.00     0.026 A 
ATOM     87  C   UNL A   1      30.257  28.100  22.971  1.00  0.00     0.046 A 
ATOM     88  C   UNL A   1      27.615  27.512  23.633  1.00  0.00     0.004 A 
ATOM     89  C   UNL A   1      29.234  28.973  22.614  1.00  0.00     0.043 A 
ATOM     90  C   UNL A   1      27.912  28.683  22.942  1.00  0.00     0.020 A 
ATOM     91  Cl  UNL A   1      29.605  30.417  21.754  1.00  0.00    -0.084 Cl
ENDBRANCH  84  85
ENDBRANCH  77  78
BRANCH  77  92
ATOM     92  C   UNL A   1      33.212  22.148  25.149  1.00  0.00     0.046 A 
ATOM     93  C   UNL A   1      33.349  22.090  26.524  1.00  0.00     0.094 A 
ATOM     94  C   UNL A   1      32.958  20.788  24.717  1.00  0.00     0.011 A 
ATOM     95  N   UNL A   1      33.226  20.787  26.927  1.00  0.00    -0.361 N 
ATOM     96  C   UNL A   1      33.017  19.966  25.842  1.00  0.00     0.046 A 
ATOM     97  C   UNL A   1      32.673  20.184  23.469  1.00  0.00     0.031 A 
ATOM     98  H   UNL A   1      33.281  20.480  27.861  1.00  0.00     0.166 HD
ATOM     99  C   UNL A   1      32.864  18.573  25.776  1.00  0.00     0.028 A 
ATOM    100  C   UNL A   1      32.525  18.797  23.388  1.00  0.00     0.041 A 
ATOM    101  C   UNL A   1      32.630  17.999  24.521  1.00  0.00     0.022 A 
ATOM    102  Cl  UNL A   1      32.218  18.069  21.857  1.00  0.00    -0.084 Cl
ENDBRANCH  77  92
ENDBRANCH  75  77
ENDBRANCH  74  75
ENDBRANCH  73  74
ENDBRANCH  72  73
ENDBRANCH  71  72
ENDBRANCH   1  71
TORSDOF 20
ENDMDL
MODEL 3
REMARK VINA RESULT:     -11.8      5.110     11.057
REMARK SMILES O=C(OCCOCCOC(=O)[C@H](c1c[nH]c2ccc(Cl)cc12)[NH+]1CCN(c2cccc(Cl)c2)CC1)c1ccc(-c2c3nc(c(-c4cccc(S(=O)(=O)[O-])c4F)c4ccc([nH]4)c(-c4cccc(S(=O)(=O)[O-])c4F)c4nc(c(-c5cccc(S(=O)(=O)[O-])c5F)c5ccc2[nH]5)C=C4)C=C3)cc1
REMARK SMILES IDX 5 1 4 2 3 3 2 4 1 5 36 6 37 7 98 8 38 9 97 10 39 11 40 12
REMARK SMILES IDX 41 13 91 14 42 15 96 16 90 17 92 18 43 19 95 20 89 21 88 22
REMARK SMILES IDX 44 24 76 25 56 26 75 27 57 28 60 29 74 30 93 31 58 32 59 33
REMARK SMILES IDX 73 35 94 36 61 37 45 38 46 39 54 40 47 41 49 42 55 43 48 44
REMARK SMILES IDX 50 45 51 46 52 47 53 48 77 49 78 50 86 51 79 52 81 53 87 54
REMARK SMILES IDX 80 55 82 56 83 57 84 58 85 59 62 60 63 61 71 62 64 63 66 64
REMARK SMILES IDX 72 65 65 66 67 67 68 68 69 69 70 70 6 71 7 72 8 73 9 74
REMARK SMILES IDX 10 75 11 76 12 77 23 78 24 79 35 80 25 82 34 83 26 84 27 85
REMARK SMILES IDX 28 86 33 87 29 88 31 89 30 90 32 91 13 92 14 93 22 94 15 95
REMARK SMILES IDX 16 96 21 97 17 99 19 100 18 101 20 102
REMARK H PARENT 92 23 60 34 23 81 15 98
REMARK Flexibility Score: inf
ROOT
ATOM      1  C   UNL A   1      32.607  31.166  26.913  1.00  0.00     0.202 C 
ENDROOT
BRANCH   1   2
ATOM      2  C   UNL A   1      31.815  32.456  27.073  1.00  0.00     0.261 C 
BRANCH   2   3
ATOM      3  O   UNL A   1      32.706  33.575  27.086  1.00  0.00    -0.460 OA
BRANCH   3   4
ATOM      4  C   UNL A   1      33.220  34.166  28.191  1.00  0.00     0.338 C 
ATOM      5  O   UNL A   1      32.697  35.197  28.608  1.00  0.00    -0.246 OA
BRANCH   4   6
ATOM      6  C   UNL A   1      34.369  33.594  28.952  1.00  0.00     0.060 A 
ATOM      7  C   UNL A   1      34.252  32.609  29.934  1.00  0.00     0.016 A 
ATOM      8  C   UNL A   1      35.656  33.993  28.571  1.00  0.00     0.016 A 
ATOM      9  C   UNL A   1      35.348  32.028  30.530  1.00  0.00     0.010 A 
ATOM     10  C   UNL A   1      36.779  33.385  29.139  1.00  0.00     0.010 A 
ATOM     11  C   UNL A   1      36.613  32.383  30.102  1.00  0.00    -0.014 A 
BRANCH  11  12
ATOM     12  C   UNL A   1      37.730  31.683  30.737  1.00  0.00     0.031 A 
ATOM     13  C   UNL A   1      37.964  31.902  32.189  1.00  0.00     0.074 A 
ATOM     14  C   UNL A   1      38.414  30.774  30.015  1.00  0.00     0.049 A 
ATOM     15  N   UNL A   1      38.930  31.456  32.935  1.00  0.00    -0.248 NA
ATOM     16  C   UNL A   1      36.967  32.720  32.904  1.00  0.00     0.031 C 
ATOM     17  C   UNL A   1      38.128  30.413  28.620  1.00  0.00     0.029 A 
ATOM     18  N   UNL A   1      39.476  29.983  30.349  1.00  0.00    -0.354 N 
ATOM     19  C   UNL A   1      38.709  32.005  34.188  1.00  0.00     0.074 A 
ATOM     20  C   UNL A   1      37.489  32.772  34.121  1.00  0.00     0.031 C 
ATOM     21  C   UNL A   1      39.008  29.485  28.216  1.00  0.00     0.029 A 
ATOM     22  C   UNL A   1      39.966  29.257  29.287  1.00  0.00     0.049 A 
ATOM     23  H   UNL A   1      39.854  29.938  31.257  1.00  0.00     0.167 HD
ATOM     24  C   UNL A   1      39.494  31.890  35.280  1.00  0.00     0.034 A 
ATOM     25  C   UNL A   1      41.106  28.552  29.186  1.00  0.00     0.034 A 
ATOM     26  C   UNL A   1      40.694  31.104  35.295  1.00  0.00     0.049 A 
ATOM     27  C   UNL A   1      41.989  28.503  30.403  1.00  0.00     0.074 A 
ATOM     28  C   UNL A   1      41.586  30.917  36.331  1.00  0.00     0.029 A 
ATOM     29  N   UNL A   1      41.177  30.391  34.206  1.00  0.00    -0.354 N 
ATOM     30  N   UNL A   1      41.770  29.000  31.598  1.00  0.00    -0.248 NA
ATOM     31  C   UNL A   1      43.269  27.800  30.266  1.00  0.00     0.031 C 
ATOM     32  C   UNL A   1      42.634  30.125  35.853  1.00  0.00     0.029 A 
ATOM     33  C   UNL A   1      42.371  29.783  34.533  1.00  0.00     0.049 A 
ATOM     34  H   UNL A   1      40.733  30.329  33.329  1.00  0.00     0.167 HD
ATOM     35  C   UNL A   1      42.876  28.658  32.362  1.00  0.00     0.074 A 
ATOM     36  C   UNL A   1      43.745  27.876  31.501  1.00  0.00     0.031 C 
ATOM     37  C   UNL A   1      43.171  28.976  33.647  1.00  0.00     0.034 A 
BRANCH  24  38
ATOM     38  C   UNL A   1      39.119  32.688  36.492  1.00  0.00     0.023 A 
ATOM     39  C   UNL A   1      39.573  34.011  36.655  1.00  0.00     0.012 A 
ATOM     40  C   UNL A   1      38.285  32.112  37.470  1.00  0.00     0.148 A 
ATOM     41  C   UNL A   1      39.216  34.743  37.786  1.00  0.00     0.002 A 
ATOM     42  C   UNL A   1      37.897  32.863  38.571  1.00  0.00     0.091 A 
ATOM     43  F   UNL A   1      37.898  30.839  37.308  1.00  0.00    -0.205 F 
ATOM     44  C   UNL A   1      38.370  34.175  38.737  1.00  0.00     0.022 A 
BRANCH  42  45
ATOM     45  S   UNL A   1      36.762  32.241  39.815  1.00  0.00     0.127 S 
ATOM     46  O   UNL A   1      35.550  32.023  39.025  1.00  0.00    -0.237 OA
ATOM     47  O   UNL A   1      37.434  31.018  40.250  1.00  0.00    -0.237 OA
ATOM     48  O   UNL A   1      36.658  33.282  40.827  1.00  0.00    -0.744 OA
ENDBRANCH  42  45
ENDBRANCH  24  38
BRANCH  25  49
ATOM     49  C   UNL A   1      41.510  27.919  27.897  1.00  0.00     0.023 A 
ATOM     50  C   UNL A   1      41.806  28.724  26.781  1.00  0.00     0.012 A 
ATOM     51  C   UNL A   1      41.575  26.516  27.761  1.00  0.00     0.148 A 
ATOM     52  C   UNL A   1      42.111  28.146  25.547  1.00  0.00     0.002 A 
ATOM     53  C   UNL A   1      41.939  25.948  26.544  1.00  0.00     0.091 A 
ATOM     54  F   UNL A   1      41.270  25.757  28.823  1.00  0.00    -0.205 F 
ATOM     55  C   UNL A   1      42.186  26.761  25.430  1.00  0.00     0.022 A 
BRANCH  53  56
ATOM     56  S   UNL A   1      42.178  24.179  26.348  1.00  0.00     0.127 S 
ATOM     57  O   UNL A   1      40.803  23.686  26.384  1.00  0.00    -0.237 OA
ATOM     58  O   UNL A   1      42.825  24.101  25.037  1.00  0.00    -0.237 OA
ATOM     59  O   UNL A   1      43.029  23.773  27.458  1.00  0.00    -0.744 OA
ENDBRANCH  53  56
ENDBRANCH  25  49
BRANCH  37  60
ATOM     60  C   UNL A   1      44.466  28.452  34.196  1.00  0.00     0.023 A 
ATOM     61  C   UNL A   1      45.621  29.256  34.154  1.00  0.00     0.012 A 
ATOM     62  C   UNL A   1      44.507  27.200  34.838  1.00  0.00     0.148 A 
ATOM     63  C   UNL A   1      46.810  28.807  34.720  1.00  0.00     0.002 A 
ATOM     64  C   UNL A   1      45.678  26.787  35.452  1.00  0.00     0.091 A 
ATOM     65  F   UNL A   1      43.395  26.451  34.847  1.00  0.00    -0.205 F 
ATOM     66  C   UNL A   1      46.835  27.582  35.383  1.00  0.00     0.022 A 
BRANCH  64  67
ATOM     67  S   UNL A   1      45.770  25.282  36.424  1.00  0.00     0.127 S 
ATOM     68  O   UNL A   1      44.590  25.407  37.278  1.00  0.00    -0.237 OA
ATOM     69  O   UNL A   1      45.675  24.246  35.395  1.00  0.00    -0.237 OA
ATOM     70  O   UNL A   1      47.050  25.327  37.121  1.00  0.00    -0.744 OA
ENDBRANCH  64  67
ENDBRANCH  37  60
ENDBRANCH  11  12
ENDBRANCH   4   6
ENDBRANCH   3   4
ENDBRANCH   2   3
ENDBRANCH   1   2
BRANCH   1  71
ATOM     71  O   UNL A   1      31.815  29.993  26.819  1.00  0.00    -0.374 OA
BRANCH  71  72
ATOM     72  C   UNL A   1      32.460  28.726  26.842  1.00  0.00     0.202 C 
BRANCH  72  73
ATOM     73  C   UNL A   1      31.476  27.744  27.476  1.00  0.00     0.261 C 
BRANCH  73  74
ATOM     74  O   UNL A   1      31.798  26.440  26.967  1.00  0.00    -0.459 OA
BRANCH  74  75
ATOM     75  C   UNL A   1      30.807  25.836  26.213  1.00  0.00     0.370 C 
ATOM     76  O   UNL A   1      29.654  25.668  26.573  1.00  0.00    -0.245 OA
BRANCH  75  77
ATOM     77  C   UNL A   1      31.442  25.405  24.871  1.00  0.00     0.328 C 
BRANCH  77  78
ATOM     78  N   UNL A   1      30.669  24.258  24.309  1.00  0.00    -0.316 N 
ATOM     79  C   UNL A   1      31.381  23.550  23.222  1.00  0.00     0.284 C 
ATOM     80  C   UNL A   1      30.411  23.252  25.382  1.00  0.00     0.284 C 
ATOM     81  H   UNL A   1      29.809  24.659  23.936  1.00  0.00     0.349 HD
ATOM     82  C   UNL A   1      32.696  22.856  23.642  1.00  0.00     0.178 C 
ATOM     83  C   UNL A   1      31.689  22.572  25.931  1.00  0.00     0.178 C 
ATOM     84  N   UNL A   1      32.496  22.020  24.836  1.00  0.00    -0.360 N 
BRANCH  84  85
ATOM     85  C   UNL A   1      32.604  20.653  24.669  1.00  0.00     0.038 A 
ATOM     86  C   UNL A   1      32.935  19.805  25.732  1.00  0.00     0.026 A 
ATOM     87  C   UNL A   1      32.367  20.083  23.412  1.00  0.00     0.046 A 
ATOM     88  C   UNL A   1      33.032  18.426  25.551  1.00  0.00     0.004 A 
ATOM     89  C   UNL A   1      32.475  18.709  23.227  1.00  0.00     0.043 A 
ATOM     90  C   UNL A   1      32.807  17.877  24.292  1.00  0.00     0.020 A 
ATOM     91  Cl  UNL A   1      32.202  18.033  21.667  1.00  0.00    -0.084 Cl
ENDBRANCH  84  85
ENDBRANCH  77  78
BRANCH  77  92
ATOM     92  C   UNL A   1      31.610  26.547  23.884  1.00  0.00     0.046 A 
ATOM     93  C   UNL A   1      32.760  26.973  23.246  1.00  0.00     0.094 A 
ATOM     94  C   UNL A   1      30.551  27.419  23.417  1.00  0.00     0.011 A 
ATOM     95  N   UNL A   1      32.458  28.053  22.461  1.00  0.00    -0.361 N 
ATOM     96  C   UNL A   1      31.122  28.367  22.569  1.00  0.00     0.046 A 
ATOM     97  C   UNL A   1      29.153  27.479  23.632  1.00  0.00     0.031 A 
ATOM     98  H   UNL A   1      33.105  28.539  21.899  1.00  0.00     0.166 HD
ATOM     99  C   UNL A   1      30.383  29.400  21.975  1.00  0.00     0.028 A 
ATOM    100  C   UNL A   1      28.406  28.507  23.052  1.00  0.00     0.041 A 
ATOM    101  C   UNL A   1      29.011  29.462  22.244  1.00  0.00     0.022 A 
ATOM    102  Cl  UNL A   1      26.711  28.593  23.353  1.00  0.00    -0.084 Cl
ENDBRANCH  77  92
ENDBRANCH  75  77
ENDBRANCH  74  75
ENDBRANCH  73  74
ENDBRANCH  72  73
ENDBRANCH  71  72
ENDBRANCH   1  71
TORSDOF 20
ENDMDL
