MODEL 1
REMARK VINA RESULT:     -11.6      0.000      0.000
REMARK SMILES COc1ccc2[nH]c(C(=O)c3cc(C)ccn3)c(CC(=O)OCCOCCOC(=O)c3ccc(-c4c5nc(c(-c6cccc(S(=O)(=O)[O-])c6F)c6ccc([nH]6)c(-c6cccc(S(=O)(=O)[O-])c6F)c6nc(c(-c7cccc(S(=O)(=O)[O-])c7F)c7ccc4[nH]7)C=C6)C=C5)cc3)c2c1
REMARK SMILES IDX 25 1 24 2 23 3 22 4 20 5 21 6 19 7 18 8 3 9 4 10 95 11 5 12
REMARK SMILES IDX 94 13 6 14 7 15 8 16 2 18 1 19 9 20 10 21 11 22 12 23 17 24
REMARK SMILES IDX 13 25 16 26 14 27 15 28 26 29 27 30 28 31 29 32 30 33 31 34
REMARK SMILES IDX 32 35 93 36 33 37 92 38 34 39 35 40 36 41 86 42 37 43 91 44
REMARK SMILES IDX 85 45 87 46 38 47 90 48 84 49 83 50 39 52 71 53 51 54 70 55
REMARK SMILES IDX 52 56 55 57 69 58 88 59 53 60 54 61 68 63 89 64 56 65 40 66
REMARK SMILES IDX 41 67 49 68 42 69 44 70 50 71 43 72 45 73 46 74 47 75 48 76
REMARK SMILES IDX 72 77 73 78 81 79 74 80 76 81 82 82 75 83 77 84 78 85 79 86
REMARK SMILES IDX 80 87 57 88 58 89 66 90 59 91 61 92 67 93 60 94 62 95 63 96
REMARK SMILES IDX 64 97 65 98
REMARK H PARENT 7 17 87 51 55 62
REMARK Flexibility Score: inf
ROOT
ATOM      1  O   UNL A   1      31.957  28.601  26.204  1.00  0.00    -0.374 OA
ENDROOT
BRANCH   1   2
ATOM      2  C   UNL A   1      33.093  28.001  25.585  1.00  0.00     0.202 C 
BRANCH   2   3
ATOM      3  C   UNL A   1      33.460  26.560  25.979  1.00  0.00     0.261 C 
BRANCH   3   4
ATOM      4  O   UNL A   1      34.712  26.081  25.441  1.00  0.00    -0.463 OA
BRANCH   4   5
ATOM      5  C   UNL A   1      34.837  24.725  25.380  1.00  0.00     0.310 C 
ATOM      6  O   UNL A   1      35.915  24.134  25.451  1.00  0.00    -0.252 OA
BRANCH   5   7
ATOM      7  C   UNL A   1      33.546  23.937  25.294  1.00  0.00     0.161 C 
BRANCH   7   8
ATOM      8  C   UNL A   1      33.195  23.224  24.015  1.00  0.00     0.000 A 
ATOM      9  C   UNL A   1      32.405  19.501  24.487  1.00  0.00     0.119 A 
ATOM     10  C   UNL A   1      32.042  19.258  23.164  1.00  0.00     0.048 A 
ATOM     11  C   UNL A   1      32.841  20.772  24.878  1.00  0.00     0.057 A 
ATOM     12  C   UNL A   1      32.125  20.271  22.200  1.00  0.00     0.030 A 
ATOM     13  C   UNL A   1      32.900  21.819  23.933  1.00  0.00     0.008 A 
ATOM     14  C   UNL A   1      32.544  21.541  22.619  1.00  0.00     0.046 A 
ATOM     15  N   UNL A   1      32.673  22.712  21.913  1.00  0.00    -0.352 N 
ATOM     16  C   UNL A   1      32.890  23.779  22.763  1.00  0.00     0.093 A 
ATOM     17  H   UNL A   1      32.620  22.781  20.933  1.00  0.00     0.167 HD
BRANCH   9  18
ATOM     18  O   UNL A   1      32.274  18.588  25.499  1.00  0.00    -0.497 OA
ATOM     19  C   UNL A   1      32.999  17.376  25.307  1.00  0.00     0.278 C 
ENDBRANCH   9  18
BRANCH  16  20
ATOM     20  C   UNL A   1      32.793  25.190  22.374  1.00  0.00     0.227 C 
ATOM     21  O   UNL A   1      33.657  25.771  21.720  1.00  0.00    -0.285 OA
BRANCH  20  22
ATOM     22  C   UNL A   1      31.577  25.978  22.747  1.00  0.00     0.113 A 
ATOM     23  C   UNL A   1      31.397  27.290  22.328  1.00  0.00     0.036 A 
ATOM     24  N   UNL A   1      30.686  25.319  23.532  1.00  0.00    -0.253 NA
ATOM     25  C   UNL A   1      30.253  27.967  22.772  1.00  0.00    -0.047 A 
ATOM     26  C   UNL A   1      29.613  25.999  23.971  1.00  0.00     0.112 A 
ATOM     27  C   UNL A   1      29.956  29.374  22.347  1.00  0.00     0.044 C 
ATOM     28  C   UNL A   1      29.359  27.311  23.624  1.00  0.00     0.023 A 
ENDBRANCH  20  22
ENDBRANCH  16  20
ENDBRANCH   7   8
ENDBRANCH   5   7
ENDBRANCH   4   5
ENDBRANCH   3   4
ENDBRANCH   2   3
ENDBRANCH   1   2
BRANCH   1  29
ATOM     29  C   UNL A   1      31.601  29.911  25.775  1.00  0.00     0.202 C 
BRANCH  29  30
ATOM     30  C   UNL A   1      31.888  31.073  26.728  1.00  0.00     0.261 C 
BRANCH  30  31
ATOM     31  O   UNL A   1      33.051  31.841  26.430  1.00  0.00    -0.460 OA
BRANCH  31  32
ATOM     32  C   UNL A   1      33.528  32.557  27.466  1.00  0.00     0.338 C 
ATOM     33  O   UNL A   1      33.016  33.510  28.039  1.00  0.00    -0.246 OA
BRANCH  32  34
ATOM     34  C   UNL A   1      34.793  31.957  27.878  1.00  0.00     0.060 A 
ATOM     35  C   UNL A   1      34.815  30.593  28.179  1.00  0.00     0.016 A 
ATOM     36  C   UNL A   1      35.923  32.763  28.039  1.00  0.00     0.016 A 
ATOM     37  C   UNL A   1      35.972  30.033  28.703  1.00  0.00     0.010 A 
ATOM     38  C   UNL A   1      37.083  32.197  28.560  1.00  0.00     0.010 A 
ATOM     39  C   UNL A   1      37.095  30.842  28.932  1.00  0.00    -0.014 A 
BRANCH  39  40
ATOM     40  C   UNL A   1      38.243  30.293  29.683  1.00  0.00     0.031 A 
ATOM     41  C   UNL A   1      38.458  30.734  31.102  1.00  0.00     0.074 A 
ATOM     42  C   UNL A   1      39.071  29.416  29.092  1.00  0.00     0.049 A 
ATOM     43  N   UNL A   1      39.391  30.378  31.944  1.00  0.00    -0.248 NA
ATOM     44  C   UNL A   1      37.498  31.710  31.646  1.00  0.00     0.031 C 
ATOM     45  C   UNL A   1      38.951  28.945  27.713  1.00  0.00     0.029 A 
ATOM     46  N   UNL A   1      40.186  28.783  29.571  1.00  0.00    -0.354 N 
ATOM     47  C   UNL A   1      39.148  31.099  33.105  1.00  0.00     0.074 A 
ATOM     48  C   UNL A   1      37.989  31.928  32.858  1.00  0.00     0.031 C 
ATOM     49  C   UNL A   1      39.970  28.110  27.449  1.00  0.00     0.029 A 
ATOM     50  C   UNL A   1      40.819  28.006  28.632  1.00  0.00     0.049 A 
ATOM     51  H   UNL A   1      40.504  28.876  30.499  1.00  0.00     0.167 HD
ATOM     52  C   UNL A   1      39.821  31.059  34.278  1.00  0.00     0.034 A 
ATOM     53  C   UNL A   1      41.965  27.304  28.721  1.00  0.00     0.034 A 
ATOM     54  C   UNL A   1      40.958  30.213  34.513  1.00  0.00     0.049 A 
ATOM     55  C   UNL A   1      42.694  27.273  30.038  1.00  0.00     0.074 A 
ATOM     56  C   UNL A   1      41.683  30.048  35.679  1.00  0.00     0.029 A 
ATOM     57  N   UNL A   1      41.543  29.394  33.557  1.00  0.00    -0.354 N 
ATOM     58  N   UNL A   1      42.378  27.859  31.168  1.00  0.00    -0.248 NA
ATOM     59  C   UNL A   1      43.915  26.459  30.104  1.00  0.00     0.031 C 
ATOM     60  C   UNL A   1      42.723  29.148  35.420  1.00  0.00     0.029 A 
ATOM     61  C   UNL A   1      42.629  28.732  34.101  1.00  0.00     0.049 A 
ATOM     62  H   UNL A   1      41.230  29.299  32.629  1.00  0.00     0.167 HD
ATOM     63  C   UNL A   1      43.340  27.460  32.088  1.00  0.00     0.074 A 
ATOM     64  C   UNL A   1      44.240  26.566  31.386  1.00  0.00     0.031 C 
ATOM     65  C   UNL A   1      43.478  27.809  33.391  1.00  0.00     0.034 A 
BRANCH  52  66
ATOM     66  C   UNL A   1      39.327  31.932  35.400  1.00  0.00     0.023 A 
ATOM     67  C   UNL A   1      38.407  31.415  36.335  1.00  0.00     0.012 A 
ATOM     68  C   UNL A   1      39.807  33.247  35.560  1.00  0.00     0.148 A 
ATOM     69  C   UNL A   1      37.949  32.200  37.392  1.00  0.00     0.002 A 
ATOM     70  C   UNL A   1      39.377  34.011  36.639  1.00  0.00     0.091 A 
ATOM     71  F   UNL A   1      40.661  33.731  34.647  1.00  0.00    -0.205 F 
ATOM     72  C   UNL A   1      38.441  33.493  37.550  1.00  0.00     0.022 A 
BRANCH  70  73
ATOM     73  S   UNL A   1      40.003  35.663  36.967  1.00  0.00     0.127 S 
ATOM     74  O   UNL A   1      39.301  36.003  38.205  1.00  0.00    -0.237 OA
ATOM     75  O   UNL A   1      41.437  35.423  37.125  1.00  0.00    -0.237 OA
ATOM     76  O   UNL A   1      39.646  36.465  35.806  1.00  0.00    -0.744 OA
ENDBRANCH  70  73
ENDBRANCH  52  66
BRANCH  53  77
ATOM     77  C   UNL A   1      42.459  26.541  27.540  1.00  0.00     0.023 A 
ATOM     78  C   UNL A   1      43.297  27.174  26.602  1.00  0.00     0.012 A 
ATOM     79  C   UNL A   1      42.140  25.181  27.368  1.00  0.00     0.148 A 
ATOM     80  C   UNL A   1      43.787  26.472  25.501  1.00  0.00     0.002 A 
ATOM     81  C   UNL A   1      42.674  24.472  26.298  1.00  0.00     0.091 A 
ATOM     82  F   UNL A   1      41.327  24.601  28.264  1.00  0.00    -0.205 F 
ATOM     83  C   UNL A   1      43.486  25.119  25.354  1.00  0.00     0.022 A 
BRANCH  81  84
ATOM     84  S   UNL A   1      42.442  22.702  26.108  1.00  0.00     0.127 S 
ATOM     85  O   UNL A   1      40.986  22.591  26.079  1.00  0.00    -0.237 OA
ATOM     86  O   UNL A   1      43.106  22.444  24.829  1.00  0.00    -0.237 OA
ATOM     87  O   UNL A   1      43.101  22.095  27.256  1.00  0.00    -0.744 OA
ENDBRANCH  81  84
ENDBRANCH  53  77
BRANCH  65  88
ATOM     88  C   UNL A   1      44.625  27.207  34.156  1.00  0.00     0.023 A 
ATOM     89  C   UNL A   1      45.863  27.878  34.203  1.00  0.00     0.012 A 
ATOM     90  C   UNL A   1      44.449  26.025  34.900  1.00  0.00     0.148 A 
ATOM     91  C   UNL A   1      46.917  27.366  34.958  1.00  0.00     0.002 A 
ATOM     92  C   UNL A   1      45.487  25.547  35.690  1.00  0.00     0.091 A 
ATOM     93  F   UNL A   1      43.268  25.393  34.828  1.00  0.00    -0.205 F 
ATOM     94  C   UNL A   1      46.725  26.211  35.711  1.00  0.00     0.022 A 
BRANCH  92  95
ATOM     95  S   UNL A   1      45.298  24.123  36.769  1.00  0.00     0.127 S 
ATOM     96  O   UNL A   1      44.664  23.155  35.875  1.00  0.00    -0.237 OA
ATOM     97  O   UNL A   1      46.685  23.814  37.119  1.00  0.00    -0.237 OA
ATOM     98  O   UNL A   1      44.480  24.572  37.886  1.00  0.00    -0.744 OA
ENDBRANCH  92  95
ENDBRANCH  65  88
ENDBRANCH  39  40
ENDBRANCH  32  34
ENDBRANCH  31  32
ENDBRANCH  30  31
ENDBRANCH  29  30
ENDBRANCH   1  29
TORSDOF 21
ENDMDL
MODEL 2
REMARK VINA RESULT:     -11.6      1.618      3.845
REMARK SMILES COc1ccc2[nH]c(C(=O)c3cc(C)ccn3)c(CC(=O)OCCOCCOC(=O)c3ccc(-c4c5nc(c(-c6cccc(S(=O)(=O)[O-])c6F)c6ccc([nH]6)c(-c6cccc(S(=O)(=O)[O-])c6F)c6nc(c(-c7cccc(S(=O)(=O)[O-])c7F)c7ccc4[nH]7)C=C6)C=C5)cc3)c2c1
REMARK SMILES IDX 25 1 24 2 23 3 22 4 20 5 21 6 19 7 18 8 3 9 4 10 95 11 5 12
REMARK SMILES IDX 94 13 6 14 7 15 8 16 2 18 1 19 9 20 10 21 11 22 12 23 17 24
REMARK SMILES IDX 13 25 16 26 14 27 15 28 26 29 27 30 28 31 29 32 30 33 31 34
REMARK SMILES IDX 32 35 93 36 33 37 92 38 34 39 35 40 36 41 86 42 37 43 91 44
REMARK SMILES IDX 85 45 87 46 38 47 90 48 84 49 83 50 39 52 71 53 51 54 70 55
REMARK SMILES IDX 52 56 55 57 69 58 88 59 53 60 54 61 68 63 89 64 56 65 40 66
REMARK SMILES IDX 41 67 49 68 42 69 44 70 50 71 43 72 45 73 46 74 47 75 48 76
REMARK SMILES IDX 72 77 73 78 81 79 74 80 76 81 82 82 75 83 77 84 78 85 79 86
REMARK SMILES IDX 80 87 57 88 58 89 66 90 59 91 61 92 67 93 60 94 62 95 63 96
REMARK SMILES IDX 64 97 65 98
REMARK H PARENT 7 17 87 51 55 62
REMARK Flexibility Score: inf
ROOT
ATOM      1  O   UNL A   1      32.273  28.612  26.861  1.00  0.00    -0.374 OA
ENDROOT
BRANCH   1   2
ATOM      2  C   UNL A   1      32.415  27.425  26.081  1.00  0.00     0.202 C 
BRANCH   2   3
ATOM      3  C   UNL A   1      31.553  26.206  26.448  1.00  0.00     0.261 C 
BRANCH   3   4
ATOM      4  O   UNL A   1      32.235  24.934  26.375  1.00  0.00    -0.463 OA
BRANCH   4   5
ATOM      5  C   UNL A   1      31.441  23.839  26.545  1.00  0.00     0.310 C 
ATOM      6  O   UNL A   1      31.066  23.430  27.645  1.00  0.00    -0.252 OA
BRANCH   5   7
ATOM      7  C   UNL A   1      30.956  23.161  25.280  1.00  0.00     0.161 C 
BRANCH   7   8
ATOM      8  C   UNL A   1      31.838  23.150  24.059  1.00  0.00     0.000 A 
ATOM      9  C   UNL A   1      31.437  26.248  21.834  1.00  0.00     0.119 A 
ATOM     10  C   UNL A   1      32.448  25.917  20.935  1.00  0.00     0.048 A 
ATOM     11  C   UNL A   1      31.120  25.386  22.891  1.00  0.00     0.057 A 
ATOM     12  C   UNL A   1      33.150  24.710  21.058  1.00  0.00     0.030 A 
ATOM     13  C   UNL A   1      31.836  24.182  23.057  1.00  0.00     0.008 A 
ATOM     14  C   UNL A   1      32.830  23.874  22.136  1.00  0.00     0.046 A 
ATOM     15  N   UNL A   1      33.376  22.674  22.523  1.00  0.00    -0.352 N 
ATOM     16  C   UNL A   1      32.922  22.306  23.774  1.00  0.00     0.093 A 
ATOM     17  H   UNL A   1      34.006  22.147  21.980  1.00  0.00     0.167 HD
BRANCH   9  18
ATOM     18  O   UNL A   1      30.765  27.442  21.828  1.00  0.00    -0.497 OA
ATOM     19  C   UNL A   1      30.065  27.739  23.033  1.00  0.00     0.278 C 
ENDBRANCH   9  18
BRANCH  16  20
ATOM     20  C   UNL A   1      33.507  21.242  24.596  1.00  0.00     0.227 C 
ATOM     21  O   UNL A   1      34.082  21.450  25.663  1.00  0.00    -0.285 OA
BRANCH  20  22
ATOM     22  C   UNL A   1      33.384  19.816  24.158  1.00  0.00     0.113 A 
ATOM     23  C   UNL A   1      34.184  18.814  24.690  1.00  0.00     0.036 A 
ATOM     24  N   UNL A   1      32.450  19.591  23.198  1.00  0.00    -0.253 NA
ATOM     25  C   UNL A   1      34.035  17.517  24.179  1.00  0.00    -0.047 A 
ATOM     26  C   UNL A   1      32.347  18.346  22.701  1.00  0.00     0.112 A 
ATOM     27  C   UNL A   1      34.831  16.364  24.712  1.00  0.00     0.044 C 
ATOM     28  C   UNL A   1      33.112  17.290  23.153  1.00  0.00     0.023 A 
ENDBRANCH  20  22
ENDBRANCH  16  20
ENDBRANCH   7   8
ENDBRANCH   5   7
ENDBRANCH   4   5
ENDBRANCH   3   4
ENDBRANCH   2   3
ENDBRANCH   1   2
BRANCH   1  29
ATOM     29  C   UNL A   1      31.497  29.666  26.301  1.00  0.00     0.202 C 
BRANCH  29  30
ATOM     30  C   UNL A   1      31.882  31.101  26.666  1.00  0.00     0.261 C 
BRANCH  30  31
ATOM     31  O   UNL A   1      33.263  31.422  26.526  1.00  0.00    -0.460 OA
BRANCH  31  32
ATOM     32  C   UNL A   1      33.760  32.191  27.514  1.00  0.00     0.338 C 
ATOM     33  O   UNL A   1      33.256  33.170  28.050  1.00  0.00    -0.246 OA
BRANCH  32  34
ATOM     34  C   UNL A   1      35.036  31.617  27.928  1.00  0.00     0.060 A 
ATOM     35  C   UNL A   1      35.083  30.255  28.235  1.00  0.00     0.016 A 
ATOM     36  C   UNL A   1      36.150  32.444  28.084  1.00  0.00     0.016 A 
ATOM     37  C   UNL A   1      36.251  29.719  28.761  1.00  0.00     0.010 A 
ATOM     38  C   UNL A   1      37.321  31.902  28.607  1.00  0.00     0.010 A 
ATOM     39  C   UNL A   1      37.359  30.549  28.985  1.00  0.00    -0.014 A 
BRANCH  39  40
ATOM     40  C   UNL A   1      38.517  30.026  29.737  1.00  0.00     0.031 A 
ATOM     41  C   UNL A   1      38.761  30.523  31.133  1.00  0.00     0.074 A 
ATOM     42  C   UNL A   1      39.331  29.119  29.169  1.00  0.00     0.049 A 
ATOM     43  N   UNL A   1      39.707  30.197  31.972  1.00  0.00    -0.248 NA
ATOM     44  C   UNL A   1      37.815  31.527  31.653  1.00  0.00     0.031 C 
ATOM     45  C   UNL A   1      39.183  28.593  27.812  1.00  0.00     0.029 A 
ATOM     46  N   UNL A   1      40.451  28.501  29.654  1.00  0.00    -0.354 N 
ATOM     47  C   UNL A   1      39.488  30.967  33.106  1.00  0.00     0.074 A 
ATOM     48  C   UNL A   1      38.330  31.792  32.846  1.00  0.00     0.031 C 
ATOM     49  C   UNL A   1      40.193  27.742  27.566  1.00  0.00     0.029 A 
ATOM     50  C   UNL A   1      41.063  27.681  28.737  1.00  0.00     0.049 A 
ATOM     51  H   UNL A   1      40.785  28.630  30.571  1.00  0.00     0.167 HD
ATOM     52  C   UNL A   1      40.182  30.972  34.268  1.00  0.00     0.034 A 
ATOM     53  C   UNL A   1      42.207  26.977  28.834  1.00  0.00     0.034 A 
ATOM     54  C   UNL A   1      41.319  30.129  34.518  1.00  0.00     0.049 A 
ATOM     55  C   UNL A   1      42.959  26.996  30.137  1.00  0.00     0.074 A 
ATOM     56  C   UNL A   1      42.065  30.009  35.676  1.00  0.00     0.029 A 
ATOM     57  N   UNL A   1      41.882  29.268  33.586  1.00  0.00    -0.354 N 
ATOM     58  N   UNL A   1      42.666  27.631  31.248  1.00  0.00    -0.248 NA
ATOM     59  C   UNL A   1      44.177  26.179  30.216  1.00  0.00     0.031 C 
ATOM     60  C   UNL A   1      43.095  29.093  35.436  1.00  0.00     0.029 A 
ATOM     61  C   UNL A   1      42.974  28.623  34.137  1.00  0.00     0.049 A 
ATOM     62  H   UNL A   1      41.552  29.137  32.669  1.00  0.00     0.167 HD
ATOM     63  C   UNL A   1      43.643  27.264  32.167  1.00  0.00     0.074 A 
ATOM     64  C   UNL A   1      44.526  26.337  31.486  1.00  0.00     0.031 C 
ATOM     65  C   UNL A   1      43.806  27.667  33.452  1.00  0.00     0.034 A 
BRANCH  52  66
ATOM     66  C   UNL A   1      39.713  31.893  35.362  1.00  0.00     0.023 A 
ATOM     67  C   UNL A   1      40.077  33.255  35.332  1.00  0.00     0.012 A 
ATOM     68  C   UNL A   1      38.875  31.426  36.393  1.00  0.00     0.148 A 
ATOM     69  C   UNL A   1      39.641  34.131  36.325  1.00  0.00     0.002 A 
ATOM     70  C   UNL A   1      38.410  32.313  37.358  1.00  0.00     0.091 A 
ATOM     71  F   UNL A   1      38.561  30.123  36.419  1.00  0.00    -0.205 F 
ATOM     72  C   UNL A   1      38.799  33.662  37.331  1.00  0.00     0.022 A 
BRANCH  70  73
ATOM     73  S   UNL A   1      37.268  31.821  38.655  1.00  0.00     0.127 S 
ATOM     74  O   UNL A   1      38.082  32.020  39.854  1.00  0.00    -0.237 OA
ATOM     75  O   UNL A   1      36.180  32.784  38.489  1.00  0.00    -0.237 OA
ATOM     76  O   UNL A   1      36.906  30.440  38.368  1.00  0.00    -0.744 OA
ENDBRANCH  70  73
ENDBRANCH  52  66
BRANCH  53  77
ATOM     77  C   UNL A   1      42.675  26.164  27.677  1.00  0.00     0.023 A 
ATOM     78  C   UNL A   1      43.644  26.690  26.801  1.00  0.00     0.012 A 
ATOM     79  C   UNL A   1      42.200  24.855  27.469  1.00  0.00     0.148 A 
ATOM     80  C   UNL A   1      44.111  25.936  25.724  1.00  0.00     0.002 A 
ATOM     81  C   UNL A   1      42.708  24.090  26.426  1.00  0.00     0.091 A 
ATOM     82  F   UNL A   1      41.266  24.378  28.305  1.00  0.00    -0.205 F 
ATOM     83  C   UNL A   1      43.653  24.633  25.543  1.00  0.00     0.022 A 
BRANCH  81  84
ATOM     84  S   UNL A   1      42.269  22.363  26.200  1.00  0.00     0.127 S 
ATOM     85  O   UNL A   1      42.972  22.035  24.962  1.00  0.00    -0.237 OA
ATOM     86  O   UNL A   1      42.824  21.748  27.406  1.00  0.00    -0.237 OA
ATOM     87  O   UNL A   1      40.815  22.335  26.129  1.00  0.00    -0.744 OA
ENDBRANCH  81  84
ENDBRANCH  53  77
BRANCH  65  88
ATOM     88  C   UNL A   1      44.964  27.090  34.219  1.00  0.00     0.023 A 
ATOM     89  C   UNL A   1      46.225  27.716  34.159  1.00  0.00     0.012 A 
ATOM     90  C   UNL A   1      44.780  25.983  35.071  1.00  0.00     0.148 A 
ATOM     91  C   UNL A   1      47.292  27.232  34.913  1.00  0.00     0.002 A 
ATOM     92  C   UNL A   1      45.834  25.537  35.858  1.00  0.00     0.091 A 
ATOM     93  F   UNL A   1      43.576  25.393  35.101  1.00  0.00    -0.205 F 
ATOM     94  C   UNL A   1      47.093  26.153  35.772  1.00  0.00     0.022 A 
BRANCH  92  95
ATOM     95  S   UNL A   1      45.643  24.219  37.064  1.00  0.00     0.127 S 
ATOM     96  O   UNL A   1      46.946  24.234  37.728  1.00  0.00    -0.237 OA
ATOM     97  O   UNL A   1      44.534  24.708  37.884  1.00  0.00    -0.237 OA
ATOM     98  O   UNL A   1      45.345  23.016  36.300  1.00  0.00    -0.744 OA
ENDBRANCH  92  95
ENDBRANCH  65  88
ENDBRANCH  39  40
ENDBRANCH  32  34
ENDBRANCH  31  32
ENDBRANCH  30  31
ENDBRANCH  29  30
ENDBRANCH   1  29
TORSDOF 21
ENDMDL
MODEL 3
REMARK VINA RESULT:     -11.5      4.933      7.389
REMARK SMILES COc1ccc2[nH]c(C(=O)c3cc(C)ccn3)c(CC(=O)OCCOCCOC(=O)c3ccc(-c4c5nc(c(-c6cccc(S(=O)(=O)[O-])c6F)c6ccc([nH]6)c(-c6cccc(S(=O)(=O)[O-])c6F)c6nc(c(-c7cccc(S(=O)(=O)[O-])c7F)c7ccc4[nH]7)C=C6)C=C5)cc3)c2c1
REMARK SMILES IDX 25 1 24 2 23 3 22 4 20 5 21 6 19 7 18 8 3 9 4 10 95 11 5 12
REMARK SMILES IDX 94 13 6 14 7 15 8 16 2 18 1 19 9 20 10 21 11 22 12 23 17 24
REMARK SMILES IDX 13 25 16 26 14 27 15 28 26 29 27 30 28 31 29 32 30 33 31 34
REMARK SMILES IDX 32 35 93 36 33 37 92 38 34 39 35 40 36 41 86 42 37 43 91 44
REMARK SMILES IDX 85 45 87 46 38 47 90 48 84 49 83 50 39 52 71 53 51 54 70 55
REMARK SMILES IDX 52 56 55 57 69 58 88 59 53 60 54 61 68 63 89 64 56 65 40 66
REMARK SMILES IDX 41 67 49 68 42 69 44 70 50 71 43 72 45 73 46 74 47 75 48 76
REMARK SMILES IDX 72 77 73 78 81 79 74 80 76 81 82 82 75 83 77 84 78 85 79 86
REMARK SMILES IDX 80 87 57 88 58 89 66 90 59 91 61 92 67 93 60 94 62 95 63 96
REMARK SMILES IDX 64 97 65 98
REMARK H PARENT 7 17 87 51 55 62
REMARK Flexibility Score: inf
ROOT
ATOM      1  O   UNL A   1      36.208  23.378  24.706  1.00  0.00    -0.374 OA
ENDROOT
BRANCH   1   2
ATOM      2  C   UNL A   1      34.933  23.992  24.527  1.00  0.00     0.202 C 
BRANCH   2   3
ATOM      3  C   UNL A   1      34.423  24.208  23.092  1.00  0.00     0.261 C 
BRANCH   3   4
ATOM      4  O   UNL A   1      33.806  25.492  22.850  1.00  0.00    -0.463 OA
BRANCH   4   5
ATOM      5  C   UNL A   1      32.963  25.539  21.781  1.00  0.00     0.310 C 
ATOM      6  O   UNL A   1      33.344  25.583  20.611  1.00  0.00    -0.252 OA
BRANCH   5   7
ATOM      7  C   UNL A   1      31.482  25.457  22.093  1.00  0.00     0.161 C 
BRANCH   7   8
ATOM      8  C   UNL A   1      31.022  25.508  23.526  1.00  0.00     0.000 A 
ATOM      9  C   UNL A   1      31.256  22.139  25.344  1.00  0.00     0.119 A 
ATOM     10  C   UNL A   1      30.869  22.618  26.594  1.00  0.00     0.048 A 
ATOM     11  C   UNL A   1      31.306  23.000  24.242  1.00  0.00     0.057 A 
ATOM     12  C   UNL A   1      30.505  23.961  26.766  1.00  0.00     0.030 A 
ATOM     13  C   UNL A   1      30.979  24.364  24.397  1.00  0.00     0.008 A 
ATOM     14  C   UNL A   1      30.585  24.807  25.653  1.00  0.00     0.046 A 
ATOM     15  N   UNL A   1      30.337  26.154  25.542  1.00  0.00    -0.352 N 
ATOM     16  C   UNL A   1      30.764  26.635  24.319  1.00  0.00     0.093 A 
ATOM     17  H   UNL A   1      29.912  26.703  26.240  1.00  0.00     0.167 HD
BRANCH   9  18
ATOM     18  O   UNL A   1      31.702  20.864  25.116  1.00  0.00    -0.497 OA
ATOM     19  C   UNL A   1      33.068  20.641  25.457  1.00  0.00     0.278 C 
ENDBRANCH   9  18
BRANCH  16  20
ATOM     20  C   UNL A   1      30.909  28.056  23.985  1.00  0.00     0.227 C 
ATOM     21  O   UNL A   1      31.988  28.645  23.991  1.00  0.00    -0.285 OA
BRANCH  20  22
ATOM     22  C   UNL A   1      29.706  28.845  23.575  1.00  0.00     0.113 A 
ATOM     23  C   UNL A   1      29.737  30.230  23.473  1.00  0.00     0.036 A 
ATOM     24  N   UNL A   1      28.593  28.108  23.333  1.00  0.00    -0.253 NA
ATOM     25  C   UNL A   1      28.547  30.889  23.135  1.00  0.00    -0.047 A 
ATOM     26  C   UNL A   1      27.455  28.763  23.042  1.00  0.00     0.112 A 
ATOM     27  C   UNL A   1      28.490  32.378  22.970  1.00  0.00     0.044 C 
ATOM     28  C   UNL A   1      27.384  30.138  22.937  1.00  0.00     0.023 A 
ENDBRANCH  20  22
ENDBRANCH  16  20
ENDBRANCH   7   8
ENDBRANCH   5   7
ENDBRANCH   4   5
ENDBRANCH   3   4
ENDBRANCH   2   3
ENDBRANCH   1   2
BRANCH   1  29
ATOM     29  C   UNL A   1      36.492  22.231  23.911  1.00  0.00     0.202 C 
BRANCH  29  30
ATOM     30  C   UNL A   1      37.352  21.130  24.536  1.00  0.00     0.261 C 
BRANCH  30  31
ATOM     31  O   UNL A   1      37.747  21.351  25.887  1.00  0.00    -0.460 OA
BRANCH  31  32
ATOM     32  C   UNL A   1      39.064  21.190  26.117  1.00  0.00     0.338 C 
ATOM     33  O   UNL A   1      39.774  20.226  25.860  1.00  0.00    -0.246 OA
BRANCH  32  34
ATOM     34  C   UNL A   1      39.572  22.432  26.693  1.00  0.00     0.060 A 
ATOM     35  C   UNL A   1      39.033  23.640  26.244  1.00  0.00     0.016 A 
ATOM     36  C   UNL A   1      40.625  22.391  27.608  1.00  0.00     0.016 A 
ATOM     37  C   UNL A   1      39.596  24.834  26.676  1.00  0.00     0.010 A 
ATOM     38  C   UNL A   1      41.183  23.590  28.044  1.00  0.00     0.010 A 
ATOM     39  C   UNL A   1      40.696  24.811  27.546  1.00  0.00    -0.014 A 
BRANCH  39  40
ATOM     40  C   UNL A   1      41.421  26.065  27.832  1.00  0.00     0.031 A 
ATOM     41  C   UNL A   1      40.714  27.156  28.584  1.00  0.00     0.074 A 
ATOM     42  C   UNL A   1      42.692  26.213  27.421  1.00  0.00     0.049 A 
ATOM     43  N   UNL A   1      41.158  28.329  28.948  1.00  0.00    -0.248 NA
ATOM     44  C   UNL A   1      39.317  26.893  28.975  1.00  0.00     0.031 C 
ATOM     45  C   UNL A   1      43.453  25.216  26.669  1.00  0.00     0.029 A 
ATOM     46  N   UNL A   1      43.555  27.266  27.560  1.00  0.00    -0.354 N 
ATOM     47  C   UNL A   1      40.095  28.954  29.587  1.00  0.00     0.074 A 
ATOM     48  C   UNL A   1      38.976  28.039  29.549  1.00  0.00     0.031 C 
ATOM     49  C   UNL A   1      44.668  25.717  26.393  1.00  0.00     0.029 A 
ATOM     50  C   UNL A   1      44.761  27.070  26.932  1.00  0.00     0.049 A 
ATOM     51  H   UNL A   1      43.333  28.084  28.062  1.00  0.00     0.167 HD
ATOM     52  C   UNL A   1      40.062  30.175  30.170  1.00  0.00     0.034 A 
ATOM     53  C   UNL A   1      45.811  27.902  26.797  1.00  0.00     0.034 A 
ATOM     54  C   UNL A   1      41.192  31.063  30.217  1.00  0.00     0.049 A 
ATOM     55  C   UNL A   1      45.752  29.254  27.457  1.00  0.00     0.074 A 
ATOM     56  C   UNL A   1      41.290  32.299  30.829  1.00  0.00     0.029 A 
ATOM     57  N   UNL A   1      42.418  30.811  29.619  1.00  0.00    -0.354 N 
ATOM     58  N   UNL A   1      44.785  29.780  28.171  1.00  0.00    -0.248 NA
ATOM     59  C   UNL A   1      46.936  30.113  27.323  1.00  0.00     0.031 C 
ATOM     60  C   UNL A   1      42.569  32.807  30.578  1.00  0.00     0.029 A 
ATOM     61  C   UNL A   1      43.276  31.875  29.833  1.00  0.00     0.049 A 
ATOM     62  H   UNL A   1      42.643  29.997  29.115  1.00  0.00     0.167 HD
ATOM     63  C   UNL A   1      45.256  31.016  28.600  1.00  0.00     0.074 A 
ATOM     64  C   UNL A   1      46.602  31.151  28.079  1.00  0.00     0.031 C 
ATOM     65  C   UNL A   1      44.629  31.961  29.345  1.00  0.00     0.034 A 
BRANCH  52  66
ATOM     66  C   UNL A   1      38.778  30.605  30.825  1.00  0.00     0.023 A 
ATOM     67  C   UNL A   1      38.579  30.363  32.199  1.00  0.00     0.012 A 
ATOM     68  C   UNL A   1      37.787  31.291  30.095  1.00  0.00     0.148 A 
ATOM     69  C   UNL A   1      37.404  30.768  32.831  1.00  0.00     0.002 A 
ATOM     70  C   UNL A   1      36.635  31.727  30.740  1.00  0.00     0.091 A 
ATOM     71  F   UNL A   1      37.982  31.489  28.783  1.00  0.00    -0.205 F 
ATOM     72  C   UNL A   1      36.438  31.459  32.104  1.00  0.00     0.022 A 
BRANCH  70  73
ATOM     73  S   UNL A   1      35.363  32.684  29.907  1.00  0.00     0.127 S 
ATOM     74  O   UNL A   1      36.122  33.844  29.443  1.00  0.00    -0.237 OA
ATOM     75  O   UNL A   1      34.936  31.771  28.846  1.00  0.00    -0.237 OA
ATOM     76  O   UNL A   1      34.347  32.963  30.913  1.00  0.00    -0.744 OA
ENDBRANCH  70  73
ENDBRANCH  52  66
BRANCH  53  77
ATOM     77  C   UNL A   1      47.018  27.456  26.046  1.00  0.00     0.023 A 
ATOM     78  C   UNL A   1      47.976  26.646  26.684  1.00  0.00     0.012 A 
ATOM     79  C   UNL A   1      47.196  27.793  24.690  1.00  0.00     0.148 A 
ATOM     80  C   UNL A   1      49.103  26.200  25.992  1.00  0.00     0.002 A 
ATOM     81  C   UNL A   1      48.292  27.302  23.991  1.00  0.00     0.091 A 
ATOM     82  F   UNL A   1      46.280  28.579  24.105  1.00  0.00    -0.205 F 
ATOM     83  C   UNL A   1      49.256  26.517  24.644  1.00  0.00     0.022 A 
BRANCH  81  84
ATOM     84  S   UNL A   1      48.497  27.555  22.225  1.00  0.00     0.127 S 
ATOM     85  O   UNL A   1      47.232  28.188  21.864  1.00  0.00    -0.237 OA
ATOM     86  O   UNL A   1      49.665  28.436  22.177  1.00  0.00    -0.237 OA
ATOM     87  O   UNL A   1      48.724  26.230  21.664  1.00  0.00    -0.744 OA
ENDBRANCH  81  84
ENDBRANCH  53  77
BRANCH  65  88
ATOM     88  C   UNL A   1      45.396  33.214  29.667  1.00  0.00     0.023 A 
ATOM     89  C   UNL A   1      46.239  33.247  30.795  1.00  0.00     0.012 A 
ATOM     90  C   UNL A   1      45.352  34.324  28.801  1.00  0.00     0.148 A 
ATOM     91  C   UNL A   1      47.006  34.377  31.072  1.00  0.00     0.002 A 
ATOM     92  C   UNL A   1      46.155  35.428  29.057  1.00  0.00     0.091 A 
ATOM     93  F   UNL A   1      44.530  34.278  27.743  1.00  0.00    -0.205 F 
ATOM     94  C   UNL A   1      46.975  35.460  30.197  1.00  0.00     0.022 A 
BRANCH  92  95
ATOM     95  S   UNL A   1      46.255  36.826  27.933  1.00  0.00     0.127 S 
ATOM     96  O   UNL A   1      44.854  37.234  27.841  1.00  0.00    -0.237 OA
ATOM     97  O   UNL A   1      47.113  37.755  28.669  1.00  0.00    -0.237 OA
ATOM     98  O   UNL A   1      46.838  36.311  26.702  1.00  0.00    -0.744 OA
ENDBRANCH  92  95
ENDBRANCH  65  88
ENDBRANCH  39  40
ENDBRANCH  32  34
ENDBRANCH  31  32
ENDBRANCH  30  31
ENDBRANCH  29  30
ENDBRANCH   1  29
TORSDOF 21
ENDMDL
