MODEL 1
REMARK VINA RESULT:     -11.9      0.000      0.000
REMARK SMILES Cc1c(CC(=O)OCCOCCOC(=O)c2ccc(-c3c4nc(c(-c5cccc(S(=O)(=O)[O-])c5F)c5ccc([nH]5)c(-c5cccc(S(=O)(=O)[O-])c5F)c5nc(c(-c6cccc(S(=O)(=O)[O-])c6F)c6ccc3[nH]6)C=C5)C=C4)cc2)cccc1-c1ccn(C(F)F)c(=O)c1
REMARK SMILES IDX 10 1 9 2 8 3 7 4 5 5 6 6 4 7 3 8 1 9 2 10 82 11 79 12 81 13
REMARK SMILES IDX 80 14 83 15 84 16 92 17 85 18 90 19 86 20 91 21 87 22 88 23
REMARK SMILES IDX 89 24 11 25 12 26 13 27 14 28 15 29 16 30 17 31 78 32 18 33
REMARK SMILES IDX 77 34 19 35 20 36 21 37 71 38 22 39 76 40 70 41 72 42 23 43
REMARK SMILES IDX 75 44 69 45 68 46 24 48 56 49 36 50 55 51 37 52 40 53 54 54
REMARK SMILES IDX 73 55 38 56 39 57 53 59 74 60 41 61 25 62 26 63 34 64 27 65
REMARK SMILES IDX 29 66 35 67 28 68 30 69 31 70 32 71 33 72 57 73 58 74 66 75
REMARK SMILES IDX 59 76 61 77 67 78 60 79 62 80 63 81 64 82 65 83 42 84 43 85
REMARK SMILES IDX 51 86 44 87 46 88 52 89 45 90 47 91 48 92 49 93 50 94
REMARK H PARENT 72 47 40 58
REMARK Flexibility Score: inf
ROOT
ATOM      1  O   UNL A   1      32.445  28.518  25.790  1.00  0.00    -0.374 OA
ENDROOT
BRANCH   1   2
ATOM      2  C   UNL A   1      31.680  29.478  25.074  1.00  0.00     0.202 C 
BRANCH   2   3
ATOM      3  C   UNL A   1      31.555  28.956  23.677  1.00  0.00     0.261 C 
BRANCH   3   4
ATOM      4  O   UNL A   1      32.580  28.000  23.356  1.00  0.00    -0.463 OA
BRANCH   4   5
ATOM      5  C   UNL A   1      32.229  26.729  22.965  1.00  0.00     0.310 C 
ATOM      6  O   UNL A   1      31.112  26.307  22.782  1.00  0.00    -0.252 OA
BRANCH   5   7
ATOM      7  C   UNL A   1      33.483  25.891  22.772  1.00  0.00     0.158 C 
BRANCH   7   8
ATOM      8  C   UNL A   1      33.651  24.957  23.957  1.00  0.00    -0.033 A 
ATOM      9  C   UNL A   1      33.581  22.956  22.409  1.00  0.00     0.045 C 
ATOM     10  C   UNL A   1      33.600  23.554  23.801  1.00  0.00    -0.039 A 
ATOM     11  C   UNL A   1      33.486  22.753  24.958  1.00  0.00    -0.015 A 
ATOM     12  C   UNL A   1      33.556  25.529  25.240  1.00  0.00     0.004 A 
ATOM     13  C   UNL A   1      33.309  23.346  26.218  1.00  0.00     0.009 A 
ATOM     14  C   UNL A   1      33.348  24.729  26.357  1.00  0.00     0.001 A 
BRANCH  11  15
ATOM     15  C   UNL A   1      33.700  21.298  24.876  1.00  0.00    -0.011 A 
ATOM     16  C   UNL A   1      35.053  20.785  24.957  1.00  0.00     0.027 A 
ATOM     17  C   UNL A   1      32.677  20.449  24.677  1.00  0.00     0.080 A 
ATOM     18  C   UNL A   1      35.305  19.495  24.736  1.00  0.00     0.095 A 
ATOM     19  C   UNL A   1      32.942  18.990  24.503  1.00  0.00     0.255 A 
ATOM     20  N   UNL A   1      34.277  18.610  24.489  1.00  0.00    -0.258 N 
ATOM     21  O   UNL A   1      31.989  18.227  24.374  1.00  0.00    -0.269 OA
BRANCH  20  22
ATOM     22  C   UNL A   1      34.573  17.230  24.222  1.00  0.00     0.451 C 
ATOM     23  F   UNL A   1      34.126  16.428  25.219  1.00  0.00    -0.185 F 
ATOM     24  F   UNL A   1      34.008  16.818  23.061  1.00  0.00    -0.185 F 
ENDBRANCH  20  22
ENDBRANCH  11  15
ENDBRANCH   7   8
ENDBRANCH   5   7
ENDBRANCH   4   5
ENDBRANCH   3   4
ENDBRANCH   2   3
ENDBRANCH   1   2
BRANCH   1  25
ATOM     25  C   UNL A   1      33.217  29.015  26.864  1.00  0.00     0.202 C 
BRANCH  25  26
ATOM     26  C   UNL A   1      32.966  30.487  27.210  1.00  0.00     0.261 C 
BRANCH  26  27
ATOM     27  O   UNL A   1      34.223  31.182  27.284  1.00  0.00    -0.460 OA
BRANCH  27  28
ATOM     28  C   UNL A   1      34.764  31.254  28.534  1.00  0.00     0.338 C 
ATOM     29  O   UNL A   1      34.507  32.135  29.337  1.00  0.00    -0.246 OA
BRANCH  28  30
ATOM     30  C   UNL A   1      35.869  30.258  28.652  1.00  0.00     0.060 A 
ATOM     31  C   UNL A   1      36.191  29.709  29.902  1.00  0.00     0.016 A 
ATOM     32  C   UNL A   1      36.753  30.108  27.584  1.00  0.00     0.016 A 
ATOM     33  C   UNL A   1      37.468  29.180  30.133  1.00  0.00     0.010 A 
ATOM     34  C   UNL A   1      38.034  29.663  27.835  1.00  0.00     0.010 A 
ATOM     35  C   UNL A   1      38.419  29.253  29.124  1.00  0.00    -0.014 A 
BRANCH  35  36
ATOM     36  C   UNL A   1      39.827  28.878  29.245  1.00  0.00     0.031 A 
ATOM     37  C   UNL A   1      40.138  27.464  28.967  1.00  0.00     0.074 A 
ATOM     38  C   UNL A   1      40.838  29.774  29.365  1.00  0.00     0.049 A 
ATOM     39  N   UNL A   1      41.245  26.890  29.281  1.00  0.00    -0.248 NA
ATOM     40  C   UNL A   1      39.164  26.551  28.373  1.00  0.00     0.031 C 
ATOM     41  C   UNL A   1      42.217  29.611  28.904  1.00  0.00     0.029 A 
ATOM     42  N   UNL A   1      40.849  31.072  29.894  1.00  0.00    -0.354 N 
ATOM     43  C   UNL A   1      41.258  25.671  28.645  1.00  0.00     0.074 A 
ATOM     44  C   UNL A   1      39.893  25.440  28.259  1.00  0.00     0.031 C 
ATOM     45  C   UNL A   1      42.971  30.624  29.365  1.00  0.00     0.029 A 
ATOM     46  C   UNL A   1      42.153  31.388  30.292  1.00  0.00     0.049 A 
ATOM     47  H   UNL A   1      40.066  31.665  29.971  1.00  0.00     0.167 HD
ATOM     48  C   UNL A   1      42.464  25.105  28.361  1.00  0.00     0.034 A 
ATOM     49  C   UNL A   1      42.445  31.771  31.565  1.00  0.00     0.034 A 
ATOM     50  C   UNL A   1      43.558  25.916  28.947  1.00  0.00     0.049 A 
ATOM     51  C   UNL A   1      43.378  30.769  32.186  1.00  0.00     0.074 A 
ATOM     52  C   UNL A   1      44.440  26.833  28.397  1.00  0.00     0.029 A 
ATOM     53  N   UNL A   1      43.631  26.097  30.331  1.00  0.00    -0.354 N 
ATOM     54  N   UNL A   1      43.722  29.674  31.569  1.00  0.00    -0.248 NA
ATOM     55  C   UNL A   1      43.999  30.874  33.500  1.00  0.00     0.031 C 
ATOM     56  C   UNL A   1      44.974  27.623  29.455  1.00  0.00     0.029 A 
ATOM     57  C   UNL A   1      44.454  27.171  30.658  1.00  0.00     0.049 A 
ATOM     58  H   UNL A   1      43.161  25.537  30.990  1.00  0.00     0.167 HD
ATOM     59  C   UNL A   1      44.421  28.865  32.395  1.00  0.00     0.074 A 
ATOM     60  C   UNL A   1      44.650  29.695  33.569  1.00  0.00     0.031 C 
ATOM     61  C   UNL A   1      44.666  27.564  32.057  1.00  0.00     0.034 A 
BRANCH  48  62
ATOM     62  C   UNL A   1      42.700  24.009  27.319  1.00  0.00     0.023 A 
ATOM     63  C   UNL A   1      43.388  24.391  26.145  1.00  0.00     0.012 A 
ATOM     64  C   UNL A   1      42.270  22.657  27.351  1.00  0.00     0.148 A 
ATOM     65  C   UNL A   1      43.587  23.522  25.065  1.00  0.00     0.002 A 
ATOM     66  C   UNL A   1      42.455  21.788  26.269  1.00  0.00     0.091 A 
ATOM     67  F   UNL A   1      41.703  22.149  28.441  1.00  0.00    -0.205 F 
ATOM     68  C   UNL A   1      43.111  22.221  25.119  1.00  0.00     0.022 A 
BRANCH  66  69
ATOM     69  S   UNL A   1      41.856  20.081  26.274  1.00  0.00     0.127 S 
ATOM     70  O   UNL A   1      42.333  19.591  27.569  1.00  0.00    -0.237 OA
ATOM     71  O   UNL A   1      40.408  20.262  26.190  1.00  0.00    -0.237 OA
ATOM     72  O   UNL A   1      42.464  19.421  25.125  1.00  0.00    -0.744 OA
ENDBRANCH  66  69
ENDBRANCH  48  62
BRANCH  49  73
ATOM     73  C   UNL A   1      41.319  32.513  32.220  1.00  0.00     0.023 A 
ATOM     74  C   UNL A   1      41.021  33.806  31.715  1.00  0.00     0.012 A 
ATOM     75  C   UNL A   1      40.322  31.830  32.941  1.00  0.00     0.148 A 
ATOM     76  C   UNL A   1      39.733  34.342  31.809  1.00  0.00     0.002 A 
ATOM     77  C   UNL A   1      39.028  32.351  32.989  1.00  0.00     0.091 A 
ATOM     78  F   UNL A   1      40.634  30.657  33.507  1.00  0.00    -0.205 F 
ATOM     79  C   UNL A   1      38.725  33.591  32.401  1.00  0.00     0.022 A 
BRANCH  77  80
ATOM     80  S   UNL A   1      37.644  31.395  33.631  1.00  0.00     0.127 S 
ATOM     81  O   UNL A   1      36.563  31.800  32.738  1.00  0.00    -0.237 OA
ATOM     82  O   UNL A   1      38.105  30.018  33.446  1.00  0.00    -0.237 OA
ATOM     83  O   UNL A   1      37.506  31.798  35.022  1.00  0.00    -0.744 OA
ENDBRANCH  77  80
ENDBRANCH  49  73
BRANCH  61  84
ATOM     84  C   UNL A   1      45.146  26.558  33.061  1.00  0.00     0.023 A 
ATOM     85  C   UNL A   1      46.495  26.153  33.112  1.00  0.00     0.012 A 
ATOM     86  C   UNL A   1      44.286  26.093  34.077  1.00  0.00     0.148 A 
ATOM     87  C   UNL A   1      46.948  25.241  34.063  1.00  0.00     0.002 A 
ATOM     88  C   UNL A   1      44.772  25.287  35.096  1.00  0.00     0.091 A 
ATOM     89  F   UNL A   1      42.984  26.417  34.050  1.00  0.00    -0.205 F 
ATOM     90  C   UNL A   1      46.089  24.820  35.067  1.00  0.00     0.022 A 
BRANCH  88  91
ATOM     91  S   UNL A   1      43.783  24.949  36.553  1.00  0.00     0.127 S 
ATOM     92  O   UNL A   1      43.445  26.295  37.007  1.00  0.00    -0.237 OA
ATOM     93  O   UNL A   1      42.660  24.191  35.997  1.00  0.00    -0.237 OA
ATOM     94  O   UNL A   1      44.648  24.172  37.433  1.00  0.00    -0.744 OA
ENDBRANCH  88  91
ENDBRANCH  61  84
ENDBRANCH  35  36
ENDBRANCH  28  30
ENDBRANCH  27  28
ENDBRANCH  26  27
ENDBRANCH  25  26
ENDBRANCH   1  25
TORSDOF 20
ENDMDL
MODEL 2
REMARK VINA RESULT:     -11.7      4.838      9.813
REMARK SMILES Cc1c(CC(=O)OCCOCCOC(=O)c2ccc(-c3c4nc(c(-c5cccc(S(=O)(=O)[O-])c5F)c5ccc([nH]5)c(-c5cccc(S(=O)(=O)[O-])c5F)c5nc(c(-c6cccc(S(=O)(=O)[O-])c6F)c6ccc3[nH]6)C=C5)C=C4)cc2)cccc1-c1ccn(C(F)F)c(=O)c1
REMARK SMILES IDX 10 1 9 2 8 3 7 4 5 5 6 6 4 7 3 8 1 9 2 10 82 11 79 12 81 13
REMARK SMILES IDX 80 14 83 15 84 16 92 17 85 18 90 19 86 20 91 21 87 22 88 23
REMARK SMILES IDX 89 24 11 25 12 26 13 27 14 28 15 29 16 30 17 31 78 32 18 33
REMARK SMILES IDX 77 34 19 35 20 36 21 37 71 38 22 39 76 40 70 41 72 42 23 43
REMARK SMILES IDX 75 44 69 45 68 46 24 48 56 49 36 50 55 51 37 52 40 53 54 54
REMARK SMILES IDX 73 55 38 56 39 57 53 59 74 60 41 61 25 62 26 63 34 64 27 65
REMARK SMILES IDX 29 66 35 67 28 68 30 69 31 70 32 71 33 72 57 73 58 74 66 75
REMARK SMILES IDX 59 76 61 77 67 78 60 79 62 80 63 81 64 82 65 83 42 84 43 85
REMARK SMILES IDX 51 86 44 87 46 88 52 89 45 90 47 91 48 92 49 93 50 94
REMARK H PARENT 72 47 40 58
REMARK Flexibility Score: inf
ROOT
ATOM      1  O   UNL A   1      37.058  23.154  24.659  1.00  0.00    -0.374 OA
ENDROOT
BRANCH   1   2
ATOM      2  C   UNL A   1      36.269  24.062  25.414  1.00  0.00     0.202 C 
BRANCH   2   3
ATOM      3  C   UNL A   1      34.919  23.429  25.552  1.00  0.00     0.261 C 
BRANCH   3   4
ATOM      4  O   UNL A   1      34.183  23.435  24.317  1.00  0.00    -0.463 OA
BRANCH   4   5
ATOM      5  C   UNL A   1      33.491  22.312  23.930  1.00  0.00     0.310 C 
ATOM      6  O   UNL A   1      33.749  21.166  24.210  1.00  0.00    -0.252 OA
BRANCH   5   7
ATOM      7  C   UNL A   1      32.299  22.717  23.077  1.00  0.00     0.158 C 
BRANCH   7   8
ATOM      8  C   UNL A   1      31.387  23.622  23.886  1.00  0.00    -0.033 A 
ATOM      9  C   UNL A   1      31.645  25.453  22.157  1.00  0.00     0.045 C 
ATOM     10  C   UNL A   1      31.150  24.961  23.502  1.00  0.00    -0.039 A 
ATOM     11  C   UNL A   1      30.525  25.826  24.427  1.00  0.00    -0.015 A 
ATOM     12  C   UNL A   1      31.032  23.185  25.175  1.00  0.00     0.004 A 
ATOM     13  C   UNL A   1      30.256  25.391  25.734  1.00  0.00     0.009 A 
ATOM     14  C   UNL A   1      30.506  24.074  26.105  1.00  0.00     0.001 A 
BRANCH  11  15
ATOM     15  C   UNL A   1      30.015  27.136  23.989  1.00  0.00    -0.011 A 
ATOM     16  C   UNL A   1      30.878  28.295  24.103  1.00  0.00     0.027 A 
ATOM     17  C   UNL A   1      28.758  27.284  23.540  1.00  0.00     0.080 A 
ATOM     18  C   UNL A   1      30.408  29.519  23.862  1.00  0.00     0.095 A 
ATOM     19  C   UNL A   1      28.243  28.643  23.195  1.00  0.00     0.255 A 
ATOM     20  N   UNL A   1      29.109  29.702  23.438  1.00  0.00    -0.258 N 
ATOM     21  O   UNL A   1      27.109  28.748  22.738  1.00  0.00    -0.269 OA
BRANCH  20  22
ATOM     22  C   UNL A   1      28.611  31.031  23.215  1.00  0.00     0.451 C 
ATOM     23  F   UNL A   1      28.364  31.251  21.901  1.00  0.00    -0.185 F 
ATOM     24  F   UNL A   1      27.467  31.254  23.906  1.00  0.00    -0.185 F 
ENDBRANCH  20  22
ENDBRANCH  11  15
ENDBRANCH   7   8
ENDBRANCH   5   7
ENDBRANCH   4   5
ENDBRANCH   3   4
ENDBRANCH   2   3
ENDBRANCH   1   2
BRANCH   1  25
ATOM     25  C   UNL A   1      37.336  21.912  25.275  1.00  0.00     0.202 C 
BRANCH  25  26
ATOM     26  C   UNL A   1      38.776  21.750  25.775  1.00  0.00     0.261 C 
BRANCH  26  27
ATOM     27  O   UNL A   1      39.003  22.651  26.874  1.00  0.00    -0.460 OA
BRANCH  27  28
ATOM     28  C   UNL A   1      40.151  23.382  26.787  1.00  0.00     0.338 C 
ATOM     29  O   UNL A   1      41.260  22.894  26.643  1.00  0.00    -0.246 OA
BRANCH  28  30
ATOM     30  C   UNL A   1      39.859  24.802  27.140  1.00  0.00     0.060 A 
ATOM     31  C   UNL A   1      40.365  25.842  26.346  1.00  0.00     0.016 A 
ATOM     32  C   UNL A   1      39.345  25.086  28.405  1.00  0.00     0.016 A 
ATOM     33  C   UNL A   1      40.529  27.126  26.885  1.00  0.00     0.010 A 
ATOM     34  C   UNL A   1      39.582  26.327  28.959  1.00  0.00     0.010 A 
ATOM     35  C   UNL A   1      40.230  27.336  28.224  1.00  0.00    -0.014 A 
BRANCH  35  36
ATOM     36  C   UNL A   1      40.474  28.569  28.973  1.00  0.00     0.031 A 
ATOM     37  C   UNL A   1      39.409  29.585  28.893  1.00  0.00     0.074 A 
ATOM     38  C   UNL A   1      41.473  28.716  29.878  1.00  0.00     0.049 A 
ATOM     39  N   UNL A   1      39.552  30.813  29.245  1.00  0.00    -0.248 NA
ATOM     40  C   UNL A   1      38.096  29.301  28.318  1.00  0.00     0.031 C 
ATOM     41  C   UNL A   1      41.468  29.579  31.059  1.00  0.00     0.029 A 
ATOM     42  N   UNL A   1      42.719  28.082  29.972  1.00  0.00    -0.354 N 
ATOM     43  C   UNL A   1      38.296  31.374  29.263  1.00  0.00     0.074 A 
ATOM     44  C   UNL A   1      37.474  30.463  28.514  1.00  0.00     0.031 C 
ATOM     45  C   UNL A   1      42.697  29.603  31.606  1.00  0.00     0.029 A 
ATOM     46  C   UNL A   1      43.589  28.901  30.700  1.00  0.00     0.049 A 
ATOM     47  H   UNL A   1      42.944  27.203  29.590  1.00  0.00     0.167 HD
ATOM     48  C   UNL A   1      38.080  32.445  30.076  1.00  0.00     0.034 A 
ATOM     49  C   UNL A   1      44.782  29.317  30.190  1.00  0.00     0.034 A 
ATOM     50  C   UNL A   1      39.353  32.873  30.704  1.00  0.00     0.049 A 
ATOM     51  C   UNL A   1      44.780  30.816  30.080  1.00  0.00     0.074 A 
ATOM     52  C   UNL A   1      39.885  32.675  31.968  1.00  0.00     0.029 A 
ATOM     53  N   UNL A   1      40.414  33.313  29.906  1.00  0.00    -0.354 N 
ATOM     54  N   UNL A   1      43.722  31.526  30.351  1.00  0.00    -0.248 NA
ATOM     55  C   UNL A   1      45.906  31.648  29.674  1.00  0.00     0.031 C 
ATOM     56  C   UNL A   1      41.288  32.913  31.899  1.00  0.00     0.029 A 
ATOM     57  C   UNL A   1      41.615  33.295  30.607  1.00  0.00     0.049 A 
ATOM     58  H   UNL A   1      40.322  33.598  28.968  1.00  0.00     0.167 HD
ATOM     59  C   UNL A   1      43.919  32.819  30.013  1.00  0.00     0.074 A 
ATOM     60  C   UNL A   1      45.334  32.869  29.675  1.00  0.00     0.031 C 
ATOM     61  C   UNL A   1      42.874  33.697  29.966  1.00  0.00     0.034 A 
BRANCH  48  62
ATOM     62  C   UNL A   1      36.708  32.927  30.553  1.00  0.00     0.023 A 
ATOM     63  C   UNL A   1      36.265  32.437  31.802  1.00  0.00     0.012 A 
ATOM     64  C   UNL A   1      35.787  33.769  29.876  1.00  0.00     0.148 A 
ATOM     65  C   UNL A   1      34.992  32.712  32.318  1.00  0.00     0.002 A 
ATOM     66  C   UNL A   1      34.509  34.036  30.381  1.00  0.00     0.091 A 
ATOM     67  F   UNL A   1      36.125  34.373  28.742  1.00  0.00    -0.205 F 
ATOM     68  C   UNL A   1      34.106  33.503  31.603  1.00  0.00     0.022 A 
BRANCH  66  69
ATOM     69  S   UNL A   1      33.304  35.056  29.498  1.00  0.00     0.127 S 
ATOM     70  O   UNL A   1      32.876  34.162  28.420  1.00  0.00    -0.237 OA
ATOM     71  O   UNL A   1      32.292  35.297  30.524  1.00  0.00    -0.237 OA
ATOM     72  O   UNL A   1      34.016  36.243  29.041  1.00  0.00    -0.744 OA
ENDBRANCH  66  69
ENDBRANCH  48  62
BRANCH  49  73
ATOM     73  C   UNL A   1      45.388  28.323  29.247  1.00  0.00     0.023 A 
ATOM     74  C   UNL A   1      45.760  27.064  29.791  1.00  0.00     0.012 A 
ATOM     75  C   UNL A   1      45.175  28.416  27.859  1.00  0.00     0.148 A 
ATOM     76  C   UNL A   1      45.787  25.912  28.998  1.00  0.00     0.002 A 
ATOM     77  C   UNL A   1      45.159  27.255  27.086  1.00  0.00     0.091 A 
ATOM     78  F   UNL A   1      44.928  29.622  27.331  1.00  0.00    -0.205 F 
ATOM     79  C   UNL A   1      45.435  26.001  27.657  1.00  0.00     0.022 A 
BRANCH  77  80
ATOM     80  S   UNL A   1      44.602  27.264  25.374  1.00  0.00     0.127 S 
ATOM     81  O   UNL A   1      44.406  25.840  25.117  1.00  0.00    -0.237 OA
ATOM     82  O   UNL A   1      43.368  28.046  25.453  1.00  0.00    -0.237 OA
ATOM     83  O   UNL A   1      45.670  27.905  24.621  1.00  0.00    -0.744 OA
ENDBRANCH  77  80
ENDBRANCH  49  73
BRANCH  61  84
ATOM     84  C   UNL A   1      42.987  35.034  29.296  1.00  0.00     0.023 A 
ATOM     85  C   UNL A   1      42.330  35.307  28.078  1.00  0.00     0.012 A 
ATOM     86  C   UNL A   1      43.641  36.106  29.938  1.00  0.00     0.148 A 
ATOM     87  C   UNL A   1      42.409  36.557  27.469  1.00  0.00     0.002 A 
ATOM     88  C   UNL A   1      43.608  37.380  29.391  1.00  0.00     0.091 A 
ATOM     89  F   UNL A   1      44.316  35.890  31.078  1.00  0.00    -0.205 F 
ATOM     90  C   UNL A   1      43.035  37.601  28.135  1.00  0.00     0.022 A 
BRANCH  88  91
ATOM     91  S   UNL A   1      44.154  38.803  30.337  1.00  0.00     0.127 S 
ATOM     92  O   UNL A   1      43.678  38.472  31.678  1.00  0.00    -0.237 OA
ATOM     93  O   UNL A   1      45.608  38.746  30.172  1.00  0.00    -0.237 OA
ATOM     94  O   UNL A   1      43.526  39.953  29.698  1.00  0.00    -0.744 OA
ENDBRANCH  88  91
ENDBRANCH  61  84
ENDBRANCH  35  36
ENDBRANCH  28  30
ENDBRANCH  27  28
ENDBRANCH  26  27
ENDBRANCH  25  26
ENDBRANCH   1  25
TORSDOF 20
ENDMDL
MODEL 3
REMARK VINA RESULT:     -11.7      4.617      9.612
REMARK SMILES Cc1c(CC(=O)OCCOCCOC(=O)c2ccc(-c3c4nc(c(-c5cccc(S(=O)(=O)[O-])c5F)c5ccc([nH]5)c(-c5cccc(S(=O)(=O)[O-])c5F)c5nc(c(-c6cccc(S(=O)(=O)[O-])c6F)c6ccc3[nH]6)C=C5)C=C4)cc2)cccc1-c1ccn(C(F)F)c(=O)c1
REMARK SMILES IDX 10 1 9 2 8 3 7 4 5 5 6 6 4 7 3 8 1 9 2 10 82 11 79 12 81 13
REMARK SMILES IDX 80 14 83 15 84 16 92 17 85 18 90 19 86 20 91 21 87 22 88 23
REMARK SMILES IDX 89 24 11 25 12 26 13 27 14 28 15 29 16 30 17 31 78 32 18 33
REMARK SMILES IDX 77 34 19 35 20 36 21 37 71 38 22 39 76 40 70 41 72 42 23 43
REMARK SMILES IDX 75 44 69 45 68 46 24 48 56 49 36 50 55 51 37 52 40 53 54 54
REMARK SMILES IDX 73 55 38 56 39 57 53 59 74 60 41 61 25 62 26 63 34 64 27 65
REMARK SMILES IDX 29 66 35 67 28 68 30 69 31 70 32 71 33 72 57 73 58 74 66 75
REMARK SMILES IDX 59 76 61 77 67 78 60 79 62 80 63 81 64 82 65 83 42 84 43 85
REMARK SMILES IDX 51 86 44 87 46 88 52 89 45 90 47 91 48 92 49 93 50 94
REMARK H PARENT 72 47 40 58
REMARK Flexibility Score: inf
ROOT
ATOM      1  O   UNL A   1      36.212  22.989  25.961  1.00  0.00    -0.374 OA
ENDROOT
BRANCH   1   2
ATOM      2  C   UNL A   1      34.867  23.375  25.716  1.00  0.00     0.202 C 
BRANCH   2   3
ATOM      3  C   UNL A   1      34.096  22.107  25.524  1.00  0.00     0.261 C 
BRANCH   3   4
ATOM      4  O   UNL A   1      32.915  22.300  24.727  1.00  0.00    -0.463 OA
BRANCH   4   5
ATOM      5  C   UNL A   1      31.754  22.734  25.322  1.00  0.00     0.310 C 
ATOM      6  O   UNL A   1      31.370  22.479  26.439  1.00  0.00    -0.252 OA
BRANCH   5   7
ATOM      7  C   UNL A   1      30.989  23.625  24.356  1.00  0.00     0.158 C 
BRANCH   7   8
ATOM      8  C   UNL A   1      31.865  24.798  23.953  1.00  0.00    -0.033 A 
ATOM      9  C   UNL A   1      31.325  25.967  26.132  1.00  0.00     0.045 C 
ATOM     10  C   UNL A   1      31.951  25.959  24.752  1.00  0.00    -0.039 A 
ATOM     11  C   UNL A   1      32.553  27.111  24.201  1.00  0.00    -0.015 A 
ATOM     12  C   UNL A   1      32.343  24.814  22.630  1.00  0.00     0.004 A 
ATOM     13  C   UNL A   1      32.946  27.131  22.854  1.00  0.00     0.009 A 
ATOM     14  C   UNL A   1      32.844  25.984  22.073  1.00  0.00     0.001 A 
BRANCH  11  15
ATOM     15  C   UNL A   1      32.910  28.247  25.066  1.00  0.00    -0.011 A 
ATOM     16  C   UNL A   1      34.174  28.217  25.775  1.00  0.00     0.027 A 
ATOM     17  C   UNL A   1      32.069  29.279  25.252  1.00  0.00     0.080 A 
ATOM     18  C   UNL A   1      34.469  29.148  26.682  1.00  0.00     0.095 A 
ATOM     19  C   UNL A   1      32.423  30.368  26.211  1.00  0.00     0.255 A 
ATOM     20  N   UNL A   1      33.605  30.195  26.920  1.00  0.00    -0.258 N 
ATOM     21  O   UNL A   1      31.663  31.325  26.326  1.00  0.00    -0.269 OA
BRANCH  20  22
ATOM     22  C   UNL A   1      33.925  31.171  27.925  1.00  0.00     0.451 C 
ATOM     23  F   UNL A   1      34.779  30.666  28.848  1.00  0.00    -0.185 F 
ATOM     24  F   UNL A   1      34.491  32.274  27.381  1.00  0.00    -0.185 F 
ENDBRANCH  20  22
ENDBRANCH  11  15
ENDBRANCH   7   8
ENDBRANCH   5   7
ENDBRANCH   4   5
ENDBRANCH   3   4
ENDBRANCH   2   3
ENDBRANCH   1   2
BRANCH   1  25
ATOM     25  C   UNL A   1      36.799  22.137  24.998  1.00  0.00     0.202 C 
BRANCH  25  26
ATOM     26  C   UNL A   1      38.173  21.579  25.385  1.00  0.00     0.261 C 
BRANCH  26  27
ATOM     27  O   UNL A   1      38.684  22.309  26.515  1.00  0.00    -0.460 OA
BRANCH  27  28
ATOM     28  C   UNL A   1      39.858  22.965  26.289  1.00  0.00     0.338 C 
ATOM     29  O   UNL A   1      40.902  22.409  25.993  1.00  0.00    -0.246 OA
BRANCH  28  30
ATOM     30  C   UNL A   1      39.712  24.393  26.699  1.00  0.00     0.060 A 
ATOM     31  C   UNL A   1      40.479  25.386  26.073  1.00  0.00     0.016 A 
ATOM     32  C   UNL A   1      39.042  24.684  27.887  1.00  0.00     0.016 A 
ATOM     33  C   UNL A   1      40.729  26.601  26.726  1.00  0.00     0.010 A 
ATOM     34  C   UNL A   1      39.355  25.845  28.563  1.00  0.00     0.010 A 
ATOM     35  C   UNL A   1      40.247  26.783  28.015  1.00  0.00    -0.014 A 
BRANCH  35  36
ATOM     36  C   UNL A   1      40.534  27.925  28.883  1.00  0.00     0.031 A 
ATOM     37  C   UNL A   1      39.565  29.035  28.819  1.00  0.00     0.074 A 
ATOM     38  C   UNL A   1      41.470  27.910  29.865  1.00  0.00     0.049 A 
ATOM     39  N   UNL A   1      39.781  30.213  29.286  1.00  0.00    -0.248 NA
ATOM     40  C   UNL A   1      38.281  28.914  28.132  1.00  0.00     0.031 C 
ATOM     41  C   UNL A   1      41.446  28.672  31.113  1.00  0.00     0.029 A 
ATOM     42  N   UNL A   1      42.649  27.163  29.989  1.00  0.00    -0.354 N 
ATOM     43  C   UNL A   1      38.578  30.879  29.266  1.00  0.00     0.074 A 
ATOM     44  C   UNL A   1      37.743  30.107  28.386  1.00  0.00     0.031 C 
ATOM     45  C   UNL A   1      42.627  28.543  31.743  1.00  0.00     0.029 A 
ATOM     46  C   UNL A   1      43.526  27.841  30.843  1.00  0.00     0.049 A 
ATOM     47  H   UNL A   1      42.830  26.302  29.548  1.00  0.00     0.167 HD
ATOM     48  C   UNL A   1      38.389  31.895  30.152  1.00  0.00     0.034 A 
ATOM     49  C   UNL A   1      44.784  28.191  30.455  1.00  0.00     0.034 A 
ATOM     50  C   UNL A   1      39.641  32.158  30.901  1.00  0.00     0.049 A 
ATOM     51  C   UNL A   1      44.913  29.688  30.476  1.00  0.00     0.074 A 
ATOM     52  C   UNL A   1      40.058  31.812  32.177  1.00  0.00     0.029 A 
ATOM     53  N   UNL A   1      40.792  32.565  30.220  1.00  0.00    -0.354 N 
ATOM     54  N   UNL A   1      43.899  30.464  30.734  1.00  0.00    -0.248 NA
ATOM     55  C   UNL A   1      46.131  30.448  30.222  1.00  0.00     0.031 C 
ATOM     56  C   UNL A   1      41.477  31.930  32.226  1.00  0.00     0.029 A 
ATOM     57  C   UNL A   1      41.931  32.385  30.998  1.00  0.00     0.049 A 
ATOM     58  H   UNL A   1      40.796  32.932  29.306  1.00  0.00     0.167 HD
ATOM     59  C   UNL A   1      44.226  31.758  30.524  1.00  0.00     0.074 A 
ATOM     60  C   UNL A   1      45.663  31.710  30.290  1.00  0.00     0.031 C 
ATOM     61  C   UNL A   1      43.263  32.725  30.482  1.00  0.00     0.034 A 
BRANCH  48  62
ATOM     62  C   UNL A   1      37.028  32.456  30.573  1.00  0.00     0.023 A 
ATOM     63  C   UNL A   1      36.444  31.894  31.731  1.00  0.00     0.012 A 
ATOM     64  C   UNL A   1      36.242  33.440  29.920  1.00  0.00     0.148 A 
ATOM     65  C   UNL A   1      35.161  32.237  32.178  1.00  0.00     0.002 A 
ATOM     66  C   UNL A   1      34.954  33.777  30.354  1.00  0.00     0.091 A 
ATOM     67  F   UNL A   1      36.722  34.114  28.880  1.00  0.00    -0.205 F 
ATOM     68  C   UNL A   1      34.408  33.170  31.483  1.00  0.00     0.022 A 
BRANCH  66  69
ATOM     69  S   UNL A   1      33.918  34.983  29.493  1.00  0.00     0.127 S 
ATOM     70  O   UNL A   1      32.724  34.195  29.180  1.00  0.00    -0.237 OA
ATOM     71  O   UNL A   1      33.718  36.007  30.517  1.00  0.00    -0.237 OA
ATOM     72  O   UNL A   1      34.669  35.419  28.322  1.00  0.00    -0.744 OA
ENDBRANCH  66  69
ENDBRANCH  48  62
BRANCH  49  73
ATOM     73  C   UNL A   1      45.376  27.226  29.472  1.00  0.00     0.023 A 
ATOM     74  C   UNL A   1      45.642  25.912  29.942  1.00  0.00     0.012 A 
ATOM     75  C   UNL A   1      45.241  27.428  28.087  1.00  0.00     0.148 A 
ATOM     76  C   UNL A   1      45.641  24.818  29.072  1.00  0.00     0.002 A 
ATOM     77  C   UNL A   1      45.194  26.326  27.232  1.00  0.00     0.091 A 
ATOM     78  F   UNL A   1      45.095  28.680  27.635  1.00  0.00    -0.205 F 
ATOM     79  C   UNL A   1      45.365  25.020  27.725  1.00  0.00     0.022 A 
BRANCH  77  80
ATOM     80  S   UNL A   1      44.728  26.487  25.501  1.00  0.00     0.127 S 
ATOM     81  O   UNL A   1      43.893  27.684  25.528  1.00  0.00    -0.237 OA
ATOM     82  O   UNL A   1      46.025  26.662  24.845  1.00  0.00    -0.237 OA
ATOM     83  O   UNL A   1      44.050  25.245  25.164  1.00  0.00    -0.744 OA
ENDBRANCH  77  80
ENDBRANCH  49  73
BRANCH  61  84
ATOM     84  C   UNL A   1      43.536  34.097  29.940  1.00  0.00     0.023 A 
ATOM     85  C   UNL A   1      43.456  35.242  30.758  1.00  0.00     0.012 A 
ATOM     86  C   UNL A   1      44.020  34.266  28.626  1.00  0.00     0.148 A 
ATOM     87  C   UNL A   1      43.738  36.514  30.264  1.00  0.00     0.002 A 
ATOM     88  C   UNL A   1      44.422  35.517  28.180  1.00  0.00     0.091 A 
ATOM     89  F   UNL A   1      44.077  33.215  27.795  1.00  0.00    -0.205 F 
ATOM     90  C   UNL A   1      44.239  36.650  28.978  1.00  0.00     0.022 A 
BRANCH  88  91
ATOM     91  S   UNL A   1      45.326  35.698  26.642  1.00  0.00     0.127 S 
ATOM     92  O   UNL A   1      44.408  35.094  25.680  1.00  0.00    -0.237 OA
ATOM     93  O   UNL A   1      45.461  37.152  26.531  1.00  0.00    -0.237 OA
ATOM     94  O   UNL A   1      46.588  34.999  26.853  1.00  0.00    -0.744 OA
ENDBRANCH  88  91
ENDBRANCH  61  84
ENDBRANCH  35  36
ENDBRANCH  28  30
ENDBRANCH  27  28
ENDBRANCH  26  27
ENDBRANCH  25  26
ENDBRANCH   1  25
TORSDOF 20
ENDMDL
