MODEL 1
REMARK VINA RESULT:     -10.0      0.000      0.000
REMARK SMILES CC[C@H](C(=O)OCCOCCOC(=O)c1ccc(-c2c3nc(c(-c4cccc(S(=O)(=O)[O-])c4F)c4ccc([nH]4)c(-c4cccc(S(=O)(=O)[O-])c4F)c4nc(c(-c5cccc(S(=O)(=O)[O-])c5F)c5ccc2[nH]5)C=C4)C=C3)cc1)[N@@H+](C)Cc1cncn1C(C)C
REMARK SMILES IDX 8 1 7 2 6 3 4 4 5 5 3 6 2 7 1 8 78 9 79 10 80 12 81 13 82 14
REMARK SMILES IDX 85 15 83 16 84 17 86 18 87 19 88 20 9 21 10 22 11 23 12 24
REMARK SMILES IDX 13 25 14 26 15 27 16 28 77 29 17 30 76 31 18 32 19 33 20 34
REMARK SMILES IDX 70 35 21 36 75 37 69 38 71 39 22 40 74 41 68 42 67 43 23 45
REMARK SMILES IDX 55 46 35 47 54 48 36 49 39 50 53 51 72 52 37 53 38 54 52 56
REMARK SMILES IDX 73 57 40 58 24 59 25 60 33 61 26 62 28 63 34 64 27 65 29 66
REMARK SMILES IDX 30 67 31 68 32 69 56 70 57 71 65 72 58 73 60 74 66 75 59 76
REMARK SMILES IDX 61 77 62 78 63 79 64 80 41 81 42 82 50 83 43 84 45 85 51 86
REMARK SMILES IDX 44 87 46 88 47 89 48 90 49 91
REMARK H PARENT 78 11 71 44 39 55
REMARK Flexibility Score: inf
ROOT
ATOM      1  C   UNL A   1      32.991  29.351  26.695  1.00  0.00     0.202 C 
ENDROOT
BRANCH   1   2
ATOM      2  C   UNL A   1      32.773  27.848  26.498  1.00  0.00     0.261 C 
BRANCH   2   3
ATOM      3  O   UNL A   1      32.237  27.556  25.198  1.00  0.00    -0.459 OA
BRANCH   3   4
ATOM      4  C   UNL A   1      32.858  26.547  24.545  1.00  0.00     0.364 C 
ATOM      5  O   UNL A   1      34.059  26.544  24.275  1.00  0.00    -0.245 OA
BRANCH   4   6
ATOM      6  C   UNL A   1      31.934  25.362  24.178  1.00  0.00     0.294 C 
BRANCH   6   7
ATOM      7  C   UNL A   1      30.472  25.236  24.689  1.00  0.00     0.074 C 
ATOM      8  C   UNL A   1      29.423  26.226  24.212  1.00  0.00     0.011 C 
ENDBRANCH   6   7
BRANCH   6   9
ATOM      9  N   UNL A   1      32.110  25.093  22.721  1.00  0.00    -0.321 N 
ATOM     10  C   UNL A   1      31.989  26.266  21.879  1.00  0.00     0.333 C 
ATOM     11  H   UNL A   1      31.286  24.538  22.485  1.00  0.00     0.348 HD
BRANCH   9  12
ATOM     12  C   UNL A   1      33.205  24.176  22.371  1.00  0.00     0.319 C 
BRANCH  12  13
ATOM     13  C   UNL A   1      33.097  22.818  22.964  1.00  0.00     0.093 A 
ATOM     14  C   UNL A   1      32.242  21.775  22.653  1.00  0.00     0.140 A 
ATOM     15  N   UNL A   1      33.889  22.306  23.968  1.00  0.00    -0.327 N 
ATOM     16  N   UNL A   1      32.362  20.756  23.551  1.00  0.00    -0.245 NA
ATOM     17  C   UNL A   1      33.350  21.103  24.338  1.00  0.00     0.200 A 
BRANCH  15  18
ATOM     18  C   UNL A   1      35.153  22.838  24.458  1.00  0.00     0.082 C 
ATOM     19  C   UNL A   1      35.643  22.133  25.721  1.00  0.00     0.031 C 
ATOM     20  C   UNL A   1      36.208  22.818  23.350  1.00  0.00     0.031 C 
ENDBRANCH  15  18
ENDBRANCH  12  13
ENDBRANCH   9  12
ENDBRANCH   6   9
ENDBRANCH   4   6
ENDBRANCH   3   4
ENDBRANCH   2   3
ENDBRANCH   1   2
BRANCH   1  21
ATOM     21  O   UNL A   1      32.520  30.218  25.661  1.00  0.00    -0.374 OA
BRANCH  21  22
ATOM     22  C   UNL A   1      31.417  31.071  25.968  1.00  0.00     0.202 C 
BRANCH  22  23
ATOM     23  C   UNL A   1      31.616  32.085  27.099  1.00  0.00     0.261 C 
BRANCH  23  24
ATOM     24  O   UNL A   1      32.645  33.040  26.785  1.00  0.00    -0.460 OA
BRANCH  24  25
ATOM     25  C   UNL A   1      33.232  33.615  27.859  1.00  0.00     0.338 C 
ATOM     26  O   UNL A   1      32.754  34.486  28.579  1.00  0.00    -0.246 OA
BRANCH  25  27
ATOM     27  C   UNL A   1      34.478  32.906  28.197  1.00  0.00     0.060 A 
ATOM     28  C   UNL A   1      34.360  31.593  28.674  1.00  0.00     0.016 A 
ATOM     29  C   UNL A   1      35.730  33.517  28.105  1.00  0.00     0.016 A 
ATOM     30  C   UNL A   1      35.484  30.908  29.122  1.00  0.00     0.010 A 
ATOM     31  C   UNL A   1      36.859  32.831  28.567  1.00  0.00     0.010 A 
ATOM     32  C   UNL A   1      36.733  31.541  29.116  1.00  0.00    -0.014 A 
BRANCH  32  33
ATOM     33  C   UNL A   1      37.870  30.908  29.823  1.00  0.00     0.031 A 
ATOM     34  C   UNL A   1      38.158  31.307  31.245  1.00  0.00     0.074 A 
ATOM     35  C   UNL A   1      38.627  29.978  29.214  1.00  0.00     0.049 A 
ATOM     36  N   UNL A   1      39.100  30.890  32.049  1.00  0.00    -0.248 NA
ATOM     37  C   UNL A   1      37.263  32.315  31.841  1.00  0.00     0.031 C 
ATOM     38  C   UNL A   1      38.442  29.508  27.842  1.00  0.00     0.029 A 
ATOM     39  N   UNL A   1      39.717  29.280  29.668  1.00  0.00    -0.354 N 
ATOM     40  C   UNL A   1      38.932  31.600  33.231  1.00  0.00     0.074 A 
ATOM     41  C   UNL A   1      37.803  32.484  33.038  1.00  0.00     0.031 C 
ATOM     42  C   UNL A   1      39.409  28.619  27.554  1.00  0.00     0.029 A 
ATOM     43  C   UNL A   1      40.289  28.474  28.712  1.00  0.00     0.049 A 
ATOM     44  H   UNL A   1      40.059  29.350  30.589  1.00  0.00     0.167 HD
ATOM     45  C   UNL A   1      39.644  31.514  34.380  1.00  0.00     0.034 A 
ATOM     46  C   UNL A   1      41.407  27.726  28.761  1.00  0.00     0.034 A 
ATOM     47  C   UNL A   1      40.753  30.619  34.575  1.00  0.00     0.049 A 
ATOM     48  C   UNL A   1      42.196  27.664  30.044  1.00  0.00     0.074 A 
ATOM     49  C   UNL A   1      41.503  30.416  35.719  1.00  0.00     0.029 A 
ATOM     50  N   UNL A   1      41.281  29.788  33.597  1.00  0.00    -0.354 N 
ATOM     51  N   UNL A   1      41.949  28.243  31.195  1.00  0.00    -0.248 NA
ATOM     52  C   UNL A   1      43.399  26.818  30.045  1.00  0.00     0.031 C 
ATOM     53  C   UNL A   1      42.505  29.484  35.425  1.00  0.00     0.029 A 
ATOM     54  C   UNL A   1      42.358  29.084  34.106  1.00  0.00     0.049 A 
ATOM     55  H   UNL A   1      40.939  29.711  32.677  1.00  0.00     0.167 HD
ATOM     56  C   UNL A   1      42.945  27.809  32.063  1.00  0.00     0.074 A 
ATOM     57  C   UNL A   1      43.786  26.899  31.311  1.00  0.00     0.031 C 
ATOM     58  C   UNL A   1      43.157  28.145  33.360  1.00  0.00     0.034 A 
BRANCH  45  59
ATOM     59  C   UNL A   1      39.231  32.397  35.528  1.00  0.00     0.023 A 
ATOM     60  C   UNL A   1      38.363  31.894  36.518  1.00  0.00     0.012 A 
ATOM     61  C   UNL A   1      39.747  33.701  35.657  1.00  0.00     0.148 A 
ATOM     62  C   UNL A   1      37.990  32.686  37.603  1.00  0.00     0.002 A 
ATOM     63  C   UNL A   1      39.404  34.469  36.764  1.00  0.00     0.091 A 
ATOM     64  F   UNL A   1      40.551  34.169  34.692  1.00  0.00    -0.205 F 
ATOM     65  C   UNL A   1      38.519  33.968  37.731  1.00  0.00     0.022 A 
BRANCH  63  66
ATOM     66  S   UNL A   1      40.091  36.103  37.058  1.00  0.00     0.127 S 
ATOM     67  O   UNL A   1      41.501  35.793  37.289  1.00  0.00    -0.237 OA
ATOM     68  O   UNL A   1      39.817  36.785  35.793  1.00  0.00    -0.237 OA
ATOM     69  O   UNL A   1      39.373  36.641  38.204  1.00  0.00    -0.744 OA
ENDBRANCH  63  66
ENDBRANCH  45  59
BRANCH  46  70
ATOM     70  C   UNL A   1      41.834  26.946  27.565  1.00  0.00     0.023 A 
ATOM     71  C   UNL A   1      42.427  27.612  26.476  1.00  0.00     0.012 A 
ATOM     72  C   UNL A   1      41.668  25.547  27.508  1.00  0.00     0.148 A 
ATOM     73  C   UNL A   1      42.825  26.905  25.341  1.00  0.00     0.002 A 
ATOM     74  C   UNL A   1      42.112  24.843  26.395  1.00  0.00     0.091 A 
ATOM     75  F   UNL A   1      41.084  24.936  28.548  1.00  0.00    -0.205 F 
ATOM     76  C   UNL A   1      42.677  25.521  25.305  1.00  0.00     0.022 A 
BRANCH  74  77
ATOM     77  S   UNL A   1      42.065  23.050  26.305  1.00  0.00     0.127 S 
ATOM     78  O   UNL A   1      42.861  22.671  27.470  1.00  0.00    -0.237 OA
ATOM     79  O   UNL A   1      40.633  22.780  26.426  1.00  0.00    -0.237 OA
ATOM     80  O   UNL A   1      42.640  22.704  25.013  1.00  0.00    -0.744 OA
ENDBRANCH  74  77
ENDBRANCH  46  70
BRANCH  58  81
ATOM     81  C   UNL A   1      44.324  27.507  34.068  1.00  0.00     0.023 A 
ATOM     82  C   UNL A   1      45.588  28.131  34.037  1.00  0.00     0.012 A 
ATOM     83  C   UNL A   1      44.155  26.331  34.825  1.00  0.00     0.148 A 
ATOM     84  C   UNL A   1      46.669  27.578  34.720  1.00  0.00     0.002 A 
ATOM     85  C   UNL A   1      45.225  25.813  35.545  1.00  0.00     0.091 A 
ATOM     86  F   UNL A   1      42.950  25.742  34.830  1.00  0.00    -0.205 F 
ATOM     87  C   UNL A   1      46.486  26.427  35.483  1.00  0.00     0.022 A 
BRANCH  85  88
ATOM     88  S   UNL A   1      45.059  24.390  36.629  1.00  0.00     0.127 S 
ATOM     89  O   UNL A   1      46.430  24.217  37.107  1.00  0.00    -0.237 OA
ATOM     90  O   UNL A   1      44.118  24.877  37.639  1.00  0.00    -0.237 OA
ATOM     91  O   UNL A   1      44.545  23.310  35.798  1.00  0.00    -0.744 OA
ENDBRANCH  85  88
ENDBRANCH  58  81
ENDBRANCH  32  33
ENDBRANCH  25  27
ENDBRANCH  24  25
ENDBRANCH  23  24
ENDBRANCH  22  23
ENDBRANCH  21  22
ENDBRANCH   1  21
TORSDOF 22
ENDMDL
MODEL 2
REMARK VINA RESULT:      -9.4      2.102      7.890
REMARK SMILES CC[C@H](C(=O)OCCOCCOC(=O)c1ccc(-c2c3nc(c(-c4cccc(S(=O)(=O)[O-])c4F)c4ccc([nH]4)c(-c4cccc(S(=O)(=O)[O-])c4F)c4nc(c(-c5cccc(S(=O)(=O)[O-])c5F)c5ccc2[nH]5)C=C4)C=C3)cc1)[N@@H+](C)Cc1cncn1C(C)C
REMARK SMILES IDX 8 1 7 2 6 3 4 4 5 5 3 6 2 7 1 8 78 9 79 10 80 12 81 13 82 14
REMARK SMILES IDX 85 15 83 16 84 17 86 18 87 19 88 20 9 21 10 22 11 23 12 24
REMARK SMILES IDX 13 25 14 26 15 27 16 28 77 29 17 30 76 31 18 32 19 33 20 34
REMARK SMILES IDX 70 35 21 36 75 37 69 38 71 39 22 40 74 41 68 42 67 43 23 45
REMARK SMILES IDX 55 46 35 47 54 48 36 49 39 50 53 51 72 52 37 53 38 54 52 56
REMARK SMILES IDX 73 57 40 58 24 59 25 60 33 61 26 62 28 63 34 64 27 65 29 66
REMARK SMILES IDX 30 67 31 68 32 69 56 70 57 71 65 72 58 73 60 74 66 75 59 76
REMARK SMILES IDX 61 77 62 78 63 79 64 80 41 81 42 82 50 83 43 84 45 85 51 86
REMARK SMILES IDX 44 87 46 88 47 89 48 90 49 91
REMARK H PARENT 78 11 71 44 39 55
REMARK Flexibility Score: inf
ROOT
ATOM      1  C   UNL A   1      33.946  29.012  25.800  1.00  0.00     0.202 C 
ENDROOT
BRANCH   1   2
ATOM      2  C   UNL A   1      33.692  29.173  24.298  1.00  0.00     0.261 C 
BRANCH   2   3
ATOM      3  O   UNL A   1      32.797  28.166  23.801  1.00  0.00    -0.459 OA
BRANCH   3   4
ATOM      4  C   UNL A   1      31.484  28.471  23.914  1.00  0.00     0.364 C 
ATOM      5  O   UNL A   1      31.022  29.593  23.704  1.00  0.00    -0.245 OA
BRANCH   4   6
ATOM      6  C   UNL A   1      30.584  27.277  24.309  1.00  0.00     0.294 C 
BRANCH   6   7
ATOM      7  C   UNL A   1      29.350  26.833  23.476  1.00  0.00     0.074 C 
ATOM      8  C   UNL A   1      28.048  26.496  24.185  1.00  0.00     0.011 C 
ENDBRANCH   6   7
BRANCH   6   9
ATOM      9  N   UNL A   1      31.480  26.163  24.735  1.00  0.00    -0.321 N 
ATOM     10  C   UNL A   1      31.505  25.931  26.165  1.00  0.00     0.333 C 
ATOM     11  H   UNL A   1      32.414  26.522  24.531  1.00  0.00     0.348 HD
BRANCH   9  12
ATOM     12  C   UNL A   1      31.431  24.952  23.902  1.00  0.00     0.319 C 
BRANCH  12  13
ATOM     13  C   UNL A   1      32.742  24.283  23.694  1.00  0.00     0.093 A 
ATOM     14  C   UNL A   1      33.851  24.699  22.978  1.00  0.00     0.140 A 
ATOM     15  N   UNL A   1      33.128  23.074  24.229  1.00  0.00    -0.327 N 
ATOM     16  N   UNL A   1      34.787  23.710  22.905  1.00  0.00    -0.245 NA
ATOM     17  C   UNL A   1      34.326  22.740  23.655  1.00  0.00     0.200 A 
BRANCH  15  18
ATOM     18  C   UNL A   1      32.492  22.339  25.314  1.00  0.00     0.082 C 
ATOM     19  C   UNL A   1      32.242  20.872  24.970  1.00  0.00     0.031 C 
ATOM     20  C   UNL A   1      33.295  22.492  26.607  1.00  0.00     0.031 C 
ENDBRANCH  15  18
ENDBRANCH  12  13
ENDBRANCH   9  12
ENDBRANCH   6   9
ENDBRANCH   4   6
ENDBRANCH   3   4
ENDBRANCH   2   3
ENDBRANCH   1   2
BRANCH   1  21
ATOM     21  O   UNL A   1      34.091  30.208  26.567  1.00  0.00    -0.374 OA
BRANCH  21  22
ATOM     22  C   UNL A   1      32.980  30.619  27.363  1.00  0.00     0.202 C 
BRANCH  22  23
ATOM     23  C   UNL A   1      32.467  32.047  27.156  1.00  0.00     0.261 C 
BRANCH  23  24
ATOM     24  O   UNL A   1      33.540  33.006  27.156  1.00  0.00    -0.460 OA
BRANCH  24  25
ATOM     25  C   UNL A   1      33.522  33.877  28.189  1.00  0.00     0.338 C 
ATOM     26  O   UNL A   1      32.670  34.731  28.417  1.00  0.00    -0.246 OA
BRANCH  25  27
ATOM     27  C   UNL A   1      34.579  33.538  29.158  1.00  0.00     0.060 A 
ATOM     28  C   UNL A   1      35.878  33.980  28.871  1.00  0.00     0.016 A 
ATOM     29  C   UNL A   1      34.328  32.762  30.292  1.00  0.00     0.016 A 
ATOM     30  C   UNL A   1      36.942  33.596  29.681  1.00  0.00     0.010 A 
ATOM     31  C   UNL A   1      35.401  32.367  31.099  1.00  0.00     0.010 A 
ATOM     32  C   UNL A   1      36.715  32.748  30.772  1.00  0.00    -0.014 A 
BRANCH  32  33
ATOM     33  C   UNL A   1      37.872  32.142  31.471  1.00  0.00     0.031 A 
ATOM     34  C   UNL A   1      38.592  30.989  30.825  1.00  0.00     0.074 A 
ATOM     35  C   UNL A   1      38.287  32.621  32.657  1.00  0.00     0.049 A 
ATOM     36  N   UNL A   1      39.619  30.306  31.258  1.00  0.00    -0.248 NA
ATOM     37  C   UNL A   1      38.085  30.545  29.514  1.00  0.00     0.031 C 
ATOM     38  C   UNL A   1      37.672  33.735  33.377  1.00  0.00     0.029 A 
ATOM     39  N   UNL A   1      39.311  32.214  33.473  1.00  0.00    -0.354 N 
ATOM     40  C   UNL A   1      39.863  29.337  30.293  1.00  0.00     0.074 A 
ATOM     41  C   UNL A   1      38.872  29.512  29.254  1.00  0.00     0.031 C 
ATOM     42  C   UNL A   1      38.314  33.902  34.547  1.00  0.00     0.029 A 
ATOM     43  C   UNL A   1      39.368  32.897  34.664  1.00  0.00     0.049 A 
ATOM     44  H   UNL A   1      39.944  31.499  33.230  1.00  0.00     0.167 HD
ATOM     45  C   UNL A   1      40.836  28.394  30.266  1.00  0.00     0.034 A 
ATOM     46  C   UNL A   1      40.165  32.715  35.735  1.00  0.00     0.034 A 
ATOM     47  C   UNL A   1      41.833  28.236  31.290  1.00  0.00     0.049 A 
ATOM     48  C   UNL A   1      41.225  31.644  35.689  1.00  0.00     0.074 A 
ATOM     49  C   UNL A   1      42.893  27.349  31.327  1.00  0.00     0.029 A 
ATOM     50  N   UNL A   1      41.884  28.972  32.464  1.00  0.00    -0.354 N 
ATOM     51  N   UNL A   1      41.527  30.820  34.714  1.00  0.00    -0.248 NA
ATOM     52  C   UNL A   1      42.077  31.501  36.879  1.00  0.00     0.031 C 
ATOM     53  C   UNL A   1      43.569  27.528  32.539  1.00  0.00     0.029 A 
ATOM     54  C   UNL A   1      42.947  28.547  33.242  1.00  0.00     0.049 A 
ATOM     55  H   UNL A   1      41.257  29.690  32.708  1.00  0.00     0.167 HD
ATOM     56  C   UNL A   1      42.619  30.083  35.160  1.00  0.00     0.074 A 
ATOM     57  C   UNL A   1      42.941  30.576  36.484  1.00  0.00     0.031 C 
ATOM     58  C   UNL A   1      43.286  29.080  34.538  1.00  0.00     0.034 A 
BRANCH  45  59
ATOM     59  C   UNL A   1      40.883  27.472  29.076  1.00  0.00     0.023 A 
ATOM     60  C   UNL A   1      39.991  26.383  29.000  1.00  0.00     0.012 A 
ATOM     61  C   UNL A   1      41.771  27.715  28.009  1.00  0.00     0.148 A 
ATOM     62  C   UNL A   1      40.001  25.533  27.895  1.00  0.00     0.002 A 
ATOM     63  C   UNL A   1      41.745  26.889  26.892  1.00  0.00     0.091 A 
ATOM     64  F   UNL A   1      42.628  28.741  28.112  1.00  0.00    -0.205 F 
ATOM     65  C   UNL A   1      40.869  25.793  26.837  1.00  0.00     0.022 A 
BRANCH  63  66
ATOM     66  S   UNL A   1      42.770  27.184  25.446  1.00  0.00     0.127 S 
ATOM     67  O   UNL A   1      44.094  27.333  26.049  1.00  0.00    -0.237 OA
ATOM     68  O   UNL A   1      42.584  25.952  24.680  1.00  0.00    -0.237 OA
ATOM     69  O   UNL A   1      42.234  28.380  24.811  1.00  0.00    -0.744 OA
ENDBRANCH  63  66
ENDBRANCH  45  59
BRANCH  46  70
ATOM     70  C   UNL A   1      40.014  33.589  36.932  1.00  0.00     0.023 A 
ATOM     71  C   UNL A   1      40.647  34.845  36.961  1.00  0.00     0.012 A 
ATOM     72  C   UNL A   1      39.232  33.187  38.034  1.00  0.00     0.148 A 
ATOM     73  C   UNL A   1      40.528  35.677  38.075  1.00  0.00     0.002 A 
ATOM     74  C   UNL A   1      39.077  34.041  39.120  1.00  0.00     0.091 A 
ATOM     75  F   UNL A   1      38.653  31.979  37.994  1.00  0.00    -0.205 F 
ATOM     76  C   UNL A   1      39.736  35.279  39.149  1.00  0.00     0.022 A 
BRANCH  74  77
ATOM     77  S   UNL A   1      37.988  33.664  40.498  1.00  0.00     0.127 S 
ATOM     78  O   UNL A   1      36.813  33.130  39.813  1.00  0.00    -0.237 OA
ATOM     79  O   UNL A   1      38.771  32.675  41.238  1.00  0.00    -0.237 OA
ATOM     80  O   UNL A   1      37.788  34.925  41.199  1.00  0.00    -0.744 OA
ENDBRANCH  74  77
ENDBRANCH  46  70
BRANCH  58  81
ATOM     81  C   UNL A   1      44.453  28.459  35.262  1.00  0.00     0.023 A 
ATOM     82  C   UNL A   1      45.767  28.847  34.933  1.00  0.00     0.012 A 
ATOM     83  C   UNL A   1      44.246  27.548  36.317  1.00  0.00     0.148 A 
ATOM     84  C   UNL A   1      46.857  28.314  35.620  1.00  0.00     0.002 A 
ATOM     85  C   UNL A   1      45.334  27.059  37.030  1.00  0.00     0.091 A 
ATOM     86  F   UNL A   1      42.989  27.177  36.605  1.00  0.00    -0.205 F 
ATOM     87  C   UNL A   1      46.641  27.431  36.675  1.00  0.00     0.022 A 
BRANCH  85  88
ATOM     88  S   UNL A   1      45.146  25.992  38.464  1.00  0.00     0.127 S 
ATOM     89  O   UNL A   1      44.583  24.783  37.864  1.00  0.00    -0.237 OA
ATOM     90  O   UNL A   1      46.526  25.855  38.932  1.00  0.00    -0.237 OA
ATOM     91  O   UNL A   1      44.266  26.703  39.380  1.00  0.00    -0.744 OA
ENDBRANCH  85  88
ENDBRANCH  58  81
ENDBRANCH  32  33
ENDBRANCH  25  27
ENDBRANCH  24  25
ENDBRANCH  23  24
ENDBRANCH  22  23
ENDBRANCH  21  22
ENDBRANCH   1  21
TORSDOF 22
ENDMDL
MODEL 3
REMARK VINA RESULT:      -9.3      1.630      2.330
REMARK SMILES CC[C@H](C(=O)OCCOCCOC(=O)c1ccc(-c2c3nc(c(-c4cccc(S(=O)(=O)[O-])c4F)c4ccc([nH]4)c(-c4cccc(S(=O)(=O)[O-])c4F)c4nc(c(-c5cccc(S(=O)(=O)[O-])c5F)c5ccc2[nH]5)C=C4)C=C3)cc1)[N@@H+](C)Cc1cncn1C(C)C
REMARK SMILES IDX 8 1 7 2 6 3 4 4 5 5 3 6 2 7 1 8 78 9 79 10 80 12 81 13 82 14
REMARK SMILES IDX 85 15 83 16 84 17 86 18 87 19 88 20 9 21 10 22 11 23 12 24
REMARK SMILES IDX 13 25 14 26 15 27 16 28 77 29 17 30 76 31 18 32 19 33 20 34
REMARK SMILES IDX 70 35 21 36 75 37 69 38 71 39 22 40 74 41 68 42 67 43 23 45
REMARK SMILES IDX 55 46 35 47 54 48 36 49 39 50 53 51 72 52 37 53 38 54 52 56
REMARK SMILES IDX 73 57 40 58 24 59 25 60 33 61 26 62 28 63 34 64 27 65 29 66
REMARK SMILES IDX 30 67 31 68 32 69 56 70 57 71 65 72 58 73 60 74 66 75 59 76
REMARK SMILES IDX 61 77 62 78 63 79 64 80 41 81 42 82 50 83 43 84 45 85 51 86
REMARK SMILES IDX 44 87 46 88 47 89 48 90 49 91
REMARK H PARENT 78 11 71 44 39 55
REMARK Flexibility Score: inf
ROOT
ATOM      1  C   UNL A   1      34.448  29.248  27.243  1.00  0.00     0.202 C 
ENDROOT
BRANCH   1   2
ATOM      2  C   UNL A   1      33.028  28.680  27.312  1.00  0.00     0.261 C 
BRANCH   2   3
ATOM      3  O   UNL A   1      32.615  28.127  26.053  1.00  0.00    -0.459 OA
BRANCH   3   4
ATOM      4  C   UNL A   1      31.407  27.517  26.071  1.00  0.00     0.364 C 
ATOM      5  O   UNL A   1      30.893  27.051  27.088  1.00  0.00    -0.245 OA
BRANCH   4   6
ATOM      6  C   UNL A   1      30.695  27.474  24.700  1.00  0.00     0.294 C 
BRANCH   6   7
ATOM      7  C   UNL A   1      31.403  27.833  23.364  1.00  0.00     0.074 C 
ATOM      8  C   UNL A   1      30.876  28.981  22.520  1.00  0.00     0.011 C 
ENDBRANCH   6   7
BRANCH   6   9
ATOM      9  N   UNL A   1      29.883  26.224  24.657  1.00  0.00    -0.321 N 
ATOM     10  C   UNL A   1      28.571  26.384  24.061  1.00  0.00     0.333 C 
ATOM     11  H   UNL A   1      29.681  26.041  25.641  1.00  0.00     0.348 HD
BRANCH   9  12
ATOM     12  C   UNL A   1      30.608  25.006  24.263  1.00  0.00     0.319 C 
BRANCH  12  13
ATOM     13  C   UNL A   1      31.115  24.187  25.395  1.00  0.00     0.093 A 
ATOM     14  C   UNL A   1      30.427  23.556  26.416  1.00  0.00     0.140 A 
ATOM     15  N   UNL A   1      32.432  23.864  25.635  1.00  0.00    -0.327 N 
ATOM     16  N   UNL A   1      31.285  23.047  27.345  1.00  0.00    -0.245 NA
ATOM     17  C   UNL A   1      32.484  23.254  26.860  1.00  0.00     0.200 A 
BRANCH  15  18
ATOM     18  C   UNL A   1      33.557  23.987  24.718  1.00  0.00     0.082 C 
ATOM     19  C   UNL A   1      34.682  24.857  25.274  1.00  0.00     0.031 C 
ATOM     20  C   UNL A   1      34.061  22.604  24.300  1.00  0.00     0.031 C 
ENDBRANCH  15  18
ENDBRANCH  12  13
ENDBRANCH   9  12
ENDBRANCH   6   9
ENDBRANCH   4   6
ENDBRANCH   3   4
ENDBRANCH   2   3
ENDBRANCH   1   2
BRANCH   1  21
ATOM     21  O   UNL A   1      34.617  30.624  27.585  1.00  0.00    -0.374 OA
BRANCH  21  22
ATOM     22  C   UNL A   1      33.441  31.428  27.681  1.00  0.00     0.202 C 
BRANCH  22  23
ATOM     23  C   UNL A   1      33.593  32.921  27.373  1.00  0.00     0.261 C 
BRANCH  23  24
ATOM     24  O   UNL A   1      32.655  33.718  28.119  1.00  0.00    -0.460 OA
BRANCH  24  25
ATOM     25  C   UNL A   1      33.211  34.697  28.866  1.00  0.00     0.338 C 
ATOM     26  O   UNL A   1      32.778  35.834  29.028  1.00  0.00    -0.246 OA
BRANCH  25  27
ATOM     27  C   UNL A   1      34.334  34.161  29.654  1.00  0.00     0.060 A 
ATOM     28  C   UNL A   1      35.630  34.428  29.189  1.00  0.00     0.016 A 
ATOM     29  C   UNL A   1      34.137  33.371  30.788  1.00  0.00     0.016 A 
ATOM     30  C   UNL A   1      36.730  33.855  29.818  1.00  0.00     0.010 A 
ATOM     31  C   UNL A   1      35.244  32.786  31.412  1.00  0.00     0.010 A 
ATOM     32  C   UNL A   1      36.540  32.992  30.903  1.00  0.00    -0.014 A 
BRANCH  32  33
ATOM     33  C   UNL A   1      37.682  32.192  31.401  1.00  0.00     0.031 A 
ATOM     34  C   UNL A   1      38.203  32.449  32.790  1.00  0.00     0.074 A 
ATOM     35  C   UNL A   1      38.239  31.238  30.635  1.00  0.00     0.049 A 
ATOM     36  N   UNL A   1      39.191  31.876  33.424  1.00  0.00    -0.248 NA
ATOM     37  C   UNL A   1      37.516  33.495  33.568  1.00  0.00     0.031 C 
ATOM     38  C   UNL A   1      37.819  30.895  29.277  1.00  0.00     0.029 A 
ATOM     39  N   UNL A   1      39.295  30.398  30.885  1.00  0.00    -0.354 N 
ATOM     40  C   UNL A   1      39.266  32.507  34.659  1.00  0.00     0.074 A 
ATOM     41  C   UNL A   1      38.229  33.515  34.684  1.00  0.00     0.031 C 
ATOM     42  C   UNL A   1      38.632  29.936  28.800  1.00  0.00     0.029 A 
ATOM     43  C   UNL A   1      39.637  29.613  29.810  1.00  0.00     0.049 A 
ATOM     44  H   UNL A   1      39.763  30.361  31.750  1.00  0.00     0.167 HD
ATOM     45  C   UNL A   1      40.112  32.260  35.687  1.00  0.00     0.034 A 
ATOM     46  C   UNL A   1      40.660  28.750  29.653  1.00  0.00     0.034 A 
ATOM     47  C   UNL A   1      41.129  31.242  35.667  1.00  0.00     0.049 A 
ATOM     48  C   UNL A   1      41.603  28.509  30.805  1.00  0.00     0.074 A 
ATOM     49  C   UNL A   1      41.998  30.876  36.678  1.00  0.00     0.029 A 
ATOM     50  N   UNL A   1      41.422  30.439  34.575  1.00  0.00    -0.354 N 
ATOM     51  N   UNL A   1      41.581  29.021  32.012  1.00  0.00    -0.248 NA
ATOM     52  C   UNL A   1      42.691  27.546  30.582  1.00  0.00     0.031 C 
ATOM     53  C   UNL A   1      42.839  29.871  36.188  1.00  0.00     0.029 A 
ATOM     54  C   UNL A   1      42.472  29.590  34.881  1.00  0.00     0.049 A 
ATOM     55  H   UNL A   1      40.953  30.468  33.710  1.00  0.00     0.167 HD
ATOM     56  C   UNL A   1      42.629  28.421  32.701  1.00  0.00     0.074 A 
ATOM     57  C   UNL A   1      43.252  27.489  31.783  1.00  0.00     0.031 C 
ATOM     58  C   UNL A   1      43.050  28.632  33.973  1.00  0.00     0.034 A 
BRANCH  45  59
ATOM     59  C   UNL A   1      39.961  33.090  36.934  1.00  0.00     0.023 A 
ATOM     60  C   UNL A   1      38.954  32.771  37.868  1.00  0.00     0.012 A 
ATOM     61  C   UNL A   1      40.849  34.149  37.209  1.00  0.00     0.148 A 
ATOM     62  C   UNL A   1      38.814  33.511  39.042  1.00  0.00     0.002 A 
ATOM     63  C   UNL A   1      40.730  34.854  38.402  1.00  0.00     0.091 A 
ATOM     64  F   UNL A   1      41.784  34.452  36.298  1.00  0.00    -0.205 F 
ATOM     65  C   UNL A   1      39.708  34.543  39.313  1.00  0.00     0.022 A 
BRANCH  63  66
ATOM     66  S   UNL A   1      41.879  36.150  38.877  1.00  0.00     0.127 S 
ATOM     67  O   UNL A   1      41.352  36.547  40.182  1.00  0.00    -0.237 OA
ATOM     68  O   UNL A   1      43.152  35.432  38.926  1.00  0.00    -0.237 OA
ATOM     69  O   UNL A   1      41.794  37.164  37.835  1.00  0.00    -0.744 OA
ENDBRANCH  63  66
ENDBRANCH  45  59
BRANCH  46  70
ATOM     70  C   UNL A   1      40.830  28.025  28.363  1.00  0.00     0.023 A 
ATOM     71  C   UNL A   1      41.443  28.675  27.275  1.00  0.00     0.012 A 
ATOM     72  C   UNL A   1      40.402  26.690  28.214  1.00  0.00     0.148 A 
ATOM     73  C   UNL A   1      41.604  28.019  26.054  1.00  0.00     0.002 A 
ATOM     74  C   UNL A   1      40.610  26.027  27.011  1.00  0.00     0.091 A 
ATOM     75  F   UNL A   1      39.804  26.097  29.257  1.00  0.00    -0.205 F 
ATOM     76  C   UNL A   1      41.197  26.693  25.925  1.00  0.00     0.022 A 
BRANCH  74  77
ATOM     77  S   UNL A   1      40.222  24.287  26.786  1.00  0.00     0.127 S 
ATOM     78  O   UNL A   1      38.877  24.352  26.218  1.00  0.00    -0.237 OA
ATOM     79  O   UNL A   1      41.264  23.864  25.851  1.00  0.00    -0.237 OA
ATOM     80  O   UNL A   1      40.315  23.688  28.110  1.00  0.00    -0.744 OA
ENDBRANCH  74  77
ENDBRANCH  46  70
BRANCH  58  81
ATOM     81  C   UNL A   1      44.223  27.825  34.467  1.00  0.00     0.023 A 
ATOM     82  C   UNL A   1      45.534  28.308  34.281  1.00  0.00     0.012 A 
ATOM     83  C   UNL A   1      44.024  26.626  35.180  1.00  0.00     0.148 A 
ATOM     84  C   UNL A   1      46.628  27.595  34.767  1.00  0.00     0.002 A 
ATOM     85  C   UNL A   1      45.117  25.947  35.706  1.00  0.00     0.091 A 
ATOM     86  F   UNL A   1      42.771  26.173  35.334  1.00  0.00    -0.205 F 
ATOM     87  C   UNL A   1      46.420  26.423  35.490  1.00  0.00     0.022 A 
BRANCH  85  88
ATOM     88  S   UNL A   1      44.939  24.481  36.729  1.00  0.00     0.127 S 
ATOM     89  O   UNL A   1      44.258  23.562  35.818  1.00  0.00    -0.237 OA
ATOM     90  O   UNL A   1      46.331  24.133  37.019  1.00  0.00    -0.237 OA
ATOM     91  O   UNL A   1      44.167  24.895  37.892  1.00  0.00    -0.744 OA
ENDBRANCH  85  88
ENDBRANCH  58  81
ENDBRANCH  32  33
ENDBRANCH  25  27
ENDBRANCH  24  25
ENDBRANCH  23  24
ENDBRANCH  22  23
ENDBRANCH  21  22
ENDBRANCH   1  21
TORSDOF 22
ENDMDL
