MODEL 1
REMARK VINA RESULT:     -11.8      0.000      0.000
REMARK SMILES CC1(C)C[C@@](Cc2ccccc2)(C(=O)OCCOCCOC(=O)c2ccc(-c3c4nc(c(-c5cccc(S(=O)(=O)[O-])c5F)c5ccc([nH]5)c(-c5cccc(S(=O)(=O)[O-])c5F)c5nc(c(-c6cccc(S(=O)(=O)[O-])c6F)c6ccc3[nH]6)C=C5)C=C4)cc2)CCO1
REMARK SMILES IDX 19 1 18 2 17 3 16 4 15 5 13 6 14 7 5 8 1 9 2 10 3 11 4 12
REMARK SMILES IDX 89 13 88 14 87 15 6 16 7 17 8 18 12 19 9 20 11 21 10 22
REMARK SMILES IDX 20 23 21 24 22 25 23 26 24 27 25 28 86 29 26 30 85 31 27 32
REMARK SMILES IDX 28 33 29 34 79 35 30 36 84 37 78 38 80 39 31 40 83 41 77 42
REMARK SMILES IDX 76 43 32 45 64 46 44 47 63 48 45 49 48 50 62 51 81 52 46 53
REMARK SMILES IDX 47 54 61 56 82 57 49 58 33 59 34 60 42 61 35 62 37 63 43 64
REMARK SMILES IDX 36 65 38 66 39 67 40 68 41 69 65 70 66 71 74 72 67 73 69 74
REMARK SMILES IDX 75 75 68 76 70 77 71 78 72 79 73 80 50 81 51 82 59 83 52 84
REMARK SMILES IDX 54 85 60 86 53 87 55 88 56 89 57 90 58 91
REMARK H PARENT 80 44 48 55
REMARK Flexibility Score: inf
ROOT
ATOM      1  C   UNL A   1      31.482  28.302  25.491  1.00  0.00     0.202 C 
ENDROOT
BRANCH   1   2
ATOM      2  O   UNL A   1      32.461  27.262  25.519  1.00  0.00    -0.374 OA
BRANCH   2   3
ATOM      3  C   UNL A   1      32.310  26.232  26.490  1.00  0.00     0.202 C 
BRANCH   3   4
ATOM      4  C   UNL A   1      31.385  25.062  26.137  1.00  0.00     0.261 C 
BRANCH   4   5
ATOM      5  O   UNL A   1      31.915  24.220  25.103  1.00  0.00    -0.463 OA
BRANCH   5   6
ATOM      6  C   UNL A   1      32.568  23.104  25.528  1.00  0.00     0.312 C 
ATOM      7  O   UNL A   1      32.904  22.913  26.691  1.00  0.00    -0.252 OA
BRANCH   6   8
ATOM      8  C   UNL A   1      32.870  22.117  24.394  1.00  0.00     0.077 C 
ATOM      9  C   UNL A   1      35.200  24.426  24.525  1.00  0.00     0.042 C 
ATOM     10  C   UNL A   1      35.139  23.151  23.666  1.00  0.00     0.064 C 
ATOM     11  C   UNL A   1      36.590  22.738  23.370  1.00  0.00     0.042 C 
ATOM     12  C   UNL A   1      34.409  21.954  24.322  1.00  0.00     0.054 C 
ATOM     13  O   UNL A   1      34.543  23.430  22.393  1.00  0.00    -0.376 OA
ATOM     14  C   UNL A   1      33.159  23.750  22.432  1.00  0.00     0.162 C 
ATOM     15  C   UNL A   1      32.364  22.589  23.005  1.00  0.00     0.047 C 
BRANCH   8  16
ATOM     16  C   UNL A   1      32.155  20.756  24.672  1.00  0.00     0.054 C 
BRANCH  16  17
ATOM     17  C   UNL A   1      32.736  19.472  24.123  1.00  0.00    -0.047 A 
ATOM     18  C   UNL A   1      32.246  18.919  22.933  1.00  0.00     0.004 A 
ATOM     19  C   UNL A   1      33.734  18.780  24.824  1.00  0.00     0.004 A 
ATOM     20  C   UNL A   1      32.755  17.710  22.450  1.00  0.00     0.000 A 
ATOM     21  C   UNL A   1      34.253  17.582  24.334  1.00  0.00     0.000 A 
ATOM     22  C   UNL A   1      33.763  17.046  23.147  1.00  0.00     0.000 A 
ENDBRANCH  16  17
ENDBRANCH   8  16
ENDBRANCH   6   8
ENDBRANCH   5   6
ENDBRANCH   4   5
ENDBRANCH   3   4
ENDBRANCH   2   3
ENDBRANCH   1   2
BRANCH   1  23
ATOM     23  C   UNL A   1      31.954  29.749  25.681  1.00  0.00     0.261 C 
BRANCH  23  24
ATOM     24  O   UNL A   1      32.288  30.057  27.048  1.00  0.00    -0.460 OA
BRANCH  24  25
ATOM     25  C   UNL A   1      32.964  31.221  27.211  1.00  0.00     0.338 C 
ATOM     26  O   UNL A   1      32.493  32.350  27.201  1.00  0.00    -0.246 OA
BRANCH  25  27
ATOM     27  C   UNL A   1      34.370  30.975  27.566  1.00  0.00     0.060 A 
ATOM     28  C   UNL A   1      34.799  29.644  27.651  1.00  0.00     0.016 A 
ATOM     29  C   UNL A   1      35.196  32.018  27.986  1.00  0.00     0.016 A 
ATOM     30  C   UNL A   1      36.037  29.347  28.218  1.00  0.00     0.010 A 
ATOM     31  C   UNL A   1      36.436  31.716  28.561  1.00  0.00     0.010 A 
ATOM     32  C   UNL A   1      36.840  30.378  28.723  1.00  0.00    -0.014 A 
BRANCH  32  33
ATOM     33  C   UNL A   1      38.023  30.046  29.554  1.00  0.00     0.031 A 
ATOM     34  C   UNL A   1      39.045  29.074  29.022  1.00  0.00     0.074 A 
ATOM     35  C   UNL A   1      38.188  30.604  30.767  1.00  0.00     0.049 A 
ATOM     36  N   UNL A   1      40.144  28.641  29.583  1.00  0.00    -0.248 NA
ATOM     37  C   UNL A   1      38.794  28.516  27.683  1.00  0.00     0.031 C 
ATOM     38  C   UNL A   1      37.271  31.557  31.389  1.00  0.00     0.029 A 
ATOM     39  N   UNL A   1      39.179  30.430  31.701  1.00  0.00    -0.354 N 
ATOM     40  C   UNL A   1      40.700  27.739  28.683  1.00  0.00     0.074 A 
ATOM     41  C   UNL A   1      39.818  27.684  27.539  1.00  0.00     0.031 C 
ATOM     42  C   UNL A   1      37.728  31.864  32.616  1.00  0.00     0.029 A 
ATOM     43  C   UNL A   1      38.958  31.118  32.870  1.00  0.00     0.049 A 
ATOM     44  H   UNL A   1      39.971  29.866  31.548  1.00  0.00     0.167 HD
ATOM     45  C   UNL A   1      41.851  27.034  28.792  1.00  0.00     0.034 A 
ATOM     46  C   UNL A   1      39.663  31.131  34.019  1.00  0.00     0.034 A 
ATOM     47  C   UNL A   1      42.749  27.119  29.911  1.00  0.00     0.049 A 
ATOM     48  C   UNL A   1      40.934  30.327  34.114  1.00  0.00     0.074 A 
ATOM     49  C   UNL A   1      43.973  26.497  30.080  1.00  0.00     0.029 A 
ATOM     50  N   UNL A   1      42.516  27.863  31.056  1.00  0.00    -0.354 N 
ATOM     51  N   UNL A   1      41.520  29.595  33.196  1.00  0.00    -0.248 NA
ATOM     52  C   UNL A   1      41.659  30.374  35.393  1.00  0.00     0.031 C 
ATOM     53  C   UNL A   1      44.473  26.851  31.337  1.00  0.00     0.029 A 
ATOM     54  C   UNL A   1      43.566  27.704  31.943  1.00  0.00     0.049 A 
ATOM     55  H   UNL A   1      41.722  28.423  31.215  1.00  0.00     0.167 HD
ATOM     56  C   UNL A   1      42.696  29.129  33.774  1.00  0.00     0.074 A 
ATOM     57  C   UNL A   1      42.751  29.675  35.113  1.00  0.00     0.031 C 
ATOM     58  C   UNL A   1      43.640  28.310  33.247  1.00  0.00     0.034 A 
BRANCH  45  59
ATOM     59  C   UNL A   1      42.235  26.130  27.652  1.00  0.00     0.023 A 
ATOM     60  C   UNL A   1      43.136  26.595  26.673  1.00  0.00     0.012 A 
ATOM     61  C   UNL A   1      41.776  24.800  27.596  1.00  0.00     0.148 A 
ATOM     62  C   UNL A   1      43.561  25.755  25.645  1.00  0.00     0.002 A 
ATOM     63  C   UNL A   1      42.231  23.958  26.589  1.00  0.00     0.091 A 
ATOM     64  F   UNL A   1      40.902  24.387  28.526  1.00  0.00    -0.205 F 
ATOM     65  C   UNL A   1      43.119  24.435  25.610  1.00  0.00     0.022 A 
BRANCH  63  66
ATOM     66  S   UNL A   1      41.773  22.224  26.497  1.00  0.00     0.127 S 
ATOM     67  O   UNL A   1      42.206  21.735  27.805  1.00  0.00    -0.237 OA
ATOM     68  O   UNL A   1      40.321  22.296  26.323  1.00  0.00    -0.237 OA
ATOM     69  O   UNL A   1      42.494  21.676  25.356  1.00  0.00    -0.744 OA
ENDBRANCH  63  66
ENDBRANCH  45  59
BRANCH  46  70
ATOM     70  C   UNL A   1      39.211  31.970  35.165  1.00  0.00     0.023 A 
ATOM     71  C   UNL A   1      38.276  31.446  36.079  1.00  0.00     0.012 A 
ATOM     72  C   UNL A   1      39.698  33.276  35.356  1.00  0.00     0.148 A 
ATOM     73  C   UNL A   1      37.811  32.219  37.144  1.00  0.00     0.002 A 
ATOM     74  C   UNL A   1      39.271  34.022  36.449  1.00  0.00     0.091 A 
ATOM     75  F   UNL A   1      40.567  33.769  34.463  1.00  0.00    -0.205 F 
ATOM     76  C   UNL A   1      38.317  33.502  37.335  1.00  0.00     0.022 A 
BRANCH  74  77
ATOM     77  S   UNL A   1      39.972  35.632  36.830  1.00  0.00     0.127 S 
ATOM     78  O   UNL A   1      41.392  35.316  36.965  1.00  0.00    -0.237 OA
ATOM     79  O   UNL A   1      39.625  36.410  35.639  1.00  0.00    -0.237 OA
ATOM     80  O   UNL A   1      39.293  36.067  38.042  1.00  0.00    -0.744 OA
ENDBRANCH  74  77
ENDBRANCH  46  70
BRANCH  58  81
ATOM     81  C   UNL A   1      44.834  27.973  34.102  1.00  0.00     0.023 A 
ATOM     82  C   UNL A   1      45.966  28.811  34.077  1.00  0.00     0.012 A 
ATOM     83  C   UNL A   1      44.801  26.880  34.990  1.00  0.00     0.148 A 
ATOM     84  C   UNL A   1      47.057  28.551  34.904  1.00  0.00     0.002 A 
ATOM     85  C   UNL A   1      45.875  26.652  35.842  1.00  0.00     0.091 A 
ATOM     86  F   UNL A   1      43.723  26.082  34.984  1.00  0.00    -0.205 F 
ATOM     87  C   UNL A   1      47.007  27.480  35.794  1.00  0.00     0.022 A 
BRANCH  85  88
ATOM     88  S   UNL A   1      45.851  25.353  37.083  1.00  0.00     0.127 S 
ATOM     89  O   UNL A   1      47.165  25.508  37.704  1.00  0.00    -0.237 OA
ATOM     90  O   UNL A   1      44.725  25.749  37.932  1.00  0.00    -0.237 OA
ATOM     91  O   UNL A   1      45.641  24.110  36.353  1.00  0.00    -0.744 OA
ENDBRANCH  85  88
ENDBRANCH  58  81
ENDBRANCH  32  33
ENDBRANCH  25  27
ENDBRANCH  24  25
ENDBRANCH  23  24
ENDBRANCH   1  23
TORSDOF 19
ENDMDL
MODEL 2
REMARK VINA RESULT:     -11.8      4.775      8.059
REMARK SMILES CC1(C)C[C@@](Cc2ccccc2)(C(=O)OCCOCCOC(=O)c2ccc(-c3c4nc(c(-c5cccc(S(=O)(=O)[O-])c5F)c5ccc([nH]5)c(-c5cccc(S(=O)(=O)[O-])c5F)c5nc(c(-c6cccc(S(=O)(=O)[O-])c6F)c6ccc3[nH]6)C=C5)C=C4)cc2)CCO1
REMARK SMILES IDX 19 1 18 2 17 3 16 4 15 5 13 6 14 7 5 8 1 9 2 10 3 11 4 12
REMARK SMILES IDX 89 13 88 14 87 15 6 16 7 17 8 18 12 19 9 20 11 21 10 22
REMARK SMILES IDX 20 23 21 24 22 25 23 26 24 27 25 28 86 29 26 30 85 31 27 32
REMARK SMILES IDX 28 33 29 34 79 35 30 36 84 37 78 38 80 39 31 40 83 41 77 42
REMARK SMILES IDX 76 43 32 45 64 46 44 47 63 48 45 49 48 50 62 51 81 52 46 53
REMARK SMILES IDX 47 54 61 56 82 57 49 58 33 59 34 60 42 61 35 62 37 63 43 64
REMARK SMILES IDX 36 65 38 66 39 67 40 68 41 69 65 70 66 71 74 72 67 73 69 74
REMARK SMILES IDX 75 75 68 76 70 77 71 78 72 79 73 80 50 81 51 82 59 83 52 84
REMARK SMILES IDX 54 85 60 86 53 87 55 88 56 89 57 90 58 91
REMARK H PARENT 80 44 48 55
REMARK Flexibility Score: inf
ROOT
ATOM      1  C   UNL A   1      35.711  21.237  24.730  1.00  0.00     0.202 C 
ENDROOT
BRANCH   1   2
ATOM      2  O   UNL A   1      35.587  22.660  24.733  1.00  0.00    -0.374 OA
BRANCH   2   3
ATOM      3  C   UNL A   1      34.311  23.218  24.439  1.00  0.00     0.202 C 
BRANCH   3   4
ATOM      4  C   UNL A   1      34.268  24.684  23.997  1.00  0.00     0.261 C 
BRANCH   4   5
ATOM      5  O   UNL A   1      32.940  25.146  23.712  1.00  0.00    -0.463 OA
BRANCH   5   6
ATOM      6  C   UNL A   1      32.803  26.492  23.560  1.00  0.00     0.312 C 
ATOM      7  O   UNL A   1      33.709  27.231  23.193  1.00  0.00    -0.252 OA
BRANCH   6   8
ATOM      8  C   UNL A   1      31.401  26.996  23.924  1.00  0.00     0.077 C 
ATOM      9  C   UNL A   1      33.429  27.370  26.479  1.00  0.00     0.042 C 
ATOM     10  C   UNL A   1      31.980  27.855  26.306  1.00  0.00     0.064 C 
ATOM     11  C   UNL A   1      31.816  29.103  27.189  1.00  0.00     0.042 C 
ATOM     12  C   UNL A   1      31.580  28.221  24.856  1.00  0.00     0.054 C 
ATOM     13  O   UNL A   1      31.059  26.887  26.822  1.00  0.00    -0.376 OA
ATOM     14  C   UNL A   1      30.985  25.674  26.086  1.00  0.00     0.162 C 
ATOM     15  C   UNL A   1      30.531  25.945  24.662  1.00  0.00     0.047 C 
BRANCH   8  16
ATOM     16  C   UNL A   1      30.618  27.367  22.623  1.00  0.00     0.054 C 
BRANCH  16  17
ATOM     17  C   UNL A   1      29.651  28.530  22.630  1.00  0.00    -0.047 A 
ATOM     18  C   UNL A   1      28.332  28.359  23.069  1.00  0.00     0.004 A 
ATOM     19  C   UNL A   1      30.039  29.787  22.144  1.00  0.00     0.004 A 
ATOM     20  C   UNL A   1      27.428  29.425  23.034  1.00  0.00     0.000 A 
ATOM     21  C   UNL A   1      29.141  30.855  22.123  1.00  0.00     0.000 A 
ATOM     22  C   UNL A   1      27.835  30.674  22.568  1.00  0.00     0.000 A 
ENDBRANCH  16  17
ENDBRANCH   8  16
ENDBRANCH   6   8
ENDBRANCH   5   6
ENDBRANCH   4   5
ENDBRANCH   3   4
ENDBRANCH   2   3
ENDBRANCH   1   2
BRANCH   1  23
ATOM     23  C   UNL A   1      37.047  20.623  25.164  1.00  0.00     0.261 C 
BRANCH  23  24
ATOM     24  O   UNL A   1      38.152  21.541  25.046  1.00  0.00    -0.460 OA
BRANCH  24  25
ATOM     25  C   UNL A   1      39.163  21.317  25.922  1.00  0.00     0.338 C 
ATOM     26  O   UNL A   1      39.823  20.293  26.034  1.00  0.00    -0.246 OA
BRANCH  25  27
ATOM     27  C   UNL A   1      39.502  22.539  26.666  1.00  0.00     0.060 A 
ATOM     28  C   UNL A   1      38.795  23.709  26.360  1.00  0.00     0.016 A 
ATOM     29  C   UNL A   1      40.613  22.579  27.510  1.00  0.00     0.016 A 
ATOM     30  C   UNL A   1      39.236  24.937  26.848  1.00  0.00     0.010 A 
ATOM     31  C   UNL A   1      41.058  23.815  27.993  1.00  0.00     0.010 A 
ATOM     32  C   UNL A   1      40.400  25.004  27.625  1.00  0.00    -0.014 A 
BRANCH  32  33
ATOM     33  C   UNL A   1      41.010  26.323  27.921  1.00  0.00     0.031 A 
ATOM     34  C   UNL A   1      42.418  26.599  27.462  1.00  0.00     0.074 A 
ATOM     35  C   UNL A   1      40.318  27.265  28.587  1.00  0.00     0.049 A 
ATOM     36  N   UNL A   1      43.142  27.678  27.619  1.00  0.00    -0.248 NA
ATOM     37  C   UNL A   1      43.102  25.519  26.731  1.00  0.00     0.031 C 
ATOM     38  C   UNL A   1      38.951  27.117  29.080  1.00  0.00     0.029 A 
ATOM     39  N   UNL A   1      40.685  28.528  28.981  1.00  0.00    -0.354 N 
ATOM     40  C   UNL A   1      44.373  27.397  27.037  1.00  0.00     0.074 A 
ATOM     41  C   UNL A   1      44.301  26.047  26.523  1.00  0.00     0.031 C 
ATOM     42  C   UNL A   1      38.601  28.237  29.737  1.00  0.00     0.029 A 
ATOM     43  C   UNL A   1      39.724  29.172  29.724  1.00  0.00     0.049 A 
ATOM     44  H   UNL A   1      41.553  28.933  28.754  1.00  0.00     0.167 HD
ATOM     45  C   UNL A   1      45.459  28.197  26.923  1.00  0.00     0.034 A 
ATOM     46  C   UNL A   1      39.756  30.373  30.335  1.00  0.00     0.034 A 
ATOM     47  C   UNL A   1      45.517  29.553  27.398  1.00  0.00     0.049 A 
ATOM     48  C   UNL A   1      40.983  31.237  30.201  1.00  0.00     0.074 A 
ATOM     49  C   UNL A   1      46.549  30.466  27.266  1.00  0.00     0.029 A 
ATOM     50  N   UNL A   1      44.508  30.188  28.103  1.00  0.00    -0.354 N 
ATOM     51  N   UNL A   1      42.082  31.012  29.520  1.00  0.00    -0.248 NA
ATOM     52  C   UNL A   1      40.964  32.534  30.893  1.00  0.00     0.031 C 
ATOM     53  C   UNL A   1      46.169  31.649  27.910  1.00  0.00     0.029 A 
ATOM     54  C   UNL A   1      44.897  31.475  28.428  1.00  0.00     0.049 A 
ATOM     55  H   UNL A   1      43.642  29.783  28.337  1.00  0.00     0.167 HD
ATOM     56  C   UNL A   1      42.864  32.152  29.671  1.00  0.00     0.074 A 
ATOM     57  C   UNL A   1      42.107  33.074  30.491  1.00  0.00     0.031 C 
ATOM     58  C   UNL A   1      44.105  32.407  29.187  1.00  0.00     0.034 A 
BRANCH  45  59
ATOM     59  C   UNL A   1      46.672  27.647  26.224  1.00  0.00     0.023 A 
ATOM     60  C   UNL A   1      46.814  27.833  24.834  1.00  0.00     0.012 A 
ATOM     61  C   UNL A   1      47.706  27.025  26.949  1.00  0.00     0.148 A 
ATOM     62  C   UNL A   1      47.960  27.393  24.174  1.00  0.00     0.002 A 
ATOM     63  C   UNL A   1      48.861  26.620  26.290  1.00  0.00     0.091 A 
ATOM     64  F   UNL A   1      47.539  26.838  28.267  1.00  0.00    -0.205 F 
ATOM     65  C   UNL A   1      48.987  26.798  24.902  1.00  0.00     0.022 A 
BRANCH  63  66
ATOM     66  S   UNL A   1      50.266  25.906  27.151  1.00  0.00     0.127 S 
ATOM     67  O   UNL A   1      49.851  24.510  27.285  1.00  0.00    -0.237 OA
ATOM     68  O   UNL A   1      51.357  26.129  26.200  1.00  0.00    -0.237 OA
ATOM     69  O   UNL A   1      50.390  26.643  28.401  1.00  0.00    -0.744 OA
ENDBRANCH  63  66
ENDBRANCH  45  59
BRANCH  46  70
ATOM     70  C   UNL A   1      38.569  30.857  31.096  1.00  0.00     0.023 A 
ATOM     71  C   UNL A   1      38.535  30.703  32.496  1.00  0.00     0.012 A 
ATOM     72  C   UNL A   1      37.480  31.466  30.446  1.00  0.00     0.148 A 
ATOM     73  C   UNL A   1      37.424  31.119  33.231  1.00  0.00     0.002 A 
ATOM     74  C   UNL A   1      36.399  31.927  31.191  1.00  0.00     0.091 A 
ATOM     75  F   UNL A   1      37.516  31.582  29.111  1.00  0.00    -0.205 F 
ATOM     76  C   UNL A   1      36.362  31.740  32.580  1.00  0.00     0.022 A 
BRANCH  74  77
ATOM     77  S   UNL A   1      35.054  32.848  30.437  1.00  0.00     0.127 S 
ATOM     78  O   UNL A   1      34.119  32.979  31.551  1.00  0.00    -0.237 OA
ATOM     79  O   UNL A   1      35.715  34.092  30.038  1.00  0.00    -0.237 OA
ATOM     80  O   UNL A   1      34.608  32.028  29.319  1.00  0.00    -0.744 OA
ENDBRANCH  74  77
ENDBRANCH  46  70
BRANCH  58  81
ATOM     81  C   UNL A   1      44.718  33.747  29.498  1.00  0.00     0.023 A 
ATOM     82  C   UNL A   1      45.499  33.902  30.660  1.00  0.00     0.012 A 
ATOM     83  C   UNL A   1      44.593  34.824  28.599  1.00  0.00     0.148 A 
ATOM     84  C   UNL A   1      46.124  35.118  30.936  1.00  0.00     0.002 A 
ATOM     85  C   UNL A   1      45.255  36.019  28.858  1.00  0.00     0.091 A 
ATOM     86  F   UNL A   1      43.829  34.663  27.508  1.00  0.00    -0.205 F 
ATOM     87  C   UNL A   1      46.013  36.170  30.030  1.00  0.00     0.022 A 
BRANCH  85  88
ATOM     88  S   UNL A   1      45.241  37.390  27.698  1.00  0.00     0.127 S 
ATOM     89  O   UNL A   1      43.832  37.443  27.314  1.00  0.00    -0.237 OA
ATOM     90  O   UNL A   1      45.689  38.510  28.528  1.00  0.00    -0.237 OA
ATOM     91  O   UNL A   1      46.170  37.023  26.637  1.00  0.00    -0.744 OA
ENDBRANCH  85  88
ENDBRANCH  58  81
ENDBRANCH  32  33
ENDBRANCH  25  27
ENDBRANCH  24  25
ENDBRANCH  23  24
ENDBRANCH   1  23
TORSDOF 19
ENDMDL
MODEL 3
REMARK VINA RESULT:     -11.7      2.041      7.981
REMARK SMILES CC1(C)C[C@@](Cc2ccccc2)(C(=O)OCCOCCOC(=O)c2ccc(-c3c4nc(c(-c5cccc(S(=O)(=O)[O-])c5F)c5ccc([nH]5)c(-c5cccc(S(=O)(=O)[O-])c5F)c5nc(c(-c6cccc(S(=O)(=O)[O-])c6F)c6ccc3[nH]6)C=C5)C=C4)cc2)CCO1
REMARK SMILES IDX 19 1 18 2 17 3 16 4 15 5 13 6 14 7 5 8 1 9 2 10 3 11 4 12
REMARK SMILES IDX 89 13 88 14 87 15 6 16 7 17 8 18 12 19 9 20 11 21 10 22
REMARK SMILES IDX 20 23 21 24 22 25 23 26 24 27 25 28 86 29 26 30 85 31 27 32
REMARK SMILES IDX 28 33 29 34 79 35 30 36 84 37 78 38 80 39 31 40 83 41 77 42
REMARK SMILES IDX 76 43 32 45 64 46 44 47 63 48 45 49 48 50 62 51 81 52 46 53
REMARK SMILES IDX 47 54 61 56 82 57 49 58 33 59 34 60 42 61 35 62 37 63 43 64
REMARK SMILES IDX 36 65 38 66 39 67 40 68 41 69 65 70 66 71 74 72 67 73 69 74
REMARK SMILES IDX 75 75 68 76 70 77 71 78 72 79 73 80 50 81 51 82 59 83 52 84
REMARK SMILES IDX 54 85 60 86 53 87 55 88 56 89 57 90 58 91
REMARK H PARENT 80 44 48 55
REMARK Flexibility Score: inf
ROOT
ATOM      1  C   UNL A   1      31.538  31.373  26.336  1.00  0.00     0.202 C 
ENDROOT
BRANCH   1   2
ATOM      2  O   UNL A   1      32.034  30.149  26.879  1.00  0.00    -0.374 OA
BRANCH   2   3
ATOM      3  C   UNL A   1      33.041  29.457  26.148  1.00  0.00     0.202 C 
BRANCH   3   4
ATOM      4  C   UNL A   1      33.638  28.201  26.791  1.00  0.00     0.261 C 
BRANCH   4   5
ATOM      5  O   UNL A   1      33.565  27.047  25.942  1.00  0.00    -0.463 OA
BRANCH   5   6
ATOM      6  C   UNL A   1      32.436  26.296  26.064  1.00  0.00     0.312 C 
ATOM      7  O   UNL A   1      31.468  26.625  26.740  1.00  0.00    -0.252 OA
BRANCH   6   8
ATOM      8  C   UNL A   1      32.509  24.974  25.289  1.00  0.00     0.077 C 
ATOM      9  C   UNL A   1      31.875  27.452  23.230  1.00  0.00     0.042 C 
ATOM     10  C   UNL A   1      32.183  25.978  22.915  1.00  0.00     0.064 C 
ATOM     11  C   UNL A   1      32.817  25.941  21.515  1.00  0.00     0.042 C 
ATOM     12  C   UNL A   1      33.145  25.283  23.911  1.00  0.00     0.054 C 
ATOM     13  O   UNL A   1      30.972  25.219  22.818  1.00  0.00    -0.376 OA
ATOM     14  C   UNL A   1      30.266  25.052  24.040  1.00  0.00     0.162 C 
ATOM     15  C   UNL A   1      31.125  24.313  25.051  1.00  0.00     0.047 C 
BRANCH   8  16
ATOM     16  C   UNL A   1      33.351  23.933  26.095  1.00  0.00     0.054 C 
BRANCH  16  17
ATOM     17  C   UNL A   1      34.668  23.437  25.543  1.00  0.00    -0.047 A 
ATOM     18  C   UNL A   1      34.731  22.249  24.804  1.00  0.00     0.004 A 
ATOM     19  C   UNL A   1      35.861  24.126  25.808  1.00  0.00     0.004 A 
ATOM     20  C   UNL A   1      35.956  21.771  24.331  1.00  0.00     0.000 A 
ATOM     21  C   UNL A   1      37.082  23.657  25.322  1.00  0.00     0.000 A 
ATOM     22  C   UNL A   1      37.129  22.478  24.585  1.00  0.00     0.000 A 
ENDBRANCH  16  17
ENDBRANCH   8  16
ENDBRANCH   6   8
ENDBRANCH   5   6
ENDBRANCH   4   5
ENDBRANCH   3   4
ENDBRANCH   2   3
ENDBRANCH   1   2
BRANCH   1  23
ATOM     23  C   UNL A   1      31.863  32.679  27.071  1.00  0.00     0.261 C 
BRANCH  23  24
ATOM     24  O   UNL A   1      32.910  32.528  28.050  1.00  0.00    -0.460 OA
BRANCH  24  25
ATOM     25  C   UNL A   1      33.966  33.360  27.874  1.00  0.00     0.338 C 
ATOM     26  O   UNL A   1      33.925  34.567  27.684  1.00  0.00    -0.246 OA
BRANCH  25  27
ATOM     27  C   UNL A   1      35.239  32.656  28.091  1.00  0.00     0.060 A 
ATOM     28  C   UNL A   1      35.197  31.266  28.265  1.00  0.00     0.016 A 
ATOM     29  C   UNL A   1      36.423  33.365  28.303  1.00  0.00     0.016 A 
ATOM     30  C   UNL A   1      36.327  30.587  28.716  1.00  0.00     0.010 A 
ATOM     31  C   UNL A   1      37.554  32.680  28.762  1.00  0.00     0.010 A 
ATOM     32  C   UNL A   1      37.497  31.297  29.016  1.00  0.00    -0.014 A 
BRANCH  32  33
ATOM     33  C   UNL A   1      38.601  30.620  29.737  1.00  0.00     0.031 A 
ATOM     34  C   UNL A   1      38.901  31.015  31.160  1.00  0.00     0.074 A 
ATOM     35  C   UNL A   1      39.328  29.661  29.135  1.00  0.00     0.049 A 
ATOM     36  N   UNL A   1      39.821  30.558  31.969  1.00  0.00    -0.248 NA
ATOM     37  C   UNL A   1      38.053  32.066  31.748  1.00  0.00     0.031 C 
ATOM     38  C   UNL A   1      39.134  29.191  27.764  1.00  0.00     0.029 A 
ATOM     39  N   UNL A   1      40.392  28.927  29.596  1.00  0.00    -0.354 N 
ATOM     40  C   UNL A   1      39.685  31.282  33.148  1.00  0.00     0.074 A 
ATOM     41  C   UNL A   1      38.594  32.212  32.950  1.00  0.00     0.031 C 
ATOM     42  C   UNL A   1      40.068  28.265  27.486  1.00  0.00     0.029 A 
ATOM     43  C   UNL A   1      40.934  28.089  28.650  1.00  0.00     0.049 A 
ATOM     44  H   UNL A   1      40.735  28.994  30.517  1.00  0.00     0.167 HD
ATOM     45  C   UNL A   1      40.391  31.172  34.297  1.00  0.00     0.034 A 
ATOM     46  C   UNL A   1      42.014  27.285  28.715  1.00  0.00     0.034 A 
ATOM     47  C   UNL A   1      41.449  30.221  34.507  1.00  0.00     0.049 A 
ATOM     48  C   UNL A   1      42.787  27.192  30.004  1.00  0.00     0.074 A 
ATOM     49  C   UNL A   1      42.176  29.986  35.662  1.00  0.00     0.029 A 
ATOM     50  N   UNL A   1      41.938  29.356  33.542  1.00  0.00    -0.354 N 
ATOM     51  N   UNL A   1      42.552  27.777  31.154  1.00  0.00    -0.248 NA
ATOM     52  C   UNL A   1      43.959  26.303  30.015  1.00  0.00     0.031 C 
ATOM     53  C   UNL A   1      43.119  28.989  35.387  1.00  0.00     0.029 A 
ATOM     54  C   UNL A   1      42.968  28.596  34.068  1.00  0.00     0.049 A 
ATOM     55  H   UNL A   1      41.602  29.291  32.619  1.00  0.00     0.167 HD
ATOM     56  C   UNL A   1      43.519  27.297  32.031  1.00  0.00     0.074 A 
ATOM     57  C   UNL A   1      44.333  26.361  31.286  1.00  0.00     0.031 C 
ATOM     58  C   UNL A   1      43.725  27.617  33.333  1.00  0.00     0.034 A 
BRANCH  45  59
ATOM     59  C   UNL A   1      40.024  32.076  35.442  1.00  0.00     0.023 A 
ATOM     60  C   UNL A   1      40.627  33.346  35.542  1.00  0.00     0.012 A 
ATOM     61  C   UNL A   1      39.027  31.707  36.365  1.00  0.00     0.148 A 
ATOM     62  C   UNL A   1      40.254  34.230  36.554  1.00  0.00     0.002 A 
ATOM     63  C   UNL A   1      38.635  32.606  37.350  1.00  0.00     0.091 A 
ATOM     64  F   UNL A   1      38.484  30.485  36.263  1.00  0.00    -0.205 F 
ATOM     65  C   UNL A   1      39.251  33.865  37.449  1.00  0.00     0.022 A 
BRANCH  63  66
ATOM     66  S   UNL A   1      37.307  32.256  38.507  1.00  0.00     0.127 S 
ATOM     67  O   UNL A   1      37.833  32.836  39.742  1.00  0.00    -0.237 OA
ATOM     68  O   UNL A   1      36.184  32.988  37.920  1.00  0.00    -0.237 OA
ATOM     69  O   UNL A   1      37.151  30.808  38.514  1.00  0.00    -0.744 OA
ENDBRANCH  63  66
ENDBRANCH  45  59
BRANCH  46  70
ATOM     70  C   UNL A   1      42.406  26.464  27.534  1.00  0.00     0.023 A 
ATOM     71  C   UNL A   1      43.185  27.046  26.515  1.00  0.00     0.012 A 
ATOM     72  C   UNL A   1      42.017  25.117  27.415  1.00  0.00     0.148 A 
ATOM     73  C   UNL A   1      43.542  26.311  25.384  1.00  0.00     0.002 A 
ATOM     74  C   UNL A   1      42.421  24.374  26.311  1.00  0.00     0.091 A 
ATOM     75  F   UNL A   1      41.253  24.586  28.381  1.00  0.00    -0.205 F 
ATOM     76  C   UNL A   1      43.170  24.972  25.288  1.00  0.00     0.022 A 
BRANCH  74  77
ATOM     77  S   UNL A   1      42.085  22.615  26.179  1.00  0.00     0.127 S 
ATOM     78  O   UNL A   1      42.754  22.275  24.926  1.00  0.00    -0.237 OA
ATOM     79  O   UNL A   1      42.729  22.085  27.383  1.00  0.00    -0.237 OA
ATOM     80  O   UNL A   1      40.633  22.502  26.183  1.00  0.00    -0.744 OA
ENDBRANCH  74  77
ENDBRANCH  46  70
BRANCH  58  81
ATOM     81  C   UNL A   1      44.854  26.928  34.055  1.00  0.00     0.023 A 
ATOM     82  C   UNL A   1      46.158  27.454  33.971  1.00  0.00     0.012 A 
ATOM     83  C   UNL A   1      44.608  25.814  34.882  1.00  0.00     0.148 A 
ATOM     84  C   UNL A   1      47.205  26.866  34.679  1.00  0.00     0.002 A 
ATOM     85  C   UNL A   1      45.649  25.260  35.619  1.00  0.00     0.091 A 
ATOM     86  F   UNL A   1      43.364  25.315  34.932  1.00  0.00    -0.205 F 
ATOM     87  C   UNL A   1      46.949  25.779  35.511  1.00  0.00     0.022 A 
BRANCH  85  88
ATOM     88  S   UNL A   1      45.385  23.920  36.785  1.00  0.00     0.127 S 
ATOM     89  O   UNL A   1      44.671  22.944  35.964  1.00  0.00    -0.237 OA
ATOM     90  O   UNL A   1      46.753  23.535  37.138  1.00  0.00    -0.237 OA
ATOM     91  O   UNL A   1      44.623  24.495  37.886  1.00  0.00    -0.744 OA
ENDBRANCH  85  88
ENDBRANCH  58  81
ENDBRANCH  32  33
ENDBRANCH  25  27
ENDBRANCH  24  25
ENDBRANCH  23  24
ENDBRANCH   1  23
TORSDOF 19
ENDMDL
