MODEL 1
REMARK VINA RESULT:     -12.9      0.000      0.000
REMARK SMILES O=C(OCCOCCOC(=O)c1ccc(-c2c3nc(c(-c4cccc(S(=O)(=O)[O-])c4F)c4ccc([nH]4)c(-c4cccc(S(=O)(=O)[O-])c4F)c4nc(c(-c5cccc(S(=O)(=O)[O-])c5F)c5ccc2[nH]5)C=C4)C=C3)cc1)C1=Cc2ccc(Cl)c(Cl)c2O[C@@H]1C(F)(F)F
REMARK SMILES IDX 7 1 6 2 5 3 4 4 3 5 2 6 1 7 75 8 76 9 86 10 77 11 85 12
REMARK SMILES IDX 78 13 84 14 79 15 82 16 80 17 83 18 81 19 87 20 88 21 89 22
REMARK SMILES IDX 90 23 8 24 9 25 10 26 11 27 12 28 13 29 74 30 14 31 73 32
REMARK SMILES IDX 15 33 16 34 17 35 67 36 18 37 72 38 66 39 68 40 19 41 71 42
REMARK SMILES IDX 65 43 64 44 20 46 52 47 32 48 51 49 33 50 36 51 50 52 69 53
REMARK SMILES IDX 34 54 35 55 49 57 70 58 37 59 21 60 22 61 30 62 23 63 25 64
REMARK SMILES IDX 31 65 24 66 26 67 27 68 28 69 29 70 53 71 54 72 62 73 55 74
REMARK SMILES IDX 57 75 63 76 56 77 58 78 59 79 60 80 61 81 38 82 39 83 47 84
REMARK SMILES IDX 40 85 42 86 48 87 41 88 43 89 44 90 45 91 46 92
REMARK H PARENT 68 45 36 56
REMARK Flexibility Score: inf
ROOT
ATOM      1  C   UNL A   1      31.933  29.786  25.116  1.00  0.00     0.202 C 
ENDROOT
BRANCH   1   2
ATOM      2  O   UNL A   1      30.737  29.393  24.427  1.00  0.00    -0.374 OA
BRANCH   2   3
ATOM      3  C   UNL A   1      30.453  28.492  23.138  1.00  0.00     0.202 C 
BRANCH   3   4
ATOM      4  C   UNL A   1      31.646  26.963  22.138  1.00  0.00     0.261 C 
BRANCH   4   5
ATOM      5  O   UNL A   1      31.524  25.435  22.339  1.00  0.00    -0.460 OA
BRANCH   5   6
ATOM      6  C   UNL A   1      32.698  24.840  22.560  1.00  0.00     0.338 C 
ATOM      7  O   UNL A   1      33.588  24.564  21.798  1.00  0.00    -0.246 OA
BRANCH   6   8
ATOM      8  C   UNL A   1      32.362  24.359  23.877  1.00  0.00     0.087 C 
ATOM      9  C   UNL A   1      31.814  22.979  23.819  1.00  0.00     0.027 C 
ATOM     10  C   UNL A   1      34.031  24.852  24.732  1.00  0.00     0.316 C 
ATOM     11  C   UNL A   1      32.733  21.514  24.369  1.00  0.00     0.019 A 
ATOM     12  O   UNL A   1      35.052  23.301  25.254  1.00  0.00    -0.474 OA
ATOM     13  C   UNL A   1      32.203  20.280  24.121  1.00  0.00     0.013 A 
ATOM     14  C   UNL A   1      34.358  21.632  24.979  1.00  0.00     0.148 A 
ATOM     15  C   UNL A   1      33.090  19.212  24.316  1.00  0.00     0.023 A 
ATOM     16  C   UNL A   1      35.193  20.543  24.951  1.00  0.00     0.102 A 
ATOM     17  C   UNL A   1      34.507  19.334  24.646  1.00  0.00     0.063 A 
ATOM     18  Cl  UNL A   1      36.891  20.712  24.876  1.00  0.00    -0.079 Cl
ATOM     19  Cl  UNL A   1      35.339  17.816  24.538  1.00  0.00    -0.083 Cl
BRANCH  10  20
ATOM     20  C   UNL A   1      33.507  26.089  25.572  1.00  0.00     0.430 C 
ATOM     21  F   UNL A   1      32.546  25.819  26.472  1.00  0.00    -0.167 F 
ATOM     22  F   UNL A   1      34.562  26.543  26.315  1.00  0.00    -0.167 F 
ATOM     23  F   UNL A   1      33.128  27.157  24.833  1.00  0.00    -0.167 F 
ENDBRANCH  10  20
ENDBRANCH   6   8
ENDBRANCH   5   6
ENDBRANCH   4   5
ENDBRANCH   3   4
ENDBRANCH   2   3
ENDBRANCH   1   2
BRANCH   1  24
ATOM     24  C   UNL A   1      31.772  30.937  26.103  1.00  0.00     0.261 C 
BRANCH  24  25
ATOM     25  O   UNL A   1      32.596  30.776  27.244  1.00  0.00    -0.460 OA
BRANCH  25  26
ATOM     26  C   UNL A   1      33.306  31.881  27.555  1.00  0.00     0.338 C 
ATOM     27  O   UNL A   1      32.938  33.042  27.511  1.00  0.00    -0.246 OA
BRANCH  26  28
ATOM     28  C   UNL A   1      34.655  31.465  27.963  1.00  0.00     0.060 A 
ATOM     29  C   UNL A   1      34.863  30.104  28.196  1.00  0.00     0.016 A 
ATOM     30  C   UNL A   1      35.699  32.395  28.100  1.00  0.00     0.016 A 
ATOM     31  C   UNL A   1      36.124  29.670  28.576  1.00  0.00     0.010 A 
ATOM     32  C   UNL A   1      36.965  31.956  28.459  1.00  0.00     0.010 A 
ATOM     33  C   UNL A   1      37.166  30.596  28.724  1.00  0.00    -0.014 A 
BRANCH  33  34
ATOM     34  C   UNL A   1      38.384  30.156  29.419  1.00  0.00     0.031 A 
ATOM     35  C   UNL A   1      38.564  30.634  30.824  1.00  0.00     0.074 A 
ATOM     36  C   UNL A   1      39.252  29.314  28.839  1.00  0.00     0.049 A 
ATOM     37  N   UNL A   1      39.456  30.279  31.705  1.00  0.00    -0.248 NA
ATOM     38  C   UNL A   1      37.606  31.648  31.302  1.00  0.00     0.031 C 
ATOM     39  C   UNL A   1      39.166  28.825  27.469  1.00  0.00     0.029 A 
ATOM     40  N   UNL A   1      40.374  28.714  29.342  1.00  0.00    -0.354 N 
ATOM     41  C   UNL A   1      39.176  31.035  32.834  1.00  0.00     0.074 A 
ATOM     42  C   UNL A   1      38.048  31.880  32.525  1.00  0.00     0.031 C 
ATOM     43  C   UNL A   1      40.169  27.958  27.247  1.00  0.00     0.029 A 
ATOM     44  C   UNL A   1      40.999  27.881  28.444  1.00  0.00     0.049 A 
ATOM     45  H   UNL A   1      40.704  28.865  30.257  1.00  0.00     0.167 HD
ATOM     46  C   UNL A   1      39.808  31.017  34.026  1.00  0.00     0.034 A 
ATOM     47  C   UNL A   1      42.123  27.156  28.585  1.00  0.00     0.034 A 
ATOM     48  C   UNL A   1      40.951  30.197  34.299  1.00  0.00     0.049 A 
ATOM     49  C   UNL A   1      42.832  27.191  29.914  1.00  0.00     0.074 A 
ATOM     50  C   UNL A   1      41.666  30.085  35.476  1.00  0.00     0.029 A 
ATOM     51  N   UNL A   1      41.571  29.378  33.368  1.00  0.00    -0.354 N 
ATOM     52  N   UNL A   1      42.493  27.817  31.018  1.00  0.00    -0.248 NA
ATOM     53  C   UNL A   1      44.062  26.398  30.029  1.00  0.00     0.031 C 
ATOM     54  C   UNL A   1      42.756  29.243  35.237  1.00  0.00     0.029 A 
ATOM     55  C   UNL A   1      42.677  28.773  33.934  1.00  0.00     0.049 A 
ATOM     56  H   UNL A   1      41.269  29.247  32.439  1.00  0.00     0.167 HD
ATOM     57  C   UNL A   1      43.439  27.454  31.969  1.00  0.00     0.074 A 
ATOM     58  C   UNL A   1      44.356  26.542  31.313  1.00  0.00     0.031 C 
ATOM     59  C   UNL A   1      43.546  27.838  33.266  1.00  0.00     0.034 A 
BRANCH  46  60
ATOM     60  C   UNL A   1      39.291  31.945  35.087  1.00  0.00     0.023 A 
ATOM     61  C   UNL A   1      38.222  31.553  35.919  1.00  0.00     0.012 A 
ATOM     62  C   UNL A   1      39.866  33.218  35.250  1.00  0.00     0.148 A 
ATOM     63  C   UNL A   1      37.707  32.431  36.871  1.00  0.00     0.002 A 
ATOM     64  C   UNL A   1      39.385  34.066  36.236  1.00  0.00     0.091 A 
ATOM     65  F   UNL A   1      40.855  33.583  34.422  1.00  0.00    -0.205 F 
ATOM     66  C   UNL A   1      38.296  33.682  37.037  1.00  0.00     0.022 A 
BRANCH  64  67
ATOM     67  S   UNL A   1      40.125  35.664  36.577  1.00  0.00     0.127 S 
ATOM     68  O   UNL A   1      39.680  36.448  35.424  1.00  0.00    -0.237 OA
ATOM     69  O   UNL A   1      39.489  36.028  37.843  1.00  0.00    -0.237 OA
ATOM     70  O   UNL A   1      41.561  35.437  36.657  1.00  0.00    -0.744 OA
ENDBRANCH  64  67
ENDBRANCH  46  60
BRANCH  47  71
ATOM     71  C   UNL A   1      42.636  26.318  27.464  1.00  0.00     0.023 A 
ATOM     72  C   UNL A   1      43.469  26.893  26.485  1.00  0.00     0.012 A 
ATOM     73  C   UNL A   1      42.281  24.959  27.350  1.00  0.00     0.148 A 
ATOM     74  C   UNL A   1      43.901  26.145  25.389  1.00  0.00     0.002 A 
ATOM     75  C   UNL A   1      42.760  24.205  26.286  1.00  0.00     0.091 A 
ATOM     76  F   UNL A   1      41.482  24.432  28.288  1.00  0.00    -0.205 F 
ATOM     77  C   UNL A   1      43.551  24.801  25.292  1.00  0.00     0.022 A 
BRANCH  75  78
ATOM     78  S   UNL A   1      42.450  22.443  26.133  1.00  0.00     0.127 S 
ATOM     79  O   UNL A   1      42.917  21.944  27.424  1.00  0.00    -0.237 OA
ATOM     80  O   UNL A   1      40.999  22.412  25.947  1.00  0.00    -0.237 OA
ATOM     81  O   UNL A   1      43.216  22.003  24.976  1.00  0.00    -0.744 OA
ENDBRANCH  75  78
ENDBRANCH  47  71
BRANCH  59  82
ATOM     82  C   UNL A   1      44.649  27.219  34.085  1.00  0.00     0.023 A 
ATOM     83  C   UNL A   1      45.936  27.792  34.104  1.00  0.00     0.012 A 
ATOM     84  C   UNL A   1      44.377  26.097  34.894  1.00  0.00     0.148 A 
ATOM     85  C   UNL A   1      46.949  27.226  34.877  1.00  0.00     0.002 A 
ATOM     86  C   UNL A   1      45.373  25.580  35.709  1.00  0.00     0.091 A 
ATOM     87  F   UNL A   1      43.150  25.561  34.852  1.00  0.00    -0.205 F 
ATOM     88  C   UNL A   1      46.664  26.129  35.688  1.00  0.00     0.022 A 
BRANCH  86  89
ATOM     89  S   UNL A   1      45.064  24.243  36.868  1.00  0.00     0.127 S 
ATOM     90  O   UNL A   1      43.984  24.799  37.681  1.00  0.00    -0.237 OA
ATOM     91  O   UNL A   1      44.662  23.152  35.982  1.00  0.00    -0.237 OA
ATOM     92  O   UNL A   1      46.322  24.020  37.570  1.00  0.00    -0.744 OA
ENDBRANCH  86  89
ENDBRANCH  59  82
ENDBRANCH  33  34
ENDBRANCH  26  28
ENDBRANCH  25  26
ENDBRANCH  24  25
ENDBRANCH   1  24
TORSDOF 18
ENDMDL
MODEL 2
REMARK VINA RESULT:     -12.5      4.856     10.206
REMARK SMILES O=C(OCCOCCOC(=O)c1ccc(-c2c3nc(c(-c4cccc(S(=O)(=O)[O-])c4F)c4ccc([nH]4)c(-c4cccc(S(=O)(=O)[O-])c4F)c4nc(c(-c5cccc(S(=O)(=O)[O-])c5F)c5ccc2[nH]5)C=C4)C=C3)cc1)C1=Cc2ccc(Cl)c(Cl)c2O[C@@H]1C(F)(F)F
REMARK SMILES IDX 7 1 6 2 5 3 4 4 3 5 2 6 1 7 75 8 76 9 86 10 77 11 85 12
REMARK SMILES IDX 78 13 84 14 79 15 82 16 80 17 83 18 81 19 87 20 88 21 89 22
REMARK SMILES IDX 90 23 8 24 9 25 10 26 11 27 12 28 13 29 74 30 14 31 73 32
REMARK SMILES IDX 15 33 16 34 17 35 67 36 18 37 72 38 66 39 68 40 19 41 71 42
REMARK SMILES IDX 65 43 64 44 20 46 52 47 32 48 51 49 33 50 36 51 50 52 69 53
REMARK SMILES IDX 34 54 35 55 49 57 70 58 37 59 21 60 22 61 30 62 23 63 25 64
REMARK SMILES IDX 31 65 24 66 26 67 27 68 28 69 29 70 53 71 54 72 62 73 55 74
REMARK SMILES IDX 57 75 63 76 56 77 58 78 59 79 60 80 61 81 38 82 39 83 47 84
REMARK SMILES IDX 40 85 42 86 48 87 41 88 43 89 44 90 45 91 46 92
REMARK H PARENT 68 45 36 56
REMARK Flexibility Score: inf
ROOT
ATOM      1  C   UNL A   1      36.080  19.988  25.001  1.00  0.00     0.202 C 
ENDROOT
BRANCH   1   2
ATOM      2  O   UNL A   1      34.717  20.371  24.763  1.00  0.00    -0.374 OA
BRANCH   2   3
ATOM      3  C   UNL A   1      33.393  20.348  25.658  1.00  0.00     0.202 C 
BRANCH   3   4
ATOM      4  C   UNL A   1      31.808  21.819  25.952  1.00  0.00     0.261 C 
BRANCH   4   5
ATOM      5  O   UNL A   1      31.377  22.909  24.943  1.00  0.00    -0.460 OA
BRANCH   5   6
ATOM      6  C   UNL A   1      31.280  24.122  25.492  1.00  0.00     0.338 C 
ATOM      7  O   UNL A   1      30.576  24.520  26.384  1.00  0.00    -0.246 OA
BRANCH   6   8
ATOM      8  C   UNL A   1      32.006  24.803  24.449  1.00  0.00     0.087 C 
ATOM      9  C   UNL A   1      31.082  25.523  23.536  1.00  0.00     0.027 C 
ATOM     10  C   UNL A   1      33.312  25.655  25.600  1.00  0.00     0.316 C 
ATOM     11  C   UNL A   1      30.903  27.330  23.516  1.00  0.00     0.019 A 
ATOM     12  O   UNL A   1      33.085  27.570  25.646  1.00  0.00    -0.474 OA
ATOM     13  C   UNL A   1      29.910  27.878  22.756  1.00  0.00     0.013 A 
ATOM     14  C   UNL A   1      31.795  28.347  24.609  1.00  0.00     0.148 A 
ATOM     15  C   UNL A   1      29.657  29.233  23.011  1.00  0.00     0.023 A 
ATOM     16  C   UNL A   1      31.341  29.605  24.916  1.00  0.00     0.102 A 
ATOM     17  C   UNL A   1      30.283  30.030  24.063  1.00  0.00     0.063 A 
ATOM     18  Cl  UNL A   1      31.724  30.364  26.397  1.00  0.00    -0.079 Cl
ATOM     19  Cl  UNL A   1      29.526  31.579  24.251  1.00  0.00    -0.083 Cl
BRANCH  10  20
ATOM     20  C   UNL A   1      34.568  24.761  25.232  1.00  0.00     0.430 C 
ATOM     21  F   UNL A   1      34.447  23.447  25.492  1.00  0.00    -0.167 F 
ATOM     22  F   UNL A   1      34.726  24.833  23.876  1.00  0.00    -0.167 F 
ATOM     23  F   UNL A   1      35.744  25.200  25.735  1.00  0.00    -0.167 F 
ENDBRANCH  10  20
ENDBRANCH   6   8
ENDBRANCH   5   6
ENDBRANCH   4   5
ENDBRANCH   3   4
ENDBRANCH   2   3
ENDBRANCH   1   2
BRANCH   1  24
ATOM     24  C   UNL A   1      37.131  21.003  24.566  1.00  0.00     0.261 C 
BRANCH  24  25
ATOM     25  O   UNL A   1      37.575  21.802  25.647  1.00  0.00    -0.460 OA
BRANCH  25  26
ATOM     26  C   UNL A   1      38.875  21.613  25.958  1.00  0.00     0.338 C 
ATOM     27  O   UNL A   1      39.555  20.623  25.752  1.00  0.00    -0.246 OA
BRANCH  26  28
ATOM     28  C   UNL A   1      39.373  22.825  26.623  1.00  0.00     0.060 A 
ATOM     29  C   UNL A   1      38.768  24.037  26.285  1.00  0.00     0.016 A 
ATOM     30  C   UNL A   1      40.407  22.768  27.572  1.00  0.00     0.016 A 
ATOM     31  C   UNL A   1      39.204  25.203  26.896  1.00  0.00     0.010 A 
ATOM     32  C   UNL A   1      40.828  23.932  28.198  1.00  0.00     0.010 A 
ATOM     33  C   UNL A   1      40.244  25.152  27.836  1.00  0.00    -0.014 A 
BRANCH  33  34
ATOM     34  C   UNL A   1      40.884  26.416  28.223  1.00  0.00     0.031 A 
ATOM     35  C   UNL A   1      42.256  26.665  27.685  1.00  0.00     0.074 A 
ATOM     36  C   UNL A   1      40.237  27.327  28.966  1.00  0.00     0.049 A 
ATOM     37  N   UNL A   1      42.977  27.749  27.743  1.00  0.00    -0.248 NA
ATOM     38  C   UNL A   1      42.903  25.540  26.985  1.00  0.00     0.031 C 
ATOM     39  C   UNL A   1      38.914  27.151  29.551  1.00  0.00     0.029 A 
ATOM     40  N   UNL A   1      40.609  28.587  29.345  1.00  0.00    -0.354 N 
ATOM     41  C   UNL A   1      44.165  27.432  27.101  1.00  0.00     0.074 A 
ATOM     42  C   UNL A   1      44.080  26.055  26.678  1.00  0.00     0.031 C 
ATOM     43  C   UNL A   1      38.557  28.284  30.181  1.00  0.00     0.029 A 
ATOM     44  C   UNL A   1      39.657  29.239  30.091  1.00  0.00     0.049 A 
ATOM     45  H   UNL A   1      41.476  28.989  29.108  1.00  0.00     0.167 HD
ATOM     46  C   UNL A   1      45.232  28.229  26.881  1.00  0.00     0.034 A 
ATOM     47  C   UNL A   1      39.690  30.465  30.644  1.00  0.00     0.034 A 
ATOM     48  C   UNL A   1      45.312  29.583  27.344  1.00  0.00     0.049 A 
ATOM     49  C   UNL A   1      40.914  31.315  30.420  1.00  0.00     0.074 A 
ATOM     50  C   UNL A   1      46.337  30.491  27.168  1.00  0.00     0.029 A 
ATOM     51  N   UNL A   1      44.341  30.210  28.110  1.00  0.00    -0.354 N 
ATOM     52  N   UNL A   1      41.986  31.052  29.708  1.00  0.00    -0.248 NA
ATOM     53  C   UNL A   1      40.922  32.641  31.049  1.00  0.00     0.031 C 
ATOM     54  C   UNL A   1      46.012  31.649  27.881  1.00  0.00     0.029 A 
ATOM     55  C   UNL A   1      44.752  31.488  28.438  1.00  0.00     0.049 A 
ATOM     56  H   UNL A   1      43.485  29.804  28.382  1.00  0.00     0.167 HD
ATOM     57  C   UNL A   1      42.772  32.198  29.764  1.00  0.00     0.074 A 
ATOM     58  C   UNL A   1      42.043  33.159  30.567  1.00  0.00     0.031 C 
ATOM     59  C   UNL A   1      43.985  32.436  29.205  1.00  0.00     0.034 A 
BRANCH  46  60
ATOM     60  C   UNL A   1      46.396  27.626  26.150  1.00  0.00     0.023 A 
ATOM     61  C   UNL A   1      46.468  27.694  24.744  1.00  0.00     0.012 A 
ATOM     62  C   UNL A   1      47.419  26.979  26.866  1.00  0.00     0.148 A 
ATOM     63  C   UNL A   1      47.523  27.092  24.058  1.00  0.00     0.002 A 
ATOM     64  C   UNL A   1      48.493  26.430  26.182  1.00  0.00     0.091 A 
ATOM     65  F   UNL A   1      47.309  26.893  28.200  1.00  0.00    -0.205 F 
ATOM     66  C   UNL A   1      48.540  26.470  24.778  1.00  0.00     0.022 A 
BRANCH  64  67
ATOM     67  S   UNL A   1      49.887  25.676  27.023  1.00  0.00     0.127 S 
ATOM     68  O   UNL A   1      50.829  25.484  25.920  1.00  0.00    -0.237 OA
ATOM     69  O   UNL A   1      50.267  26.721  27.974  1.00  0.00    -0.237 OA
ATOM     70  O   UNL A   1      49.382  24.453  27.629  1.00  0.00    -0.744 OA
ENDBRANCH  64  67
ENDBRANCH  46  60
BRANCH  47  71
ATOM     71  C   UNL A   1      38.535  30.976  31.434  1.00  0.00     0.023 A 
ATOM     72  C   UNL A   1      38.514  30.811  32.833  1.00  0.00     0.012 A 
ATOM     73  C   UNL A   1      37.444  31.606  30.803  1.00  0.00     0.148 A 
ATOM     74  C   UNL A   1      37.410  31.219  33.582  1.00  0.00     0.002 A 
ATOM     75  C   UNL A   1      36.371  32.060  31.561  1.00  0.00     0.091 A 
ATOM     76  F   UNL A   1      37.478  31.749  29.471  1.00  0.00    -0.205 F 
ATOM     77  C   UNL A   1      36.341  31.847  32.947  1.00  0.00     0.022 A 
BRANCH  75  78
ATOM     78  S   UNL A   1      35.000  32.973  30.848  1.00  0.00     0.127 S 
ATOM     79  O   UNL A   1      35.657  34.201  30.406  1.00  0.00    -0.237 OA
ATOM     80  O   UNL A   1      34.576  32.078  29.770  1.00  0.00    -0.237 OA
ATOM     81  O   UNL A   1      34.027  33.132  31.919  1.00  0.00    -0.744 OA
ENDBRANCH  75  78
ENDBRANCH  47  71
BRANCH  59  82
ATOM     82  C   UNL A   1      44.571  33.813  29.380  1.00  0.00     0.023 A 
ATOM     83  C   UNL A   1      45.350  34.122  30.513  1.00  0.00     0.012 A 
ATOM     84  C   UNL A   1      44.399  34.782  28.372  1.00  0.00     0.148 A 
ATOM     85  C   UNL A   1      45.905  35.393  30.663  1.00  0.00     0.002 A 
ATOM     86  C   UNL A   1      45.008  36.022  28.498  1.00  0.00     0.091 A 
ATOM     87  F   UNL A   1      43.644  34.471  27.309  1.00  0.00    -0.205 F 
ATOM     88  C   UNL A   1      45.745  36.336  29.650  1.00  0.00     0.022 A 
BRANCH  86  89
ATOM     89  S   UNL A   1      44.949  37.255  27.194  1.00  0.00     0.127 S 
ATOM     90  O   UNL A   1      45.600  38.396  27.835  1.00  0.00    -0.237 OA
ATOM     91  O   UNL A   1      45.732  36.621  26.133  1.00  0.00    -0.237 OA
ATOM     92  O   UNL A   1      43.539  37.439  26.875  1.00  0.00    -0.744 OA
ENDBRANCH  86  89
ENDBRANCH  59  82
ENDBRANCH  33  34
ENDBRANCH  26  28
ENDBRANCH  25  26
ENDBRANCH  24  25
ENDBRANCH   1  24
TORSDOF 18
ENDMDL
MODEL 3
REMARK VINA RESULT:     -12.5      1.782      2.404
REMARK SMILES O=C(OCCOCCOC(=O)c1ccc(-c2c3nc(c(-c4cccc(S(=O)(=O)[O-])c4F)c4ccc([nH]4)c(-c4cccc(S(=O)(=O)[O-])c4F)c4nc(c(-c5cccc(S(=O)(=O)[O-])c5F)c5ccc2[nH]5)C=C4)C=C3)cc1)C1=Cc2ccc(Cl)c(Cl)c2O[C@@H]1C(F)(F)F
REMARK SMILES IDX 7 1 6 2 5 3 4 4 3 5 2 6 1 7 75 8 76 9 86 10 77 11 85 12
REMARK SMILES IDX 78 13 84 14 79 15 82 16 80 17 83 18 81 19 87 20 88 21 89 22
REMARK SMILES IDX 90 23 8 24 9 25 10 26 11 27 12 28 13 29 74 30 14 31 73 32
REMARK SMILES IDX 15 33 16 34 17 35 67 36 18 37 72 38 66 39 68 40 19 41 71 42
REMARK SMILES IDX 65 43 64 44 20 46 52 47 32 48 51 49 33 50 36 51 50 52 69 53
REMARK SMILES IDX 34 54 35 55 49 57 70 58 37 59 21 60 22 61 30 62 23 63 25 64
REMARK SMILES IDX 31 65 24 66 26 67 27 68 28 69 29 70 53 71 54 72 62 73 55 74
REMARK SMILES IDX 57 75 63 76 56 77 58 78 59 79 60 80 61 81 38 82 39 83 47 84
REMARK SMILES IDX 40 85 42 86 48 87 41 88 43 89 44 90 45 91 46 92
REMARK H PARENT 68 45 36 56
REMARK Flexibility Score: inf
ROOT
ATOM      1  C   UNL A   1      32.773  30.097  25.740  1.00  0.00     0.202 C 
ENDROOT
BRANCH   1   2
ATOM      2  O   UNL A   1      31.722  29.573  24.915  1.00  0.00    -0.374 OA
BRANCH   2   3
ATOM      3  C   UNL A   1      31.033  28.137  24.787  1.00  0.00     0.202 C 
BRANCH   3   4
ATOM      4  C   UNL A   1      30.639  26.574  26.258  1.00  0.00     0.261 C 
BRANCH   4   5
ATOM      5  O   UNL A   1      31.702  25.785  27.057  1.00  0.00    -0.460 OA
BRANCH   5   6
ATOM      6  C   UNL A   1      31.764  24.496  26.716  1.00  0.00     0.338 C 
ATOM      7  O   UNL A   1      31.571  23.506  27.373  1.00  0.00    -0.246 OA
BRANCH   6   8
ATOM      8  C   UNL A   1      32.457  24.717  25.471  1.00  0.00     0.087 C 
ATOM      9  C   UNL A   1      33.916  24.890  25.694  1.00  0.00     0.027 C 
ATOM     10  C   UNL A   1      31.653  23.245  24.500  1.00  0.00     0.316 C 
ATOM     11  C   UNL A   1      35.150  23.632  25.258  1.00  0.00     0.019 A 
ATOM     12  O   UNL A   1      32.940  21.866  24.096  1.00  0.00    -0.474 OA
ATOM     13  C   UNL A   1      36.443  23.822  25.654  1.00  0.00     0.013 A 
ATOM     14  C   UNL A   1      34.690  22.102  24.570  1.00  0.00     0.148 A 
ATOM     15  C   UNL A   1      37.265  22.693  25.532  1.00  0.00     0.023 A 
ATOM     16  C   UNL A   1      35.520  21.014  24.674  1.00  0.00     0.102 A 
ATOM     17  C   UNL A   1      36.824  21.361  25.131  1.00  0.00     0.063 A 
ATOM     18  Cl  UNL A   1      34.917  19.416  24.658  1.00  0.00    -0.079 Cl
ATOM     19  Cl  UNL A   1      38.058  20.164  25.358  1.00  0.00    -0.083 Cl
BRANCH  10  20
ATOM     20  C   UNL A   1      30.690  24.082  23.561  1.00  0.00     0.430 C 
ATOM     21  F   UNL A   1      29.893  24.969  24.181  1.00  0.00    -0.167 F 
ATOM     22  F   UNL A   1      31.485  24.840  22.746  1.00  0.00    -0.167 F 
ATOM     23  F   UNL A   1      29.942  23.342  22.711  1.00  0.00    -0.167 F 
ENDBRANCH  10  20
ENDBRANCH   6   8
ENDBRANCH   5   6
ENDBRANCH   4   5
ENDBRANCH   3   4
ENDBRANCH   2   3
ENDBRANCH   1   2
BRANCH   1  24
ATOM     24  C   UNL A   1      32.392  31.292  26.606  1.00  0.00     0.261 C 
BRANCH  24  25
ATOM     25  O   UNL A   1      33.101  31.307  27.832  1.00  0.00    -0.460 OA
BRANCH  25  26
ATOM     26  C   UNL A   1      33.940  32.357  27.956  1.00  0.00     0.338 C 
ATOM     27  O   UNL A   1      33.684  33.539  27.805  1.00  0.00    -0.246 OA
BRANCH  26  28
ATOM     28  C   UNL A   1      35.272  31.846  28.306  1.00  0.00     0.060 A 
ATOM     29  C   UNL A   1      35.413  30.465  28.450  1.00  0.00     0.016 A 
ATOM     30  C   UNL A   1      36.367  32.710  28.475  1.00  0.00     0.016 A 
ATOM     31  C   UNL A   1      36.656  29.942  28.773  1.00  0.00     0.010 A 
ATOM     32  C   UNL A   1      37.616  32.184  28.776  1.00  0.00     0.010 A 
ATOM     33  C   UNL A   1      37.749  30.802  28.953  1.00  0.00    -0.014 A 
BRANCH  33  34
ATOM     34  C   UNL A   1      38.955  30.256  29.591  1.00  0.00     0.031 A 
ATOM     35  C   UNL A   1      39.247  30.722  30.981  1.00  0.00     0.074 A 
ATOM     36  C   UNL A   1      39.715  29.337  28.976  1.00  0.00     0.049 A 
ATOM     37  N   UNL A   1      40.147  30.291  31.819  1.00  0.00    -0.248 NA
ATOM     38  C   UNL A   1      38.410  31.820  31.497  1.00  0.00     0.031 C 
ATOM     39  C   UNL A   1      39.516  28.853  27.615  1.00  0.00     0.029 A 
ATOM     40  N   UNL A   1      40.802  28.640  29.427  1.00  0.00    -0.354 N 
ATOM     41  C   UNL A   1      39.993  31.074  32.954  1.00  0.00     0.074 A 
ATOM     42  C   UNL A   1      38.931  32.016  32.695  1.00  0.00     0.031 C 
ATOM     43  C   UNL A   1      40.424  27.898  27.351  1.00  0.00     0.029 A 
ATOM     44  C   UNL A   1      41.303  27.751  28.507  1.00  0.00     0.049 A 
ATOM     45  H   UNL A   1      41.189  28.764  30.324  1.00  0.00     0.167 HD
ATOM     46  C   UNL A   1      40.679  31.004  34.114  1.00  0.00     0.034 A 
ATOM     47  C   UNL A   1      42.363  26.927  28.598  1.00  0.00     0.034 A 
ATOM     48  C   UNL A   1      41.756  30.085  34.337  1.00  0.00     0.049 A 
ATOM     49  C   UNL A   1      43.138  26.904  29.890  1.00  0.00     0.074 A 
ATOM     50  C   UNL A   1      42.516  29.913  35.478  1.00  0.00     0.029 A 
ATOM     51  N   UNL A   1      42.253  29.209  33.383  1.00  0.00    -0.354 N 
ATOM     52  N   UNL A   1      42.912  27.562  31.004  1.00  0.00    -0.248 NA
ATOM     53  C   UNL A   1      44.296  26.004  29.950  1.00  0.00     0.031 C 
ATOM     54  C   UNL A   1      43.512  28.975  35.193  1.00  0.00     0.029 A 
ATOM     55  C   UNL A   1      43.326  28.509  33.899  1.00  0.00     0.049 A 
ATOM     56  H   UNL A   1      41.894  29.103  32.472  1.00  0.00     0.167 HD
ATOM     57  C   UNL A   1      43.868  27.119  31.910  1.00  0.00     0.074 A 
ATOM     58  C   UNL A   1      44.665  26.126  31.218  1.00  0.00     0.031 C 
ATOM     59  C   UNL A   1      44.073  27.497  33.197  1.00  0.00     0.034 A 
BRANCH  46  60
ATOM     60  C   UNL A   1      40.302  31.979  35.191  1.00  0.00     0.023 A 
ATOM     61  C   UNL A   1      41.016  33.184  35.344  1.00  0.00     0.012 A 
ATOM     62  C   UNL A   1      39.237  31.689  36.062  1.00  0.00     0.148 A 
ATOM     63  C   UNL A   1      40.700  34.069  36.374  1.00  0.00     0.002 A 
ATOM     64  C   UNL A   1      38.893  32.598  37.051  1.00  0.00     0.091 A 
ATOM     65  F   UNL A   1      38.597  30.518  35.922  1.00  0.00    -0.205 F 
ATOM     66  C   UNL A   1      39.632  33.781  37.220  1.00  0.00     0.022 A 
BRANCH  64  67
ATOM     67  S   UNL A   1      37.487  32.352  38.139  1.00  0.00     0.127 S 
ATOM     68  O   UNL A   1      37.935  33.027  39.357  1.00  0.00    -0.237 OA
ATOM     69  O   UNL A   1      36.421  33.044  37.415  1.00  0.00    -0.237 OA
ATOM     70  O   UNL A   1      37.312  30.912  38.255  1.00  0.00    -0.744 OA
ENDBRANCH  64  67
ENDBRANCH  46  60
BRANCH  47  71
ATOM     71  C   UNL A   1      42.742  26.043  27.460  1.00  0.00     0.023 A 
ATOM     72  C   UNL A   1      43.553  26.544  26.424  1.00  0.00     0.012 A 
ATOM     73  C   UNL A   1      42.281  24.713  27.388  1.00  0.00     0.148 A 
ATOM     74  C   UNL A   1      43.860  25.754  25.315  1.00  0.00     0.002 A 
ATOM     75  C   UNL A   1      42.635  23.915  26.307  1.00  0.00     0.091 A 
ATOM     76  F   UNL A   1      41.504  24.257  28.380  1.00  0.00    -0.205 F 
ATOM     77  C   UNL A   1      43.406  24.439  25.259  1.00  0.00     0.022 A 
BRANCH  75  78
ATOM     78  S   UNL A   1      42.186  22.180  26.199  1.00  0.00     0.127 S 
ATOM     79  O   UNL A   1      42.922  21.754  25.011  1.00  0.00    -0.237 OA
ATOM     80  O   UNL A   1      42.703  21.659  27.465  1.00  0.00    -0.237 OA
ATOM     81  O   UNL A   1      40.735  22.151  26.081  1.00  0.00    -0.744 OA
ENDBRANCH  75  78
ENDBRANCH  47  71
BRANCH  59  82
ATOM     82  C   UNL A   1      45.156  26.784  33.966  1.00  0.00     0.023 A 
ATOM     83  C   UNL A   1      46.485  27.251  33.933  1.00  0.00     0.012 A 
ATOM     84  C   UNL A   1      44.828  25.682  34.780  1.00  0.00     0.148 A 
ATOM     85  C   UNL A   1      47.480  26.598  34.659  1.00  0.00     0.002 A 
ATOM     86  C   UNL A   1      45.811  25.078  35.550  1.00  0.00     0.091 A 
ATOM     87  F   UNL A   1      43.560  25.246  34.787  1.00  0.00    -0.205 F 
ATOM     88  C   UNL A   1      47.141  25.522  35.477  1.00  0.00     0.022 A 
BRANCH  86  89
ATOM     89  S   UNL A   1      45.444  23.762  36.715  1.00  0.00     0.127 S 
ATOM     90  O   UNL A   1      44.575  24.446  37.671  1.00  0.00    -0.237 OA
ATOM     91  O   UNL A   1      44.767  22.780  35.868  1.00  0.00    -0.237 OA
ATOM     92  O   UNL A   1      46.728  23.321  37.243  1.00  0.00    -0.744 OA
ENDBRANCH  86  89
ENDBRANCH  59  82
ENDBRANCH  33  34
ENDBRANCH  26  28
ENDBRANCH  25  26
ENDBRANCH  24  25
ENDBRANCH   1  24
TORSDOF 18
ENDMDL
