MODEL 1
REMARK VINA RESULT:     -10.8      0.000      0.000
REMARK SMILES CCc1ccc(S(=O)(=O)Cc2noc(C(=O)OCCOCCOC(=O)c3ccc(-c4c5nc(c(-c6cccc(S(=O)(=O)[O-])c6F)c6ccc([nH]6)c(-c6cccc(S(=O)(=O)[O-])c6F)c6nc(c(-c7cccc(S(=O)(=O)[O-])c7F)c7ccc4[nH]7)C=C6)C=C5)cc3)n2)cc1
REMARK SMILES IDX 19 1 18 2 17 3 15 4 16 5 14 6 11 7 12 8 89 9 13 10 10 11
REMARK SMILES IDX 7 12 8 13 9 14 6 15 3 16 4 17 91 18 5 19 90 20 2 21 1 22
REMARK SMILES IDX 20 23 21 24 22 25 23 26 24 27 25 28 26 29 27 30 88 31 28 32
REMARK SMILES IDX 87 33 29 34 30 35 31 36 81 37 32 38 86 39 80 40 82 41 33 42
REMARK SMILES IDX 85 43 79 44 78 45 34 47 66 48 46 49 65 50 47 51 50 52 64 53
REMARK SMILES IDX 83 54 48 55 49 56 63 58 84 59 51 60 35 61 36 62 44 63 37 64
REMARK SMILES IDX 39 65 45 66 38 67 40 68 41 69 42 70 43 71 67 72 68 73 76 74
REMARK SMILES IDX 69 75 71 76 77 77 70 78 72 79 73 80 74 81 75 82 52 83 53 84
REMARK SMILES IDX 61 85 54 86 56 87 62 88 55 89 57 90 58 91 59 92 60 93
REMARK H PARENT 82 46 50 57
REMARK Flexibility Score: inf
ROOT
ATOM      1  C   UNL A   1      31.759  29.338  26.034  1.00  0.00     0.202 C 
ENDROOT
BRANCH   1   2
ATOM      2  C   UNL A   1      31.852  29.463  24.511  1.00  0.00     0.262 C 
BRANCH   2   3
ATOM      3  O   UNL A   1      30.555  29.714  23.945  1.00  0.00    -0.456 OA
BRANCH   3   4
ATOM      4  C   UNL A   1      30.262  29.010  22.812  1.00  0.00     0.397 C 
ATOM      5  O   UNL A   1      30.249  29.488  21.681  1.00  0.00    -0.240 OA
BRANCH   4   6
ATOM      6  C   UNL A   1      30.068  27.610  23.113  1.00  0.00     0.336 A 
ATOM      7  C   UNL A   1      30.106  25.520  23.388  1.00  0.00     0.187 A 
ATOM      8  N   UNL A   1      28.927  25.890  23.911  1.00  0.00    -0.061 NA
ATOM      9  N   UNL A   1      30.844  26.566  22.877  1.00  0.00    -0.185 NA
ATOM     10  O   UNL A   1      28.894  27.265  23.719  1.00  0.00    -0.327 OA
BRANCH   7  11
ATOM     11  C   UNL A   1      30.654  24.173  23.645  1.00  0.00     0.223 C 
BRANCH  11  12
ATOM     12  S   UNL A   1      31.433  23.912  25.202  1.00  0.00     0.185 S 
ATOM     13  O   UNL A   1      30.813  22.729  25.780  1.00  0.00    -0.223 OA
ATOM     14  O   UNL A   1      31.430  25.166  25.933  1.00  0.00    -0.223 OA
BRANCH  12  15
ATOM     15  C   UNL A   1      33.146  23.464  25.022  1.00  0.00     0.067 A 
ATOM     16  C   UNL A   1      35.790  22.651  24.544  1.00  0.00    -0.048 A 
ATOM     17  C   UNL A   1      34.926  22.903  23.472  1.00  0.00     0.005 A 
ATOM     18  C   UNL A   1      35.329  22.862  25.852  1.00  0.00     0.005 A 
ATOM     19  C   UNL A   1      33.609  23.298  23.709  1.00  0.00     0.020 A 
ATOM     20  C   UNL A   1      34.015  23.286  26.093  1.00  0.00     0.020 A 
BRANCH  16  21
ATOM     21  C   UNL A   1      37.197  22.172  24.291  1.00  0.00     0.032 C 
ATOM     22  C   UNL A   1      37.458  20.802  24.893  1.00  0.00     0.009 C 
ENDBRANCH  16  21
ENDBRANCH  12  15
ENDBRANCH  11  12
ENDBRANCH   7  11
ENDBRANCH   4   6
ENDBRANCH   3   4
ENDBRANCH   2   3
ENDBRANCH   1   2
BRANCH   1  23
ATOM     23  O   UNL A   1      32.107  30.530  26.741  1.00  0.00    -0.374 OA
BRANCH  23  24
ATOM     24  C   UNL A   1      31.291  31.678  26.482  1.00  0.00     0.202 C 
BRANCH  24  25
ATOM     25  C   UNL A   1      31.780  32.987  27.111  1.00  0.00     0.261 C 
BRANCH  25  26
ATOM     26  O   UNL A   1      33.200  33.135  26.935  1.00  0.00    -0.460 OA
BRANCH  26  27
ATOM     27  C   UNL A   1      33.856  33.719  27.965  1.00  0.00     0.338 C 
ATOM     28  O   UNL A   1      33.476  34.666  28.634  1.00  0.00    -0.246 OA
BRANCH  27  29
ATOM     29  C   UNL A   1      35.047  32.914  28.314  1.00  0.00     0.060 A 
ATOM     30  C   UNL A   1      34.835  31.584  28.702  1.00  0.00     0.016 A 
ATOM     31  C   UNL A   1      36.337  33.450  28.298  1.00  0.00     0.016 A 
ATOM     32  C   UNL A   1      35.906  30.802  29.133  1.00  0.00     0.010 A 
ATOM     33  C   UNL A   1      37.408  32.667  28.737  1.00  0.00     0.010 A 
ATOM     34  C   UNL A   1      37.190  31.355  29.195  1.00  0.00    -0.014 A 
BRANCH  34  35
ATOM     35  C   UNL A   1      38.278  30.632  29.892  1.00  0.00     0.031 A 
ATOM     36  C   UNL A   1      38.593  31.008  31.314  1.00  0.00     0.074 A 
ATOM     37  C   UNL A   1      38.992  29.679  29.266  1.00  0.00     0.049 A 
ATOM     38  N   UNL A   1      39.551  30.578  32.093  1.00  0.00    -0.248 NA
ATOM     39  C   UNL A   1      37.712  32.009  31.940  1.00  0.00     0.031 C 
ATOM     40  C   UNL A   1      38.773  29.223  27.895  1.00  0.00     0.029 A 
ATOM     41  N   UNL A   1      40.070  28.948  29.698  1.00  0.00    -0.354 N 
ATOM     42  C   UNL A   1      39.411  31.280  33.284  1.00  0.00     0.074 A 
ATOM     43  C   UNL A   1      38.279  32.166  33.127  1.00  0.00     0.031 C 
ATOM     44  C   UNL A   1      39.714  28.314  27.584  1.00  0.00     0.029 A 
ATOM     45  C   UNL A   1      40.614  28.144  28.724  1.00  0.00     0.049 A 
ATOM     46  H   UNL A   1      40.420  28.993  30.618  1.00  0.00     0.167 HD
ATOM     47  C   UNL A   1      40.151  31.187  34.413  1.00  0.00     0.034 A 
ATOM     48  C   UNL A   1      41.726  27.382  28.744  1.00  0.00     0.034 A 
ATOM     49  C   UNL A   1      41.261  30.289  34.576  1.00  0.00     0.049 A 
ATOM     50  C   UNL A   1      42.543  27.308  30.009  1.00  0.00     0.074 A 
ATOM     51  C   UNL A   1      42.051  30.091  35.693  1.00  0.00     0.029 A 
ATOM     52  N   UNL A   1      41.742  29.443  33.589  1.00  0.00    -0.354 N 
ATOM     53  N   UNL A   1      42.333  27.892  31.165  1.00  0.00    -0.248 NA
ATOM     54  C   UNL A   1      43.735  26.445  29.984  1.00  0.00     0.031 C 
ATOM     55  C   UNL A   1      43.020  29.133  35.377  1.00  0.00     0.029 A 
ATOM     56  C   UNL A   1      42.821  28.722  34.069  1.00  0.00     0.049 A 
ATOM     57  H   UNL A   1      41.371  29.367  32.680  1.00  0.00     0.167 HD
ATOM     58  C   UNL A   1      43.336  27.435  32.013  1.00  0.00     0.074 A 
ATOM     59  C   UNL A   1      44.149  26.517  31.242  1.00  0.00     0.031 C 
ATOM     60  C   UNL A   1      43.573  27.758  33.309  1.00  0.00     0.034 A 
BRANCH  47  61
ATOM     61  C   UNL A   1      39.763  32.061  35.576  1.00  0.00     0.023 A 
ATOM     62  C   UNL A   1      40.316  33.353  35.685  1.00  0.00     0.012 A 
ATOM     63  C   UNL A   1      38.822  31.627  36.527  1.00  0.00     0.148 A 
ATOM     64  C   UNL A   1      39.958  34.190  36.741  1.00  0.00     0.002 A 
ATOM     65  C   UNL A   1      38.439  32.482  37.555  1.00  0.00     0.091 A 
ATOM     66  F   UNL A   1      38.328  30.384  36.420  1.00  0.00    -0.205 F 
ATOM     67  C   UNL A   1      39.013  33.759  37.669  1.00  0.00     0.022 A 
BRANCH  65  68
ATOM     68  S   UNL A   1      37.177  32.042  38.755  1.00  0.00     0.127 S 
ATOM     69  O   UNL A   1      37.794  32.481  40.006  1.00  0.00    -0.237 OA
ATOM     70  O   UNL A   1      36.040  32.854  38.320  1.00  0.00    -0.237 OA
ATOM     71  O   UNL A   1      36.981  30.606  38.621  1.00  0.00    -0.744 OA
ENDBRANCH  65  68
ENDBRANCH  47  61
BRANCH  48  72
ATOM     72  C   UNL A   1      42.111  26.595  27.539  1.00  0.00     0.023 A 
ATOM     73  C   UNL A   1      42.737  27.246  26.459  1.00  0.00     0.012 A 
ATOM     74  C   UNL A   1      41.881  25.207  27.464  1.00  0.00     0.148 A 
ATOM     75  C   UNL A   1      43.102  26.536  25.314  1.00  0.00     0.002 A 
ATOM     76  C   UNL A   1      42.294  24.496  26.343  1.00  0.00     0.091 A 
ATOM     77  F   UNL A   1      41.265  24.608  28.494  1.00  0.00    -0.205 F 
ATOM     78  C   UNL A   1      42.891  25.161  25.261  1.00  0.00     0.022 A 
BRANCH  76  79
ATOM     79  S   UNL A   1      42.177  22.706  26.241  1.00  0.00     0.127 S 
ATOM     80  O   UNL A   1      42.732  22.297  27.529  1.00  0.00    -0.237 OA
ATOM     81  O   UNL A   1      40.735  22.504  26.098  1.00  0.00    -0.237 OA
ATOM     82  O   UNL A   1      42.952  22.330  25.067  1.00  0.00    -0.744 OA
ENDBRANCH  76  79
ENDBRANCH  48  72
BRANCH  60  83
ATOM     83  C   UNL A   1      44.725  27.081  34.005  1.00  0.00     0.023 A 
ATOM     84  C   UNL A   1      45.956  27.751  34.135  1.00  0.00     0.012 A 
ATOM     85  C   UNL A   1      44.552  25.825  34.619  1.00  0.00     0.148 A 
ATOM     86  C   UNL A   1      47.006  27.171  34.846  1.00  0.00     0.002 A 
ATOM     87  C   UNL A   1      45.587  25.273  35.363  1.00  0.00     0.091 A 
ATOM     88  F   UNL A   1      43.377  25.195  34.468  1.00  0.00    -0.205 F 
ATOM     89  C   UNL A   1      46.818  25.939  35.470  1.00  0.00     0.022 A 
BRANCH  87  90
ATOM     90  S   UNL A   1      45.399  23.738  36.279  1.00  0.00     0.127 S 
ATOM     91  O   UNL A   1      44.335  24.081  37.221  1.00  0.00    -0.237 OA
ATOM     92  O   UNL A   1      45.004  22.795  35.232  1.00  0.00    -0.237 OA
ATOM     93  O   UNL A   1      46.700  23.465  36.875  1.00  0.00    -0.744 OA
ENDBRANCH  87  90
ENDBRANCH  60  83
ENDBRANCH  34  35
ENDBRANCH  27  29
ENDBRANCH  26  27
ENDBRANCH  25  26
ENDBRANCH  24  25
ENDBRANCH  23  24
ENDBRANCH   1  23
TORSDOF 21
ENDMDL
MODEL 2
REMARK VINA RESULT:     -10.8      1.867      2.177
REMARK SMILES CCc1ccc(S(=O)(=O)Cc2noc(C(=O)OCCOCCOC(=O)c3ccc(-c4c5nc(c(-c6cccc(S(=O)(=O)[O-])c6F)c6ccc([nH]6)c(-c6cccc(S(=O)(=O)[O-])c6F)c6nc(c(-c7cccc(S(=O)(=O)[O-])c7F)c7ccc4[nH]7)C=C6)C=C5)cc3)n2)cc1
REMARK SMILES IDX 19 1 18 2 17 3 15 4 16 5 14 6 11 7 12 8 89 9 13 10 10 11
REMARK SMILES IDX 7 12 8 13 9 14 6 15 3 16 4 17 91 18 5 19 90 20 2 21 1 22
REMARK SMILES IDX 20 23 21 24 22 25 23 26 24 27 25 28 26 29 27 30 88 31 28 32
REMARK SMILES IDX 87 33 29 34 30 35 31 36 81 37 32 38 86 39 80 40 82 41 33 42
REMARK SMILES IDX 85 43 79 44 78 45 34 47 66 48 46 49 65 50 47 51 50 52 64 53
REMARK SMILES IDX 83 54 48 55 49 56 63 58 84 59 51 60 35 61 36 62 44 63 37 64
REMARK SMILES IDX 39 65 45 66 38 67 40 68 41 69 42 70 43 71 67 72 68 73 76 74
REMARK SMILES IDX 69 75 71 76 77 77 70 78 72 79 73 80 74 81 75 82 52 83 53 84
REMARK SMILES IDX 61 85 54 86 56 87 62 88 55 89 57 90 58 91 59 92 60 93
REMARK H PARENT 82 46 50 57
REMARK Flexibility Score: inf
ROOT
ATOM      1  C   UNL A   1      31.753  29.078  26.155  1.00  0.00     0.202 C 
ENDROOT
BRANCH   1   2
ATOM      2  C   UNL A   1      31.491  29.188  24.650  1.00  0.00     0.262 C 
BRANCH   2   3
ATOM      3  O   UNL A   1      30.535  28.199  24.230  1.00  0.00    -0.456 OA
BRANCH   3   4
ATOM      4  C   UNL A   1      30.692  27.736  22.955  1.00  0.00     0.397 C 
ATOM      5  O   UNL A   1      30.293  28.320  21.951  1.00  0.00    -0.240 OA
BRANCH   4   6
ATOM      6  C   UNL A   1      31.475  26.522  22.941  1.00  0.00     0.336 A 
ATOM      7  C   UNL A   1      32.903  24.971  22.957  1.00  0.00     0.187 A 
ATOM      8  N   UNL A   1      31.738  24.332  22.775  1.00  0.00    -0.061 NA
ATOM      9  N   UNL A   1      32.778  26.340  23.061  1.00  0.00    -0.185 NA
ATOM     10  O   UNL A   1      30.797  25.352  22.751  1.00  0.00    -0.327 OA
BRANCH   7  11
ATOM     11  C   UNL A   1      34.123  24.224  23.324  1.00  0.00     0.223 C 
BRANCH  11  12
ATOM     12  S   UNL A   1      34.081  23.320  24.833  1.00  0.00     0.185 S 
ATOM     13  O   UNL A   1      32.927  23.806  25.574  1.00  0.00    -0.223 OA
ATOM     14  O   UNL A   1      35.403  23.365  25.433  1.00  0.00    -0.223 OA
BRANCH  12  15
ATOM     15  C   UNL A   1      33.733  21.595  24.565  1.00  0.00     0.067 A 
ATOM     16  C   UNL A   1      33.406  18.844  24.109  1.00  0.00    -0.048 A 
ATOM     17  C   UNL A   1      34.587  19.327  24.685  1.00  0.00     0.005 A 
ATOM     18  C   UNL A   1      32.376  19.748  23.814  1.00  0.00     0.005 A 
ATOM     19  C   UNL A   1      34.754  20.696  24.903  1.00  0.00     0.020 A 
ATOM     20  C   UNL A   1      32.528  21.120  24.059  1.00  0.00     0.020 A 
BRANCH  16  21
ATOM     21  C   UNL A   1      33.247  17.373  23.823  1.00  0.00     0.032 C 
ATOM     22  C   UNL A   1      34.413  16.552  24.348  1.00  0.00     0.009 C 
ENDBRANCH  16  21
ENDBRANCH  12  15
ENDBRANCH  11  12
ENDBRANCH   7  11
ENDBRANCH   4   6
ENDBRANCH   3   4
ENDBRANCH   2   3
ENDBRANCH   1   2
BRANCH   1  23
ATOM     23  O   UNL A   1      31.976  30.331  26.804  1.00  0.00    -0.374 OA
BRANCH  23  24
ATOM     24  C   UNL A   1      31.185  31.431  26.339  1.00  0.00     0.202 C 
BRANCH  24  25
ATOM     25  C   UNL A   1      31.616  32.811  26.847  1.00  0.00     0.261 C 
BRANCH  25  26
ATOM     26  O   UNL A   1      33.042  32.966  26.746  1.00  0.00    -0.460 OA
BRANCH  26  27
ATOM     27  C   UNL A   1      33.638  33.573  27.800  1.00  0.00     0.338 C 
ATOM     28  O   UNL A   1      33.191  34.494  28.464  1.00  0.00    -0.246 OA
BRANCH  27  29
ATOM     29  C   UNL A   1      34.857  32.826  28.177  1.00  0.00     0.060 A 
ATOM     30  C   UNL A   1      34.716  31.459  28.452  1.00  0.00     0.016 A 
ATOM     31  C   UNL A   1      36.102  33.448  28.296  1.00  0.00     0.016 A 
ATOM     32  C   UNL A   1      35.809  30.720  28.905  1.00  0.00     0.010 A 
ATOM     33  C   UNL A   1      37.194  32.707  28.757  1.00  0.00     0.010 A 
ATOM     34  C   UNL A   1      37.042  31.352  29.101  1.00  0.00    -0.014 A 
BRANCH  34  35
ATOM     35  C   UNL A   1      38.129  30.652  29.824  1.00  0.00     0.031 A 
ATOM     36  C   UNL A   1      38.401  31.034  31.253  1.00  0.00     0.074 A 
ATOM     37  C   UNL A   1      38.878  29.716  29.215  1.00  0.00     0.049 A 
ATOM     38  N   UNL A   1      39.349  30.625  32.054  1.00  0.00    -0.248 NA
ATOM     39  C   UNL A   1      37.483  32.014  31.858  1.00  0.00     0.031 C 
ATOM     40  C   UNL A   1      38.702  29.257  27.839  1.00  0.00     0.029 A 
ATOM     41  N   UNL A   1      39.962  29.009  29.672  1.00  0.00    -0.354 N 
ATOM     42  C   UNL A   1      39.165  31.322  33.243  1.00  0.00     0.074 A 
ATOM     43  C   UNL A   1      38.018  32.182  33.059  1.00  0.00     0.031 C 
ATOM     44  C   UNL A   1      39.671  28.370  27.549  1.00  0.00     0.029 A 
ATOM     45  C   UNL A   1      40.547  28.219  28.710  1.00  0.00     0.049 A 
ATOM     46  H   UNL A   1      40.289  29.062  30.600  1.00  0.00     0.167 HD
ATOM     47  C   UNL A   1      39.880  31.244  34.389  1.00  0.00     0.034 A 
ATOM     48  C   UNL A   1      41.675  27.482  28.757  1.00  0.00     0.034 A 
ATOM     49  C   UNL A   1      41.005  30.371  34.577  1.00  0.00     0.049 A 
ATOM     50  C   UNL A   1      42.463  27.425  30.041  1.00  0.00     0.074 A 
ATOM     51  C   UNL A   1      41.773  30.189  35.714  1.00  0.00     0.029 A 
ATOM     52  N   UNL A   1      41.529  29.537  33.602  1.00  0.00    -0.354 N 
ATOM     53  N   UNL A   1      42.213  28.003  31.192  1.00  0.00    -0.248 NA
ATOM     54  C   UNL A   1      43.674  26.589  30.044  1.00  0.00     0.031 C 
ATOM     55  C   UNL A   1      42.771  29.254  35.419  1.00  0.00     0.029 A 
ATOM     56  C   UNL A   1      42.612  28.840  34.107  1.00  0.00     0.049 A 
ATOM     57  H   UNL A   1      41.182  29.454  32.684  1.00  0.00     0.167 HD
ATOM     58  C   UNL A   1      43.205  27.567  32.064  1.00  0.00     0.074 A 
ATOM     59  C   UNL A   1      44.056  26.669  31.311  1.00  0.00     0.031 C 
ATOM     60  C   UNL A   1      43.403  27.893  33.365  1.00  0.00     0.034 A 
BRANCH  47  61
ATOM     61  C   UNL A   1      39.445  32.107  35.542  1.00  0.00     0.023 A 
ATOM     62  C   UNL A   1      38.513  31.603  36.472  1.00  0.00     0.012 A 
ATOM     63  C   UNL A   1      39.989  33.391  35.733  1.00  0.00     0.148 A 
ATOM     64  C   UNL A   1      38.107  32.376  37.560  1.00  0.00     0.002 A 
ATOM     65  C   UNL A   1      39.611  34.140  36.842  1.00  0.00     0.091 A 
ATOM     66  F   UNL A   1      40.854  33.862  34.823  1.00  0.00    -0.205 F 
ATOM     67  C   UNL A   1      38.664  33.638  37.750  1.00  0.00     0.022 A 
BRANCH  65  68
ATOM     68  S   UNL A   1      40.326  35.746  37.211  1.00  0.00     0.127 S 
ATOM     69  O   UNL A   1      41.734  35.523  36.885  1.00  0.00    -0.237 OA
ATOM     70  O   UNL A   1      39.617  36.623  36.277  1.00  0.00    -0.237 OA
ATOM     71  O   UNL A   1      40.038  36.000  38.615  1.00  0.00    -0.744 OA
ENDBRANCH  65  68
ENDBRANCH  47  61
BRANCH  48  72
ATOM     72  C   UNL A   1      42.106  26.705  27.561  1.00  0.00     0.023 A 
ATOM     73  C   UNL A   1      42.778  27.364  26.514  1.00  0.00     0.012 A 
ATOM     74  C   UNL A   1      41.875  25.319  27.463  1.00  0.00     0.148 A 
ATOM     75  C   UNL A   1      43.187  26.664  25.378  1.00  0.00     0.002 A 
ATOM     76  C   UNL A   1      42.331  24.618  26.352  1.00  0.00     0.091 A 
ATOM     77  F   UNL A   1      41.216  24.712  28.461  1.00  0.00    -0.205 F 
ATOM     78  C   UNL A   1      42.974  25.290  25.302  1.00  0.00     0.022 A 
BRANCH  76  79
ATOM     79  S   UNL A   1      42.213  22.829  26.229  1.00  0.00     0.127 S 
ATOM     80  O   UNL A   1      40.776  22.613  26.380  1.00  0.00    -0.237 OA
ATOM     81  O   UNL A   1      42.735  22.583  24.884  1.00  0.00    -0.237 OA
ATOM     82  O   UNL A   1      43.051  22.307  27.300  1.00  0.00    -0.744 OA
ENDBRANCH  76  79
ENDBRANCH  48  72
BRANCH  60  83
ATOM     83  C   UNL A   1      44.553  27.242  34.088  1.00  0.00     0.023 A 
ATOM     84  C   UNL A   1      45.832  27.829  34.042  1.00  0.00     0.012 A 
ATOM     85  C   UNL A   1      44.340  26.107  34.895  1.00  0.00     0.148 A 
ATOM     86  C   UNL A   1      46.887  27.282  34.771  1.00  0.00     0.002 A 
ATOM     87  C   UNL A   1      45.385  25.594  35.654  1.00  0.00     0.091 A 
ATOM     88  F   UNL A   1      43.118  25.553  34.911  1.00  0.00    -0.205 F 
ATOM     89  C   UNL A   1      46.662  26.174  35.586  1.00  0.00     0.022 A 
BRANCH  87  90
ATOM     90  S   UNL A   1      45.159  24.230  36.802  1.00  0.00     0.127 S 
ATOM     91  O   UNL A   1      44.161  24.776  37.720  1.00  0.00    -0.237 OA
ATOM     92  O   UNL A   1      44.666  23.165  35.929  1.00  0.00    -0.237 OA
ATOM     93  O   UNL A   1      46.471  23.974  37.382  1.00  0.00    -0.744 OA
ENDBRANCH  87  90
ENDBRANCH  60  83
ENDBRANCH  34  35
ENDBRANCH  27  29
ENDBRANCH  26  27
ENDBRANCH  25  26
ENDBRANCH  24  25
ENDBRANCH  23  24
ENDBRANCH   1  23
TORSDOF 21
ENDMDL
MODEL 3
REMARK VINA RESULT:     -10.6      2.343      7.979
REMARK SMILES CCc1ccc(S(=O)(=O)Cc2noc(C(=O)OCCOCCOC(=O)c3ccc(-c4c5nc(c(-c6cccc(S(=O)(=O)[O-])c6F)c6ccc([nH]6)c(-c6cccc(S(=O)(=O)[O-])c6F)c6nc(c(-c7cccc(S(=O)(=O)[O-])c7F)c7ccc4[nH]7)C=C6)C=C5)cc3)n2)cc1
REMARK SMILES IDX 19 1 18 2 17 3 15 4 16 5 14 6 11 7 12 8 89 9 13 10 10 11
REMARK SMILES IDX 7 12 8 13 9 14 6 15 3 16 4 17 91 18 5 19 90 20 2 21 1 22
REMARK SMILES IDX 20 23 21 24 22 25 23 26 24 27 25 28 26 29 27 30 88 31 28 32
REMARK SMILES IDX 87 33 29 34 30 35 31 36 81 37 32 38 86 39 80 40 82 41 33 42
REMARK SMILES IDX 85 43 79 44 78 45 34 47 66 48 46 49 65 50 47 51 50 52 64 53
REMARK SMILES IDX 83 54 48 55 49 56 63 58 84 59 51 60 35 61 36 62 44 63 37 64
REMARK SMILES IDX 39 65 45 66 38 67 40 68 41 69 42 70 43 71 67 72 68 73 76 74
REMARK SMILES IDX 69 75 71 76 77 77 70 78 72 79 73 80 74 81 75 82 52 83 53 84
REMARK SMILES IDX 61 85 54 86 56 87 62 88 55 89 57 90 58 91 59 92 60 93
REMARK H PARENT 82 46 50 57
REMARK Flexibility Score: inf
ROOT
ATOM      1  C   UNL A   1      32.144  29.248  26.144  1.00  0.00     0.202 C 
ENDROOT
BRANCH   1   2
ATOM      2  C   UNL A   1      31.815  29.437  24.660  1.00  0.00     0.262 C 
BRANCH   2   3
ATOM      3  O   UNL A   1      30.589  28.763  24.326  1.00  0.00    -0.456 OA
BRANCH   3   4
ATOM      4  C   UNL A   1      30.496  28.321  23.037  1.00  0.00     0.397 C 
ATOM      5  O   UNL A   1      30.166  29.022  22.084  1.00  0.00    -0.240 OA
BRANCH   4   6
ATOM      6  C   UNL A   1      30.934  26.948  22.931  1.00  0.00     0.336 A 
ATOM      7  C   UNL A   1      31.870  25.084  22.625  1.00  0.00     0.187 A 
ATOM      8  N   UNL A   1      30.683  24.762  23.160  1.00  0.00    -0.061 NA
ATOM      9  N   UNL A   1      32.061  26.440  22.465  1.00  0.00    -0.185 NA
ATOM     10  O   UNL A   1      30.058  25.987  23.350  1.00  0.00    -0.327 OA
BRANCH   7  11
ATOM     11  C   UNL A   1      32.953  24.084  22.535  1.00  0.00     0.223 C 
BRANCH  11  12
ATOM     12  S   UNL A   1      33.706  23.584  24.046  1.00  0.00     0.185 S 
ATOM     13  O   UNL A   1      32.800  23.988  25.111  1.00  0.00    -0.223 OA
ATOM     14  O   UNL A   1      35.082  24.045  24.048  1.00  0.00    -0.223 OA
BRANCH  12  15
ATOM     15  C   UNL A   1      33.791  21.813  24.193  1.00  0.00     0.067 A 
ATOM     16  C   UNL A   1      33.698  19.019  24.447  1.00  0.00    -0.048 A 
ATOM     17  C   UNL A   1      32.627  19.709  23.868  1.00  0.00     0.005 A 
ATOM     18  C   UNL A   1      34.833  19.739  24.847  1.00  0.00     0.005 A 
ATOM     19  C   UNL A   1      32.668  21.099  23.751  1.00  0.00     0.020 A 
ATOM     20  C   UNL A   1      34.890  21.132  24.704  1.00  0.00     0.020 A 
BRANCH  16  21
ATOM     21  C   UNL A   1      33.632  17.523  24.624  1.00  0.00     0.032 C 
ATOM     22  C   UNL A   1      32.648  17.112  25.707  1.00  0.00     0.009 C 
ENDBRANCH  16  21
ENDBRANCH  12  15
ENDBRANCH  11  12
ENDBRANCH   7  11
ENDBRANCH   4   6
ENDBRANCH   3   4
ENDBRANCH   2   3
ENDBRANCH   1   2
BRANCH   1  23
ATOM     23  O   UNL A   1      32.150  30.460  26.901  1.00  0.00    -0.374 OA
BRANCH  23  24
ATOM     24  C   UNL A   1      31.395  31.548  26.355  1.00  0.00     0.202 C 
BRANCH  24  25
ATOM     25  C   UNL A   1      31.807  32.941  26.840  1.00  0.00     0.261 C 
BRANCH  25  26
ATOM     26  O   UNL A   1      33.002  32.869  27.637  1.00  0.00    -0.460 OA
BRANCH  26  27
ATOM     27  C   UNL A   1      33.283  33.975  28.366  1.00  0.00     0.338 C 
ATOM     28  O   UNL A   1      32.654  35.020  28.385  1.00  0.00    -0.246 OA
BRANCH  27  29
ATOM     29  C   UNL A   1      34.378  33.677  29.315  1.00  0.00     0.060 A 
ATOM     30  C   UNL A   1      35.642  34.211  29.029  1.00  0.00     0.016 A 
ATOM     31  C   UNL A   1      34.188  32.868  30.438  1.00  0.00     0.016 A 
ATOM     32  C   UNL A   1      36.735  33.890  29.833  1.00  0.00     0.010 A 
ATOM     33  C   UNL A   1      35.287  32.540  31.237  1.00  0.00     0.010 A 
ATOM     34  C   UNL A   1      36.570  33.017  30.914  1.00  0.00    -0.014 A 
BRANCH  34  35
ATOM     35  C   UNL A   1      37.755  32.462  31.608  1.00  0.00     0.031 A 
ATOM     36  C   UNL A   1      38.497  31.324  30.963  1.00  0.00     0.074 A 
ATOM     37  C   UNL A   1      38.148  32.940  32.803  1.00  0.00     0.049 A 
ATOM     38  N   UNL A   1      39.502  30.624  31.420  1.00  0.00    -0.248 NA
ATOM     39  C   UNL A   1      38.039  30.917  29.623  1.00  0.00     0.031 C 
ATOM     40  C   UNL A   1      37.514  34.044  33.520  1.00  0.00     0.029 A 
ATOM     41  N   UNL A   1      39.158  32.529  33.636  1.00  0.00    -0.354 N 
ATOM     42  C   UNL A   1      39.773  29.672  30.443  1.00  0.00     0.074 A 
ATOM     43  C   UNL A   1      38.826  29.882  29.370  1.00  0.00     0.031 C 
ATOM     44  C   UNL A   1      38.128  34.200  34.707  1.00  0.00     0.029 A 
ATOM     45  C   UNL A   1      39.178  33.191  34.841  1.00  0.00     0.049 A 
ATOM     46  H   UNL A   1      39.806  31.828  33.394  1.00  0.00     0.167 HD
ATOM     47  C   UNL A   1      40.732  28.718  30.435  1.00  0.00     0.034 A 
ATOM     48  C   UNL A   1      39.939  32.986  35.935  1.00  0.00     0.034 A 
ATOM     49  C   UNL A   1      41.686  28.527  31.492  1.00  0.00     0.049 A 
ATOM     50  C   UNL A   1      40.990  31.905  35.906  1.00  0.00     0.074 A 
ATOM     51  C   UNL A   1      42.722  27.613  31.562  1.00  0.00     0.029 A 
ATOM     52  N   UNL A   1      41.717  29.260  32.668  1.00  0.00    -0.354 N 
ATOM     53  N   UNL A   1      41.310  31.087  34.932  1.00  0.00    -0.248 NA
ATOM     54  C   UNL A   1      41.808  31.738  37.118  1.00  0.00     0.031 C 
ATOM     55  C   UNL A   1      43.372  27.785  32.788  1.00  0.00     0.029 A 
ATOM     56  C   UNL A   1      42.752  28.818  33.472  1.00  0.00     0.049 A 
ATOM     57  H   UNL A   1      41.095  29.987  32.897  1.00  0.00     0.167 HD
ATOM     58  C   UNL A   1      42.389  30.342  35.395  1.00  0.00     0.074 A 
ATOM     59  C   UNL A   1      42.676  30.812  36.734  1.00  0.00     0.031 C 
ATOM     60  C   UNL A   1      43.070  29.348  34.773  1.00  0.00     0.034 A 
BRANCH  47  61
ATOM     61  C   UNL A   1      40.815  27.824  29.227  1.00  0.00     0.023 A 
ATOM     62  C   UNL A   1      40.031  26.654  29.176  1.00  0.00     0.012 A 
ATOM     63  C   UNL A   1      41.627  28.162  28.128  1.00  0.00     0.148 A 
ATOM     64  C   UNL A   1      40.074  25.818  28.061  1.00  0.00     0.002 A 
ATOM     65  C   UNL A   1      41.635  27.345  27.003  1.00  0.00     0.091 A 
ATOM     66  F   UNL A   1      42.386  29.265  28.208  1.00  0.00    -0.205 F 
ATOM     67  C   UNL A   1      40.867  26.169  26.971  1.00  0.00     0.022 A 
BRANCH  65  68
ATOM     68  S   UNL A   1      42.569  27.752  25.524  1.00  0.00     0.127 S 
ATOM     69  O   UNL A   1      43.925  27.877  26.056  1.00  0.00    -0.237 OA
ATOM     70  O   UNL A   1      42.351  26.572  24.685  1.00  0.00    -0.237 OA
ATOM     71  O   UNL A   1      41.982  28.979  25.005  1.00  0.00    -0.744 OA
ENDBRANCH  65  68
ENDBRANCH  47  61
BRANCH  48  72
ATOM     72  C   UNL A   1      39.765  33.850  37.136  1.00  0.00     0.023 A 
ATOM     73  C   UNL A   1      40.282  35.160  37.126  1.00  0.00     0.012 A 
ATOM     74  C   UNL A   1      39.076  33.392  38.277  1.00  0.00     0.148 A 
ATOM     75  C   UNL A   1      40.141  35.989  38.240  1.00  0.00     0.002 A 
ATOM     76  C   UNL A   1      38.894  34.241  39.363  1.00  0.00     0.091 A 
ATOM     77  F   UNL A   1      38.609  32.135  38.276  1.00  0.00    -0.205 F 
ATOM     78  C   UNL A   1      39.439  35.534  39.353  1.00  0.00     0.022 A 
BRANCH  76  79
ATOM     79  S   UNL A   1      37.895  33.784  40.784  1.00  0.00     0.127 S 
ATOM     80  O   UNL A   1      37.842  35.039  41.529  1.00  0.00    -0.237 OA
ATOM     81  O   UNL A   1      36.635  33.387  40.155  1.00  0.00    -0.237 OA
ATOM     82  O   UNL A   1      38.611  32.691  41.430  1.00  0.00    -0.744 OA
ENDBRANCH  76  79
ENDBRANCH  48  72
BRANCH  60  83
ATOM     83  C   UNL A   1      44.232  28.726  35.503  1.00  0.00     0.023 A 
ATOM     84  C   UNL A   1      45.531  29.238  35.320  1.00  0.00     0.012 A 
ATOM     85  C   UNL A   1      44.018  27.702  36.447  1.00  0.00     0.148 A 
ATOM     86  C   UNL A   1      46.603  28.725  36.048  1.00  0.00     0.002 A 
ATOM     87  C   UNL A   1      45.084  27.227  37.202  1.00  0.00     0.091 A 
ATOM     88  F   UNL A   1      42.776  27.216  36.594  1.00  0.00    -0.205 F 
ATOM     89  C   UNL A   1      46.378  27.729  36.998  1.00  0.00     0.022 A 
BRANCH  87  90
ATOM     90  S   UNL A   1      44.867  26.015  38.513  1.00  0.00     0.127 S 
ATOM     91  O   UNL A   1      44.294  24.886  37.783  1.00  0.00    -0.237 OA
ATOM     92  O   UNL A   1      46.239  25.809  38.978  1.00  0.00    -0.237 OA
ATOM     93  O   UNL A   1      43.988  26.640  39.493  1.00  0.00    -0.744 OA
ENDBRANCH  87  90
ENDBRANCH  60  83
ENDBRANCH  34  35
ENDBRANCH  27  29
ENDBRANCH  26  27
ENDBRANCH  25  26
ENDBRANCH  24  25
ENDBRANCH  23  24
ENDBRANCH   1  23
TORSDOF 21
ENDMDL
