MODEL 1
REMARK VINA RESULT:     -10.1      0.000      0.000
REMARK SMILES CC[NH2+][C@]1(C(=O)OCCOCCOC(=O)c2ccc(-c3c4nc(c(-c5cccc(S(=O)(=O)[O-])c5F)c5ccc([nH]5)c(-c5cccc(S(=O)(=O)[O-])c5F)c5nc(c(-c6cccc(S(=O)(=O)[O-])c6F)c6ccc3[nH]6)C=C5)C=C4)cc2)CCC[C@@H]1CCSc1ccc(C)cc1
REMARK SMILES IDX 9 1 8 2 7 3 5 4 6 5 4 6 79 7 82 8 80 9 81 10 3 11 2 14 1 15
REMARK SMILES IDX 83 16 84 17 85 18 86 19 87 20 92 21 88 22 91 23 89 24 90 25
REMARK SMILES IDX 10 26 11 27 12 28 13 29 14 30 15 31 16 32 17 33 78 34 18 35
REMARK SMILES IDX 77 36 19 37 20 38 21 39 71 40 22 41 76 42 70 43 72 44 23 45
REMARK SMILES IDX 75 46 69 47 68 48 24 50 56 51 36 52 55 53 37 54 40 55 54 56
REMARK SMILES IDX 73 57 38 58 39 59 53 61 74 62 41 63 25 64 26 65 34 66 27 67
REMARK SMILES IDX 29 68 35 69 28 70 30 71 31 72 32 73 33 74 57 75 58 76 66 77
REMARK SMILES IDX 59 78 61 79 67 80 60 81 62 82 63 83 64 84 65 85 42 86 43 87
REMARK SMILES IDX 51 88 44 89 46 90 52 91 45 92 47 93 48 94 49 95 50 96
REMARK H PARENT 3 12 3 13 72 49 40 60
REMARK Flexibility Score: inf
ROOT
ATOM      1  C   UNL A   1      32.225  30.466  26.200  1.00  0.00     0.202 C 
ENDROOT
BRANCH   1   2
ATOM      2  C   UNL A   1      31.507  29.113  26.103  1.00  0.00     0.261 C 
BRANCH   2   3
ATOM      3  O   UNL A   1      32.317  28.040  25.598  1.00  0.00    -0.459 OA
BRANCH   3   4
ATOM      4  C   UNL A   1      31.652  26.854  25.561  1.00  0.00     0.368 C 
ATOM      5  O   UNL A   1      30.986  26.414  26.498  1.00  0.00    -0.245 OA
BRANCH   4   6
ATOM      6  C   UNL A   1      31.906  26.038  24.276  1.00  0.00     0.197 C 
ATOM      7  C   UNL A   1      33.315  26.505  23.789  1.00  0.00     0.081 C 
ATOM      8  C   UNL A   1      32.199  24.496  24.303  1.00  0.00     0.063 C 
ATOM      9  C   UNL A   1      33.748  25.519  22.723  1.00  0.00     0.008 C 
ATOM     10  C   UNL A   1      32.806  24.342  22.894  1.00  0.00     0.011 C 
BRANCH   6  11
ATOM     11  N   UNL A   1      30.798  26.293  23.313  1.00  0.00    -0.332 N 
ATOM     12  H   UNL A   1      31.211  26.608  22.435  1.00  0.00     0.347 HD
ATOM     13  H   UNL A   1      30.287  25.413  23.233  1.00  0.00     0.347 HD
BRANCH  11  14
ATOM     14  C   UNL A   1      29.821  27.288  23.734  1.00  0.00     0.257 C 
ATOM     15  C   UNL A   1      28.457  26.640  23.895  1.00  0.00     0.071 C 
ENDBRANCH  11  14
ENDBRANCH   6  11
BRANCH   8  16
ATOM     16  C   UNL A   1      31.066  23.487  24.596  1.00  0.00     0.022 C 
BRANCH  16  17
ATOM     17  C   UNL A   1      31.420  22.239  25.451  1.00  0.00     0.075 C 
BRANCH  17  18
ATOM     18  S   UNL A   1      33.193  21.921  25.864  1.00  0.00    -0.126 SA
BRANCH  18  19
ATOM     19  C   UNL A   1      33.555  20.427  24.965  1.00  0.00     0.007 A 
ATOM     20  C   UNL A   1      32.502  19.807  24.289  1.00  0.00     0.015 A 
ATOM     21  C   UNL A   1      34.816  19.816  24.970  1.00  0.00     0.015 A 
ATOM     22  C   UNL A   1      32.659  18.528  23.753  1.00  0.00     0.004 A 
ATOM     23  C   UNL A   1      34.973  18.524  24.439  1.00  0.00     0.004 A 
ATOM     24  C   UNL A   1      33.883  17.858  23.862  1.00  0.00    -0.051 A 
ATOM     25  C   UNL A   1      33.966  16.407  23.483  1.00  0.00     0.044 C 
ENDBRANCH  18  19
ENDBRANCH  17  18
ENDBRANCH  16  17
ENDBRANCH   8  16
ENDBRANCH   4   6
ENDBRANCH   3   4
ENDBRANCH   2   3
ENDBRANCH   1   2
BRANCH   1  26
ATOM     26  O   UNL A   1      32.578  30.954  27.490  1.00  0.00    -0.374 OA
BRANCH  26  27
ATOM     27  C   UNL A   1      33.738  31.783  27.593  1.00  0.00     0.202 C 
BRANCH  27  28
ATOM     28  C   UNL A   1      33.547  33.290  27.395  1.00  0.00     0.261 C 
BRANCH  28  29
ATOM     29  O   UNL A   1      32.595  33.834  28.328  1.00  0.00    -0.460 OA
BRANCH  29  30
ATOM     30  C   UNL A   1      33.077  34.823  29.123  1.00  0.00     0.338 C 
ATOM     31  O   UNL A   1      32.584  35.920  29.312  1.00  0.00    -0.246 OA
BRANCH  30  32
ATOM     32  C   UNL A   1      34.203  34.310  29.929  1.00  0.00     0.060 A 
ATOM     33  C   UNL A   1      35.500  34.567  29.466  1.00  0.00     0.016 A 
ATOM     34  C   UNL A   1      33.996  33.532  31.068  1.00  0.00     0.016 A 
ATOM     35  C   UNL A   1      36.598  34.009  30.119  1.00  0.00     0.010 A 
ATOM     36  C   UNL A   1      35.098  32.961  31.713  1.00  0.00     0.010 A 
ATOM     37  C   UNL A   1      36.400  33.170  31.222  1.00  0.00    -0.014 A 
BRANCH  37  38
ATOM     38  C   UNL A   1      37.547  32.417  31.781  1.00  0.00     0.031 A 
ATOM     39  C   UNL A   1      38.121  32.833  33.108  1.00  0.00     0.074 A 
ATOM     40  C   UNL A   1      38.068  31.369  31.116  1.00  0.00     0.049 A 
ATOM     41  N   UNL A   1      39.131  32.327  33.767  1.00  0.00    -0.248 NA
ATOM     42  C   UNL A   1      37.472  33.970  33.783  1.00  0.00     0.031 C 
ATOM     43  C   UNL A   1      37.596  30.870  29.825  1.00  0.00     0.029 A 
ATOM     44  N   UNL A   1      39.130  30.555  31.424  1.00  0.00    -0.354 N 
ATOM     45  C   UNL A   1      39.258  33.098  34.916  1.00  0.00     0.074 A 
ATOM     46  C   UNL A   1      38.225  34.109  34.865  1.00  0.00     0.031 C 
ATOM     47  C   UNL A   1      38.385  29.855  29.436  1.00  0.00     0.029 A 
ATOM     48  C   UNL A   1      39.431  29.648  30.435  1.00  0.00     0.049 A 
ATOM     49  H   UNL A   1      39.627  30.615  32.272  1.00  0.00     0.167 HD
ATOM     50  C   UNL A   1      40.148  32.967  35.928  1.00  0.00     0.034 A 
ATOM     51  C   UNL A   1      40.449  28.771  30.340  1.00  0.00     0.034 A 
ATOM     52  C   UNL A   1      41.158  31.944  35.990  1.00  0.00     0.049 A 
ATOM     53  C   UNL A   1      41.437  28.663  31.473  1.00  0.00     0.074 A 
ATOM     54  C   UNL A   1      42.063  31.692  37.005  1.00  0.00     0.029 A 
ATOM     55  N   UNL A   1      41.406  31.016  34.992  1.00  0.00    -0.354 N 
ATOM     56  N   UNL A   1      41.459  29.306  32.615  1.00  0.00    -0.248 NA
ATOM     57  C   UNL A   1      42.524  27.684  31.318  1.00  0.00     0.031 C 
ATOM     58  C   UNL A   1      42.879  30.628  36.609  1.00  0.00     0.029 A 
ATOM     59  C   UNL A   1      42.462  30.200  35.359  1.00  0.00     0.049 A 
ATOM     60  H   UNL A   1      40.904  30.945  34.148  1.00  0.00     0.167 HD
ATOM     61  C   UNL A   1      42.535  28.787  33.326  1.00  0.00     0.074 A 
ATOM     62  C   UNL A   1      43.127  27.758  32.496  1.00  0.00     0.031 C 
ATOM     63  C   UNL A   1      43.005  29.141  34.549  1.00  0.00     0.034 A 
BRANCH  50  64
ATOM     64  C   UNL A   1      40.059  33.935  37.077  1.00  0.00     0.023 A 
ATOM     65  C   UNL A   1      40.548  35.246  36.923  1.00  0.00     0.012 A 
ATOM     66  C   UNL A   1      39.409  33.572  38.274  1.00  0.00     0.148 A 
ATOM     67  C   UNL A   1      40.407  36.181  37.949  1.00  0.00     0.002 A 
ATOM     68  C   UNL A   1      39.237  34.520  39.276  1.00  0.00     0.091 A 
ATOM     69  F   UNL A   1      38.970  32.312  38.405  1.00  0.00    -0.205 F 
ATOM     70  C   UNL A   1      39.742  35.821  39.118  1.00  0.00     0.022 A 
BRANCH  68  71
ATOM     71  S   UNL A   1      38.328  34.179  40.787  1.00  0.00     0.127 S 
ATOM     72  O   UNL A   1      38.049  35.531  41.274  1.00  0.00    -0.237 OA
ATOM     73  O   UNL A   1      37.157  33.459  40.285  1.00  0.00    -0.237 OA
ATOM     74  O   UNL A   1      39.218  33.389  41.625  1.00  0.00    -0.744 OA
ENDBRANCH  68  71
ENDBRANCH  50  64
BRANCH  51  75
ATOM     75  C   UNL A   1      40.581  27.904  29.134  1.00  0.00     0.023 A 
ATOM     76  C   UNL A   1      39.795  26.741  29.022  1.00  0.00     0.012 A 
ATOM     77  C   UNL A   1      41.483  28.225  28.100  1.00  0.00     0.148 A 
ATOM     78  C   UNL A   1      39.931  25.894  27.921  1.00  0.00     0.002 A 
ATOM     79  C   UNL A   1      41.571  27.407  26.980  1.00  0.00     0.091 A 
ATOM     80  F   UNL A   1      42.241  29.322  28.234  1.00  0.00    -0.205 F 
ATOM     81  C   UNL A   1      40.811  26.231  26.896  1.00  0.00     0.022 A 
BRANCH  79  82
ATOM     82  S   UNL A   1      42.579  27.844  25.558  1.00  0.00     0.127 S 
ATOM     83  O   UNL A   1      42.536  26.617  24.770  1.00  0.00    -0.237 OA
ATOM     84  O   UNL A   1      41.836  28.970  24.991  1.00  0.00    -0.237 OA
ATOM     85  O   UNL A   1      43.881  28.208  26.105  1.00  0.00    -0.744 OA
ENDBRANCH  79  82
ENDBRANCH  51  75
BRANCH  63  86
ATOM     86  C   UNL A   1      44.197  28.393  35.086  1.00  0.00     0.023 A 
ATOM     87  C   UNL A   1      45.475  28.984  35.033  1.00  0.00     0.012 A 
ATOM     88  C   UNL A   1      44.040  27.140  35.710  1.00  0.00     0.148 A 
ATOM     89  C   UNL A   1      46.584  28.326  35.564  1.00  0.00     0.002 A 
ATOM     90  C   UNL A   1      45.142  26.510  36.279  1.00  0.00     0.091 A 
ATOM     91  F   UNL A   1      42.819  26.585  35.735  1.00  0.00    -0.205 F 
ATOM     92  C   UNL A   1      46.415  27.096  36.196  1.00  0.00     0.022 A 
BRANCH  90  93
ATOM     93  S   UNL A   1      45.003  24.972  37.198  1.00  0.00     0.127 S 
ATOM     94  O   UNL A   1      43.876  25.256  38.085  1.00  0.00    -0.237 OA
ATOM     95  O   UNL A   1      44.717  24.003  36.140  1.00  0.00    -0.237 OA
ATOM     96  O   UNL A   1      46.287  24.783  37.859  1.00  0.00    -0.744 OA
ENDBRANCH  90  93
ENDBRANCH  63  86
ENDBRANCH  37  38
ENDBRANCH  30  32
ENDBRANCH  29  30
ENDBRANCH  28  29
ENDBRANCH  27  28
ENDBRANCH  26  27
ENDBRANCH   1  26
TORSDOF 23
ENDMDL
MODEL 2
REMARK VINA RESULT:      -9.8      0.620      7.641
REMARK SMILES CC[NH2+][C@]1(C(=O)OCCOCCOC(=O)c2ccc(-c3c4nc(c(-c5cccc(S(=O)(=O)[O-])c5F)c5ccc([nH]5)c(-c5cccc(S(=O)(=O)[O-])c5F)c5nc(c(-c6cccc(S(=O)(=O)[O-])c6F)c6ccc3[nH]6)C=C5)C=C4)cc2)CCC[C@@H]1CCSc1ccc(C)cc1
REMARK SMILES IDX 9 1 8 2 7 3 5 4 6 5 4 6 79 7 82 8 80 9 81 10 3 11 2 14 1 15
REMARK SMILES IDX 83 16 84 17 85 18 86 19 87 20 92 21 88 22 91 23 89 24 90 25
REMARK SMILES IDX 10 26 11 27 12 28 13 29 14 30 15 31 16 32 17 33 78 34 18 35
REMARK SMILES IDX 77 36 19 37 20 38 21 39 71 40 22 41 76 42 70 43 72 44 23 45
REMARK SMILES IDX 75 46 69 47 68 48 24 50 56 51 36 52 55 53 37 54 40 55 54 56
REMARK SMILES IDX 73 57 38 58 39 59 53 61 74 62 41 63 25 64 26 65 34 66 27 67
REMARK SMILES IDX 29 68 35 69 28 70 30 71 31 72 32 73 33 74 57 75 58 76 66 77
REMARK SMILES IDX 59 78 61 79 67 80 60 81 62 82 63 83 64 84 65 85 42 86 43 87
REMARK SMILES IDX 51 88 44 89 46 90 52 91 45 92 47 93 48 94 49 95 50 96
REMARK H PARENT 3 12 3 13 72 49 40 60
REMARK Flexibility Score: inf
ROOT
ATOM      1  C   UNL A   1      32.937  30.489  26.339  1.00  0.00     0.202 C 
ENDROOT
BRANCH   1   2
ATOM      2  C   UNL A   1      31.858  29.431  26.070  1.00  0.00     0.261 C 
BRANCH   2   3
ATOM      3  O   UNL A   1      32.149  28.543  24.980  1.00  0.00    -0.459 OA
BRANCH   3   4
ATOM      4  C   UNL A   1      31.766  27.262  25.231  1.00  0.00     0.368 C 
ATOM      5  O   UNL A   1      31.520  26.830  26.356  1.00  0.00    -0.245 OA
BRANCH   4   6
ATOM      6  C   UNL A   1      31.788  26.352  23.985  1.00  0.00     0.197 C 
ATOM      7  C   UNL A   1      33.107  26.736  23.241  1.00  0.00     0.081 C 
ATOM      8  C   UNL A   1      32.049  24.806  24.077  1.00  0.00     0.063 C 
ATOM      9  C   UNL A   1      33.336  25.666  22.195  1.00  0.00     0.008 C 
ATOM     10  C   UNL A   1      32.411  24.535  22.603  1.00  0.00     0.011 C 
BRANCH   6  11
ATOM     11  N   UNL A   1      30.541  26.575  23.200  1.00  0.00    -0.332 N 
ATOM     12  H   UNL A   1      30.805  26.702  22.222  1.00  0.00     0.347 HD
ATOM     13  H   UNL A   1      29.955  25.757  23.363  1.00  0.00     0.347 HD
BRANCH  11  14
ATOM     14  C   UNL A   1      29.746  27.727  23.604  1.00  0.00     0.257 C 
ATOM     15  C   UNL A   1      28.270  27.437  23.396  1.00  0.00     0.071 C 
ENDBRANCH  11  14
ENDBRANCH   6  11
BRANCH   8  16
ATOM     16  C   UNL A   1      30.958  23.858  24.625  1.00  0.00     0.022 C 
BRANCH  16  17
ATOM     17  C   UNL A   1      31.341  22.367  24.831  1.00  0.00     0.075 C 
BRANCH  17  18
ATOM     18  S   UNL A   1      32.835  21.966  25.842  1.00  0.00    -0.126 SA
BRANCH  18  19
ATOM     19  C   UNL A   1      33.369  20.404  25.172  1.00  0.00     0.007 A 
ATOM     20  C   UNL A   1      32.405  19.409  25.004  1.00  0.00     0.015 A 
ATOM     21  C   UNL A   1      34.708  20.112  24.882  1.00  0.00     0.015 A 
ATOM     22  C   UNL A   1      32.782  18.100  24.698  1.00  0.00     0.004 A 
ATOM     23  C   UNL A   1      35.090  18.793  24.582  1.00  0.00     0.004 A 
ATOM     24  C   UNL A   1      34.132  17.773  24.527  1.00  0.00    -0.051 A 
ATOM     25  C   UNL A   1      34.533  16.329  24.422  1.00  0.00     0.044 C 
ENDBRANCH  18  19
ENDBRANCH  17  18
ENDBRANCH  16  17
ENDBRANCH   8  16
ENDBRANCH   4   6
ENDBRANCH   3   4
ENDBRANCH   2   3
ENDBRANCH   1   2
BRANCH   1  26
ATOM     26  O   UNL A   1      33.602  30.474  27.598  1.00  0.00    -0.374 OA
BRANCH  26  27
ATOM     27  C   UNL A   1      34.102  31.715  28.101  1.00  0.00     0.202 C 
BRANCH  27  28
ATOM     28  C   UNL A   1      33.505  33.002  27.524  1.00  0.00     0.261 C 
BRANCH  28  29
ATOM     29  O   UNL A   1      32.733  33.718  28.505  1.00  0.00    -0.460 OA
BRANCH  29  30
ATOM     30  C   UNL A   1      33.335  34.826  29.007  1.00  0.00     0.338 C 
ATOM     31  O   UNL A   1      32.942  35.976  28.928  1.00  0.00    -0.246 OA
BRANCH  30  32
ATOM     32  C   UNL A   1      34.460  34.431  29.877  1.00  0.00     0.060 A 
ATOM     33  C   UNL A   1      35.758  34.620  29.383  1.00  0.00     0.016 A 
ATOM     34  C   UNL A   1      34.252  33.820  31.113  1.00  0.00     0.016 A 
ATOM     35  C   UNL A   1      36.855  34.158  30.108  1.00  0.00     0.010 A 
ATOM     36  C   UNL A   1      35.354  33.345  31.833  1.00  0.00     0.010 A 
ATOM     37  C   UNL A   1      36.656  33.482  31.318  1.00  0.00    -0.014 A 
BRANCH  37  38
ATOM     38  C   UNL A   1      37.803  32.814  31.978  1.00  0.00     0.031 A 
ATOM     39  C   UNL A   1      38.459  31.643  31.300  1.00  0.00     0.074 A 
ATOM     40  C   UNL A   1      38.256  33.250  33.168  1.00  0.00     0.049 A 
ATOM     41  N   UNL A   1      39.458  30.905  31.709  1.00  0.00    -0.248 NA
ATOM     42  C   UNL A   1      37.919  31.249  29.987  1.00  0.00     0.031 C 
ATOM     43  C   UNL A   1      37.705  34.377  33.920  1.00  0.00     0.029 A 
ATOM     44  N   UNL A   1      39.270  32.778  33.964  1.00  0.00    -0.354 N 
ATOM     45  C   UNL A   1      39.649  29.945  30.722  1.00  0.00     0.074 A 
ATOM     46  C   UNL A   1      38.660  30.189  29.696  1.00  0.00     0.031 C 
ATOM     47  C   UNL A   1      38.366  34.488  35.084  1.00  0.00     0.029 A 
ATOM     48  C   UNL A   1      39.369  33.429  35.171  1.00  0.00     0.049 A 
ATOM     49  H   UNL A   1      39.868  32.043  33.696  1.00  0.00     0.167 HD
ATOM     50  C   UNL A   1      40.573  28.956  30.671  1.00  0.00     0.034 A 
ATOM     51  C   UNL A   1      40.162  33.180  36.232  1.00  0.00     0.034 A 
ATOM     52  C   UNL A   1      41.573  28.731  31.681  1.00  0.00     0.049 A 
ATOM     53  C   UNL A   1      41.166  32.059  36.154  1.00  0.00     0.074 A 
ATOM     54  C   UNL A   1      42.591  27.795  31.687  1.00  0.00     0.029 A 
ATOM     55  N   UNL A   1      41.671  29.437  32.868  1.00  0.00    -0.354 N 
ATOM     56  N   UNL A   1      41.426  31.249  35.156  1.00  0.00    -0.248 NA
ATOM     57  C   UNL A   1      42.010  31.837  37.338  1.00  0.00     0.031 C 
ATOM     58  C   UNL A   1      43.290  27.916  32.891  1.00  0.00     0.029 A 
ATOM     59  C   UNL A   1      42.722  28.946  33.624  1.00  0.00     0.049 A 
ATOM     60  H   UNL A   1      41.082  30.179  33.135  1.00  0.00     0.167 HD
ATOM     61  C   UNL A   1      42.482  30.448  35.578  1.00  0.00     0.074 A 
ATOM     62  C   UNL A   1      42.831  30.887  36.913  1.00  0.00     0.031 C 
ATOM     63  C   UNL A   1      43.097  29.430  34.927  1.00  0.00     0.034 A 
BRANCH  50  64
ATOM     64  C   UNL A   1      40.574  28.051  29.469  1.00  0.00     0.023 A 
ATOM     65  C   UNL A   1      39.611  27.029  29.366  1.00  0.00     0.012 A 
ATOM     66  C   UNL A   1      41.468  28.273  28.403  1.00  0.00     0.148 A 
ATOM     67  C   UNL A   1      39.547  26.228  28.226  1.00  0.00     0.002 A 
ATOM     68  C   UNL A   1      41.373  27.498  27.253  1.00  0.00     0.091 A 
ATOM     69  F   UNL A   1      42.389  29.239  28.533  1.00  0.00    -0.205 F 
ATOM     70  C   UNL A   1      40.419  26.470  27.167  1.00  0.00     0.022 A 
BRANCH  68  71
ATOM     71  S   UNL A   1      42.397  27.780  25.805  1.00  0.00     0.127 S 
ATOM     72  O   UNL A   1      42.052  26.627  24.972  1.00  0.00    -0.237 OA
ATOM     73  O   UNL A   1      41.888  29.060  25.314  1.00  0.00    -0.237 OA
ATOM     74  O   UNL A   1      43.772  27.812  26.282  1.00  0.00    -0.744 OA
ENDBRANCH  68  71
ENDBRANCH  50  64
BRANCH  51  75
ATOM     75  C   UNL A   1      40.058  34.021  37.458  1.00  0.00     0.023 A 
ATOM     76  C   UNL A   1      40.780  35.228  37.540  1.00  0.00     0.012 A 
ATOM     77  C   UNL A   1      39.251  33.630  38.545  1.00  0.00     0.148 A 
ATOM     78  C   UNL A   1      40.729  36.010  38.695  1.00  0.00     0.002 A 
ATOM     79  C   UNL A   1      39.160  34.443  39.668  1.00  0.00     0.091 A 
ATOM     80  F   UNL A   1      38.590  32.467  38.461  1.00  0.00    -0.205 F 
ATOM     81  C   UNL A   1      39.913  35.624  39.754  1.00  0.00     0.022 A 
BRANCH  79  82
ATOM     82  S   UNL A   1      38.027  34.083  41.015  1.00  0.00     0.127 S 
ATOM     83  O   UNL A   1      38.835  33.212  41.863  1.00  0.00    -0.237 OA
ATOM     84  O   UNL A   1      37.772  35.416  41.564  1.00  0.00    -0.237 OA
ATOM     85  O   UNL A   1      36.864  33.467  40.388  1.00  0.00    -0.744 OA
ENDBRANCH  79  82
ENDBRANCH  51  75
BRANCH  63  86
ATOM     86  C   UNL A   1      44.234  28.734  35.629  1.00  0.00     0.023 A 
ATOM     87  C   UNL A   1      45.553  29.191  35.444  1.00  0.00     0.012 A 
ATOM     88  C   UNL A   1      43.987  27.678  36.528  1.00  0.00     0.148 A 
ATOM     89  C   UNL A   1      46.614  28.586  36.118  1.00  0.00     0.002 A 
ATOM     90  C   UNL A   1      45.043  27.111  37.233  1.00  0.00     0.091 A 
ATOM     91  F   UNL A   1      42.726  27.245  36.677  1.00  0.00    -0.205 F 
ATOM     92  C   UNL A   1      46.358  27.556  37.020  1.00  0.00     0.022 A 
BRANCH  90  93
ATOM     93  S   UNL A   1      44.796  25.846  38.485  1.00  0.00     0.127 S 
ATOM     94  O   UNL A   1      43.997  26.563  39.478  1.00  0.00    -0.237 OA
ATOM     95  O   UNL A   1      44.068  24.815  37.746  1.00  0.00    -0.237 OA
ATOM     96  O   UNL A   1      46.127  25.450  38.922  1.00  0.00    -0.744 OA
ENDBRANCH  90  93
ENDBRANCH  63  86
ENDBRANCH  37  38
ENDBRANCH  30  32
ENDBRANCH  29  30
ENDBRANCH  28  29
ENDBRANCH  27  28
ENDBRANCH  26  27
ENDBRANCH   1  26
TORSDOF 23
ENDMDL
MODEL 3
REMARK VINA RESULT:      -9.6      3.457      4.530
REMARK SMILES CC[NH2+][C@]1(C(=O)OCCOCCOC(=O)c2ccc(-c3c4nc(c(-c5cccc(S(=O)(=O)[O-])c5F)c5ccc([nH]5)c(-c5cccc(S(=O)(=O)[O-])c5F)c5nc(c(-c6cccc(S(=O)(=O)[O-])c6F)c6ccc3[nH]6)C=C5)C=C4)cc2)CCC[C@@H]1CCSc1ccc(C)cc1
REMARK SMILES IDX 9 1 8 2 7 3 5 4 6 5 4 6 79 7 82 8 80 9 81 10 3 11 2 14 1 15
REMARK SMILES IDX 83 16 84 17 85 18 86 19 87 20 92 21 88 22 91 23 89 24 90 25
REMARK SMILES IDX 10 26 11 27 12 28 13 29 14 30 15 31 16 32 17 33 78 34 18 35
REMARK SMILES IDX 77 36 19 37 20 38 21 39 71 40 22 41 76 42 70 43 72 44 23 45
REMARK SMILES IDX 75 46 69 47 68 48 24 50 56 51 36 52 55 53 37 54 40 55 54 56
REMARK SMILES IDX 73 57 38 58 39 59 53 61 74 62 41 63 25 64 26 65 34 66 27 67
REMARK SMILES IDX 29 68 35 69 28 70 30 71 31 72 32 73 33 74 57 75 58 76 66 77
REMARK SMILES IDX 59 78 61 79 67 80 60 81 62 82 63 83 64 84 65 85 42 86 43 87
REMARK SMILES IDX 51 88 44 89 46 90 52 91 45 92 47 93 48 94 49 95 50 96
REMARK H PARENT 3 12 3 13 72 49 40 60
REMARK Flexibility Score: inf
ROOT
ATOM      1  C   UNL A   1      33.136  30.454  26.336  1.00  0.00     0.202 C 
ENDROOT
BRANCH   1   2
ATOM      2  C   UNL A   1      31.689  29.960  26.205  1.00  0.00     0.261 C 
BRANCH   2   3
ATOM      3  O   UNL A   1      31.352  29.429  24.913  1.00  0.00    -0.459 OA
BRANCH   3   4
ATOM      4  C   UNL A   1      31.306  28.069  24.901  1.00  0.00     0.368 C 
ATOM      5  O   UNL A   1      31.157  27.382  25.911  1.00  0.00    -0.245 OA
BRANCH   4   6
ATOM      6  C   UNL A   1      31.582  27.451  23.516  1.00  0.00     0.197 C 
ATOM      7  C   UNL A   1      33.033  27.912  23.163  1.00  0.00     0.081 C 
ATOM      8  C   UNL A   1      31.803  25.909  23.311  1.00  0.00     0.063 C 
ATOM      9  C   UNL A   1      33.469  27.082  21.973  1.00  0.00     0.008 C 
ATOM     10  C   UNL A   1      32.467  25.944  21.921  1.00  0.00     0.011 C 
BRANCH   6  11
ATOM     11  N   UNL A   1      30.533  27.909  22.561  1.00  0.00    -0.332 N 
ATOM     12  H   UNL A   1      30.819  28.817  22.193  1.00  0.00     0.347 HD
ATOM     13  H   UNL A   1      30.463  27.182  21.850  1.00  0.00     0.347 HD
BRANCH  11  14
ATOM     14  C   UNL A   1      29.198  28.053  23.124  1.00  0.00     0.257 C 
ATOM     15  C   UNL A   1      28.506  29.260  22.516  1.00  0.00     0.071 C 
ENDBRANCH  11  14
ENDBRANCH   6  11
BRANCH   8  16
ATOM     16  C   UNL A   1      30.611  24.929  23.398  1.00  0.00     0.022 C 
BRANCH  16  17
ATOM     17  C   UNL A   1      30.935  23.411  23.464  1.00  0.00     0.075 C 
BRANCH  17  18
ATOM     18  S   UNL A   1      31.552  22.705  25.058  1.00  0.00    -0.126 SA
BRANCH  18  19
ATOM     19  C   UNL A   1      33.243  22.287  24.685  1.00  0.00     0.007 A 
ATOM     20  C   UNL A   1      33.673  20.994  24.991  1.00  0.00     0.015 A 
ATOM     21  C   UNL A   1      34.166  23.210  24.176  1.00  0.00     0.015 A 
ATOM     22  C   UNL A   1      35.028  20.666  24.935  1.00  0.00     0.004 A 
ATOM     23  C   UNL A   1      35.532  22.883  24.128  1.00  0.00     0.004 A 
ATOM     24  C   UNL A   1      35.974  21.620  24.545  1.00  0.00    -0.051 A 
ATOM     25  C   UNL A   1      37.436  21.318  24.705  1.00  0.00     0.044 C 
ENDBRANCH  18  19
ENDBRANCH  17  18
ENDBRANCH  16  17
ENDBRANCH   8  16
ENDBRANCH   4   6
ENDBRANCH   3   4
ENDBRANCH   2   3
ENDBRANCH   1   2
BRANCH   1  26
ATOM     26  O   UNL A   1      33.704  30.552  27.638  1.00  0.00    -0.374 OA
BRANCH  26  27
ATOM     27  C   UNL A   1      34.711  31.542  27.852  1.00  0.00     0.202 C 
BRANCH  27  28
ATOM     28  C   UNL A   1      34.334  32.760  28.699  1.00  0.00     0.261 C 
BRANCH  28  29
ATOM     29  O   UNL A   1      34.410  32.474  30.108  1.00  0.00    -0.460 OA
BRANCH  29  30
ATOM     30  C   UNL A   1      35.422  33.101  30.763  1.00  0.00     0.338 C 
ATOM     31  O   UNL A   1      35.340  34.093  31.464  1.00  0.00    -0.246 OA
BRANCH  30  32
ATOM     32  C   UNL A   1      36.645  32.278  30.692  1.00  0.00     0.060 A 
ATOM     33  C   UNL A   1      36.674  31.094  31.442  1.00  0.00     0.016 A 
ATOM     34  C   UNL A   1      37.766  32.690  29.971  1.00  0.00     0.016 A 
ATOM     35  C   UNL A   1      37.843  30.339  31.508  1.00  0.00     0.010 A 
ATOM     36  C   UNL A   1      38.942  31.937  30.050  1.00  0.00     0.010 A 
ATOM     37  C   UNL A   1      38.995  30.777  30.845  1.00  0.00    -0.014 A 
BRANCH  37  38
ATOM     38  C   UNL A   1      40.284  30.086  31.086  1.00  0.00     0.031 A 
ATOM     39  C   UNL A   1      41.167  30.551  32.211  1.00  0.00     0.074 A 
ATOM     40  C   UNL A   1      40.661  29.051  30.313  1.00  0.00     0.049 A 
ATOM     41  N   UNL A   1      42.338  30.104  32.583  1.00  0.00    -0.248 NA
ATOM     42  C   UNL A   1      40.666  31.671  33.027  1.00  0.00     0.031 C 
ATOM     43  C   UNL A   1      39.889  28.507  29.196  1.00  0.00     0.029 A 
ATOM     44  N   UNL A   1      41.803  28.290  30.335  1.00  0.00    -0.354 N 
ATOM     45  C   UNL A   1      42.727  30.900  33.653  1.00  0.00     0.074 A 
ATOM     46  C   UNL A   1      41.670  31.864  33.871  1.00  0.00     0.031 C 
ATOM     47  C   UNL A   1      40.595  27.522  28.618  1.00  0.00     0.029 A 
ATOM     48  C   UNL A   1      41.876  27.380  29.306  1.00  0.00     0.049 A 
ATOM     49  H   UNL A   1      42.503  28.388  31.020  1.00  0.00     0.167 HD
ATOM     50  C   UNL A   1      43.858  30.828  34.394  1.00  0.00     0.034 A 
ATOM     51  C   UNL A   1      42.874  26.547  28.951  1.00  0.00     0.034 A 
ATOM     52  C   UNL A   1      44.895  29.852  34.193  1.00  0.00     0.049 A 
ATOM     53  C   UNL A   1      44.129  26.503  29.783  1.00  0.00     0.074 A 
ATOM     54  C   UNL A   1      46.048  29.659  34.934  1.00  0.00     0.029 A 
ATOM     55  N   UNL A   1      44.915  28.917  33.171  1.00  0.00    -0.354 N 
ATOM     56  N   UNL A   1      44.420  27.168  30.875  1.00  0.00    -0.248 NA
ATOM     57  C   UNL A   1      45.182  25.571  29.352  1.00  0.00     0.031 C 
ATOM     58  C   UNL A   1      46.779  28.625  34.343  1.00  0.00     0.029 A 
ATOM     59  C   UNL A   1      46.068  28.156  33.250  1.00  0.00     0.049 A 
ATOM     60  H   UNL A   1      44.213  28.809  32.490  1.00  0.00     0.167 HD
ATOM     61  C   UNL A   1      45.670  26.710  31.279  1.00  0.00     0.074 A 
ATOM     62  C   UNL A   1      46.070  25.694  30.329  1.00  0.00     0.031 C 
ATOM     63  C   UNL A   1      46.428  27.107  32.332  1.00  0.00     0.034 A 
BRANCH  50  64
ATOM     64  C   UNL A   1      44.029  31.811  35.520  1.00  0.00     0.023 A 
ATOM     65  C   UNL A   1      44.620  33.064  35.267  1.00  0.00     0.012 A 
ATOM     66  C   UNL A   1      43.521  31.530  36.804  1.00  0.00     0.148 A 
ATOM     67  C   UNL A   1      44.719  34.019  36.278  1.00  0.00     0.002 A 
ATOM     68  C   UNL A   1      43.588  32.501  37.797  1.00  0.00     0.091 A 
ATOM     69  F   UNL A   1      42.982  30.323  37.027  1.00  0.00    -0.205 F 
ATOM     70  C   UNL A   1      44.193  33.741  37.538  1.00  0.00     0.022 A 
BRANCH  68  71
ATOM     71  S   UNL A   1      42.872  32.271  39.428  1.00  0.00     0.127 S 
ATOM     72  O   UNL A   1      43.062  33.595  40.021  1.00  0.00    -0.237 OA
ATOM     73  O   UNL A   1      41.484  31.939  39.110  1.00  0.00    -0.237 OA
ATOM     74  O   UNL A   1      43.629  31.196  40.054  1.00  0.00    -0.744 OA
ENDBRANCH  68  71
ENDBRANCH  50  64
BRANCH  51  75
ATOM     75  C   UNL A   1      42.724  25.665  27.759  1.00  0.00     0.023 A 
ATOM     76  C   UNL A   1      43.110  26.136  26.489  1.00  0.00     0.012 A 
ATOM     77  C   UNL A   1      42.196  24.363  27.875  1.00  0.00     0.148 A 
ATOM     78  C   UNL A   1      42.940  25.343  25.353  1.00  0.00     0.002 A 
ATOM     79  C   UNL A   1      42.085  23.557  26.748  1.00  0.00     0.091 A 
ATOM     80  F   UNL A   1      41.811  23.939  29.087  1.00  0.00    -0.205 F 
ATOM     81  C   UNL A   1      42.437  24.051  25.483  1.00  0.00     0.022 A 
BRANCH  79  82
ATOM     82  S   UNL A   1      41.574  21.838  26.854  1.00  0.00     0.127 S 
ATOM     83  O   UNL A   1      40.167  21.964  27.219  1.00  0.00    -0.237 OA
ATOM     84  O   UNL A   1      41.819  21.363  25.491  1.00  0.00    -0.237 OA
ATOM     85  O   UNL A   1      42.445  21.237  27.856  1.00  0.00    -0.744 OA
ENDBRANCH  79  82
ENDBRANCH  51  75
BRANCH  63  86
ATOM     86  C   UNL A   1      47.754  26.423  32.539  1.00  0.00     0.023 A 
ATOM     87  C   UNL A   1      47.837  25.298  33.384  1.00  0.00     0.012 A 
ATOM     88  C   UNL A   1      48.901  26.847  31.839  1.00  0.00     0.148 A 
ATOM     89  C   UNL A   1      49.046  24.626  33.555  1.00  0.00     0.002 A 
ATOM     90  C   UNL A   1      50.093  26.144  31.977  1.00  0.00     0.091 A 
ATOM     91  F   UNL A   1      48.807  27.930  31.053  1.00  0.00    -0.205 F 
ATOM     92  C   UNL A   1      50.169  25.042  32.843  1.00  0.00     0.022 A 
BRANCH  90  93
ATOM     93  S   UNL A   1      51.563  26.547  31.026  1.00  0.00     0.127 S 
ATOM     94  O   UNL A   1      51.863  27.897  31.502  1.00  0.00    -0.237 OA
ATOM     95  O   UNL A   1      52.509  25.521  31.465  1.00  0.00    -0.237 OA
ATOM     96  O   UNL A   1      51.174  26.450  29.626  1.00  0.00    -0.744 OA
ENDBRANCH  90  93
ENDBRANCH  63  86
ENDBRANCH  37  38
ENDBRANCH  30  32
ENDBRANCH  29  30
ENDBRANCH  28  29
ENDBRANCH  27  28
ENDBRANCH  26  27
ENDBRANCH   1  26
TORSDOF 23
ENDMDL
