MODEL 1
REMARK VINA RESULT:     -10.7      0.000      0.000
REMARK SMILES Cc1cc(C)cc(Oc2nc3ccccn3c(=O)c2/C=C2\SC(=S)N(CCC(=O)OCCOCCOC(=O)c3ccc(-c4c5nc(c(-c6cccc(S(=O)(=O)[O-])c6F)c6ccc([nH]6)c(-c6cccc(S(=O)(=O)[O-])c6F)c6nc(c(-c7cccc(S(=O)(=O)[O-])c7F)c7ccc4[nH]7)C=C6)C=C5)cc3)C2=O)c1
REMARK SMILES IDX 32 1 31 2 30 3 28 4 29 5 27 6 26 7 25 8 20 9 21 10 22 11
REMARK SMILES IDX 102 12 23 13 103 14 24 15 19 16 9 17 10 18 11 19 17 20 12 21
REMARK SMILES IDX 16 22 18 23 13 24 15 25 14 26 8 27 7 28 1 29 2 30 3 31
REMARK SMILES IDX 104 32 4 33 5 34 6 35 33 36 34 37 35 38 36 39 37 40 38 41
REMARK SMILES IDX 39 42 40 43 101 44 41 45 100 46 42 47 43 48 44 49 94 50
REMARK SMILES IDX 45 51 99 52 93 53 95 54 46 55 98 56 92 57 91 58 47 60 79 61
REMARK SMILES IDX 59 62 78 63 60 64 63 65 77 66 96 67 61 68 62 69 76 71 97 72
REMARK SMILES IDX 64 73 48 74 49 75 57 76 50 77 52 78 58 79 51 80 53 81 54 82
REMARK SMILES IDX 55 83 56 84 80 85 81 86 89 87 82 88 84 89 90 90 83 91 85 92
REMARK SMILES IDX 86 93 87 94 88 95 65 96 66 97 74 98 67 99 69 100 75 101
REMARK SMILES IDX 68 102 70 103 71 104 72 105 73 106
REMARK H PARENT 95 59 63 70
REMARK Flexibility Score: inf
ROOT
ATOM      1  C   UNL A   1      38.279  21.786  25.196  1.00  0.00     0.202 C 
ENDROOT
BRANCH   1   2
ATOM      2  C   UNL A   1      36.906  22.481  25.179  1.00  0.00     0.261 C 
BRANCH   2   3
ATOM      3  O   UNL A   1      35.882  21.726  24.499  1.00  0.00    -0.463 OA
BRANCH   3   4
ATOM      4  C   UNL A   1      34.994  22.407  23.740  1.00  0.00     0.307 C 
ATOM      5  O   UNL A   1      35.274  23.081  22.756  1.00  0.00    -0.252 OA
BRANCH   4   6
ATOM      6  C   UNL A   1      33.580  22.263  24.260  1.00  0.00     0.144 C 
BRANCH   6   7
ATOM      7  C   UNL A   1      33.318  22.865  25.645  1.00  0.00     0.139 C 
BRANCH   7   8
ATOM      8  N   UNL A   1      32.528  24.105  25.628  1.00  0.00    -0.292 N 
ATOM      9  C   UNL A   1      32.489  27.486  24.465  1.00  0.00     0.041 C 
ATOM     10  C   UNL A   1      32.172  26.380  25.148  1.00  0.00     0.081 C 
ATOM     11  S   UNL A   1      30.701  25.919  25.889  1.00  0.00    -0.054 SA
ATOM     12  C   UNL A   1      33.137  25.277  25.246  1.00  0.00     0.266 C 
ATOM     13  C   UNL A   1      31.230  24.246  26.075  1.00  0.00     0.148 C 
ATOM     14  O   UNL A   1      34.334  25.435  25.063  1.00  0.00    -0.268 OA
ATOM     15  S   UNL A   1      30.234  23.069  26.714  1.00  0.00    -0.052 S 
BRANCH   9  16
ATOM     16  C   UNL A   1      31.631  28.634  24.250  1.00  0.00     0.104 A 
ATOM     17  C   UNL A   1      31.372  29.582  25.176  1.00  0.00     0.234 A 
ATOM     18  N   UNL A   1      30.479  30.592  24.964  1.00  0.00    -0.194 NA
ATOM     19  C   UNL A   1      29.789  30.623  23.874  1.00  0.00     0.143 A 
ATOM     20  C   UNL A   1      30.865  28.698  22.965  1.00  0.00     0.269 A 
ATOM     21  C   UNL A   1      28.775  31.696  23.686  1.00  0.00     0.048 A 
ATOM     22  N   UNL A   1      29.929  29.706  22.849  1.00  0.00    -0.267 N 
ATOM     23  O   UNL A   1      31.045  27.827  22.107  1.00  0.00    -0.268 OA
ATOM     24  C   UNL A   1      28.030  31.725  22.576  1.00  0.00     0.005 A 
ATOM     25  C   UNL A   1      29.130  29.773  21.712  1.00  0.00     0.096 A 
ATOM     26  C   UNL A   1      28.208  30.729  21.554  1.00  0.00     0.019 A 
BRANCH  17  27
ATOM     27  O   UNL A   1      31.832  29.527  26.496  1.00  0.00    -0.438 OA
BRANCH  27  28
ATOM     28  C   UNL A   1      32.997  30.106  26.922  1.00  0.00     0.130 A 
ATOM     29  C   UNL A   1      36.608  29.319  27.736  1.00  0.00     0.044 C 
ATOM     30  C   UNL A   1      35.330  30.076  27.556  1.00  0.00    -0.047 A 
ATOM     31  C   UNL A   1      35.241  31.426  27.920  1.00  0.00     0.007 A 
ATOM     32  C   UNL A   1      34.216  29.444  26.996  1.00  0.00     0.050 A 
ATOM     33  C   UNL A   1      34.050  32.140  27.739  1.00  0.00    -0.047 A 
ATOM     34  C   UNL A   1      34.016  33.617  27.999  1.00  0.00     0.044 C 
ATOM     35  C   UNL A   1      32.922  31.462  27.262  1.00  0.00     0.050 A 
ENDBRANCH  27  28
ENDBRANCH  17  27
ENDBRANCH   9  16
ENDBRANCH   7   8
ENDBRANCH   6   7
ENDBRANCH   4   6
ENDBRANCH   3   4
ENDBRANCH   2   3
ENDBRANCH   1   2
BRANCH   1  36
ATOM     36  O   UNL A   1      38.261  20.363  25.043  1.00  0.00    -0.374 OA
BRANCH  36  37
ATOM     37  C   UNL A   1      39.308  19.659  25.707  1.00  0.00     0.202 C 
BRANCH  37  38
ATOM     38  C   UNL A   1      40.060  20.420  26.813  1.00  0.00     0.261 C 
BRANCH  38  39
ATOM     39  O   UNL A   1      41.425  20.000  26.974  1.00  0.00    -0.460 OA
BRANCH  39  40
ATOM     40  C   UNL A   1      42.320  20.615  26.168  1.00  0.00     0.338 C 
ATOM     41  O   UNL A   1      42.848  20.140  25.175  1.00  0.00    -0.246 OA
BRANCH  40  42
ATOM     42  C   UNL A   1      42.484  22.039  26.553  1.00  0.00     0.060 A 
ATOM     43  C   UNL A   1      42.455  22.993  25.528  1.00  0.00     0.016 A 
ATOM     44  C   UNL A   1      42.708  22.450  27.865  1.00  0.00     0.016 A 
ATOM     45  C   UNL A   1      42.699  24.346  25.796  1.00  0.00     0.010 A 
ATOM     46  C   UNL A   1      42.943  23.809  28.129  1.00  0.00     0.010 A 
ATOM     47  C   UNL A   1      42.972  24.776  27.100  1.00  0.00    -0.014 A 
BRANCH  47  48
ATOM     48  C   UNL A   1      43.407  26.182  27.389  1.00  0.00     0.031 A 
ATOM     49  C   UNL A   1      44.870  26.540  27.236  1.00  0.00     0.074 A 
ATOM     50  C   UNL A   1      42.553  27.148  27.793  1.00  0.00     0.049 A 
ATOM     51  N   UNL A   1      45.485  27.660  27.524  1.00  0.00    -0.248 NA
ATOM     52  C   UNL A   1      45.755  25.503  26.678  1.00  0.00     0.031 C 
ATOM     53  C   UNL A   1      41.106  27.006  27.944  1.00  0.00     0.029 A 
ATOM     54  N   UNL A   1      42.795  28.437  28.224  1.00  0.00    -0.354 N 
ATOM     55  C   UNL A   1      46.815  27.465  27.167  1.00  0.00     0.074 A 
ATOM     56  C   UNL A   1      46.939  26.090  26.738  1.00  0.00     0.031 C 
ATOM     57  C   UNL A   1      40.609  28.104  28.542  1.00  0.00     0.029 A 
ATOM     58  C   UNL A   1      41.696  29.039  28.805  1.00  0.00     0.049 A 
ATOM     59  H   UNL A   1      43.667  28.884  28.126  1.00  0.00     0.167 HD
ATOM     60  C   UNL A   1      47.830  28.359  27.124  1.00  0.00     0.034 A 
ATOM     61  C   UNL A   1      41.577  30.192  29.496  1.00  0.00     0.034 A 
ATOM     62  C   UNL A   1      47.716  29.739  27.504  1.00  0.00     0.049 A 
ATOM     63  C   UNL A   1      42.755  31.130  29.568  1.00  0.00     0.074 A 
ATOM     64  C   UNL A   1      48.670  30.737  27.414  1.00  0.00     0.029 A 
ATOM     65  N   UNL A   1      46.584  30.317  28.051  1.00  0.00    -0.354 N 
ATOM     66  N   UNL A   1      43.969  30.969  29.102  1.00  0.00    -0.248 NA
ATOM     67  C   UNL A   1      42.522  32.448  30.181  1.00  0.00     0.031 C 
ATOM     68  C   UNL A   1      48.126  31.912  27.942  1.00  0.00     0.029 A 
ATOM     69  C   UNL A   1      46.820  31.654  28.320  1.00  0.00     0.049 A 
ATOM     70  H   UNL A   1      45.736  29.847  28.223  1.00  0.00     0.167 HD
ATOM     71  C   UNL A   1      44.606  32.195  29.268  1.00  0.00     0.074 A 
ATOM     72  C   UNL A   1      43.656  33.078  29.909  1.00  0.00     0.031 C 
ATOM     73  C   UNL A   1      45.858  32.557  28.897  1.00  0.00     0.034 A 
BRANCH  60  74
ATOM     74  C   UNL A   1      49.147  27.885  26.565  1.00  0.00     0.023 A 
ATOM     75  C   UNL A   1      50.086  27.281  27.427  1.00  0.00     0.012 A 
ATOM     76  C   UNL A   1      49.430  27.978  25.190  1.00  0.00     0.148 A 
ATOM     77  C   UNL A   1      51.303  26.812  26.937  1.00  0.00     0.002 A 
ATOM     78  C   UNL A   1      50.624  27.464  24.700  1.00  0.00     0.091 A 
ATOM     79  F   UNL A   1      48.529  28.568  24.391  1.00  0.00    -0.205 F 
ATOM     80  C   UNL A   1      51.567  26.894  25.572  1.00  0.00     0.022 A 
BRANCH  78  81
ATOM     81  S   UNL A   1      51.026  27.446  22.951  1.00  0.00     0.127 S 
ATOM     82  O   UNL A   1      52.364  26.854  22.962  1.00  0.00    -0.237 OA
ATOM     83  O   UNL A   1      49.981  26.580  22.406  1.00  0.00    -0.237 OA
ATOM     84  O   UNL A   1      50.966  28.832  22.508  1.00  0.00    -0.744 OA
ENDBRANCH  78  81
ENDBRANCH  60  74
BRANCH  61  85
ATOM     85  C   UNL A   1      40.279  30.591  30.122  1.00  0.00     0.023 A 
ATOM     86  C   UNL A   1      39.286  31.194  29.326  1.00  0.00     0.012 A 
ATOM     87  C   UNL A   1      40.052  30.447  31.506  1.00  0.00     0.148 A 
ATOM     88  C   UNL A   1      38.114  31.689  29.902  1.00  0.00     0.002 A 
ATOM     89  C   UNL A   1      38.861  30.899  32.067  1.00  0.00     0.091 A 
ATOM     90  F   UNL A   1      41.022  29.922  32.260  1.00  0.00    -0.205 F 
ATOM     91  C   UNL A   1      37.899  31.537  31.269  1.00  0.00     0.022 A 
BRANCH  89  92
ATOM     92  S   UNL A   1      38.461  30.706  33.810  1.00  0.00     0.127 S 
ATOM     93  O   UNL A   1      39.692  31.167  34.450  1.00  0.00    -0.237 OA
ATOM     94  O   UNL A   1      37.321  31.610  33.957  1.00  0.00    -0.237 OA
ATOM     95  O   UNL A   1      38.151  29.296  34.000  1.00  0.00    -0.744 OA
ENDBRANCH  89  92
ENDBRANCH  61  85
BRANCH  73  96
ATOM     96  C   UNL A   1      46.268  33.995  29.080  1.00  0.00     0.023 A 
ATOM     97  C   UNL A   1      46.924  34.408  30.255  1.00  0.00     0.012 A 
ATOM     98  C   UNL A   1      46.064  34.927  28.041  1.00  0.00     0.148 A 
ATOM     99  C   UNL A   1      47.338  35.731  30.409  1.00  0.00     0.002 A 
ATOM    100  C   UNL A   1      46.529  36.229  28.177  1.00  0.00     0.091 A 
ATOM    101  F   UNL A   1      45.421  34.522  26.935  1.00  0.00    -0.205 F 
ATOM    102  C   UNL A   1      47.152  36.638  29.366  1.00  0.00     0.022 A 
BRANCH 100 103
ATOM    103  S   UNL A   1      46.430  37.435  26.849  1.00  0.00     0.127 S 
ATOM    104  O   UNL A   1      47.445  38.408  27.254  1.00  0.00    -0.237 OA
ATOM    105  O   UNL A   1      46.785  36.634  25.678  1.00  0.00    -0.237 OA
ATOM    106  O   UNL A   1      45.059  37.928  26.852  1.00  0.00    -0.744 OA
ENDBRANCH 100 103
ENDBRANCH  73  96
ENDBRANCH  47  48
ENDBRANCH  40  42
ENDBRANCH  39  40
ENDBRANCH  38  39
ENDBRANCH  37  38
ENDBRANCH  36  37
ENDBRANCH   1  36
TORSDOF 22
ENDMDL
MODEL 2
REMARK VINA RESULT:      -9.8      4.415     10.138
REMARK SMILES Cc1cc(C)cc(Oc2nc3ccccn3c(=O)c2/C=C2\SC(=S)N(CCC(=O)OCCOCCOC(=O)c3ccc(-c4c5nc(c(-c6cccc(S(=O)(=O)[O-])c6F)c6ccc([nH]6)c(-c6cccc(S(=O)(=O)[O-])c6F)c6nc(c(-c7cccc(S(=O)(=O)[O-])c7F)c7ccc4[nH]7)C=C6)C=C5)cc3)C2=O)c1
REMARK SMILES IDX 32 1 31 2 30 3 28 4 29 5 27 6 26 7 25 8 20 9 21 10 22 11
REMARK SMILES IDX 102 12 23 13 103 14 24 15 19 16 9 17 10 18 11 19 17 20 12 21
REMARK SMILES IDX 16 22 18 23 13 24 15 25 14 26 8 27 7 28 1 29 2 30 3 31
REMARK SMILES IDX 104 32 4 33 5 34 6 35 33 36 34 37 35 38 36 39 37 40 38 41
REMARK SMILES IDX 39 42 40 43 101 44 41 45 100 46 42 47 43 48 44 49 94 50
REMARK SMILES IDX 45 51 99 52 93 53 95 54 46 55 98 56 92 57 91 58 47 60 79 61
REMARK SMILES IDX 59 62 78 63 60 64 63 65 77 66 96 67 61 68 62 69 76 71 97 72
REMARK SMILES IDX 64 73 48 74 49 75 57 76 50 77 52 78 58 79 51 80 53 81 54 82
REMARK SMILES IDX 55 83 56 84 80 85 81 86 89 87 82 88 84 89 90 90 83 91 85 92
REMARK SMILES IDX 86 93 87 94 88 95 65 96 66 97 74 98 67 99 69 100 75 101
REMARK SMILES IDX 68 102 70 103 71 104 72 105 73 106
REMARK H PARENT 95 59 63 70
REMARK Flexibility Score: inf
ROOT
ATOM      1  C   UNL A   1      45.756  21.668  25.384  1.00  0.00     0.202 C 
ENDROOT
BRANCH   1   2
ATOM      2  C   UNL A   1      44.927  20.374  25.303  1.00  0.00     0.261 C 
BRANCH   2   3
ATOM      3  O   UNL A   1      43.570  20.581  24.859  1.00  0.00    -0.463 OA
BRANCH   3   4
ATOM      4  C   UNL A   1      42.575  20.020  25.584  1.00  0.00     0.307 C 
ATOM      5  O   UNL A   1      42.472  18.827  25.841  1.00  0.00    -0.252 OA
BRANCH   4   6
ATOM      6  C   UNL A   1      41.563  21.049  26.042  1.00  0.00     0.144 C 
BRANCH   6   7
ATOM      7  C   UNL A   1      40.186  20.497  26.431  1.00  0.00     0.139 C 
BRANCH   7   8
ATOM      8  N   UNL A   1      39.060  21.375  26.080  1.00  0.00    -0.292 N 
ATOM      9  C   UNL A   1      35.789  21.433  24.636  1.00  0.00     0.041 C 
ATOM     10  C   UNL A   1      36.970  21.847  25.111  1.00  0.00     0.081 C 
ATOM     11  S   UNL A   1      37.434  23.361  25.759  1.00  0.00    -0.054 SA
ATOM     12  C   UNL A   1      38.083  20.898  25.237  1.00  0.00     0.266 C 
ATOM     13  C   UNL A   1      38.929  22.704  26.425  1.00  0.00     0.148 C 
ATOM     14  O   UNL A   1      38.129  19.853  24.607  1.00  0.00    -0.268 OA
ATOM     15  S   UNL A   1      39.979  23.634  27.330  1.00  0.00    -0.052 S 
BRANCH   9  16
ATOM     16  C   UNL A   1      34.594  22.240  24.491  1.00  0.00     0.104 A 
ATOM     17  C   UNL A   1      33.397  21.943  25.039  1.00  0.00     0.234 A 
ATOM     18  N   UNL A   1      32.273  22.678  24.794  1.00  0.00    -0.194 NA
ATOM     19  C   UNL A   1      32.314  23.656  23.954  1.00  0.00     0.143 A 
ATOM     20  C   UNL A   1      34.652  23.406  23.553  1.00  0.00     0.269 A 
ATOM     21  C   UNL A   1      31.066  24.409  23.651  1.00  0.00     0.048 A 
ATOM     22  N   UNL A   1      33.464  24.060  23.299  1.00  0.00    -0.267 N 
ATOM     23  O   UNL A   1      35.721  23.688  23.001  1.00  0.00    -0.268 OA
ATOM     24  C   UNL A   1      31.085  25.405  22.760  1.00  0.00     0.005 A 
ATOM     25  C   UNL A   1      33.436  25.101  22.377  1.00  0.00     0.096 A 
ATOM     26  C   UNL A   1      32.309  25.764  22.095  1.00  0.00     0.019 A 
BRANCH  17  27
ATOM     27  O   UNL A   1      33.135  20.764  25.746  1.00  0.00    -0.438 OA
BRANCH  27  28
ATOM     28  C   UNL A   1      32.912  19.551  25.151  1.00  0.00     0.130 A 
ATOM     29  C   UNL A   1      32.801  15.839  25.872  1.00  0.00     0.044 C 
ATOM     30  C   UNL A   1      32.745  17.140  25.136  1.00  0.00    -0.047 A 
ATOM     31  C   UNL A   1      32.554  17.168  23.748  1.00  0.00     0.007 A 
ATOM     32  C   UNL A   1      32.857  18.344  25.836  1.00  0.00     0.050 A 
ATOM     33  C   UNL A   1      32.486  18.386  23.059  1.00  0.00    -0.047 A 
ATOM     34  C   UNL A   1      32.138  18.403  21.600  1.00  0.00     0.044 C 
ATOM     35  C   UNL A   1      32.693  19.576  23.768  1.00  0.00     0.050 A 
ENDBRANCH  27  28
ENDBRANCH  17  27
ENDBRANCH   9  16
ENDBRANCH   7   8
ENDBRANCH   6   7
ENDBRANCH   4   6
ENDBRANCH   3   4
ENDBRANCH   2   3
ENDBRANCH   1   2
BRANCH   1  36
ATOM     36  O   UNL A   1      45.376  22.711  24.480  1.00  0.00    -0.374 OA
BRANCH  36  37
ATOM     37  C   UNL A   1      45.349  24.025  25.033  1.00  0.00     0.202 C 
BRANCH  37  38
ATOM     38  C   UNL A   1      44.002  24.768  24.983  1.00  0.00     0.261 C 
BRANCH  38  39
ATOM     39  O   UNL A   1      43.937  25.901  25.865  1.00  0.00    -0.460 OA
BRANCH  39  40
ATOM     40  C   UNL A   1      42.901  26.744  25.651  1.00  0.00     0.338 C 
ATOM     41  O   UNL A   1      41.838  26.465  25.120  1.00  0.00    -0.246 OA
BRANCH  40  42
ATOM     42  C   UNL A   1      43.150  28.058  26.294  1.00  0.00     0.060 A 
ATOM     43  C   UNL A   1      44.369  28.230  26.962  1.00  0.00     0.016 A 
ATOM     44  C   UNL A   1      42.214  29.090  26.299  1.00  0.00     0.016 A 
ATOM     45  C   UNL A   1      44.639  29.405  27.676  1.00  0.00     0.010 A 
ATOM     46  C   UNL A   1      42.494  30.269  27.009  1.00  0.00     0.010 A 
ATOM     47  C   UNL A   1      43.695  30.437  27.733  1.00  0.00    -0.014 A 
BRANCH  47  48
ATOM     48  C   UNL A   1      43.884  31.626  28.628  1.00  0.00     0.031 A 
ATOM     49  C   UNL A   1      42.822  31.939  29.660  1.00  0.00     0.074 A 
ATOM     50  C   UNL A   1      44.958  32.443  28.550  1.00  0.00     0.049 A 
ATOM     51  N   UNL A   1      42.728  32.964  30.470  1.00  0.00    -0.248 NA
ATOM     52  C   UNL A   1      41.727  30.964  29.806  1.00  0.00     0.031 C 
ATOM     53  C   UNL A   1      46.103  32.271  27.658  1.00  0.00     0.029 A 
ATOM     54  N   UNL A   1      45.226  33.636  29.190  1.00  0.00    -0.354 N 
ATOM     55  C   UNL A   1      41.580  32.747  31.224  1.00  0.00     0.074 A 
ATOM     56  C   UNL A   1      40.958  31.548  30.710  1.00  0.00     0.031 C 
ATOM     57  C   UNL A   1      46.882  33.367  27.716  1.00  0.00     0.029 A 
ATOM     58  C   UNL A   1      46.304  34.315  28.660  1.00  0.00     0.049 A 
ATOM     59  H   UNL A   1      44.700  33.969  29.953  1.00  0.00     0.167 HD
ATOM     60  C   UNL A   1      41.118  33.431  32.298  1.00  0.00     0.034 A 
ATOM     61  C   UNL A   1      46.761  35.567  28.879  1.00  0.00     0.034 A 
ATOM     62  C   UNL A   1      41.747  34.597  32.851  1.00  0.00     0.049 A 
ATOM     63  C   UNL A   1      46.151  36.387  29.987  1.00  0.00     0.074 A 
ATOM     64  C   UNL A   1      41.395  35.306  33.986  1.00  0.00     0.029 A 
ATOM     65  N   UNL A   1      42.851  35.233  32.310  1.00  0.00    -0.354 N 
ATOM     66  N   UNL A   1      45.145  36.095  30.773  1.00  0.00    -0.248 NA
ATOM     67  C   UNL A   1      46.798  37.672  30.299  1.00  0.00     0.031 C 
ATOM     68  C   UNL A   1      42.266  36.393  34.112  1.00  0.00     0.029 A 
ATOM     69  C   UNL A   1      43.184  36.335  33.078  1.00  0.00     0.049 A 
ATOM     70  H   UNL A   1      43.328  34.943  31.499  1.00  0.00     0.167 HD
ATOM     71  C   UNL A   1      45.108  37.101  31.734  1.00  0.00     0.074 A 
ATOM     72  C   UNL A   1      46.170  38.029  31.411  1.00  0.00     0.031 C 
ATOM     73  C   UNL A   1      44.281  37.225  32.801  1.00  0.00     0.034 A 
BRANCH  60  74
ATOM     74  C   UNL A   1      39.905  32.880  33.000  1.00  0.00     0.023 A 
ATOM     75  C   UNL A   1      40.065  31.854  33.956  1.00  0.00     0.012 A 
ATOM     76  C   UNL A   1      38.624  33.413  32.766  1.00  0.00     0.148 A 
ATOM     77  C   UNL A   1      38.965  31.340  34.638  1.00  0.00     0.002 A 
ATOM     78  C   UNL A   1      37.538  32.929  33.486  1.00  0.00     0.091 A 
ATOM     79  F   UNL A   1      38.492  34.377  31.844  1.00  0.00    -0.205 F 
ATOM     80  C   UNL A   1      37.704  31.884  34.410  1.00  0.00     0.022 A 
BRANCH  78  81
ATOM     81  S   UNL A   1      35.887  33.615  33.328  1.00  0.00     0.127 S 
ATOM     82  O   UNL A   1      35.272  33.198  34.588  1.00  0.00    -0.237 OA
ATOM     83  O   UNL A   1      36.160  35.048  33.227  1.00  0.00    -0.237 OA
ATOM     84  O   UNL A   1      35.313  33.016  32.131  1.00  0.00    -0.744 OA
ENDBRANCH  78  81
ENDBRANCH  60  74
BRANCH  61  85
ATOM     85  C   UNL A   1      47.909  36.122  28.098  1.00  0.00     0.023 A 
ATOM     86  C   UNL A   1      47.653  36.878  26.938  1.00  0.00     0.012 A 
ATOM     87  C   UNL A   1      49.245  35.843  28.450  1.00  0.00     0.148 A 
ATOM     88  C   UNL A   1      48.700  37.306  26.120  1.00  0.00     0.002 A 
ATOM     89  C   UNL A   1      50.288  36.313  27.656  1.00  0.00     0.091 A 
ATOM     90  F   UNL A   1      49.475  35.080  29.523  1.00  0.00    -0.205 F 
ATOM     91  C   UNL A   1      50.015  37.029  26.481  1.00  0.00     0.022 A 
BRANCH  89  92
ATOM     92  S   UNL A   1      52.022  36.056  28.060  1.00  0.00     0.127 S 
ATOM     93  O   UNL A   1      52.494  35.321  26.888  1.00  0.00    -0.237 OA
ATOM     94  O   UNL A   1      52.512  37.431  28.158  1.00  0.00    -0.237 OA
ATOM     95  O   UNL A   1      52.040  35.311  29.310  1.00  0.00    -0.744 OA
ENDBRANCH  89  92
ENDBRANCH  61  85
BRANCH  73  96
ATOM     96  C   UNL A   1      44.532  38.352  33.769  1.00  0.00     0.023 A 
ATOM     97  C   UNL A   1      45.482  38.211  34.799  1.00  0.00     0.012 A 
ATOM     98  C   UNL A   1      43.870  39.587  33.605  1.00  0.00     0.148 A 
ATOM     99  C   UNL A   1      45.742  39.268  35.673  1.00  0.00     0.002 A 
ATOM    100  C   UNL A   1      44.175  40.652  34.443  1.00  0.00     0.091 A 
ATOM    101  F   UNL A   1      42.956  39.698  32.630  1.00  0.00    -0.205 F 
ATOM    102  C   UNL A   1      45.100  40.491  35.487  1.00  0.00     0.022 A 
BRANCH 100 103
ATOM    103  S   UNL A   1      43.478  42.292  34.214  1.00  0.00     0.127 S 
ATOM    104  O   UNL A   1      44.139  42.728  32.984  1.00  0.00    -0.237 OA
ATOM    105  O   UNL A   1      42.051  42.004  34.070  1.00  0.00    -0.237 OA
ATOM    106  O   UNL A   1      43.824  43.050  35.409  1.00  0.00    -0.744 OA
ENDBRANCH 100 103
ENDBRANCH  73  96
ENDBRANCH  47  48
ENDBRANCH  40  42
ENDBRANCH  39  40
ENDBRANCH  38  39
ENDBRANCH  37  38
ENDBRANCH  36  37
ENDBRANCH   1  36
TORSDOF 22
ENDMDL
MODEL 3
REMARK VINA RESULT:      -9.8      2.071      2.487
REMARK SMILES Cc1cc(C)cc(Oc2nc3ccccn3c(=O)c2/C=C2\SC(=S)N(CCC(=O)OCCOCCOC(=O)c3ccc(-c4c5nc(c(-c6cccc(S(=O)(=O)[O-])c6F)c6ccc([nH]6)c(-c6cccc(S(=O)(=O)[O-])c6F)c6nc(c(-c7cccc(S(=O)(=O)[O-])c7F)c7ccc4[nH]7)C=C6)C=C5)cc3)C2=O)c1
REMARK SMILES IDX 32 1 31 2 30 3 28 4 29 5 27 6 26 7 25 8 20 9 21 10 22 11
REMARK SMILES IDX 102 12 23 13 103 14 24 15 19 16 9 17 10 18 11 19 17 20 12 21
REMARK SMILES IDX 16 22 18 23 13 24 15 25 14 26 8 27 7 28 1 29 2 30 3 31
REMARK SMILES IDX 104 32 4 33 5 34 6 35 33 36 34 37 35 38 36 39 37 40 38 41
REMARK SMILES IDX 39 42 40 43 101 44 41 45 100 46 42 47 43 48 44 49 94 50
REMARK SMILES IDX 45 51 99 52 93 53 95 54 46 55 98 56 92 57 91 58 47 60 79 61
REMARK SMILES IDX 59 62 78 63 60 64 63 65 77 66 96 67 61 68 62 69 76 71 97 72
REMARK SMILES IDX 64 73 48 74 49 75 57 76 50 77 52 78 58 79 51 80 53 81 54 82
REMARK SMILES IDX 55 83 56 84 80 85 81 86 89 87 82 88 84 89 90 90 83 91 85 92
REMARK SMILES IDX 86 93 87 94 88 95 65 96 66 97 74 98 67 99 69 100 75 101
REMARK SMILES IDX 68 102 70 103 71 104 72 105 73 106
REMARK H PARENT 95 59 63 70
REMARK Flexibility Score: inf
ROOT
ATOM      1  C   UNL A   1      38.885  21.994  25.838  1.00  0.00     0.202 C 
ENDROOT
BRANCH   1   2
ATOM      2  C   UNL A   1      37.460  22.553  25.675  1.00  0.00     0.261 C 
BRANCH   2   3
ATOM      3  O   UNL A   1      36.626  21.767  24.798  1.00  0.00    -0.463 OA
BRANCH   3   4
ATOM      4  C   UNL A   1      35.885  22.424  23.876  1.00  0.00     0.307 C 
ATOM      5  O   UNL A   1      36.333  23.091  22.952  1.00  0.00    -0.252 OA
BRANCH   4   6
ATOM      6  C   UNL A   1      34.401  22.259  24.125  1.00  0.00     0.144 C 
BRANCH   6   7
ATOM      7  C   UNL A   1      33.911  22.679  25.516  1.00  0.00     0.139 C 
BRANCH   7   8
ATOM      8  N   UNL A   1      33.065  23.881  25.524  1.00  0.00    -0.292 N 
ATOM      9  C   UNL A   1      32.995  27.365  24.723  1.00  0.00     0.041 C 
ATOM     10  C   UNL A   1      32.653  26.179  25.240  1.00  0.00     0.081 C 
ATOM     11  S   UNL A   1      31.126  25.582  25.730  1.00  0.00    -0.054 SA
ATOM     12  C   UNL A   1      33.655  25.111  25.349  1.00  0.00     0.266 C 
ATOM     13  C   UNL A   1      31.715  23.922  25.808  1.00  0.00     0.148 C 
ATOM     14  O   UNL A   1      34.855  25.334  25.342  1.00  0.00    -0.268 OA
ATOM     15  S   UNL A   1      30.710  22.643  26.186  1.00  0.00    -0.052 S 
BRANCH   9  16
ATOM     16  C   UNL A   1      32.111  28.496  24.518  1.00  0.00     0.104 A 
ATOM     17  C   UNL A   1      31.857  29.447  25.441  1.00  0.00     0.234 A 
ATOM     18  N   UNL A   1      30.941  30.439  25.240  1.00  0.00    -0.194 NA
ATOM     19  C   UNL A   1      30.225  30.448  24.167  1.00  0.00     0.143 A 
ATOM     20  C   UNL A   1      31.315  28.534  23.250  1.00  0.00     0.269 A 
ATOM     21  C   UNL A   1      29.187  31.500  23.992  1.00  0.00     0.048 A 
ATOM     22  N   UNL A   1      30.358  29.523  23.147  1.00  0.00    -0.267 N 
ATOM     23  O   UNL A   1      31.491  27.658  22.396  1.00  0.00    -0.268 OA
ATOM     24  C   UNL A   1      28.417  31.505  22.899  1.00  0.00     0.005 A 
ATOM     25  C   UNL A   1      29.533  29.566  22.028  1.00  0.00     0.096 A 
ATOM     26  C   UNL A   1      28.590  30.503  21.883  1.00  0.00     0.019 A 
BRANCH  17  27
ATOM     27  O   UNL A   1      32.348  29.413  26.750  1.00  0.00    -0.438 OA
BRANCH  27  28
ATOM     28  C   UNL A   1      33.429  30.136  27.178  1.00  0.00     0.130 A 
ATOM     29  C   UNL A   1      34.494  33.629  28.168  1.00  0.00     0.044 C 
ATOM     30  C   UNL A   1      34.548  32.164  27.869  1.00  0.00    -0.047 A 
ATOM     31  C   UNL A   1      35.763  31.469  27.919  1.00  0.00     0.007 A 
ATOM     32  C   UNL A   1      33.375  31.470  27.560  1.00  0.00     0.050 A 
ATOM     33  C   UNL A   1      35.814  30.094  27.653  1.00  0.00    -0.047 A 
ATOM     34  C   UNL A   1      37.095  29.339  27.853  1.00  0.00     0.044 C 
ATOM     35  C   UNL A   1      34.641  29.440  27.257  1.00  0.00     0.050 A 
ENDBRANCH  27  28
ENDBRANCH  17  27
ENDBRANCH   9  16
ENDBRANCH   7   8
ENDBRANCH   6   7
ENDBRANCH   4   6
ENDBRANCH   3   4
ENDBRANCH   2   3
ENDBRANCH   1   2
BRANCH   1  36
ATOM     36  O   UNL A   1      39.047  20.602  25.550  1.00  0.00    -0.374 OA
BRANCH  36  37
ATOM     37  C   UNL A   1      40.174  19.974  26.157  1.00  0.00     0.202 C 
BRANCH  37  38
ATOM     38  C   UNL A   1      40.771  20.671  27.392  1.00  0.00     0.261 C 
BRANCH  38  39
ATOM     39  O   UNL A   1      42.184  20.913  27.289  1.00  0.00    -0.460 OA
BRANCH  39  40
ATOM     40  C   UNL A   1      42.557  21.760  26.302  1.00  0.00     0.338 C 
ATOM     41  O   UNL A   1      42.653  21.491  25.115  1.00  0.00    -0.246 OA
BRANCH  40  42
ATOM     42  C   UNL A   1      42.697  23.143  26.820  1.00  0.00     0.060 A 
ATOM     43  C   UNL A   1      42.868  24.170  25.883  1.00  0.00     0.016 A 
ATOM     44  C   UNL A   1      42.712  23.447  28.180  1.00  0.00     0.016 A 
ATOM     45  C   UNL A   1      43.105  25.488  26.295  1.00  0.00     0.010 A 
ATOM     46  C   UNL A   1      42.941  24.772  28.586  1.00  0.00     0.010 A 
ATOM     47  C   UNL A   1      43.169  25.809  27.655  1.00  0.00    -0.014 A 
BRANCH  47  48
ATOM     48  C   UNL A   1      43.593  27.170  28.122  1.00  0.00     0.031 A 
ATOM     49  C   UNL A   1      45.066  27.444  28.335  1.00  0.00     0.074 A 
ATOM     50  C   UNL A   1      42.715  28.167  28.375  1.00  0.00     0.049 A 
ATOM     51  N   UNL A   1      45.650  28.509  28.825  1.00  0.00    -0.248 NA
ATOM     52  C   UNL A   1      46.006  26.382  27.936  1.00  0.00     0.031 C 
ATOM     53  C   UNL A   1      41.268  28.107  28.177  1.00  0.00     0.029 A 
ATOM     54  N   UNL A   1      42.912  29.416  28.929  1.00  0.00    -0.354 N 
ATOM     55  C   UNL A   1      47.015  28.250  28.776  1.00  0.00     0.074 A 
ATOM     56  C   UNL A   1      47.170  26.892  28.304  1.00  0.00     0.031 C 
ATOM     57  C   UNL A   1      40.699  29.204  28.710  1.00  0.00     0.029 A 
ATOM     58  C   UNL A   1      41.738  30.056  29.274  1.00  0.00     0.049 A 
ATOM     59  H   UNL A   1      43.803  29.812  29.063  1.00  0.00     0.167 HD
ATOM     60  C   UNL A   1      48.055  29.081  29.024  1.00  0.00     0.034 A 
ATOM     61  C   UNL A   1      41.517  31.180  29.987  1.00  0.00     0.034 A 
ATOM     62  C   UNL A   1      47.922  30.445  29.450  1.00  0.00     0.049 A 
ATOM     63  C   UNL A   1      42.689  32.039  30.388  1.00  0.00     0.074 A 
ATOM     64  C   UNL A   1      48.918  31.385  29.645  1.00  0.00     0.029 A 
ATOM     65  N   UNL A   1      46.723  31.065  29.754  1.00  0.00    -0.354 N 
ATOM     66  N   UNL A   1      43.969  31.826  30.207  1.00  0.00    -0.248 NA
ATOM     67  C   UNL A   1      42.383  33.338  31.010  1.00  0.00     0.031 C 
ATOM     68  C   UNL A   1      48.324  32.565  30.103  1.00  0.00     0.029 A 
ATOM     69  C   UNL A   1      46.954  32.371  30.152  1.00  0.00     0.049 A 
ATOM     70  H   UNL A   1      45.837  30.640  29.696  1.00  0.00     0.167 HD
ATOM     71  C   UNL A   1      44.608  33.001  30.590  1.00  0.00     0.074 A 
ATOM     72  C   UNL A   1      43.579  33.909  31.046  1.00  0.00     0.031 C 
ATOM     73  C   UNL A   1      45.929  33.302  30.543  1.00  0.00     0.034 A 
BRANCH  60  74
ATOM     74  C   UNL A   1      49.441  28.553  28.758  1.00  0.00     0.023 A 
ATOM     75  C   UNL A   1      50.149  27.914  29.798  1.00  0.00     0.012 A 
ATOM     76  C   UNL A   1      50.017  28.632  27.477  1.00  0.00     0.148 A 
ATOM     77  C   UNL A   1      51.423  27.396  29.577  1.00  0.00     0.002 A 
ATOM     78  C   UNL A   1      51.267  28.070  27.251  1.00  0.00     0.091 A 
ATOM     79  F   UNL A   1      49.333  29.257  26.507  1.00  0.00    -0.205 F 
ATOM     80  C   UNL A   1      51.977  27.465  28.302  1.00  0.00     0.022 A 
BRANCH  78  81
ATOM     81  S   UNL A   1      52.035  28.033  25.630  1.00  0.00     0.127 S 
ATOM     82  O   UNL A   1      50.868  28.073  24.749  1.00  0.00    -0.237 OA
ATOM     83  O   UNL A   1      52.833  29.259  25.641  1.00  0.00    -0.237 OA
ATOM     84  O   UNL A   1      52.809  26.800  25.577  1.00  0.00    -0.744 OA
ENDBRANCH  78  81
ENDBRANCH  60  74
BRANCH  61  85
ATOM     85  C   UNL A   1      40.129  31.628  30.318  1.00  0.00     0.023 A 
ATOM     86  C   UNL A   1      39.493  32.575  29.491  1.00  0.00     0.012 A 
ATOM     87  C   UNL A   1      39.466  31.183  31.481  1.00  0.00     0.148 A 
ATOM     88  C   UNL A   1      38.250  33.104  29.839  1.00  0.00     0.002 A 
ATOM     89  C   UNL A   1      38.205  31.679  31.797  1.00  0.00     0.091 A 
ATOM     90  F   UNL A   1      40.100  30.325  32.286  1.00  0.00    -0.205 F 
ATOM     91  C   UNL A   1      37.603  32.653  30.987  1.00  0.00     0.022 A 
BRANCH  89  92
ATOM     92  S   UNL A   1      37.263  31.126  33.227  1.00  0.00     0.127 S 
ATOM     93  O   UNL A   1      37.928  31.840  34.315  1.00  0.00    -0.237 OA
ATOM     94  O   UNL A   1      35.921  31.613  32.906  1.00  0.00    -0.237 OA
ATOM     95  O   UNL A   1      37.394  29.677  33.262  1.00  0.00    -0.744 OA
ENDBRANCH  89  92
ENDBRANCH  61  85
BRANCH  73  96
ATOM     96  C   UNL A   1      46.353  34.702  30.903  1.00  0.00     0.023 A 
ATOM     97  C   UNL A   1      46.399  35.711  29.921  1.00  0.00     0.012 A 
ATOM     98  C   UNL A   1      46.637  35.033  32.245  1.00  0.00     0.148 A 
ATOM     99  C   UNL A   1      46.755  37.016  30.261  1.00  0.00     0.002 A 
ATOM    100  C   UNL A   1      46.936  36.346  32.585  1.00  0.00     0.091 A 
ATOM    101  F   UNL A   1      46.606  34.057  33.164  1.00  0.00    -0.205 F 
ATOM    102  C   UNL A   1      47.010  37.337  31.594  1.00  0.00     0.022 A 
BRANCH 100 103
ATOM    103  S   UNL A   1      47.174  36.873  34.287  1.00  0.00     0.127 S 
ATOM    104  O   UNL A   1      48.566  37.321  34.268  1.00  0.00    -0.237 OA
ATOM    105  O   UNL A   1      46.190  37.948  34.418  1.00  0.00    -0.237 OA
ATOM    106  O   UNL A   1      46.907  35.704  35.113  1.00  0.00    -0.744 OA
ENDBRANCH 100 103
ENDBRANCH  73  96
ENDBRANCH  47  48
ENDBRANCH  40  42
ENDBRANCH  39  40
ENDBRANCH  38  39
ENDBRANCH  37  38
ENDBRANCH  36  37
ENDBRANCH   1  36
TORSDOF 22
ENDMDL
