MODEL 1
REMARK VINA RESULT:     -11.3      0.000      0.000
REMARK SMILES O=C(CN(Cc1ccccc1Cl)S(=O)(=O)c1ccc(Cl)cc1)OCCOCCOC(=O)c1ccc(-c2c3nc(c(-c4cccc(S(=O)(=O)[O-])c4F)c4ccc([nH]4)c(-c4cccc(S(=O)(=O)[O-])c4F)c4nc(c(-c5cccc(S(=O)(=O)[O-])c5F)c5ccc2[nH]5)C=C4)C=C3)cc1
REMARK SMILES IDX 26 1 25 2 24 3 23 4 2 5 1 6 3 7 4 8 5 9 6 10 7 11 11 12 8 13
REMARK SMILES IDX 10 14 12 15 9 16 13 17 14 18 15 19 16 20 17 21 22 22 18 23
REMARK SMILES IDX 21 24 19 25 20 26 27 27 28 28 29 29 30 30 31 31 32 32 33 33
REMARK SMILES IDX 94 34 34 35 93 36 35 37 36 38 37 39 87 40 38 41 92 42 86 43
REMARK SMILES IDX 88 44 39 45 91 46 85 47 84 48 40 50 72 51 52 52 71 53 53 54
REMARK SMILES IDX 56 55 70 56 89 57 54 58 55 59 69 61 90 62 57 63 41 64 42 65
REMARK SMILES IDX 50 66 43 67 45 68 51 69 44 70 46 71 47 72 48 73 49 74 73 75
REMARK SMILES IDX 74 76 82 77 75 78 77 79 83 80 76 81 78 82 79 83 80 84 81 85
REMARK SMILES IDX 58 86 59 87 67 88 60 89 62 90 68 91 61 92 63 93 64 94 65 95
REMARK SMILES IDX 66 96
REMARK H PARENT 88 49 56 60
REMARK Flexibility Score: inf
ROOT
ATOM      1  O   UNL A   1      37.297  21.391  24.671  1.00  0.00    -0.374 OA
ENDROOT
BRANCH   1   2
ATOM      2  C   UNL A   1      35.936  21.801  24.529  1.00  0.00     0.202 C 
BRANCH   2   3
ATOM      3  C   UNL A   1      34.874  20.974  25.250  1.00  0.00     0.261 C 
BRANCH   3   4
ATOM      4  O   UNL A   1      33.939  20.373  24.343  1.00  0.00    -0.462 OA
BRANCH   4   5
ATOM      5  C   UNL A   1      32.700  20.860  24.097  1.00  0.00     0.321 C 
ATOM      6  O   UNL A   1      32.207  20.757  22.973  1.00  0.00    -0.251 OA
BRANCH   5   7
ATOM      7  C   UNL A   1      32.014  21.684  25.159  1.00  0.00     0.225 C 
BRANCH   7   8
ATOM      8  N   UNL A   1      31.889  23.166  24.976  1.00  0.00    -0.182 NA
BRANCH   8   9
ATOM      9  C   UNL A   1      30.768  23.517  24.059  1.00  0.00     0.140 C 
BRANCH   9  10
ATOM     10  C   UNL A   1      30.764  24.901  23.463  1.00  0.00    -0.014 A 
ATOM     11  C   UNL A   1      29.735  25.801  23.811  1.00  0.00     0.006 A 
ATOM     12  C   UNL A   1      31.777  25.347  22.605  1.00  0.00     0.045 A 
ATOM     13  C   UNL A   1      29.784  27.133  23.405  1.00  0.00     0.000 A 
ATOM     14  C   UNL A   1      31.841  26.690  22.229  1.00  0.00     0.021 A 
ATOM     15  Cl  UNL A   1      32.937  24.270  21.910  1.00  0.00    -0.084 Cl
ATOM     16  C   UNL A   1      30.857  27.585  22.644  1.00  0.00     0.002 A 
ENDBRANCH   9  10
ENDBRANCH   8   9
BRANCH   8  17
ATOM     17  S   UNL A   1      32.129  23.941  26.468  1.00  0.00     0.243 S 
ATOM     18  O   UNL A   1      30.885  23.840  27.199  1.00  0.00    -0.207 OA
ATOM     19  O   UNL A   1      33.347  23.393  27.022  1.00  0.00    -0.207 OA
BRANCH  17  20
ATOM     20  C   UNL A   1      32.479  25.657  26.241  1.00  0.00     0.082 A 
ATOM     21  C   UNL A   1      31.516  26.536  26.758  1.00  0.00     0.023 A 
ATOM     22  C   UNL A   1      33.621  26.156  25.618  1.00  0.00     0.023 A 
ATOM     23  C   UNL A   1      31.655  27.910  26.587  1.00  0.00     0.022 A 
ATOM     24  C   UNL A   1      33.735  27.535  25.406  1.00  0.00     0.022 A 
ATOM     25  C   UNL A   1      32.749  28.403  25.882  1.00  0.00     0.041 A 
ATOM     26  Cl  UNL A   1      32.884  30.093  25.597  1.00  0.00    -0.084 Cl
ENDBRANCH  17  20
ENDBRANCH   8  17
ENDBRANCH   7   8
ENDBRANCH   5   7
ENDBRANCH   4   5
ENDBRANCH   3   4
ENDBRANCH   2   3
ENDBRANCH   1   2
BRANCH   1  27
ATOM     27  C   UNL A   1      37.523  19.998  24.936  1.00  0.00     0.202 C 
BRANCH  27  28
ATOM     28  C   UNL A   1      38.937  19.561  25.330  1.00  0.00     0.261 C 
BRANCH  28  29
ATOM     29  O   UNL A   1      39.381  20.205  26.529  1.00  0.00    -0.460 OA
BRANCH  29  30
ATOM     30  C   UNL A   1      40.706  20.480  26.572  1.00  0.00     0.338 C 
ATOM     31  O   UNL A   1      41.613  19.794  26.122  1.00  0.00    -0.246 OA
BRANCH  30  32
ATOM     32  C   UNL A   1      40.890  21.870  27.028  1.00  0.00     0.060 A 
ATOM     33  C   UNL A   1      40.165  22.874  26.367  1.00  0.00     0.016 A 
ATOM     34  C   UNL A   1      41.747  22.185  28.084  1.00  0.00     0.016 A 
ATOM     35  C   UNL A   1      40.347  24.207  26.715  1.00  0.00     0.010 A 
ATOM     36  C   UNL A   1      41.936  23.522  28.425  1.00  0.00     0.010 A 
ATOM     37  C   UNL A   1      41.272  24.537  27.712  1.00  0.00    -0.014 A 
BRANCH  37  38
ATOM     38  C   UNL A   1      41.692  25.942  27.890  1.00  0.00     0.031 A 
ATOM     39  C   UNL A   1      43.084  26.324  27.476  1.00  0.00     0.074 A 
ATOM     40  C   UNL A   1      40.859  26.842  28.437  1.00  0.00     0.049 A 
ATOM     41  N   UNL A   1      43.709  27.460  27.624  1.00  0.00    -0.248 NA
ATOM     42  C   UNL A   1      43.884  25.278  26.814  1.00  0.00     0.031 C 
ATOM     43  C   UNL A   1      39.487  26.572  28.867  1.00  0.00     0.029 A 
ATOM     44  N   UNL A   1      41.064  28.158  28.762  1.00  0.00    -0.354 N 
ATOM     45  C   UNL A   1      44.987  27.255  27.119  1.00  0.00     0.074 A 
ATOM     46  C   UNL A   1      45.051  25.885  26.661  1.00  0.00     0.031 C 
ATOM     47  C   UNL A   1      38.985  27.682  29.438  1.00  0.00     0.029 A 
ATOM     48  C   UNL A   1      40.012  28.721  29.445  1.00  0.00     0.049 A 
ATOM     49  H   UNL A   1      41.883  28.651  28.528  1.00  0.00     0.167 HD
ATOM     50  C   UNL A   1      46.011  28.133  27.040  1.00  0.00     0.034 A 
ATOM     51  C   UNL A   1      39.912  29.923  30.044  1.00  0.00     0.034 A 
ATOM     52  C   UNL A   1      45.926  29.497  27.487  1.00  0.00     0.049 A 
ATOM     53  C   UNL A   1      41.079  30.874  29.965  1.00  0.00     0.074 A 
ATOM     54  C   UNL A   1      46.882  30.491  27.396  1.00  0.00     0.029 A 
ATOM     55  N   UNL A   1      44.829  30.049  28.127  1.00  0.00    -0.354 N 
ATOM     56  N   UNL A   1      42.239  30.712  29.377  1.00  0.00    -0.248 NA
ATOM     57  C   UNL A   1      40.911  32.185  30.609  1.00  0.00     0.031 C 
ATOM     58  C   UNL A   1      46.378  31.635  28.023  1.00  0.00     0.029 A 
ATOM     59  C   UNL A   1      45.091  31.366  28.460  1.00  0.00     0.049 A 
ATOM     60  H   UNL A   1      43.988  29.575  28.317  1.00  0.00     0.167 HD
ATOM     61  C   UNL A   1      42.927  31.909  29.547  1.00  0.00     0.074 A 
ATOM     62  C   UNL A   1      42.042  32.794  30.278  1.00  0.00     0.031 C 
ATOM     63  C   UNL A   1      44.178  32.244  29.146  1.00  0.00     0.034 A 
BRANCH  50  64
ATOM     64  C   UNL A   1      47.310  27.650  26.451  1.00  0.00     0.023 A 
ATOM     65  C   UNL A   1      48.280  27.046  27.278  1.00  0.00     0.012 A 
ATOM     66  C   UNL A   1      47.546  27.745  25.065  1.00  0.00     0.148 A 
ATOM     67  C   UNL A   1      49.476  26.573  26.739  1.00  0.00     0.002 A 
ATOM     68  C   UNL A   1      48.718  27.228  24.529  1.00  0.00     0.091 A 
ATOM     69  F   UNL A   1      46.622  28.345  24.300  1.00  0.00    -0.205 F 
ATOM     70  C   UNL A   1      49.690  26.653  25.366  1.00  0.00     0.022 A 
BRANCH  68  71
ATOM     71  S   UNL A   1      49.052  27.209  22.765  1.00  0.00     0.127 S 
ATOM     72  O   UNL A   1      48.375  25.981  22.350  1.00  0.00    -0.237 OA
ATOM     73  O   UNL A   1      48.406  28.442  22.319  1.00  0.00    -0.237 OA
ATOM     74  O   UNL A   1      50.502  27.196  22.628  1.00  0.00    -0.744 OA
ENDBRANCH  68  71
ENDBRANCH  50  64
BRANCH  51  75
ATOM     75  C   UNL A   1      38.662  30.298  30.762  1.00  0.00     0.023 A 
ATOM     76  C   UNL A   1      38.491  29.919  32.107  1.00  0.00     0.012 A 
ATOM     77  C   UNL A   1      37.649  31.038  30.121  1.00  0.00     0.148 A 
ATOM     78  C   UNL A   1      37.319  30.242  32.792  1.00  0.00     0.002 A 
ATOM     79  C   UNL A   1      36.509  31.405  30.826  1.00  0.00     0.091 A 
ATOM     80  F   UNL A   1      37.826  31.377  28.836  1.00  0.00    -0.205 F 
ATOM     81  C   UNL A   1      36.334  30.993  32.156  1.00  0.00     0.022 A 
BRANCH  79  82
ATOM     82  S   UNL A   1      35.244  32.472  30.129  1.00  0.00     0.127 S 
ATOM     83  O   UNL A   1      34.321  32.612  31.251  1.00  0.00    -0.237 OA
ATOM     84  O   UNL A   1      36.013  33.675  29.807  1.00  0.00    -0.237 OA
ATOM     85  O   UNL A   1      34.725  31.760  28.969  1.00  0.00    -0.744 OA
ENDBRANCH  79  82
ENDBRANCH  51  75
BRANCH  63  86
ATOM     86  C   UNL A   1      44.658  33.640  29.442  1.00  0.00     0.023 A 
ATOM     87  C   UNL A   1      45.293  33.923  30.667  1.00  0.00     0.012 A 
ATOM     88  C   UNL A   1      44.560  34.649  28.464  1.00  0.00     0.148 A 
ATOM     89  C   UNL A   1      45.795  35.199  30.926  1.00  0.00     0.002 A 
ATOM     90  C   UNL A   1      45.110  35.901  28.706  1.00  0.00     0.091 A 
ATOM     91  F   UNL A   1      43.939  34.361  27.309  1.00  0.00    -0.205 F 
ATOM     92  C   UNL A   1      45.716  36.182  29.941  1.00  0.00     0.022 A 
BRANCH  90  93
ATOM     93  S   UNL A   1      45.147  37.196  27.463  1.00  0.00     0.127 S 
ATOM     94  O   UNL A   1      43.731  37.320  27.119  1.00  0.00    -0.237 OA
ATOM     95  O   UNL A   1      45.693  38.328  28.214  1.00  0.00    -0.237 OA
ATOM     96  O   UNL A   1      46.006  36.707  26.393  1.00  0.00    -0.744 OA
ENDBRANCH  90  93
ENDBRANCH  63  86
ENDBRANCH  37  38
ENDBRANCH  30  32
ENDBRANCH  29  30
ENDBRANCH  28  29
ENDBRANCH  27  28
ENDBRANCH   1  27
TORSDOF 22
ENDMDL
MODEL 2
REMARK VINA RESULT:     -11.2      5.086      8.120
REMARK SMILES O=C(CN(Cc1ccccc1Cl)S(=O)(=O)c1ccc(Cl)cc1)OCCOCCOC(=O)c1ccc(-c2c3nc(c(-c4cccc(S(=O)(=O)[O-])c4F)c4ccc([nH]4)c(-c4cccc(S(=O)(=O)[O-])c4F)c4nc(c(-c5cccc(S(=O)(=O)[O-])c5F)c5ccc2[nH]5)C=C4)C=C3)cc1
REMARK SMILES IDX 26 1 25 2 24 3 23 4 2 5 1 6 3 7 4 8 5 9 6 10 7 11 11 12 8 13
REMARK SMILES IDX 10 14 12 15 9 16 13 17 14 18 15 19 16 20 17 21 22 22 18 23
REMARK SMILES IDX 21 24 19 25 20 26 27 27 28 28 29 29 30 30 31 31 32 32 33 33
REMARK SMILES IDX 94 34 34 35 93 36 35 37 36 38 37 39 87 40 38 41 92 42 86 43
REMARK SMILES IDX 88 44 39 45 91 46 85 47 84 48 40 50 72 51 52 52 71 53 53 54
REMARK SMILES IDX 56 55 70 56 89 57 54 58 55 59 69 61 90 62 57 63 41 64 42 65
REMARK SMILES IDX 50 66 43 67 45 68 51 69 44 70 46 71 47 72 48 73 49 74 73 75
REMARK SMILES IDX 74 76 82 77 75 78 77 79 83 80 76 81 78 82 79 83 80 84 81 85
REMARK SMILES IDX 58 86 59 87 67 88 60 89 62 90 68 91 61 92 63 93 64 94 65 95
REMARK SMILES IDX 66 96
REMARK H PARENT 88 49 56 60
REMARK Flexibility Score: inf
ROOT
ATOM      1  O   UNL A   1      30.571  29.880  24.502  1.00  0.00    -0.374 OA
ENDROOT
BRANCH   1   2
ATOM      2  C   UNL A   1      31.319  28.794  23.953  1.00  0.00     0.202 C 
BRANCH   2   3
ATOM      3  C   UNL A   1      30.690  28.020  22.797  1.00  0.00     0.261 C 
BRANCH   3   4
ATOM      4  O   UNL A   1      30.453  26.643  23.124  1.00  0.00    -0.462 OA
BRANCH   4   5
ATOM      5  C   UNL A   1      29.703  26.231  24.172  1.00  0.00     0.321 C 
ATOM      6  O   UNL A   1      28.486  26.421  24.176  1.00  0.00    -0.251 OA
BRANCH   5   7
ATOM      7  C   UNL A   1      30.396  25.702  25.405  1.00  0.00     0.225 C 
BRANCH   7   8
ATOM      8  N   UNL A   1      31.541  24.748  25.255  1.00  0.00    -0.182 NA
BRANCH   8   9
ATOM      9  C   UNL A   1      32.841  25.462  25.123  1.00  0.00     0.140 C 
BRANCH   9  10
ATOM     10  C   UNL A   1      34.025  24.668  24.632  1.00  0.00    -0.014 A 
ATOM     11  C   UNL A   1      35.128  24.470  25.488  1.00  0.00     0.006 A 
ATOM     12  C   UNL A   1      34.052  24.077  23.363  1.00  0.00     0.045 A 
ATOM     13  C   UNL A   1      36.167  23.614  25.127  1.00  0.00     0.000 A 
ATOM     14  C   UNL A   1      35.076  23.194  23.019  1.00  0.00     0.021 A 
ATOM     15  Cl  UNL A   1      32.887  24.458  22.143  1.00  0.00    -0.084 Cl
ATOM     16  C   UNL A   1      36.122  22.948  23.908  1.00  0.00     0.002 A 
ENDBRANCH   9  10
ENDBRANCH   8   9
BRANCH   8  17
ATOM     17  S   UNL A   1      31.320  23.433  26.308  1.00  0.00     0.243 S 
ATOM     18  O   UNL A   1      31.789  23.854  27.610  1.00  0.00    -0.207 OA
ATOM     19  O   UNL A   1      29.955  22.993  26.132  1.00  0.00    -0.207 OA
BRANCH  17  20
ATOM     20  C   UNL A   1      32.300  22.051  25.808  1.00  0.00     0.082 A 
ATOM     21  C   UNL A   1      31.934  21.473  24.583  1.00  0.00     0.023 A 
ATOM     22  C   UNL A   1      33.378  21.543  26.529  1.00  0.00     0.023 A 
ATOM     23  C   UNL A   1      32.597  20.342  24.115  1.00  0.00     0.022 A 
ATOM     24  C   UNL A   1      34.012  20.379  26.079  1.00  0.00     0.022 A 
ATOM     25  C   UNL A   1      33.612  19.779  24.882  1.00  0.00     0.041 A 
ATOM     26  Cl  UNL A   1      34.379  18.336  24.348  1.00  0.00    -0.084 Cl
ENDBRANCH  17  20
ENDBRANCH   8  17
ENDBRANCH   7   8
ENDBRANCH   5   7
ENDBRANCH   4   5
ENDBRANCH   3   4
ENDBRANCH   2   3
ENDBRANCH   1   2
BRANCH   1  27
ATOM     27  C   UNL A   1      31.237  30.685  25.487  1.00  0.00     0.202 C 
BRANCH  27  28
ATOM     28  C   UNL A   1      32.631  30.250  25.949  1.00  0.00     0.261 C 
BRANCH  28  29
ATOM     29  O   UNL A   1      32.853  30.548  27.332  1.00  0.00    -0.460 OA
BRANCH  29  30
ATOM     30  C   UNL A   1      33.579  31.666  27.565  1.00  0.00     0.338 C 
ATOM     31  O   UNL A   1      33.162  32.814  27.620  1.00  0.00    -0.246 OA
BRANCH  30  32
ATOM     32  C   UNL A   1      34.934  31.273  27.995  1.00  0.00     0.060 A 
ATOM     33  C   UNL A   1      35.140  29.932  28.352  1.00  0.00     0.016 A 
ATOM     34  C   UNL A   1      35.981  32.195  28.042  1.00  0.00     0.016 A 
ATOM     35  C   UNL A   1      36.381  29.521  28.824  1.00  0.00     0.010 A 
ATOM     36  C   UNL A   1      37.222  31.783  28.524  1.00  0.00     0.010 A 
ATOM     37  C   UNL A   1      37.410  30.459  28.959  1.00  0.00    -0.014 A 
BRANCH  37  38
ATOM     38  C   UNL A   1      38.626  30.113  29.723  1.00  0.00     0.031 A 
ATOM     39  C   UNL A   1      39.558  29.087  29.145  1.00  0.00     0.074 A 
ATOM     40  C   UNL A   1      38.870  30.678  30.917  1.00  0.00     0.049 A 
ATOM     41  N   UNL A   1      40.626  28.550  29.669  1.00  0.00    -0.248 NA
ATOM     42  C   UNL A   1      39.236  28.591  27.795  1.00  0.00     0.031 C 
ATOM     43  C   UNL A   1      38.030  31.687  31.562  1.00  0.00     0.029 A 
ATOM     44  N   UNL A   1      39.879  30.450  31.817  1.00  0.00    -0.354 N 
ATOM     45  C   UNL A   1      41.076  27.622  28.739  1.00  0.00     0.074 A 
ATOM     46  C   UNL A   1      40.166  27.666  27.616  1.00  0.00     0.031 C 
ATOM     47  C   UNL A   1      38.538  31.962  32.776  1.00  0.00     0.029 A 
ATOM     48  C   UNL A   1      39.712  31.123  33.004  1.00  0.00     0.049 A 
ATOM     49  H   UNL A   1      40.646  29.862  31.631  1.00  0.00     0.167 HD
ATOM     50  C   UNL A   1      42.156  26.811  28.813  1.00  0.00     0.034 A 
ATOM     51  C   UNL A   1      40.406  31.035  34.154  1.00  0.00     0.034 A 
ATOM     52  C   UNL A   1      43.059  26.791  29.930  1.00  0.00     0.049 A 
ATOM     53  C   UNL A   1      41.590  30.103  34.221  1.00  0.00     0.074 A 
ATOM     54  C   UNL A   1      44.220  26.056  30.083  1.00  0.00     0.029 A 
ATOM     55  N   UNL A   1      42.891  27.524  31.094  1.00  0.00    -0.354 N 
ATOM     56  N   UNL A   1      42.079  29.321  33.289  1.00  0.00    -0.248 NA
ATOM     57  C   UNL A   1      42.333  30.064  35.488  1.00  0.00     0.031 C 
ATOM     58  C   UNL A   1      44.730  26.310  31.359  1.00  0.00     0.029 A 
ATOM     59  C   UNL A   1      43.913  27.241  31.982  1.00  0.00     0.049 A 
ATOM     60  H   UNL A   1      42.152  28.152  31.264  1.00  0.00     0.167 HD
ATOM     61  C   UNL A   1      43.206  28.723  33.843  1.00  0.00     0.074 A 
ATOM     62  C   UNL A   1      43.337  29.251  35.186  1.00  0.00     0.031 C 
ATOM     63  C   UNL A   1      44.050  27.814  33.297  1.00  0.00     0.034 A 
BRANCH  50  64
ATOM     64  C   UNL A   1      42.420  25.882  27.658  1.00  0.00     0.023 A 
ATOM     65  C   UNL A   1      43.251  26.294  26.596  1.00  0.00     0.012 A 
ATOM     66  C   UNL A   1      41.888  24.577  27.654  1.00  0.00     0.148 A 
ATOM     67  C   UNL A   1      43.522  25.433  25.533  1.00  0.00     0.002 A 
ATOM     68  C   UNL A   1      42.202  23.709  26.617  1.00  0.00     0.091 A 
ATOM     69  F   UNL A   1      41.080  24.213  28.661  1.00  0.00    -0.205 F 
ATOM     70  C   UNL A   1      43.008  24.139  25.549  1.00  0.00     0.022 A 
BRANCH  68  71
ATOM     71  S   UNL A   1      41.658  21.999  26.585  1.00  0.00     0.127 S 
ATOM     72  O   UNL A   1      42.317  21.501  25.378  1.00  0.00    -0.237 OA
ATOM     73  O   UNL A   1      42.207  21.480  27.837  1.00  0.00    -0.237 OA
ATOM     74  O   UNL A   1      40.203  22.038  26.527  1.00  0.00    -0.744 OA
ENDBRANCH  68  71
ENDBRANCH  50  64
BRANCH  51  75
ATOM     75  C   UNL A   1      40.008  31.856  35.331  1.00  0.00     0.023 A 
ATOM     76  C   UNL A   1      40.581  33.128  35.520  1.00  0.00     0.012 A 
ATOM     77  C   UNL A   1      39.056  31.387  36.257  1.00  0.00     0.148 A 
ATOM     78  C   UNL A   1      40.238  33.905  36.627  1.00  0.00     0.002 A 
ATOM     79  C   UNL A   1      38.677  32.190  37.326  1.00  0.00     0.091 A 
ATOM     80  F   UNL A   1      38.532  30.168  36.067  1.00  0.00    -0.205 F 
ATOM     81  C   UNL A   1      39.280  33.442  37.524  1.00  0.00     0.022 A 
BRANCH  79  82
ATOM     82  S   UNL A   1      37.365  31.728  38.462  1.00  0.00     0.127 S 
ATOM     83  O   UNL A   1      38.010  31.922  39.758  1.00  0.00    -0.237 OA
ATOM     84  O   UNL A   1      36.328  32.708  38.135  1.00  0.00    -0.237 OA
ATOM     85  O   UNL A   1      37.021  30.352  38.129  1.00  0.00    -0.744 OA
ENDBRANCH  79  82
ENDBRANCH  51  75
BRANCH  63  86
ATOM     86  C   UNL A   1      45.223  27.359  34.126  1.00  0.00     0.023 A 
ATOM     87  C   UNL A   1      46.433  28.080  34.090  1.00  0.00     0.012 A 
ATOM     88  C   UNL A   1      45.091  26.270  35.008  1.00  0.00     0.148 A 
ATOM     89  C   UNL A   1      47.504  27.702  34.900  1.00  0.00     0.002 A 
ATOM     90  C   UNL A   1      46.143  25.933  35.850  1.00  0.00     0.091 A 
ATOM     91  F   UNL A   1      43.934  25.590  35.015  1.00  0.00    -0.205 F 
ATOM     92  C   UNL A   1      47.355  26.639  35.788  1.00  0.00     0.022 A 
BRANCH  90  93
ATOM     93  S   UNL A   1      46.008  24.647  37.096  1.00  0.00     0.127 S 
ATOM     94  O   UNL A   1      47.362  24.623  37.648  1.00  0.00    -0.237 OA
ATOM     95  O   UNL A   1      44.992  25.196  37.996  1.00  0.00    -0.237 OA
ATOM     96  O   UNL A   1      45.604  23.439  36.390  1.00  0.00    -0.744 OA
ENDBRANCH  90  93
ENDBRANCH  63  86
ENDBRANCH  37  38
ENDBRANCH  30  32
ENDBRANCH  29  30
ENDBRANCH  28  29
ENDBRANCH  27  28
ENDBRANCH   1  27
TORSDOF 22
ENDMDL
MODEL 3
REMARK VINA RESULT:     -10.7      4.847      9.774
REMARK SMILES O=C(CN(Cc1ccccc1Cl)S(=O)(=O)c1ccc(Cl)cc1)OCCOCCOC(=O)c1ccc(-c2c3nc(c(-c4cccc(S(=O)(=O)[O-])c4F)c4ccc([nH]4)c(-c4cccc(S(=O)(=O)[O-])c4F)c4nc(c(-c5cccc(S(=O)(=O)[O-])c5F)c5ccc2[nH]5)C=C4)C=C3)cc1
REMARK SMILES IDX 26 1 25 2 24 3 23 4 2 5 1 6 3 7 4 8 5 9 6 10 7 11 11 12 8 13
REMARK SMILES IDX 10 14 12 15 9 16 13 17 14 18 15 19 16 20 17 21 22 22 18 23
REMARK SMILES IDX 21 24 19 25 20 26 27 27 28 28 29 29 30 30 31 31 32 32 33 33
REMARK SMILES IDX 94 34 34 35 93 36 35 37 36 38 37 39 87 40 38 41 92 42 86 43
REMARK SMILES IDX 88 44 39 45 91 46 85 47 84 48 40 50 72 51 52 52 71 53 53 54
REMARK SMILES IDX 56 55 70 56 89 57 54 58 55 59 69 61 90 62 57 63 41 64 42 65
REMARK SMILES IDX 50 66 43 67 45 68 51 69 44 70 46 71 47 72 48 73 49 74 73 75
REMARK SMILES IDX 74 76 82 77 75 78 77 79 83 80 76 81 78 82 79 83 80 84 81 85
REMARK SMILES IDX 58 86 59 87 67 88 60 89 62 90 68 91 61 92 63 93 64 94 65 95
REMARK SMILES IDX 66 96
REMARK H PARENT 88 49 56 60
REMARK Flexibility Score: inf
ROOT
ATOM      1  O   UNL A   1      31.025  30.547  25.473  1.00  0.00    -0.374 OA
ENDROOT
BRANCH   1   2
ATOM      2  C   UNL A   1      31.499  29.317  24.922  1.00  0.00     0.202 C 
BRANCH   2   3
ATOM      3  C   UNL A   1      30.479  28.420  24.225  1.00  0.00     0.261 C 
BRANCH   3   4
ATOM      4  O   UNL A   1      31.008  27.120  23.924  1.00  0.00    -0.462 OA
BRANCH   4   5
ATOM      5  C   UNL A   1      31.053  26.588  22.681  1.00  0.00     0.321 C 
ATOM      6  O   UNL A   1      30.903  27.308  21.693  1.00  0.00    -0.251 OA
BRANCH   5   7
ATOM      7  C   UNL A   1      31.105  25.086  22.530  1.00  0.00     0.225 C 
BRANCH   7   8
ATOM      8  N   UNL A   1      32.099  24.299  23.328  1.00  0.00    -0.182 NA
BRANCH   8   9
ATOM      9  C   UNL A   1      31.471  23.116  23.980  1.00  0.00     0.140 C 
BRANCH   9  10
ATOM     10  C   UNL A   1      32.259  22.413  25.056  1.00  0.00    -0.014 A 
ATOM     11  C   UNL A   1      32.958  21.230  24.740  1.00  0.00     0.006 A 
ATOM     12  C   UNL A   1      32.361  22.920  26.357  1.00  0.00     0.045 A 
ATOM     13  C   UNL A   1      33.820  20.641  25.664  1.00  0.00     0.000 A 
ATOM     14  C   UNL A   1      33.251  22.349  27.268  1.00  0.00     0.021 A 
ATOM     15  Cl  UNL A   1      31.355  24.206  26.928  1.00  0.00    -0.084 Cl
ATOM     16  C   UNL A   1      33.993  21.223  26.914  1.00  0.00     0.002 A 
ENDBRANCH   9  10
ENDBRANCH   8   9
BRANCH   8  17
ATOM     17  S   UNL A   1      33.562  24.204  22.471  1.00  0.00     0.243 S 
ATOM     18  O   UNL A   1      33.462  23.057  21.595  1.00  0.00    -0.207 OA
ATOM     19  O   UNL A   1      33.802  25.520  21.925  1.00  0.00    -0.207 OA
BRANCH  17  20
ATOM     20  C   UNL A   1      34.919  23.924  23.566  1.00  0.00     0.082 A 
ATOM     21  C   UNL A   1      35.893  23.031  23.093  1.00  0.00     0.023 A 
ATOM     22  C   UNL A   1      35.071  24.532  24.810  1.00  0.00     0.023 A 
ATOM     23  C   UNL A   1      36.979  22.689  23.893  1.00  0.00     0.022 A 
ATOM     24  C   UNL A   1      36.138  24.150  25.631  1.00  0.00     0.022 A 
ATOM     25  C   UNL A   1      37.080  23.224  25.173  1.00  0.00     0.041 A 
ATOM     26  Cl  UNL A   1      38.376  22.742  26.196  1.00  0.00    -0.084 Cl
ENDBRANCH  17  20
ENDBRANCH   8  17
ENDBRANCH   7   8
ENDBRANCH   5   7
ENDBRANCH   4   5
ENDBRANCH   3   4
ENDBRANCH   2   3
ENDBRANCH   1   2
BRANCH   1  27
ATOM     27  C   UNL A   1      31.842  31.153  26.486  1.00  0.00     0.202 C 
BRANCH  27  28
ATOM     28  C   UNL A   1      33.145  30.449  26.876  1.00  0.00     0.261 C 
BRANCH  28  29
ATOM     29  O   UNL A   1      33.728  31.019  28.054  1.00  0.00    -0.460 OA
BRANCH  29  30
ATOM     30  C   UNL A   1      34.892  31.678  27.852  1.00  0.00     0.338 C 
ATOM     31  O   UNL A   1      35.029  32.871  27.620  1.00  0.00    -0.246 OA
BRANCH  30  32
ATOM     32  C   UNL A   1      36.013  30.785  28.201  1.00  0.00     0.060 A 
ATOM     33  C   UNL A   1      35.867  29.969  29.333  1.00  0.00     0.016 A 
ATOM     34  C   UNL A   1      37.179  30.743  27.435  1.00  0.00     0.016 A 
ATOM     35  C   UNL A   1      36.915  29.155  29.743  1.00  0.00     0.010 A 
ATOM     36  C   UNL A   1      38.232  29.932  27.852  1.00  0.00     0.010 A 
ATOM     37  C   UNL A   1      38.120  29.174  29.031  1.00  0.00    -0.014 A 
BRANCH  37  38
ATOM     38  C   UNL A   1      39.327  28.550  29.611  1.00  0.00     0.031 A 
ATOM     39  C   UNL A   1      39.957  29.204  30.807  1.00  0.00     0.074 A 
ATOM     40  C   UNL A   1      39.861  27.447  29.061  1.00  0.00     0.049 A 
ATOM     41  N   UNL A   1      41.067  28.904  31.425  1.00  0.00    -0.248 NA
ATOM     42  C   UNL A   1      39.245  30.362  31.376  1.00  0.00     0.031 C 
ATOM     43  C   UNL A   1      39.321  26.734  27.903  1.00  0.00     0.029 A 
ATOM     44  N   UNL A   1      41.002  26.759  29.382  1.00  0.00    -0.354 N 
ATOM     45  C   UNL A   1      41.211  29.859  32.423  1.00  0.00     0.074 A 
ATOM     46  C   UNL A   1      40.078  30.751  32.329  1.00  0.00     0.031 C 
ATOM     47  C   UNL A   1      40.156  25.729  27.585  1.00  0.00     0.029 A 
ATOM     48  C   UNL A   1      41.301  25.755  28.492  1.00  0.00     0.049 A 
ATOM     49  H   UNL A   1      41.552  26.964  30.172  1.00  0.00     0.167 HD
ATOM     50  C   UNL A   1      42.199  29.976  33.339  1.00  0.00     0.034 A 
ATOM     51  C   UNL A   1      42.396  24.977  28.400  1.00  0.00     0.034 A 
ATOM     52  C   UNL A   1      43.312  29.072  33.429  1.00  0.00     0.049 A 
ATOM     53  C   UNL A   1      43.496  25.146  29.417  1.00  0.00     0.074 A 
ATOM     54  C   UNL A   1      44.336  29.060  34.357  1.00  0.00     0.029 A 
ATOM     55  N   UNL A   1      43.557  28.034  32.544  1.00  0.00    -0.354 N 
ATOM     56  N   UNL A   1      43.563  25.973  30.432  1.00  0.00    -0.248 NA
ATOM     57  C   UNL A   1      44.658  24.255  29.292  1.00  0.00     0.031 C 
ATOM     58  C   UNL A   1      45.226  28.040  34.007  1.00  0.00     0.029 A 
ATOM     59  C   UNL A   1      44.730  27.388  32.889  1.00  0.00     0.049 A 
ATOM     60  H   UNL A   1      42.982  27.793  31.782  1.00  0.00     0.167 HD
ATOM     61  C   UNL A   1      44.754  25.680  31.088  1.00  0.00     0.074 A 
ATOM     62  C   UNL A   1      45.367  24.584  30.364  1.00  0.00     0.031 C 
ATOM     63  C   UNL A   1      45.298  26.268  32.182  1.00  0.00     0.034 A 
BRANCH  50  64
ATOM     64  C   UNL A   1      42.122  31.120  34.316  1.00  0.00     0.023 A 
ATOM     65  C   UNL A   1      41.536  30.926  35.584  1.00  0.00     0.012 A 
ATOM     66  C   UNL A   1      42.682  32.373  33.997  1.00  0.00     0.148 A 
ATOM     67  C   UNL A   1      41.481  31.971  36.507  1.00  0.00     0.002 A 
ATOM     68  C   UNL A   1      42.666  33.394  34.939  1.00  0.00     0.091 A 
ATOM     69  F   UNL A   1      43.211  32.543  32.777  1.00  0.00    -0.205 F 
ATOM     70  C   UNL A   1      42.055  33.198  36.189  1.00  0.00     0.022 A 
BRANCH  68  71
ATOM     71  S   UNL A   1      43.449  34.984  34.657  1.00  0.00     0.127 S 
ATOM     72  O   UNL A   1      43.241  35.647  35.944  1.00  0.00    -0.237 OA
ATOM     73  O   UNL A   1      44.834  34.599  34.387  1.00  0.00    -0.237 OA
ATOM     74  O   UNL A   1      42.751  35.584  33.529  1.00  0.00    -0.744 OA
ENDBRANCH  68  71
ENDBRANCH  50  64
BRANCH  51  75
ATOM     75  C   UNL A   1      42.505  23.966  27.312  1.00  0.00     0.023 A 
ATOM     76  C   UNL A   1      43.094  24.323  26.085  1.00  0.00     0.012 A 
ATOM     77  C   UNL A   1      42.037  22.649  27.493  1.00  0.00     0.148 A 
ATOM     78  C   UNL A   1      43.187  23.397  25.045  1.00  0.00     0.002 A 
ATOM     79  C   UNL A   1      42.184  21.717  26.473  1.00  0.00     0.091 A 
ATOM     80  F   UNL A   1      41.467  22.333  28.664  1.00  0.00    -0.205 F 
ATOM     81  C   UNL A   1      42.742  22.093  25.242  1.00  0.00     0.022 A 
BRANCH  79  82
ATOM     82  S   UNL A   1      41.751  19.986  26.678  1.00  0.00     0.127 S 
ATOM     83  O   UNL A   1      40.320  20.067  26.956  1.00  0.00    -0.237 OA
ATOM     84  O   UNL A   1      42.096  19.435  25.367  1.00  0.00    -0.237 OA
ATOM     85  O   UNL A   1      42.580  19.500  27.773  1.00  0.00    -0.744 OA
ENDBRANCH  79  82
ENDBRANCH  51  75
BRANCH  63  86
ATOM     86  C   UNL A   1      46.600  25.715  32.700  1.00  0.00     0.023 A 
ATOM     87  C   UNL A   1      47.821  26.291  32.298  1.00  0.00     0.012 A 
ATOM     88  C   UNL A   1      46.603  24.683  33.659  1.00  0.00     0.148 A 
ATOM     89  C   UNL A   1      49.028  25.826  32.819  1.00  0.00     0.002 A 
ATOM     90  C   UNL A   1      47.805  24.262  34.214  1.00  0.00     0.091 A 
ATOM     91  F   UNL A   1      45.429  24.141  34.017  1.00  0.00    -0.205 F 
ATOM     92  C   UNL A   1      49.018  24.822  33.786  1.00  0.00     0.022 A 
BRANCH  90  93
ATOM     93  S   UNL A   1      47.883  23.050  35.537  1.00  0.00     0.127 S 
ATOM     94  O   UNL A   1      49.319  23.003  35.813  1.00  0.00    -0.237 OA
ATOM     95  O   UNL A   1      47.081  23.684  36.583  1.00  0.00    -0.237 OA
ATOM     96  O   UNL A   1      47.315  21.822  34.997  1.00  0.00    -0.744 OA
ENDBRANCH  90  93
ENDBRANCH  63  86
ENDBRANCH  37  38
ENDBRANCH  30  32
ENDBRANCH  29  30
ENDBRANCH  28  29
ENDBRANCH  27  28
ENDBRANCH   1  27
TORSDOF 22
ENDMDL
