MODEL 1
REMARK VINA RESULT:     -10.2      0.000      0.000
REMARK SMILES COC(=O)c1ccc([C@H]([NH3+])CC(=O)OCCOCCOC(=O)c2ccc(-c3c4nc(c(-c5cccc(S(=O)(=O)[O-])c5F)c5ccc([nH]5)c(-c5cccc(S(=O)(=O)[O-])c5F)c5nc(c(-c6cccc(S(=O)(=O)[O-])c6F)c6ccc3[nH]6)C=C5)C=C4)cc2)cc1
REMARK SMILES IDX 16 1 15 2 14 3 12 4 13 5 11 6 9 7 8 8 5 9 6 10 87 11 7 12
REMARK SMILES IDX 86 13 3 14 4 15 2 16 1 17 10 18 17 22 18 23 19 24 20 25
REMARK SMILES IDX 21 26 22 27 23 28 24 29 85 30 25 31 84 32 26 33 27 34 28 35
REMARK SMILES IDX 78 36 29 37 83 38 77 39 79 40 30 41 82 42 76 43 75 44 31 46
REMARK SMILES IDX 63 47 43 48 62 49 44 50 47 51 61 52 80 53 45 54 46 55 60 57
REMARK SMILES IDX 81 58 48 59 32 60 33 61 41 62 34 63 36 64 42 65 35 66 37 67
REMARK SMILES IDX 38 68 39 69 40 70 64 71 65 72 73 73 66 74 68 75 74 76 67 77
REMARK SMILES IDX 69 78 70 79 71 80 72 81 49 82 50 83 58 84 51 85 53 86 59 87
REMARK SMILES IDX 52 88 54 89 55 90 56 91 57 92
REMARK H PARENT 10 19 10 20 10 21 79 45 47 56
REMARK Flexibility Score: inf
ROOT
ATOM      1  C   UNL A   1      31.912  27.668  26.234  1.00  0.00     0.202 C 
ENDROOT
BRANCH   1   2
ATOM      2  C   UNL A   1      32.010  26.160  26.476  1.00  0.00     0.261 C 
BRANCH   2   3
ATOM      3  O   UNL A   1      33.199  25.604  25.888  1.00  0.00    -0.463 OA
BRANCH   3   4
ATOM      4  C   UNL A   1      33.021  24.524  25.083  1.00  0.00     0.312 C 
ATOM      5  O   UNL A   1      33.148  23.356  25.434  1.00  0.00    -0.252 OA
BRANCH   4   6
ATOM      6  C   UNL A   1      32.700  24.910  23.663  1.00  0.00     0.192 C 
BRANCH   6   7
ATOM      7  C   UNL A   1      31.248  24.679  23.204  1.00  0.00     0.223 C 
BRANCH   7   8
ATOM      8  C   UNL A   1      30.516  26.015  23.161  1.00  0.00     0.010 A 
ATOM      9  C   UNL A   1      29.122  28.448  22.909  1.00  0.00     0.060 A 
ATOM     10  C   UNL A   1      28.546  27.373  23.598  1.00  0.00     0.016 A 
ATOM     11  C   UNL A   1      30.415  28.323  22.392  1.00  0.00     0.016 A 
ATOM     12  C   UNL A   1      29.237  26.162  23.721  1.00  0.00     0.011 A 
ATOM     13  C   UNL A   1      31.107  27.121  22.530  1.00  0.00     0.011 A 
BRANCH   9  14
ATOM     14  C   UNL A   1      28.339  29.698  22.736  1.00  0.00     0.337 C 
ATOM     15  O   UNL A   1      27.302  29.945  23.336  1.00  0.00    -0.246 OA
BRANCH  14  16
ATOM     16  O   UNL A   1      28.916  30.469  21.782  1.00  0.00    -0.465 OA
ATOM     17  C   UNL A   1      28.010  31.169  20.932  1.00  0.00     0.282 C 
ENDBRANCH  14  16
ENDBRANCH   9  14
ENDBRANCH   7   8
BRANCH   7  18
ATOM     18  N   UNL A   1      30.525  23.764  24.083  1.00  0.00    -0.351 N 
ATOM     19  H   UNL A   1      31.108  23.533  24.888  1.00  0.00     0.345 HD
ATOM     20  H   UNL A   1      30.297  22.911  23.573  1.00  0.00     0.345 HD
ATOM     21  H   UNL A   1      29.664  24.209  24.404  1.00  0.00     0.345 HD
ENDBRANCH   7  18
ENDBRANCH   6   7
ENDBRANCH   4   6
ENDBRANCH   3   4
ENDBRANCH   2   3
ENDBRANCH   1   2
BRANCH   1  22
ATOM     22  O   UNL A   1      32.811  28.208  25.265  1.00  0.00    -0.374 OA
BRANCH  22  23
ATOM     23  C   UNL A   1      32.731  29.609  25.016  1.00  0.00     0.202 C 
BRANCH  23  24
ATOM     24  C   UNL A   1      31.765  30.406  25.903  1.00  0.00     0.261 C 
BRANCH  24  25
ATOM     25  O   UNL A   1      32.308  30.653  27.212  1.00  0.00    -0.460 OA
BRANCH  25  26
ATOM     26  C   UNL A   1      33.048  31.784  27.317  1.00  0.00     0.338 C 
ATOM     27  O   UNL A   1      32.647  32.936  27.220  1.00  0.00    -0.246 OA
BRANCH  26  28
ATOM     28  C   UNL A   1      34.417  31.455  27.757  1.00  0.00     0.060 A 
ATOM     29  C   UNL A   1      34.693  30.119  28.082  1.00  0.00     0.016 A 
ATOM     30  C   UNL A   1      35.390  32.441  27.919  1.00  0.00     0.016 A 
ATOM     31  C   UNL A   1      35.933  29.771  28.615  1.00  0.00     0.010 A 
ATOM     32  C   UNL A   1      36.629  32.092  28.464  1.00  0.00     0.010 A 
ATOM     33  C   UNL A   1      36.893  30.763  28.847  1.00  0.00    -0.014 A 
BRANCH  33  34
ATOM     34  C   UNL A   1      38.115  30.453  29.626  1.00  0.00     0.031 A 
ATOM     35  C   UNL A   1      39.112  29.483  29.053  1.00  0.00     0.074 A 
ATOM     36  C   UNL A   1      38.319  30.998  30.838  1.00  0.00     0.049 A 
ATOM     37  N   UNL A   1      40.185  28.977  29.600  1.00  0.00    -0.248 NA
ATOM     38  C   UNL A   1      38.859  29.014  27.679  1.00  0.00     0.031 C 
ATOM     39  C   UNL A   1      37.437  31.964  31.489  1.00  0.00     0.029 A 
ATOM     40  N   UNL A   1      39.320  30.785  31.754  1.00  0.00    -0.354 N 
ATOM     41  C   UNL A   1      40.715  28.104  28.657  1.00  0.00     0.074 A 
ATOM     42  C   UNL A   1      39.844  28.147  27.502  1.00  0.00     0.031 C 
ATOM     43  C   UNL A   1      37.913  32.230  32.717  1.00  0.00     0.029 A 
ATOM     44  C   UNL A   1      39.114  31.430  32.950  1.00  0.00     0.049 A 
ATOM     45  H   UNL A   1      40.108  30.224  31.570  1.00  0.00     0.167 HD
ATOM     46  C   UNL A   1      41.831  27.343  28.741  1.00  0.00     0.034 A 
ATOM     47  C   UNL A   1      39.798  31.354  34.110  1.00  0.00     0.034 A 
ATOM     48  C   UNL A   1      42.707  27.322  29.880  1.00  0.00     0.049 A 
ATOM     49  C   UNL A   1      41.019  30.474  34.190  1.00  0.00     0.074 A 
ATOM     50  C   UNL A   1      43.885  26.617  30.045  1.00  0.00     0.029 A 
ATOM     51  N   UNL A   1      42.495  28.030  31.053  1.00  0.00    -0.354 N 
ATOM     52  N   UNL A   1      41.567  29.736  33.255  1.00  0.00    -0.248 NA
ATOM     53  C   UNL A   1      41.731  30.435  35.476  1.00  0.00     0.031 C 
ATOM     54  C   UNL A   1      44.375  26.883  31.328  1.00  0.00     0.029 A 
ATOM     55  C   UNL A   1      43.514  27.772  31.951  1.00  0.00     0.049 A 
ATOM     56  H   UNL A   1      41.730  28.628  31.222  1.00  0.00     0.167 HD
ATOM     57  C   UNL A   1      42.707  29.179  33.825  1.00  0.00     0.074 A 
ATOM     58  C   UNL A   1      42.778  29.674  35.185  1.00  0.00     0.031 C 
ATOM     59  C   UNL A   1      43.608  28.328  33.277  1.00  0.00     0.034 A 
BRANCH  46  60
ATOM     60  C   UNL A   1      42.185  26.487  27.556  1.00  0.00     0.023 A 
ATOM     61  C   UNL A   1      42.941  27.036  26.500  1.00  0.00     0.012 A 
ATOM     62  C   UNL A   1      41.823  25.126  27.513  1.00  0.00     0.148 A 
ATOM     63  C   UNL A   1      43.307  26.250  25.408  1.00  0.00     0.002 A 
ATOM     64  C   UNL A   1      42.226  24.341  26.441  1.00  0.00     0.091 A 
ATOM     65  F   UNL A   1      41.083  24.630  28.515  1.00  0.00    -0.205 F 
ATOM     66  C   UNL A   1      42.960  24.903  25.383  1.00  0.00     0.022 A 
BRANCH  64  67
ATOM     67  S   UNL A   1      41.891  22.578  26.353  1.00  0.00     0.127 S 
ATOM     68  O   UNL A   1      42.534  22.218  25.090  1.00  0.00    -0.237 OA
ATOM     69  O   UNL A   1      42.570  22.074  27.547  1.00  0.00    -0.237 OA
ATOM     70  O   UNL A   1      40.441  22.445  26.378  1.00  0.00    -0.744 OA
ENDBRANCH  64  67
ENDBRANCH  46  60
BRANCH  47  71
ATOM     71  C   UNL A   1      39.359  32.157  35.287  1.00  0.00     0.023 A 
ATOM     72  C   UNL A   1      38.489  31.582  36.232  1.00  0.00     0.012 A 
ATOM     73  C   UNL A   1      39.809  33.478  35.482  1.00  0.00     0.148 A 
ATOM     74  C   UNL A   1      38.053  32.316  37.337  1.00  0.00     0.002 A 
ATOM     75  C   UNL A   1      39.416  34.184  36.613  1.00  0.00     0.091 A 
ATOM     76  F   UNL A   1      40.621  34.016  34.561  1.00  0.00    -0.205 F 
ATOM     77  C   UNL A   1      38.524  33.611  37.533  1.00  0.00     0.022 A 
BRANCH  75  78
ATOM     78  S   UNL A   1      40.071  35.809  37.011  1.00  0.00     0.127 S 
ATOM     79  O   UNL A   1      41.503  35.538  37.107  1.00  0.00    -0.237 OA
ATOM     80  O   UNL A   1      39.668  36.592  35.843  1.00  0.00    -0.237 OA
ATOM     81  O   UNL A   1      39.416  36.201  38.252  1.00  0.00    -0.744 OA
ENDBRANCH  75  78
ENDBRANCH  47  71
BRANCH  59  82
ATOM     82  C   UNL A   1      44.786  27.904  34.115  1.00  0.00     0.023 A 
ATOM     83  C   UNL A   1      45.977  28.656  34.079  1.00  0.00     0.012 A 
ATOM     84  C   UNL A   1      44.670  26.831  35.021  1.00  0.00     0.148 A 
ATOM     85  C   UNL A   1      47.042  28.332  34.920  1.00  0.00     0.002 A 
ATOM     86  C   UNL A   1      45.717  26.544  35.888  1.00  0.00     0.091 A 
ATOM     87  F   UNL A   1      43.531  26.122  35.026  1.00  0.00    -0.205 F 
ATOM     88  C   UNL A   1      46.906  27.287  35.833  1.00  0.00     0.022 A 
BRANCH  86  89
ATOM     89  S   UNL A   1      45.597  25.283  37.161  1.00  0.00     0.127 S 
ATOM     90  O   UNL A   1      44.303  25.594  37.768  1.00  0.00    -0.237 OA
ATOM     91  O   UNL A   1      45.622  24.048  36.377  1.00  0.00    -0.237 OA
ATOM     92  O   UNL A   1      46.752  25.473  38.028  1.00  0.00    -0.744 OA
ENDBRANCH  86  89
ENDBRANCH  59  82
ENDBRANCH  33  34
ENDBRANCH  26  28
ENDBRANCH  25  26
ENDBRANCH  24  25
ENDBRANCH  23  24
ENDBRANCH  22  23
ENDBRANCH   1  22
TORSDOF 22
ENDMDL
MODEL 2
REMARK VINA RESULT:     -10.0      2.312      4.088
REMARK SMILES COC(=O)c1ccc([C@H]([NH3+])CC(=O)OCCOCCOC(=O)c2ccc(-c3c4nc(c(-c5cccc(S(=O)(=O)[O-])c5F)c5ccc([nH]5)c(-c5cccc(S(=O)(=O)[O-])c5F)c5nc(c(-c6cccc(S(=O)(=O)[O-])c6F)c6ccc3[nH]6)C=C5)C=C4)cc2)cc1
REMARK SMILES IDX 16 1 15 2 14 3 12 4 13 5 11 6 9 7 8 8 5 9 6 10 87 11 7 12
REMARK SMILES IDX 86 13 3 14 4 15 2 16 1 17 10 18 17 22 18 23 19 24 20 25
REMARK SMILES IDX 21 26 22 27 23 28 24 29 85 30 25 31 84 32 26 33 27 34 28 35
REMARK SMILES IDX 78 36 29 37 83 38 77 39 79 40 30 41 82 42 76 43 75 44 31 46
REMARK SMILES IDX 63 47 43 48 62 49 44 50 47 51 61 52 80 53 45 54 46 55 60 57
REMARK SMILES IDX 81 58 48 59 32 60 33 61 41 62 34 63 36 64 42 65 35 66 37 67
REMARK SMILES IDX 38 68 39 69 40 70 64 71 65 72 73 73 66 74 68 75 74 76 67 77
REMARK SMILES IDX 69 78 70 79 71 80 72 81 49 82 50 83 58 84 51 85 53 86 59 87
REMARK SMILES IDX 52 88 54 89 55 90 56 91 57 92
REMARK H PARENT 10 19 10 20 10 21 79 45 47 56
REMARK Flexibility Score: inf
ROOT
ATOM      1  C   UNL A   1      30.942  27.727  25.653  1.00  0.00     0.202 C 
ENDROOT
BRANCH   1   2
ATOM      2  C   UNL A   1      30.323  26.333  25.775  1.00  0.00     0.261 C 
BRANCH   2   3
ATOM      3  O   UNL A   1      30.976  25.550  26.790  1.00  0.00    -0.463 OA
BRANCH   3   4
ATOM      4  C   UNL A   1      31.216  24.248  26.480  1.00  0.00     0.312 C 
ATOM      5  O   UNL A   1      31.558  23.386  27.283  1.00  0.00    -0.252 OA
BRANCH   4   6
ATOM      6  C   UNL A   1      31.073  23.970  25.008  1.00  0.00     0.192 C 
BRANCH   6   7
ATOM      7  C   UNL A   1      32.381  23.815  24.212  1.00  0.00     0.223 C 
BRANCH   7   8
ATOM      8  C   UNL A   1      32.912  22.397  24.385  1.00  0.00     0.010 A 
ATOM      9  C   UNL A   1      33.873  19.755  24.527  1.00  0.00     0.060 A 
ATOM     10  C   UNL A   1      34.759  20.834  24.631  1.00  0.00     0.016 A 
ATOM     11  C   UNL A   1      32.501  19.997  24.406  1.00  0.00     0.016 A 
ATOM     12  C   UNL A   1      34.283  22.148  24.556  1.00  0.00     0.011 A 
ATOM     13  C   UNL A   1      32.028  21.307  24.348  1.00  0.00     0.011 A 
BRANCH   9  14
ATOM     14  C   UNL A   1      34.414  18.372  24.541  1.00  0.00     0.337 C 
ATOM     15  O   UNL A   1      35.563  18.089  24.850  1.00  0.00    -0.246 OA
BRANCH  14  16
ATOM     16  O   UNL A   1      33.466  17.507  24.105  1.00  0.00    -0.465 OA
ATOM     17  C   UNL A   1      33.790  16.125  24.243  1.00  0.00     0.282 C 
ENDBRANCH  14  16
ENDBRANCH   9  14
ENDBRANCH   7   8
BRANCH   7  18
ATOM     18  N   UNL A   1      33.407  24.765  24.636  1.00  0.00    -0.351 N 
ATOM     19  H   UNL A   1      34.268  24.262  24.850  1.00  0.00     0.345 HD
ATOM     20  H   UNL A   1      33.088  25.262  25.467  1.00  0.00     0.345 HD
ATOM     21  H   UNL A   1      33.582  25.435  23.886  1.00  0.00     0.345 HD
ENDBRANCH   7  18
ENDBRANCH   6   7
ENDBRANCH   4   6
ENDBRANCH   3   4
ENDBRANCH   2   3
ENDBRANCH   1   2
BRANCH   1  22
ATOM     22  O   UNL A   1      32.225  27.792  25.030  1.00  0.00    -0.374 OA
BRANCH  22  23
ATOM     23  C   UNL A   1      32.918  29.037  25.098  1.00  0.00     0.202 C 
BRANCH  23  24
ATOM     24  C   UNL A   1      32.133  30.223  25.674  1.00  0.00     0.261 C 
BRANCH  24  25
ATOM     25  O   UNL A   1      32.461  30.473  27.052  1.00  0.00    -0.460 OA
BRANCH  25  26
ATOM     26  C   UNL A   1      33.161  31.613  27.272  1.00  0.00     0.338 C 
ATOM     27  O   UNL A   1      32.729  32.758  27.243  1.00  0.00    -0.246 OA
BRANCH  26  28
ATOM     28  C   UNL A   1      34.520  31.291  27.746  1.00  0.00     0.060 A 
ATOM     29  C   UNL A   1      34.808  29.949  28.032  1.00  0.00     0.016 A 
ATOM     30  C   UNL A   1      35.471  32.286  27.973  1.00  0.00     0.016 A 
ATOM     31  C   UNL A   1      36.036  29.602  28.594  1.00  0.00     0.010 A 
ATOM     32  C   UNL A   1      36.697  31.937  28.546  1.00  0.00     0.010 A 
ATOM     33  C   UNL A   1      36.971  30.600  28.891  1.00  0.00    -0.014 A 
BRANCH  33  34
ATOM     34  C   UNL A   1      38.172  30.282  29.700  1.00  0.00     0.031 A 
ATOM     35  C   UNL A   1      39.181  29.313  29.145  1.00  0.00     0.074 A 
ATOM     36  C   UNL A   1      38.347  30.818  30.920  1.00  0.00     0.049 A 
ATOM     37  N   UNL A   1      40.239  28.801  29.716  1.00  0.00    -0.248 NA
ATOM     38  C   UNL A   1      38.962  28.855  27.762  1.00  0.00     0.031 C 
ATOM     39  C   UNL A   1      37.450  31.781  31.555  1.00  0.00     0.029 A 
ATOM     40  N   UNL A   1      39.323  30.596  31.859  1.00  0.00    -0.354 N 
ATOM     41  C   UNL A   1      40.791  27.933  28.780  1.00  0.00     0.074 A 
ATOM     42  C   UNL A   1      39.950  27.986  27.604  1.00  0.00     0.031 C 
ATOM     43  C   UNL A   1      37.896  32.038  32.796  1.00  0.00     0.029 A 
ATOM     44  C   UNL A   1      39.088  31.234  33.054  1.00  0.00     0.049 A 
ATOM     45  H   UNL A   1      40.115  30.035  31.692  1.00  0.00     0.167 HD
ATOM     46  C   UNL A   1      41.903  27.170  28.887  1.00  0.00     0.034 A 
ATOM     47  C   UNL A   1      39.742  31.149  34.230  1.00  0.00     0.034 A 
ATOM     48  C   UNL A   1      42.749  27.139  30.049  1.00  0.00     0.049 A 
ATOM     49  C   UNL A   1      40.959  30.265  34.336  1.00  0.00     0.074 A 
ATOM     50  C   UNL A   1      43.922  26.429  30.239  1.00  0.00     0.029 A 
ATOM     51  N   UNL A   1      42.509  27.839  31.220  1.00  0.00    -0.354 N 
ATOM     52  N   UNL A   1      41.529  29.532  33.410  1.00  0.00    -0.248 NA
ATOM     53  C   UNL A   1      41.638  30.215  35.639  1.00  0.00     0.031 C 
ATOM     54  C   UNL A   1      44.379  26.686  31.535  1.00  0.00     0.029 A 
ATOM     55  C   UNL A   1      43.505  27.573  32.142  1.00  0.00     0.049 A 
ATOM     56  H   UNL A   1      41.742  28.438  31.374  1.00  0.00     0.167 HD
ATOM     57  C   UNL A   1      42.653  28.969  34.005  1.00  0.00     0.074 A 
ATOM     58  C   UNL A   1      42.691  29.454  35.369  1.00  0.00     0.031 C 
ATOM     59  C   UNL A   1      43.566  28.119  33.474  1.00  0.00     0.034 A 
BRANCH  46  60
ATOM     60  C   UNL A   1      42.285  26.320  27.707  1.00  0.00     0.023 A 
ATOM     61  C   UNL A   1      43.123  26.855  26.706  1.00  0.00     0.012 A 
ATOM     62  C   UNL A   1      41.867  24.978  27.615  1.00  0.00     0.148 A 
ATOM     63  C   UNL A   1      43.514  26.074  25.619  1.00  0.00     0.002 A 
ATOM     64  C   UNL A   1      42.296  24.196  26.550  1.00  0.00     0.091 A 
ATOM     65  F   UNL A   1      41.051  24.497  28.564  1.00  0.00    -0.205 F 
ATOM     66  C   UNL A   1      43.111  24.744  25.546  1.00  0.00     0.022 A 
BRANCH  64  67
ATOM     67  S   UNL A   1      41.889  22.451  26.407  1.00  0.00     0.127 S 
ATOM     68  O   UNL A   1      42.520  22.106  25.134  1.00  0.00    -0.237 OA
ATOM     69  O   UNL A   1      42.544  21.884  27.585  1.00  0.00    -0.237 OA
ATOM     70  O   UNL A   1      40.435  22.377  26.426  1.00  0.00    -0.744 OA
ENDBRANCH  64  67
ENDBRANCH  46  60
BRANCH  47  71
ATOM     71  C   UNL A   1      39.275  31.945  35.401  1.00  0.00     0.023 A 
ATOM     72  C   UNL A   1      39.570  33.320  35.466  1.00  0.00     0.012 A 
ATOM     73  C   UNL A   1      38.529  31.352  36.440  1.00  0.00     0.148 A 
ATOM     74  C   UNL A   1      39.154  34.085  36.557  1.00  0.00     0.002 A 
ATOM     75  C   UNL A   1      38.072  32.131  37.496  1.00  0.00     0.091 A 
ATOM     76  F   UNL A   1      38.276  30.038  36.371  1.00  0.00    -0.205 F 
ATOM     77  C   UNL A   1      38.397  33.495  37.565  1.00  0.00     0.022 A 
BRANCH  75  78
ATOM     78  S   UNL A   1      36.985  31.483  38.772  1.00  0.00     0.127 S 
ATOM     79  O   UNL A   1      37.796  31.661  39.973  1.00  0.00    -0.237 OA
ATOM     80  O   UNL A   1      35.831  32.377  38.668  1.00  0.00    -0.237 OA
ATOM     81  O   UNL A   1      36.712  30.105  38.389  1.00  0.00    -0.744 OA
ENDBRANCH  75  78
ENDBRANCH  47  71
BRANCH  59  82
ATOM     82  C   UNL A   1      44.722  27.688  34.339  1.00  0.00     0.023 A 
ATOM     83  C   UNL A   1      45.816  28.553  34.528  1.00  0.00     0.012 A 
ATOM     84  C   UNL A   1      44.666  26.474  35.052  1.00  0.00     0.148 A 
ATOM     85  C   UNL A   1      46.847  28.207  35.401  1.00  0.00     0.002 A 
ATOM     86  C   UNL A   1      45.673  26.157  35.955  1.00  0.00     0.091 A 
ATOM     87  F   UNL A   1      43.620  25.659  34.844  1.00  0.00    -0.205 F 
ATOM     88  C   UNL A   1      46.769  27.018  36.123  1.00  0.00     0.022 A 
BRANCH  86  89
ATOM     89  S   UNL A   1      45.610  24.698  37.000  1.00  0.00     0.127 S 
ATOM     90  O   UNL A   1      44.361  24.909  37.730  1.00  0.00    -0.237 OA
ATOM     91  O   UNL A   1      45.566  23.614  36.016  1.00  0.00    -0.237 OA
ATOM     92  O   UNL A   1      46.818  24.729  37.812  1.00  0.00    -0.744 OA
ENDBRANCH  86  89
ENDBRANCH  59  82
ENDBRANCH  33  34
ENDBRANCH  26  28
ENDBRANCH  25  26
ENDBRANCH  24  25
ENDBRANCH  23  24
ENDBRANCH  22  23
ENDBRANCH   1  22
TORSDOF 22
ENDMDL
MODEL 3
REMARK VINA RESULT:     -10.0      5.129      9.759
REMARK SMILES COC(=O)c1ccc([C@H]([NH3+])CC(=O)OCCOCCOC(=O)c2ccc(-c3c4nc(c(-c5cccc(S(=O)(=O)[O-])c5F)c5ccc([nH]5)c(-c5cccc(S(=O)(=O)[O-])c5F)c5nc(c(-c6cccc(S(=O)(=O)[O-])c6F)c6ccc3[nH]6)C=C5)C=C4)cc2)cc1
REMARK SMILES IDX 16 1 15 2 14 3 12 4 13 5 11 6 9 7 8 8 5 9 6 10 87 11 7 12
REMARK SMILES IDX 86 13 3 14 4 15 2 16 1 17 10 18 17 22 18 23 19 24 20 25
REMARK SMILES IDX 21 26 22 27 23 28 24 29 85 30 25 31 84 32 26 33 27 34 28 35
REMARK SMILES IDX 78 36 29 37 83 38 77 39 79 40 30 41 82 42 76 43 75 44 31 46
REMARK SMILES IDX 63 47 43 48 62 49 44 50 47 51 61 52 80 53 45 54 46 55 60 57
REMARK SMILES IDX 81 58 48 59 32 60 33 61 41 62 34 63 36 64 42 65 35 66 37 67
REMARK SMILES IDX 38 68 39 69 40 70 64 71 65 72 73 73 66 74 68 75 74 76 67 77
REMARK SMILES IDX 69 78 70 79 71 80 72 81 49 82 50 83 58 84 51 85 53 86 59 87
REMARK SMILES IDX 52 88 54 89 55 90 56 91 57 92
REMARK H PARENT 10 19 10 20 10 21 79 45 47 56
REMARK Flexibility Score: inf
ROOT
ATOM      1  C   UNL A   1      34.284  21.703  25.663  1.00  0.00     0.202 C 
ENDROOT
BRANCH   1   2
ATOM      2  C   UNL A   1      32.945  22.316  25.247  1.00  0.00     0.261 C 
BRANCH   2   3
ATOM      3  O   UNL A   1      32.046  22.435  26.364  1.00  0.00    -0.463 OA
BRANCH   3   4
ATOM      4  C   UNL A   1      31.293  23.566  26.409  1.00  0.00     0.312 C 
ATOM      5  O   UNL A   1      30.374  23.768  27.195  1.00  0.00    -0.252 OA
BRANCH   4   6
ATOM      6  C   UNL A   1      31.668  24.552  25.334  1.00  0.00     0.192 C 
BRANCH   6   7
ATOM      7  C   UNL A   1      31.750  26.029  25.760  1.00  0.00     0.223 C 
BRANCH   7   8
ATOM      8  C   UNL A   1      30.824  26.858  24.879  1.00  0.00     0.010 A 
ATOM      9  C   UNL A   1      29.004  28.411  23.394  1.00  0.00     0.060 A 
ATOM     10  C   UNL A   1      30.215  28.966  23.828  1.00  0.00     0.016 A 
ATOM     11  C   UNL A   1      28.728  27.066  23.658  1.00  0.00     0.016 A 
ATOM     12  C   UNL A   1      31.119  28.196  24.570  1.00  0.00     0.011 A 
ATOM     13  C   UNL A   1      29.637  26.297  24.383  1.00  0.00     0.011 A 
BRANCH   9  14
ATOM     14  C   UNL A   1      28.035  29.270  22.669  1.00  0.00     0.337 C 
ATOM     15  O   UNL A   1      26.921  29.552  23.089  1.00  0.00    -0.246 OA
BRANCH  14  16
ATOM     16  O   UNL A   1      28.553  29.628  21.468  1.00  0.00    -0.465 OA
ATOM     17  C   UNL A   1      28.237  30.951  21.037  1.00  0.00     0.282 C 
ENDBRANCH  14  16
ENDBRANCH   9  14
ENDBRANCH   7   8
BRANCH   7  18
ATOM     18  N   UNL A   1      33.107  26.562  25.665  1.00  0.00    -0.351 N 
ATOM     19  H   UNL A   1      33.248  26.969  24.740  1.00  0.00     0.345 HD
ATOM     20  H   UNL A   1      33.780  25.809  25.812  1.00  0.00     0.345 HD
ATOM     21  H   UNL A   1      33.241  27.281  26.376  1.00  0.00     0.345 HD
ENDBRANCH   7  18
ENDBRANCH   6   7
ENDBRANCH   4   6
ENDBRANCH   3   4
ENDBRANCH   2   3
ENDBRANCH   1   2
BRANCH   1  22
ATOM     22  O   UNL A   1      35.089  21.178  24.608  1.00  0.00    -0.374 OA
BRANCH  22  23
ATOM     23  C   UNL A   1      36.306  21.862  24.318  1.00  0.00     0.202 C 
BRANCH  23  24
ATOM     24  C   UNL A   1      37.599  21.182  24.789  1.00  0.00     0.261 C 
BRANCH  24  25
ATOM     25  O   UNL A   1      38.013  21.643  26.087  1.00  0.00    -0.460 OA
BRANCH  25  26
ATOM     26  C   UNL A   1      39.347  21.571  26.318  1.00  0.00     0.338 C 
ATOM     27  O   UNL A   1      40.115  20.704  25.924  1.00  0.00    -0.246 OA
BRANCH  26  28
ATOM     28  C   UNL A   1      39.815  22.805  26.977  1.00  0.00     0.060 A 
ATOM     29  C   UNL A   1      39.203  24.012  26.609  1.00  0.00     0.016 A 
ATOM     30  C   UNL A   1      40.876  22.794  27.881  1.00  0.00     0.016 A 
ATOM     31  C   UNL A   1      39.683  25.221  27.109  1.00  0.00     0.010 A 
ATOM     32  C   UNL A   1      41.363  24.009  28.374  1.00  0.00     0.010 A 
ATOM     33  C   UNL A   1      40.792  25.228  27.964  1.00  0.00    -0.014 A 
BRANCH  33  34
ATOM     34  C   UNL A   1      41.458  26.505  28.313  1.00  0.00     0.031 A 
ATOM     35  C   UNL A   1      40.643  27.592  28.958  1.00  0.00     0.074 A 
ATOM     36  C   UNL A   1      42.757  26.707  28.030  1.00  0.00     0.049 A 
ATOM     37  N   UNL A   1      40.981  28.822  29.243  1.00  0.00    -0.248 NA
ATOM     38  C   UNL A   1      39.258  27.249  29.323  1.00  0.00     0.031 C 
ATOM     39  C   UNL A   1      43.653  25.723  27.426  1.00  0.00     0.029 A 
ATOM     40  N   UNL A   1      43.538  27.826  28.183  1.00  0.00    -0.354 N 
ATOM     41  C   UNL A   1      39.844  29.410  29.785  1.00  0.00     0.074 A 
ATOM     42  C   UNL A   1      38.805  28.403  29.788  1.00  0.00     0.031 C 
ATOM     43  C   UNL A   1      44.852  26.295  27.221  1.00  0.00     0.029 A 
ATOM     44  C   UNL A   1      44.797  27.691  27.649  1.00  0.00     0.049 A 
ATOM     45  H   UNL A   1      43.225  28.645  28.632  1.00  0.00     0.167 HD
ATOM     46  C   UNL A   1      39.683  30.671  30.249  1.00  0.00     0.034 A 
ATOM     47  C   UNL A   1      45.780  28.602  27.493  1.00  0.00     0.034 A 
ATOM     48  C   UNL A   1      40.725  31.662  30.267  1.00  0.00     0.049 A 
ATOM     49  C   UNL A   1      45.565  30.010  27.986  1.00  0.00     0.074 A 
ATOM     50  C   UNL A   1      40.673  32.955  30.755  1.00  0.00     0.029 A 
ATOM     51  N   UNL A   1      42.003  31.472  29.767  1.00  0.00    -0.354 N 
ATOM     52  N   UNL A   1      44.521  30.522  28.592  1.00  0.00    -0.248 NA
ATOM     53  C   UNL A   1      46.672  30.960  27.798  1.00  0.00     0.031 C 
ATOM     54  C   UNL A   1      41.916  33.555  30.530  1.00  0.00     0.029 A 
ATOM     55  C   UNL A   1      42.748  32.626  29.925  1.00  0.00     0.049 A 
ATOM     56  H   UNL A   1      42.333  30.638  29.359  1.00  0.00     0.167 HD
ATOM     57  C   UNL A   1      44.859  31.837  28.894  1.00  0.00     0.074 A 
ATOM     58  C   UNL A   1      46.210  32.041  28.413  1.00  0.00     0.031 C 
ATOM     59  C   UNL A   1      44.116  32.792  29.503  1.00  0.00     0.034 A 
BRANCH  46  60
ATOM     60  C   UNL A   1      38.335  31.049  30.799  1.00  0.00     0.023 A 
ATOM     61  C   UNL A   1      38.037  30.789  32.152  1.00  0.00     0.012 A 
ATOM     62  C   UNL A   1      37.385  31.711  29.996  1.00  0.00     0.148 A 
ATOM     63  C   UNL A   1      36.805  31.158  32.690  1.00  0.00     0.002 A 
ATOM     64  C   UNL A   1      36.177  32.113  30.551  1.00  0.00     0.091 A 
ATOM     65  F   UNL A   1      37.678  31.927  28.705  1.00  0.00    -0.205 F 
ATOM     66  C   UNL A   1      35.880  31.829  31.894  1.00  0.00     0.022 A 
BRANCH  64  67
ATOM     67  S   UNL A   1      34.952  33.047  29.626  1.00  0.00     0.127 S 
ATOM     68  O   UNL A   1      34.027  33.450  30.686  1.00  0.00    -0.237 OA
ATOM     69  O   UNL A   1      35.751  34.137  29.068  1.00  0.00    -0.237 OA
ATOM     70  O   UNL A   1      34.408  32.126  28.638  1.00  0.00    -0.744 OA
ENDBRANCH  64  67
ENDBRANCH  46  60
BRANCH  47  71
ATOM     71  C   UNL A   1      47.071  28.204  26.863  1.00  0.00     0.023 A 
ATOM     72  C   UNL A   1      48.210  28.025  27.671  1.00  0.00     0.012 A 
ATOM     73  C   UNL A   1      47.173  27.987  25.474  1.00  0.00     0.148 A 
ATOM     74  C   UNL A   1      49.434  27.664  27.104  1.00  0.00     0.002 A 
ATOM     75  C   UNL A   1      48.380  27.575  24.924  1.00  0.00     0.091 A 
ATOM     76  F   UNL A   1      46.082  28.183  24.719  1.00  0.00    -0.205 F 
ATOM     77  C   UNL A   1      49.517  27.428  25.735  1.00  0.00     0.022 A 
BRANCH  75  78
ATOM     78  S   UNL A   1      48.547  27.128  23.192  1.00  0.00     0.127 S 
ATOM     79  O   UNL A   1      48.012  25.769  23.181  1.00  0.00    -0.237 OA
ATOM     80  O   UNL A   1      47.704  28.128  22.539  1.00  0.00    -0.237 OA
ATOM     81  O   UNL A   1      49.967  27.252  22.891  1.00  0.00    -0.744 OA
ENDBRANCH  75  78
ENDBRANCH  47  71
BRANCH  59  82
ATOM     82  C   UNL A   1      44.748  34.139  29.743  1.00  0.00     0.023 A 
ATOM     83  C   UNL A   1      45.503  34.361  30.911  1.00  0.00     0.012 A 
ATOM     84  C   UNL A   1      44.687  35.142  28.755  1.00  0.00     0.148 A 
ATOM     85  C   UNL A   1      46.172  35.570  31.100  1.00  0.00     0.002 A 
ATOM     86  C   UNL A   1      45.394  36.325  28.929  1.00  0.00     0.091 A 
ATOM     87  F   UNL A   1      43.950  34.913  27.658  1.00  0.00    -0.205 F 
ATOM     88  C   UNL A   1      46.129  36.544  30.105  1.00  0.00     0.022 A 
BRANCH  86  89
ATOM     89  S   UNL A   1      45.478  37.595  27.662  1.00  0.00     0.127 S 
ATOM     90  O   UNL A   1      44.089  37.657  27.210  1.00  0.00    -0.237 OA
ATOM     91  O   UNL A   1      45.925  38.763  28.422  1.00  0.00    -0.237 OA
ATOM     92  O   UNL A   1      46.433  37.116  26.672  1.00  0.00    -0.744 OA
ENDBRANCH  86  89
ENDBRANCH  59  82
ENDBRANCH  33  34
ENDBRANCH  26  28
ENDBRANCH  25  26
ENDBRANCH  24  25
ENDBRANCH  23  24
ENDBRANCH  22  23
ENDBRANCH   1  22
TORSDOF 22
ENDMDL
