MODEL 1
REMARK VINA RESULT:     -11.2      0.000      0.000
REMARK SMILES O=C(Cn1nnnc1[C@H]1Cc2ccccc2S1)OCCOCCOC(=O)c1ccc(-c2c3nc(c(-c4cccc(S(=O)(=O)[O-])c4F)c4ccc([nH]4)c(-c4cccc(S(=O)(=O)[O-])c4F)c4nc(c(-c5cccc(S(=O)(=O)[O-])c5F)c5ccc2[nH]5)C=C4)C=C3)cc1
REMARK SMILES IDX 22 1 21 2 20 3 19 4 18 5 2 6 1 7 3 8 4 9 5 10 8 11 6 12 7 13
REMARK SMILES IDX 9 14 10 15 17 16 11 17 16 18 12 19 15 20 13 21 14 22 23 23
REMARK SMILES IDX 24 24 25 25 26 26 27 27 28 28 89 29 29 30 88 31 30 32 31 33
REMARK SMILES IDX 32 34 82 35 33 36 87 37 81 38 83 39 34 40 86 41 80 42 79 43
REMARK SMILES IDX 35 45 67 46 47 47 66 48 48 49 51 50 65 51 84 52 49 53 50 54
REMARK SMILES IDX 64 56 85 57 52 58 36 59 37 60 45 61 38 62 40 63 46 64 39 65
REMARK SMILES IDX 41 66 42 67 43 68 44 69 68 70 69 71 77 72 70 73 72 74 78 75
REMARK SMILES IDX 71 76 73 77 74 78 75 79 76 80 53 81 54 82 62 83 55 84 57 85
REMARK SMILES IDX 63 86 56 87 58 88 59 89 60 90 61 91
REMARK H PARENT 83 44 51 55
REMARK Flexibility Score: inf
ROOT
ATOM      1  C   UNL A   1      33.309  30.190  26.857  1.00  0.00     0.202 C 
ENDROOT
BRANCH   1   2
ATOM      2  O   UNL A   1      32.148  29.446  27.246  1.00  0.00    -0.374 OA
BRANCH   2   3
ATOM      3  C   UNL A   1      31.764  28.341  26.438  1.00  0.00     0.202 C 
BRANCH   3   4
ATOM      4  C   UNL A   1      32.185  28.314  24.965  1.00  0.00     0.261 C 
BRANCH   4   5
ATOM      5  O   UNL A   1      31.946  27.111  24.235  1.00  0.00    -0.462 OA
BRANCH   5   6
ATOM      6  C   UNL A   1      30.709  26.705  23.872  1.00  0.00     0.327 C 
ATOM      7  O   UNL A   1      29.833  27.544  23.654  1.00  0.00    -0.250 OA
BRANCH   6   8
ATOM      8  C   UNL A   1      30.360  25.258  24.001  1.00  0.00     0.270 C 
BRANCH   8   9
ATOM      9  N   UNL A   1      30.782  24.560  25.186  1.00  0.00    -0.217 N 
ATOM     10  N   UNL A   1      30.309  24.858  26.404  1.00  0.00    -0.044 NA
ATOM     11  C   UNL A   1      31.624  23.474  25.279  1.00  0.00     0.165 A 
ATOM     12  N   UNL A   1      30.721  23.880  27.194  1.00  0.00    -0.024 NA
ATOM     13  N   UNL A   1      31.536  23.015  26.512  1.00  0.00    -0.113 NA
BRANCH  11  14
ATOM     14  C   UNL A   1      32.544  22.954  24.224  1.00  0.00     0.126 C 
ATOM     15  C   UNL A   1      33.870  23.727  24.071  1.00  0.00     0.059 C 
ATOM     16  S   UNL A   1      32.920  21.181  24.504  1.00  0.00    -0.114 SA
ATOM     17  C   UNL A   1      35.014  22.779  24.317  1.00  0.00    -0.033 A 
ATOM     18  C   UNL A   1      34.653  21.470  24.628  1.00  0.00     0.011 A 
ATOM     19  C   UNL A   1      36.361  23.127  24.243  1.00  0.00     0.005 A 
ATOM     20  C   UNL A   1      35.605  20.521  24.970  1.00  0.00     0.015 A 
ATOM     21  C   UNL A   1      37.331  22.163  24.532  1.00  0.00     0.000 A 
ATOM     22  C   UNL A   1      36.955  20.872  24.922  1.00  0.00     0.001 A 
ENDBRANCH  11  14
ENDBRANCH   8   9
ENDBRANCH   6   8
ENDBRANCH   5   6
ENDBRANCH   4   5
ENDBRANCH   3   4
ENDBRANCH   2   3
ENDBRANCH   1   2
BRANCH   1  23
ATOM     23  C   UNL A   1      33.589  31.526  27.561  1.00  0.00     0.261 C 
BRANCH  23  24
ATOM     24  O   UNL A   1      34.692  31.400  28.468  1.00  0.00    -0.460 OA
BRANCH  24  25
ATOM     25  C   UNL A   1      35.844  32.021  28.098  1.00  0.00     0.338 C 
ATOM     26  O   UNL A   1      35.969  33.163  27.687  1.00  0.00    -0.246 OA
BRANCH  25  27
ATOM     27  C   UNL A   1      36.929  31.191  28.661  1.00  0.00     0.060 A 
ATOM     28  C   UNL A   1      38.025  31.794  29.282  1.00  0.00     0.016 A 
ATOM     29  C   UNL A   1      36.982  29.854  28.231  1.00  0.00     0.016 A 
ATOM     30  C   UNL A   1      39.219  31.090  29.353  1.00  0.00     0.010 A 
ATOM     31  C   UNL A   1      38.193  29.172  28.259  1.00  0.00     0.010 A 
ATOM     32  C   UNL A   1      39.323  29.811  28.769  1.00  0.00    -0.014 A 
BRANCH  32  33
ATOM     33  C   UNL A   1      40.597  29.105  28.915  1.00  0.00     0.031 A 
ATOM     34  C   UNL A   1      40.877  28.796  30.344  1.00  0.00     0.074 A 
ATOM     35  C   UNL A   1      41.400  28.658  27.925  1.00  0.00     0.049 A 
ATOM     36  N   UNL A   1      41.843  29.235  31.082  1.00  0.00    -0.248 NA
ATOM     37  C   UNL A   1      39.840  28.053  31.080  1.00  0.00     0.031 C 
ATOM     38  C   UNL A   1      41.152  28.625  26.483  1.00  0.00     0.029 A 
ATOM     39  N   UNL A   1      42.606  28.020  28.034  1.00  0.00    -0.354 N 
ATOM     40  C   UNL A   1      41.635  28.664  32.335  1.00  0.00     0.074 A 
ATOM     41  C   UNL A   1      40.315  28.093  32.321  1.00  0.00     0.031 C 
ATOM     42  C   UNL A   1      42.050  27.800  25.890  1.00  0.00     0.029 A 
ATOM     43  C   UNL A   1      43.000  27.334  26.884  1.00  0.00     0.049 A 
ATOM     44  H   UNL A   1      43.150  28.043  28.854  1.00  0.00     0.167 HD
ATOM     45  C   UNL A   1      42.632  28.515  33.245  1.00  0.00     0.034 A 
ATOM     46  C   UNL A   1      43.978  26.393  26.797  1.00  0.00     0.034 A 
ATOM     47  C   UNL A   1      43.773  29.329  32.945  1.00  0.00     0.049 A 
ATOM     48  C   UNL A   1      44.865  26.586  27.966  1.00  0.00     0.074 A 
ATOM     49  C   UNL A   1      44.012  30.686  32.875  1.00  0.00     0.029 A 
ATOM     50  N   UNL A   1      44.814  28.725  32.287  1.00  0.00    -0.354 N 
ATOM     51  N   UNL A   1      45.619  27.632  28.141  1.00  0.00    -0.248 NA
ATOM     52  C   UNL A   1      44.606  25.786  29.151  1.00  0.00     0.031 C 
ATOM     53  C   UNL A   1      44.918  30.845  31.787  1.00  0.00     0.029 A 
ATOM     54  C   UNL A   1      45.210  29.575  31.289  1.00  0.00     0.049 A 
ATOM     55  H   UNL A   1      45.204  27.845  32.494  1.00  0.00     0.167 HD
ATOM     56  C   UNL A   1      45.558  27.872  29.506  1.00  0.00     0.074 A 
ATOM     57  C   UNL A   1      44.998  26.654  30.086  1.00  0.00     0.031 C 
ATOM     58  C   UNL A   1      45.698  29.134  30.001  1.00  0.00     0.034 A 
BRANCH  45  59
ATOM     59  C   UNL A   1      42.684  27.387  34.235  1.00  0.00     0.023 A 
ATOM     60  C   UNL A   1      42.316  27.650  35.568  1.00  0.00     0.012 A 
ATOM     61  C   UNL A   1      43.316  26.150  33.965  1.00  0.00     0.148 A 
ATOM     62  C   UNL A   1      42.567  26.725  36.587  1.00  0.00     0.002 A 
ATOM     63  C   UNL A   1      43.500  25.206  34.965  1.00  0.00     0.091 A 
ATOM     64  F   UNL A   1      43.857  25.932  32.761  1.00  0.00    -0.205 F 
ATOM     65  C   UNL A   1      43.146  25.497  36.284  1.00  0.00     0.022 A 
BRANCH  63  66
ATOM     66  S   UNL A   1      44.220  23.597  34.622  1.00  0.00     0.127 S 
ATOM     67  O   UNL A   1      44.284  23.013  35.958  1.00  0.00    -0.237 OA
ATOM     68  O   UNL A   1      43.221  23.005  33.732  1.00  0.00    -0.237 OA
ATOM     69  O   UNL A   1      45.499  23.873  33.979  1.00  0.00    -0.744 OA
ENDBRANCH  63  66
ENDBRANCH  45  59
BRANCH  46  70
ATOM     70  C   UNL A   1      44.061  25.143  25.987  1.00  0.00     0.023 A 
ATOM     71  C   UNL A   1      45.209  24.907  25.193  1.00  0.00     0.012 A 
ATOM     72  C   UNL A   1      43.203  24.049  26.230  1.00  0.00     0.148 A 
ATOM     73  C   UNL A   1      45.522  23.625  24.720  1.00  0.00     0.002 A 
ATOM     74  C   UNL A   1      43.513  22.777  25.750  1.00  0.00     0.091 A 
ATOM     75  F   UNL A   1      42.137  24.225  27.020  1.00  0.00    -0.205 F 
ATOM     76  C   UNL A   1      44.681  22.557  25.011  1.00  0.00     0.022 A 
BRANCH  74  77
ATOM     77  S   UNL A   1      42.478  21.349  26.107  1.00  0.00     0.127 S 
ATOM     78  O   UNL A   1      41.184  21.765  25.565  1.00  0.00    -0.237 OA
ATOM     79  O   UNL A   1      43.147  20.294  25.354  1.00  0.00    -0.237 OA
ATOM     80  O   UNL A   1      42.496  21.203  27.558  1.00  0.00    -0.744 OA
ENDBRANCH  74  77
ENDBRANCH  46  70
BRANCH  58  81
ATOM     81  C   UNL A   1      46.154  30.217  29.059  1.00  0.00     0.023 A 
ATOM     82  C   UNL A   1      47.517  30.428  28.759  1.00  0.00     0.012 A 
ATOM     83  C   UNL A   1      45.176  30.895  28.316  1.00  0.00     0.148 A 
ATOM     84  C   UNL A   1      47.893  31.297  27.729  1.00  0.00     0.002 A 
ATOM     85  C   UNL A   1      45.551  31.728  27.270  1.00  0.00     0.091 A 
ATOM     86  F   UNL A   1      43.888  30.671  28.619  1.00  0.00    -0.205 F 
ATOM     87  C   UNL A   1      46.909  31.934  26.974  1.00  0.00     0.022 A 
BRANCH  85  88
ATOM     88  S   UNL A   1      44.338  32.492  26.192  1.00  0.00     0.127 S 
ATOM     89  O   UNL A   1      43.795  33.551  27.041  1.00  0.00    -0.237 OA
ATOM     90  O   UNL A   1      45.164  32.963  25.079  1.00  0.00    -0.237 OA
ATOM     91  O   UNL A   1      43.392  31.441  25.833  1.00  0.00    -0.744 OA
ENDBRANCH  85  88
ENDBRANCH  58  81
ENDBRANCH  32  33
ENDBRANCH  25  27
ENDBRANCH  24  25
ENDBRANCH  23  24
ENDBRANCH   1  23
TORSDOF 19
ENDMDL
MODEL 2
REMARK VINA RESULT:     -11.1      1.126      1.687
REMARK SMILES O=C(Cn1nnnc1[C@H]1Cc2ccccc2S1)OCCOCCOC(=O)c1ccc(-c2c3nc(c(-c4cccc(S(=O)(=O)[O-])c4F)c4ccc([nH]4)c(-c4cccc(S(=O)(=O)[O-])c4F)c4nc(c(-c5cccc(S(=O)(=O)[O-])c5F)c5ccc2[nH]5)C=C4)C=C3)cc1
REMARK SMILES IDX 22 1 21 2 20 3 19 4 18 5 2 6 1 7 3 8 4 9 5 10 8 11 6 12 7 13
REMARK SMILES IDX 9 14 10 15 17 16 11 17 16 18 12 19 15 20 13 21 14 22 23 23
REMARK SMILES IDX 24 24 25 25 26 26 27 27 28 28 89 29 29 30 88 31 30 32 31 33
REMARK SMILES IDX 32 34 82 35 33 36 87 37 81 38 83 39 34 40 86 41 80 42 79 43
REMARK SMILES IDX 35 45 67 46 47 47 66 48 48 49 51 50 65 51 84 52 49 53 50 54
REMARK SMILES IDX 64 56 85 57 52 58 36 59 37 60 45 61 38 62 40 63 46 64 39 65
REMARK SMILES IDX 41 66 42 67 43 68 44 69 68 70 69 71 77 72 70 73 72 74 78 75
REMARK SMILES IDX 71 76 73 77 74 78 75 79 76 80 53 81 54 82 62 83 55 84 57 85
REMARK SMILES IDX 63 86 56 87 58 88 59 89 60 90 61 91
REMARK H PARENT 83 44 51 55
REMARK Flexibility Score: inf
ROOT
ATOM      1  C   UNL A   1      32.815  30.527  27.156  1.00  0.00     0.202 C 
ENDROOT
BRANCH   1   2
ATOM      2  O   UNL A   1      33.089  29.859  25.919  1.00  0.00    -0.374 OA
BRANCH   2   3
ATOM      3  C   UNL A   1      31.993  29.570  25.060  1.00  0.00     0.202 C 
BRANCH   3   4
ATOM      4  C   UNL A   1      31.336  28.188  25.131  1.00  0.00     0.261 C 
BRANCH   4   5
ATOM      5  O   UNL A   1      31.296  27.416  23.931  1.00  0.00    -0.462 OA
BRANCH   5   6
ATOM      6  C   UNL A   1      31.597  26.099  23.895  1.00  0.00     0.327 C 
ATOM      7  O   UNL A   1      31.114  25.388  23.012  1.00  0.00    -0.250 OA
BRANCH   6   8
ATOM      8  C   UNL A   1      32.288  25.487  25.070  1.00  0.00     0.270 C 
BRANCH   8   9
ATOM      9  N   UNL A   1      31.604  24.451  25.797  1.00  0.00    -0.217 N 
ATOM     10  N   UNL A   1      30.654  24.715  26.704  1.00  0.00    -0.044 NA
ATOM     11  C   UNL A   1      31.722  23.087  25.646  1.00  0.00     0.165 A 
ATOM     12  N   UNL A   1      30.093  23.549  26.980  1.00  0.00    -0.024 NA
ATOM     13  N   UNL A   1      30.742  22.531  26.333  1.00  0.00    -0.113 NA
BRANCH  11  14
ATOM     14  C   UNL A   1      32.801  22.350  24.925  1.00  0.00     0.126 C 
ATOM     15  C   UNL A   1      33.235  21.020  25.577  1.00  0.00     0.059 C 
ATOM     16  S   UNL A   1      32.322  22.028  23.185  1.00  0.00    -0.114 SA
ATOM     17  C   UNL A   1      33.007  19.903  24.594  1.00  0.00    -0.033 A 
ATOM     18  C   UNL A   1      32.467  20.282  23.367  1.00  0.00     0.011 A 
ATOM     19  C   UNL A   1      33.304  18.563  24.834  1.00  0.00     0.005 A 
ATOM     20  C   UNL A   1      32.120  19.341  22.409  1.00  0.00     0.015 A 
ATOM     21  C   UNL A   1      33.008  17.612  23.853  1.00  0.00     0.000 A 
ATOM     22  C   UNL A   1      32.392  17.995  22.656  1.00  0.00     0.001 A 
ENDBRANCH  11  14
ENDBRANCH   8   9
ENDBRANCH   6   8
ENDBRANCH   5   6
ENDBRANCH   4   5
ENDBRANCH   3   4
ENDBRANCH   2   3
ENDBRANCH   1   2
BRANCH   1  23
ATOM     23  C   UNL A   1      33.808  31.592  27.646  1.00  0.00     0.261 C 
BRANCH  23  24
ATOM     24  O   UNL A   1      34.816  31.001  28.476  1.00  0.00    -0.460 OA
BRANCH  24  25
ATOM     25  C   UNL A   1      35.688  31.863  29.063  1.00  0.00     0.338 C 
ATOM     26  O   UNL A   1      35.443  32.684  29.933  1.00  0.00    -0.246 OA
BRANCH  25  27
ATOM     27  C   UNL A   1      37.030  31.342  28.733  1.00  0.00     0.060 A 
ATOM     28  C   UNL A   1      37.166  30.114  28.082  1.00  0.00     0.016 A 
ATOM     29  C   UNL A   1      38.113  31.932  29.406  1.00  0.00     0.016 A 
ATOM     30  C   UNL A   1      38.360  29.418  28.218  1.00  0.00     0.010 A 
ATOM     31  C   UNL A   1      39.288  31.210  29.582  1.00  0.00     0.010 A 
ATOM     32  C   UNL A   1      39.389  29.931  29.034  1.00  0.00    -0.014 A 
BRANCH  32  33
ATOM     33  C   UNL A   1      40.637  29.170  29.102  1.00  0.00     0.031 A 
ATOM     34  C   UNL A   1      40.990  28.844  30.511  1.00  0.00     0.074 A 
ATOM     35  C   UNL A   1      41.359  28.692  28.064  1.00  0.00     0.049 A 
ATOM     36  N   UNL A   1      42.018  29.238  31.189  1.00  0.00    -0.248 NA
ATOM     37  C   UNL A   1      39.968  28.144  31.308  1.00  0.00     0.031 C 
ATOM     38  C   UNL A   1      41.022  28.675  26.640  1.00  0.00     0.029 A 
ATOM     39  N   UNL A   1      42.540  28.002  28.099  1.00  0.00    -0.354 N 
ATOM     40  C   UNL A   1      41.862  28.673  32.452  1.00  0.00     0.074 A 
ATOM     41  C   UNL A   1      40.519  28.159  32.518  1.00  0.00     0.031 C 
ATOM     42  C   UNL A   1      41.846  27.814  25.993  1.00  0.00     0.029 A 
ATOM     43  C   UNL A   1      42.834  27.303  26.927  1.00  0.00     0.049 A 
ATOM     44  H   UNL A   1      43.134  27.999  28.885  1.00  0.00     0.167 HD
ATOM     45  C   UNL A   1      42.904  28.477  33.300  1.00  0.00     0.034 A 
ATOM     46  C   UNL A   1      43.763  26.321  26.779  1.00  0.00     0.034 A 
ATOM     47  C   UNL A   1      44.059  29.242  32.931  1.00  0.00     0.049 A 
ATOM     48  C   UNL A   1      44.727  26.472  27.893  1.00  0.00     0.074 A 
ATOM     49  C   UNL A   1      44.352  30.588  32.848  1.00  0.00     0.029 A 
ATOM     50  N   UNL A   1      45.031  28.596  32.210  1.00  0.00    -0.354 N 
ATOM     51  N   UNL A   1      45.535  27.484  28.023  1.00  0.00    -0.248 NA
ATOM     52  C   UNL A   1      44.506  25.679  29.091  1.00  0.00     0.031 C 
ATOM     53  C   UNL A   1      45.196  30.711  31.707  1.00  0.00     0.029 A 
ATOM     54  C   UNL A   1      45.402  29.431  31.191  1.00  0.00     0.049 A 
ATOM     55  H   UNL A   1      45.394  27.699  32.393  1.00  0.00     0.167 HD
ATOM     56  C   UNL A   1      45.567  27.722  29.388  1.00  0.00     0.074 A 
ATOM     57  C   UNL A   1      44.992  26.527  30.001  1.00  0.00     0.031 C 
ATOM     58  C   UNL A   1      45.791  28.975  29.876  1.00  0.00     0.034 A 
BRANCH  45  59
ATOM     59  C   UNL A   1      42.968  27.344  34.283  1.00  0.00     0.023 A 
ATOM     60  C   UNL A   1      42.720  27.624  35.641  1.00  0.00     0.012 A 
ATOM     61  C   UNL A   1      43.504  26.074  33.966  1.00  0.00     0.148 A 
ATOM     62  C   UNL A   1      42.996  26.683  36.638  1.00  0.00     0.002 A 
ATOM     63  C   UNL A   1      43.710  25.117  34.950  1.00  0.00     0.091 A 
ATOM     64  F   UNL A   1      43.936  25.829  32.724  1.00  0.00    -0.205 F 
ATOM     65  C   UNL A   1      43.477  25.424  36.293  1.00  0.00     0.022 A 
BRANCH  63  66
ATOM     66  S   UNL A   1      44.307  23.471  34.553  1.00  0.00     0.127 S 
ATOM     67  O   UNL A   1      45.639  23.760  34.030  1.00  0.00    -0.237 OA
ATOM     68  O   UNL A   1      44.282  22.819  35.863  1.00  0.00    -0.237 OA
ATOM     69  O   UNL A   1      43.345  22.929  33.601  1.00  0.00    -0.744 OA
ENDBRANCH  63  66
ENDBRANCH  45  59
BRANCH  46  70
ATOM     70  C   UNL A   1      43.742  25.071  25.965  1.00  0.00     0.023 A 
ATOM     71  C   UNL A   1      44.791  24.827  25.046  1.00  0.00     0.012 A 
ATOM     72  C   UNL A   1      42.907  23.985  26.304  1.00  0.00     0.148 A 
ATOM     73  C   UNL A   1      45.036  23.543  24.540  1.00  0.00     0.002 A 
ATOM     74  C   UNL A   1      43.150  22.711  25.791  1.00  0.00     0.091 A 
ATOM     75  F   UNL A   1      41.940  24.170  27.210  1.00  0.00    -0.205 F 
ATOM     76  C   UNL A   1      44.224  22.482  24.924  1.00  0.00     0.022 A 
BRANCH  74  77
ATOM     77  S   UNL A   1      42.150  21.292  26.263  1.00  0.00     0.127 S 
ATOM     78  O   UNL A   1      40.805  21.723  25.878  1.00  0.00    -0.237 OA
ATOM     79  O   UNL A   1      42.714  20.234  25.433  1.00  0.00    -0.237 OA
ATOM     80  O   UNL A   1      42.336  21.139  27.702  1.00  0.00    -0.744 OA
ENDBRANCH  74  77
ENDBRANCH  46  70
BRANCH  58  81
ATOM     81  C   UNL A   1      46.236  30.040  28.908  1.00  0.00     0.023 A 
ATOM     82  C   UNL A   1      47.582  30.176  28.505  1.00  0.00     0.012 A 
ATOM     83  C   UNL A   1      45.245  30.781  28.247  1.00  0.00     0.148 A 
ATOM     84  C   UNL A   1      47.927  31.034  27.455  1.00  0.00     0.002 A 
ATOM     85  C   UNL A   1      45.586  31.602  27.181  1.00  0.00     0.091 A 
ATOM     86  F   UNL A   1      43.974  30.628  28.647  1.00  0.00    -0.205 F 
ATOM     87  C   UNL A   1      46.927  31.734  26.782  1.00  0.00     0.022 A 
BRANCH  85  88
ATOM     88  S   UNL A   1      44.340  32.447  26.205  1.00  0.00     0.127 S 
ATOM     89  O   UNL A   1      45.110  32.904  25.051  1.00  0.00    -0.237 OA
ATOM     90  O   UNL A   1      43.388  31.372  25.920  1.00  0.00    -0.237 OA
ATOM     91  O   UNL A   1      43.808  33.508  27.054  1.00  0.00    -0.744 OA
ENDBRANCH  85  88
ENDBRANCH  58  81
ENDBRANCH  32  33
ENDBRANCH  25  27
ENDBRANCH  24  25
ENDBRANCH  23  24
ENDBRANCH   1  23
TORSDOF 19
ENDMDL
MODEL 3
REMARK VINA RESULT:     -11.0      1.992      2.488
REMARK SMILES O=C(Cn1nnnc1[C@H]1Cc2ccccc2S1)OCCOCCOC(=O)c1ccc(-c2c3nc(c(-c4cccc(S(=O)(=O)[O-])c4F)c4ccc([nH]4)c(-c4cccc(S(=O)(=O)[O-])c4F)c4nc(c(-c5cccc(S(=O)(=O)[O-])c5F)c5ccc2[nH]5)C=C4)C=C3)cc1
REMARK SMILES IDX 22 1 21 2 20 3 19 4 18 5 2 6 1 7 3 8 4 9 5 10 8 11 6 12 7 13
REMARK SMILES IDX 9 14 10 15 17 16 11 17 16 18 12 19 15 20 13 21 14 22 23 23
REMARK SMILES IDX 24 24 25 25 26 26 27 27 28 28 89 29 29 30 88 31 30 32 31 33
REMARK SMILES IDX 32 34 82 35 33 36 87 37 81 38 83 39 34 40 86 41 80 42 79 43
REMARK SMILES IDX 35 45 67 46 47 47 66 48 48 49 51 50 65 51 84 52 49 53 50 54
REMARK SMILES IDX 64 56 85 57 52 58 36 59 37 60 45 61 38 62 40 63 46 64 39 65
REMARK SMILES IDX 41 66 42 67 43 68 44 69 68 70 69 71 77 72 70 73 72 74 78 75
REMARK SMILES IDX 71 76 73 77 74 78 75 79 76 80 53 81 54 82 62 83 55 84 57 85
REMARK SMILES IDX 63 86 56 87 58 88 59 89 60 90 61 91
REMARK H PARENT 83 44 51 55
REMARK Flexibility Score: inf
ROOT
ATOM      1  C   UNL A   1      32.318  31.079  26.771  1.00  0.00     0.202 C 
ENDROOT
BRANCH   1   2
ATOM      2  O   UNL A   1      31.632  30.462  25.675  1.00  0.00    -0.374 OA
BRANCH   2   3
ATOM      3  C   UNL A   1      32.292  29.409  24.984  1.00  0.00     0.202 C 
BRANCH   3   4
ATOM      4  C   UNL A   1      31.539  28.654  23.885  1.00  0.00     0.261 C 
BRANCH   4   5
ATOM      5  O   UNL A   1      30.478  27.788  24.290  1.00  0.00    -0.462 OA
BRANCH   5   6
ATOM      6  C   UNL A   1      30.666  26.480  24.573  1.00  0.00     0.327 C 
ATOM      7  O   UNL A   1      31.022  26.146  25.704  1.00  0.00    -0.250 OA
BRANCH   6   8
ATOM      8  C   UNL A   1      30.696  25.498  23.447  1.00  0.00     0.270 C 
BRANCH   8   9
ATOM      9  N   UNL A   1      31.877  25.442  22.626  1.00  0.00    -0.217 N 
ATOM     10  N   UNL A   1      31.933  25.991  21.406  1.00  0.00    -0.044 NA
ATOM     11  C   UNL A   1      33.113  24.928  22.951  1.00  0.00     0.165 A 
ATOM     12  N   UNL A   1      33.210  25.960  21.060  1.00  0.00    -0.024 NA
ATOM     13  N   UNL A   1      33.953  25.305  22.006  1.00  0.00    -0.113 NA
BRANCH  11  14
ATOM     14  C   UNL A   1      33.444  24.032  24.098  1.00  0.00     0.126 C 
ATOM     15  C   UNL A   1      34.185  22.732  23.722  1.00  0.00     0.059 C 
ATOM     16  S   UNL A   1      34.424  24.927  25.364  1.00  0.00    -0.114 SA
ATOM     17  C   UNL A   1      35.509  22.704  24.439  1.00  0.00    -0.033 A 
ATOM     18  C   UNL A   1      35.779  23.809  25.243  1.00  0.00     0.011 A 
ATOM     19  C   UNL A   1      36.436  21.668  24.352  1.00  0.00     0.005 A 
ATOM     20  C   UNL A   1      37.002  23.954  25.883  1.00  0.00     0.015 A 
ATOM     21  C   UNL A   1      37.649  21.779  25.037  1.00  0.00     0.000 A 
ATOM     22  C   UNL A   1      37.943  22.930  25.777  1.00  0.00     0.001 A 
ENDBRANCH  11  14
ENDBRANCH   8   9
ENDBRANCH   6   8
ENDBRANCH   5   6
ENDBRANCH   4   5
ENDBRANCH   3   4
ENDBRANCH   2   3
ENDBRANCH   1   2
BRANCH   1  23
ATOM     23  C   UNL A   1      33.458  30.305  27.449  1.00  0.00     0.261 C 
BRANCH  23  24
ATOM     24  O   UNL A   1      34.672  31.068  27.426  1.00  0.00    -0.460 OA
BRANCH  24  25
ATOM     25  C   UNL A   1      34.937  31.803  28.539  1.00  0.00     0.338 C 
ATOM     26  O   UNL A   1      34.185  32.576  29.109  1.00  0.00    -0.246 OA
BRANCH  25  27
ATOM     27  C   UNL A   1      36.142  31.188  29.132  1.00  0.00     0.060 A 
ATOM     28  C   UNL A   1      37.320  31.928  29.257  1.00  0.00     0.016 A 
ATOM     29  C   UNL A   1      36.152  29.785  29.215  1.00  0.00     0.016 A 
ATOM     30  C   UNL A   1      38.527  31.248  29.335  1.00  0.00     0.010 A 
ATOM     31  C   UNL A   1      37.367  29.109  29.242  1.00  0.00     0.010 A 
ATOM     32  C   UNL A   1      38.554  29.841  29.246  1.00  0.00    -0.014 A 
BRANCH  32  33
ATOM     33  C   UNL A   1      39.855  29.182  29.377  1.00  0.00     0.031 A 
ATOM     34  C   UNL A   1      40.349  29.248  30.780  1.00  0.00     0.074 A 
ATOM     35  C   UNL A   1      40.517  28.487  28.426  1.00  0.00     0.049 A 
ATOM     36  N   UNL A   1      41.400  29.850  31.229  1.00  0.00    -0.248 NA
ATOM     37  C   UNL A   1      39.452  28.730  31.826  1.00  0.00     0.031 C 
ATOM     38  C   UNL A   1      40.062  28.088  27.093  1.00  0.00     0.029 A 
ATOM     39  N   UNL A   1      41.743  27.886  28.514  1.00  0.00    -0.354 N 
ATOM     40  C   UNL A   1      41.394  29.623  32.603  1.00  0.00     0.074 A 
ATOM     41  C   UNL A   1      40.102  29.081  32.931  1.00  0.00     0.031 C 
ATOM     42  C   UNL A   1      40.886  27.129  26.605  1.00  0.00     0.029 A 
ATOM     43  C   UNL A   1      41.984  26.923  27.532  1.00  0.00     0.049 A 
ATOM     44  H   UNL A   1      42.400  28.113  29.211  1.00  0.00     0.167 HD
ATOM     45  C   UNL A   1      42.516  29.701  33.363  1.00  0.00     0.034 A 
ATOM     46  C   UNL A   1      42.965  25.981  27.544  1.00  0.00     0.034 A 
ATOM     47  C   UNL A   1      43.578  30.399  32.699  1.00  0.00     0.049 A 
ATOM     48  C   UNL A   1      44.007  26.458  28.481  1.00  0.00     0.074 A 
ATOM     49  C   UNL A   1      43.767  31.690  32.250  1.00  0.00     0.029 A 
ATOM     50  N   UNL A   1      44.528  29.635  32.070  1.00  0.00    -0.354 N 
ATOM     51  N   UNL A   1      44.749  27.506  28.269  1.00  0.00    -0.248 NA
ATOM     52  C   UNL A   1      43.946  25.992  29.855  1.00  0.00     0.031 C 
ATOM     53  C   UNL A   1      44.499  31.554  31.036  1.00  0.00     0.029 A 
ATOM     54  C   UNL A   1      44.750  30.196  30.840  1.00  0.00     0.049 A 
ATOM     55  H   UNL A   1      44.968  28.834  32.435  1.00  0.00     0.167 HD
ATOM     56  C   UNL A   1      44.881  28.089  29.520  1.00  0.00     0.074 A 
ATOM     57  C   UNL A   1      44.447  27.066  30.469  1.00  0.00     0.031 C 
ATOM     58  C   UNL A   1      45.057  29.434  29.651  1.00  0.00     0.034 A 
BRANCH  45  59
ATOM     59  C   UNL A   1      42.744  28.864  34.589  1.00  0.00     0.023 A 
ATOM     60  C   UNL A   1      43.075  29.518  35.791  1.00  0.00     0.012 A 
ATOM     61  C   UNL A   1      42.892  27.458  34.548  1.00  0.00     0.148 A 
ATOM     62  C   UNL A   1      43.535  28.803  36.903  1.00  0.00     0.002 A 
ATOM     63  C   UNL A   1      43.280  26.746  35.674  1.00  0.00     0.091 A 
ATOM     64  F   UNL A   1      42.778  26.814  33.382  1.00  0.00    -0.205 F 
ATOM     65  C   UNL A   1      43.624  27.417  36.850  1.00  0.00     0.022 A 
BRANCH  63  66
ATOM     66  S   UNL A   1      43.387  24.953  35.664  1.00  0.00     0.127 S 
ATOM     67  O   UNL A   1      43.809  24.677  37.035  1.00  0.00    -0.237 OA
ATOM     68  O   UNL A   1      42.010  24.572  35.349  1.00  0.00    -0.237 OA
ATOM     69  O   UNL A   1      44.349  24.627  34.618  1.00  0.00    -0.744 OA
ENDBRANCH  63  66
ENDBRANCH  45  59
BRANCH  46  70
ATOM     70  C   UNL A   1      42.963  24.564  27.078  1.00  0.00     0.023 A 
ATOM     71  C   UNL A   1      41.748  23.836  27.082  1.00  0.00     0.012 A 
ATOM     72  C   UNL A   1      44.038  24.031  26.335  1.00  0.00     0.148 A 
ATOM     73  C   UNL A   1      41.594  22.665  26.326  1.00  0.00     0.002 A 
ATOM     74  C   UNL A   1      43.883  22.861  25.593  1.00  0.00     0.091 A 
ATOM     75  F   UNL A   1      45.183  24.721  26.267  1.00  0.00    -0.205 F 
ATOM     76  C   UNL A   1      42.657  22.186  25.570  1.00  0.00     0.022 A 
BRANCH  74  77
ATOM     77  S   UNL A   1      45.212  22.198  24.577  1.00  0.00     0.127 S 
ATOM     78  O   UNL A   1      45.476  23.305  23.657  1.00  0.00    -0.237 OA
ATOM     79  O   UNL A   1      46.258  21.960  25.565  1.00  0.00    -0.237 OA
ATOM     80  O   UNL A   1      44.662  21.009  23.936  1.00  0.00    -0.744 OA
ENDBRANCH  74  77
ENDBRANCH  46  70
BRANCH  58  81
ATOM     81  C   UNL A   1      45.340  30.234  28.406  1.00  0.00     0.023 A 
ATOM     82  C   UNL A   1      44.310  30.720  27.573  1.00  0.00     0.012 A 
ATOM     83  C   UNL A   1      46.657  30.670  28.193  1.00  0.00     0.148 A 
ATOM     84  C   UNL A   1      44.593  31.629  26.548  1.00  0.00     0.002 A 
ATOM     85  C   UNL A   1      46.928  31.601  27.199  1.00  0.00     0.091 A 
ATOM     86  F   UNL A   1      47.616  30.197  29.003  1.00  0.00    -0.205 F 
ATOM     87  C   UNL A   1      45.899  32.083  26.372  1.00  0.00     0.022 A 
BRANCH  85  88
ATOM     88  S   UNL A   1      48.565  32.306  26.989  1.00  0.00     0.127 S 
ATOM     89  O   UNL A   1      49.360  31.135  26.627  1.00  0.00    -0.237 OA
ATOM     90  O   UNL A   1      48.353  33.262  25.900  1.00  0.00    -0.237 OA
ATOM     91  O   UNL A   1      48.911  32.919  28.266  1.00  0.00    -0.744 OA
ENDBRANCH  85  88
ENDBRANCH  58  81
ENDBRANCH  32  33
ENDBRANCH  25  27
ENDBRANCH  24  25
ENDBRANCH  23  24
ENDBRANCH   1  23
TORSDOF 19
ENDMDL
