MODEL 1
REMARK VINA RESULT:      -9.4      0.000      0.000
REMARK SMILES C[NH2+]C[C@H](C)C(=O)N1CCC[C@@H]1C(=O)OCCOCCOC(=O)c1ccc(-c2c3nc(c(-c4cccc(S(=O)(=O)[O-])c4F)c4ccc([nH]4)c(-c4cccc(S(=O)(=O)[O-])c4F)c4nc(c(-c5cccc(S(=O)(=O)[O-])c5F)c5ccc2[nH]5)C=C4)C=C3)cc1
REMARK SMILES IDX 17 1 16 2 15 3 13 4 14 5 12 6 8 7 9 8 10 9 11 10 6 11 7 12
REMARK SMILES IDX 4 13 5 14 3 15 2 16 1 17 18 20 19 21 20 22 21 23 22 24 23 25
REMARK SMILES IDX 24 26 25 27 86 28 26 29 85 30 27 31 28 32 29 33 79 34 30 35
REMARK SMILES IDX 84 36 78 37 80 38 31 39 83 40 77 41 76 42 32 44 64 45 44 46
REMARK SMILES IDX 63 47 45 48 48 49 62 50 81 51 46 52 47 53 61 55 82 56 49 57
REMARK SMILES IDX 33 58 34 59 42 60 35 61 37 62 43 63 36 64 38 65 39 66 40 67
REMARK SMILES IDX 41 68 65 69 66 70 74 71 67 72 69 73 75 74 68 75 70 76 71 77
REMARK SMILES IDX 72 78 73 79 50 80 51 81 59 82 52 83 54 84 60 85 53 86 55 87
REMARK SMILES IDX 56 88 57 89 58 90
REMARK H PARENT 2 18 2 19 80 43 48 54
REMARK Flexibility Score: inf
ROOT
ATOM      1  C   UNL A   1      36.000  21.947  25.780  1.00  0.00     0.202 C 
ENDROOT
BRANCH   1   2
ATOM      2  C   UNL A   1      35.825  23.173  24.876  1.00  0.00     0.261 C 
BRANCH   2   3
ATOM      3  O   UNL A   1      34.483  23.408  24.414  1.00  0.00    -0.462 OA
BRANCH   3   4
ATOM      4  C   UNL A   1      33.652  23.981  25.336  1.00  0.00     0.328 C 
ATOM      5  O   UNL A   1      34.041  24.587  26.328  1.00  0.00    -0.250 OA
BRANCH   4   6
ATOM      6  C   UNL A   1      32.166  23.686  25.057  1.00  0.00     0.195 C 
ATOM      7  N   UNL A   1      31.336  24.840  25.399  1.00  0.00    -0.328 N 
ATOM      8  C   UNL A   1      30.196  24.444  26.202  1.00  0.00     0.120 C 
ATOM      9  C   UNL A   1      30.629  23.150  26.861  1.00  0.00     0.024 C 
ATOM     10  C   UNL A   1      31.564  22.511  25.838  1.00  0.00     0.039 C 
BRANCH   7  11
ATOM     11  C   UNL A   1      31.447  26.010  24.686  1.00  0.00     0.231 C 
ATOM     12  O   UNL A   1      31.774  25.999  23.498  1.00  0.00    -0.274 OA
BRANCH  11  13
ATOM     13  C   UNL A   1      31.254  27.339  25.410  1.00  0.00     0.130 C 
ATOM     14  C   UNL A   1      32.286  27.554  26.513  1.00  0.00     0.024 C 
BRANCH  13  15
ATOM     15  C   UNL A   1      31.132  28.563  24.475  1.00  0.00     0.273 C 
BRANCH  15  16
ATOM     16  N   UNL A   1      32.286  29.467  24.394  1.00  0.00    -0.348 N 
ATOM     17  C   UNL A   1      33.288  29.051  23.426  1.00  0.00     0.330 C 
ATOM     18  H   UNL A   1      31.951  30.395  24.131  1.00  0.00     0.346 HD
ATOM     19  H   UNL A   1      32.736  29.461  25.310  1.00  0.00     0.346 HD
ENDBRANCH  15  16
ENDBRANCH  13  15
ENDBRANCH  11  13
ENDBRANCH   7  11
ENDBRANCH   4   6
ENDBRANCH   3   4
ENDBRANCH   2   3
ENDBRANCH   1   2
BRANCH   1  20
ATOM     20  O   UNL A   1      36.238  20.686  25.165  1.00  0.00    -0.374 OA
BRANCH  20  21
ATOM     21  C   UNL A   1      37.504  20.474  24.544  1.00  0.00     0.202 C 
BRANCH  21  22
ATOM     22  C   UNL A   1      38.386  19.341  25.082  1.00  0.00     0.261 C 
BRANCH  22  23
ATOM     23  O   UNL A   1      38.957  19.637  26.374  1.00  0.00    -0.460 OA
BRANCH  23  24
ATOM     24  C   UNL A   1      40.276  19.955  26.341  1.00  0.00     0.338 C 
ATOM     25  O   UNL A   1      41.176  19.306  25.827  1.00  0.00    -0.246 OA
BRANCH  24  26
ATOM     26  C   UNL A   1      40.513  21.301  26.890  1.00  0.00     0.060 A 
ATOM     27  C   UNL A   1      40.078  22.402  26.139  1.00  0.00     0.016 A 
ATOM     28  C   UNL A   1      41.299  21.485  28.029  1.00  0.00     0.016 A 
ATOM     29  C   UNL A   1      40.474  23.690  26.496  1.00  0.00     0.010 A 
ATOM     30  C   UNL A   1      41.700  22.780  28.380  1.00  0.00     0.010 A 
ATOM     31  C   UNL A   1      41.324  23.883  27.592  1.00  0.00    -0.014 A 
BRANCH  31  32
ATOM     32  C   UNL A   1      41.927  25.219  27.835  1.00  0.00     0.031 A 
ATOM     33  C   UNL A   1      41.091  26.305  28.459  1.00  0.00     0.074 A 
ATOM     34  C   UNL A   1      43.202  25.469  27.488  1.00  0.00     0.049 A 
ATOM     35  N   UNL A   1      41.413  27.542  28.730  1.00  0.00    -0.248 NA
ATOM     36  C   UNL A   1      39.708  25.950  28.821  1.00  0.00     0.031 C 
ATOM     37  C   UNL A   1      44.110  24.508  26.867  1.00  0.00     0.029 A 
ATOM     38  N   UNL A   1      43.941  26.622  27.582  1.00  0.00    -0.354 N 
ATOM     39  C   UNL A   1      40.269  28.125  29.264  1.00  0.00     0.074 A 
ATOM     40  C   UNL A   1      39.242  27.105  29.277  1.00  0.00     0.031 C 
ATOM     41  C   UNL A   1      45.275  25.123  26.596  1.00  0.00     0.029 A 
ATOM     42  C   UNL A   1      45.187  26.522  27.011  1.00  0.00     0.049 A 
ATOM     43  H   UNL A   1      43.611  27.441  28.016  1.00  0.00     0.167 HD
ATOM     44  C   UNL A   1      40.094  29.389  29.719  1.00  0.00     0.034 A 
ATOM     45  C   UNL A   1      46.141  27.457  26.823  1.00  0.00     0.034 A 
ATOM     46  C   UNL A   1      41.123  30.393  29.743  1.00  0.00     0.049 A 
ATOM     47  C   UNL A   1      45.919  28.855  27.339  1.00  0.00     0.074 A 
ATOM     48  C   UNL A   1      41.060  31.675  30.262  1.00  0.00     0.029 A 
ATOM     49  N   UNL A   1      42.394  30.237  29.215  1.00  0.00    -0.354 N 
ATOM     50  N   UNL A   1      44.889  29.343  27.986  1.00  0.00    -0.248 NA
ATOM     51  C   UNL A   1      47.008  29.824  27.130  1.00  0.00     0.031 C 
ATOM     52  C   UNL A   1      42.289  32.301  30.028  1.00  0.00     0.029 A 
ATOM     53  C   UNL A   1      43.120  31.404  29.377  1.00  0.00     0.049 A 
ATOM     54  H   UNL A   1      42.731  29.416  28.787  1.00  0.00     0.167 HD
ATOM     55  C   UNL A   1      45.214  30.663  28.284  1.00  0.00     0.074 A 
ATOM     56  C   UNL A   1      46.548  30.891  27.770  1.00  0.00     0.031 C 
ATOM     57  C   UNL A   1      44.467  31.606  28.911  1.00  0.00     0.034 A 
BRANCH  44  58
ATOM     58  C   UNL A   1      38.743  29.755  30.270  1.00  0.00     0.023 A 
ATOM     59  C   UNL A   1      38.441  29.468  31.616  1.00  0.00     0.012 A 
ATOM     60  C   UNL A   1      37.806  30.453  29.483  1.00  0.00     0.148 A 
ATOM     61  C   UNL A   1      37.219  29.851  32.166  1.00  0.00     0.002 A 
ATOM     62  C   UNL A   1      36.603  30.863  30.048  1.00  0.00     0.091 A 
ATOM     63  F   UNL A   1      38.103  30.694  28.199  1.00  0.00    -0.205 F 
ATOM     64  C   UNL A   1      36.306  30.557  31.386  1.00  0.00     0.022 A 
BRANCH  62  65
ATOM     65  S   UNL A   1      35.392  31.835  29.143  1.00  0.00     0.127 S 
ATOM     66  O   UNL A   1      36.223  32.907  28.597  1.00  0.00    -0.237 OA
ATOM     67  O   UNL A   1      34.906  30.875  28.151  1.00  0.00    -0.237 OA
ATOM     68  O   UNL A   1      34.399  32.248  30.123  1.00  0.00    -0.744 OA
ENDBRANCH  62  65
ENDBRANCH  44  58
BRANCH  45  69
ATOM     69  C   UNL A   1      47.411  27.089  26.136  1.00  0.00     0.023 A 
ATOM     70  C   UNL A   1      47.608  27.463  24.794  1.00  0.00     0.012 A 
ATOM     71  C   UNL A   1      48.429  26.392  26.813  1.00  0.00     0.148 A 
ATOM     72  C   UNL A   1      48.790  27.127  24.130  1.00  0.00     0.002 A 
ATOM     73  C   UNL A   1      49.625  26.107  26.162  1.00  0.00     0.091 A 
ATOM     74  F   UNL A   1      48.212  26.019  28.083  1.00  0.00    -0.205 F 
ATOM     75  C   UNL A   1      49.802  26.460  24.817  1.00  0.00     0.022 A 
BRANCH  73  76
ATOM     76  S   UNL A   1      51.020  25.367  27.020  1.00  0.00     0.127 S 
ATOM     77  O   UNL A   1      51.548  26.502  27.771  1.00  0.00    -0.237 OA
ATOM     78  O   UNL A   1      50.371  24.338  27.835  1.00  0.00    -0.237 OA
ATOM     79  O   UNL A   1      51.881  24.836  25.971  1.00  0.00    -0.744 OA
ENDBRANCH  73  76
ENDBRANCH  45  69
BRANCH  57  80
ATOM     80  C   UNL A   1      45.071  32.973  29.095  1.00  0.00     0.023 A 
ATOM     81  C   UNL A   1      45.868  33.234  30.226  1.00  0.00     0.012 A 
ATOM     82  C   UNL A   1      44.924  33.970  28.110  1.00  0.00     0.148 A 
ATOM     83  C   UNL A   1      46.489  34.472  30.388  1.00  0.00     0.002 A 
ATOM     84  C   UNL A   1      45.579  35.188  28.256  1.00  0.00     0.091 A 
ATOM     85  F   UNL A   1      44.146  33.711  27.048  1.00  0.00    -0.205 F 
ATOM     86  C   UNL A   1      46.355  35.444  29.398  1.00  0.00     0.022 A 
BRANCH  84  87
ATOM     87  S   UNL A   1      45.535  36.459  26.986  1.00  0.00     0.127 S 
ATOM     88  O   UNL A   1      46.384  37.495  27.573  1.00  0.00    -0.237 OA
ATOM     89  O   UNL A   1      46.119  35.773  25.834  1.00  0.00    -0.237 OA
ATOM     90  O   UNL A   1      44.131  36.812  26.827  1.00  0.00    -0.744 OA
ENDBRANCH  84  87
ENDBRANCH  57  80
ENDBRANCH  31  32
ENDBRANCH  24  26
ENDBRANCH  23  24
ENDBRANCH  22  23
ENDBRANCH  21  22
ENDBRANCH  20  21
ENDBRANCH   1  20
TORSDOF 21
ENDMDL
MODEL 2
REMARK VINA RESULT:      -9.3      3.825     10.417
REMARK SMILES C[NH2+]C[C@H](C)C(=O)N1CCC[C@@H]1C(=O)OCCOCCOC(=O)c1ccc(-c2c3nc(c(-c4cccc(S(=O)(=O)[O-])c4F)c4ccc([nH]4)c(-c4cccc(S(=O)(=O)[O-])c4F)c4nc(c(-c5cccc(S(=O)(=O)[O-])c5F)c5ccc2[nH]5)C=C4)C=C3)cc1
REMARK SMILES IDX 17 1 16 2 15 3 13 4 14 5 12 6 8 7 9 8 10 9 11 10 6 11 7 12
REMARK SMILES IDX 4 13 5 14 3 15 2 16 1 17 18 20 19 21 20 22 21 23 22 24 23 25
REMARK SMILES IDX 24 26 25 27 86 28 26 29 85 30 27 31 28 32 29 33 79 34 30 35
REMARK SMILES IDX 84 36 78 37 80 38 31 39 83 40 77 41 76 42 32 44 64 45 44 46
REMARK SMILES IDX 63 47 45 48 48 49 62 50 81 51 46 52 47 53 61 55 82 56 49 57
REMARK SMILES IDX 33 58 34 59 42 60 35 61 37 62 43 63 36 64 38 65 39 66 40 67
REMARK SMILES IDX 41 68 65 69 66 70 74 71 67 72 69 73 75 74 68 75 70 76 71 77
REMARK SMILES IDX 72 78 73 79 50 80 51 81 59 82 52 83 54 84 60 85 53 86 55 87
REMARK SMILES IDX 56 88 57 89 58 90
REMARK H PARENT 2 18 2 19 80 43 48 54
REMARK Flexibility Score: inf
ROOT
ATOM      1  C   UNL A   1      43.420  19.258  25.756  1.00  0.00     0.202 C 
ENDROOT
BRANCH   1   2
ATOM      2  C   UNL A   1      44.278  19.911  24.665  1.00  0.00     0.261 C 
BRANCH   2   3
ATOM      3  O   UNL A   1      44.258  21.350  24.649  1.00  0.00    -0.462 OA
BRANCH   3   4
ATOM      4  C   UNL A   1      45.286  21.944  25.328  1.00  0.00     0.328 C 
ATOM      5  O   UNL A   1      46.415  21.474  25.411  1.00  0.00    -0.250 OA
BRANCH   4   6
ATOM      6  C   UNL A   1      44.844  23.216  26.076  1.00  0.00     0.195 C 
ATOM      7  N   UNL A   1      46.003  24.019  26.461  1.00  0.00    -0.328 N 
ATOM      8  C   UNL A   1      45.922  24.420  27.852  1.00  0.00     0.120 C 
ATOM      9  C   UNL A   1      45.025  23.381  28.493  1.00  0.00     0.024 C 
ATOM     10  C   UNL A   1      44.064  22.984  27.376  1.00  0.00     0.039 C 
BRANCH   7  11
ATOM     11  C   UNL A   1      46.787  24.612  25.500  1.00  0.00     0.231 C 
ATOM     12  O   UNL A   1      46.847  24.151  24.358  1.00  0.00    -0.274 OA
BRANCH  11  13
ATOM     13  C   UNL A   1      47.663  25.800  25.888  1.00  0.00     0.130 C 
ATOM     14  C   UNL A   1      48.949  25.368  26.585  1.00  0.00     0.024 C 
BRANCH  13  15
ATOM     15  C   UNL A   1      47.926  26.800  24.739  1.00  0.00     0.273 C 
BRANCH  15  16
ATOM     16  N   UNL A   1      48.646  26.300  23.562  1.00  0.00    -0.348 N 
ATOM     17  C   UNL A   1      49.338  27.338  22.814  1.00  0.00     0.330 C 
ATOM     18  H   UNL A   1      49.335  25.613  23.873  1.00  0.00     0.346 HD
ATOM     19  H   UNL A   1      47.950  25.895  22.935  1.00  0.00     0.346 HD
ENDBRANCH  15  16
ENDBRANCH  13  15
ENDBRANCH  11  13
ENDBRANCH   7  11
ENDBRANCH   4   6
ENDBRANCH   3   4
ENDBRANCH   2   3
ENDBRANCH   1   2
BRANCH   1  20
ATOM     20  O   UNL A   1      42.084  18.892  25.432  1.00  0.00    -0.374 OA
BRANCH  20  21
ATOM     21  C   UNL A   1      41.027  19.498  26.174  1.00  0.00     0.202 C 
BRANCH  21  22
ATOM     22  C   UNL A   1      41.005  21.028  26.273  1.00  0.00     0.261 C 
BRANCH  22  23
ATOM     23  O   UNL A   1      39.932  21.523  27.099  1.00  0.00    -0.460 OA
BRANCH  23  24
ATOM     24  C   UNL A   1      39.294  22.608  26.592  1.00  0.00     0.338 C 
ATOM     25  O   UNL A   1      38.188  22.633  26.068  1.00  0.00    -0.246 OA
BRANCH  24  26
ATOM     26  C   UNL A   1      40.038  23.847  26.877  1.00  0.00     0.060 A 
ATOM     27  C   UNL A   1      40.467  24.066  28.193  1.00  0.00     0.016 A 
ATOM     28  C   UNL A   1      40.160  24.850  25.914  1.00  0.00     0.016 A 
ATOM     29  C   UNL A   1      40.971  25.312  28.564  1.00  0.00     0.010 A 
ATOM     30  C   UNL A   1      40.660  26.102  26.292  1.00  0.00     0.010 A 
ATOM     31  C   UNL A   1      41.029  26.352  27.627  1.00  0.00    -0.014 A 
BRANCH  31  32
ATOM     32  C   UNL A   1      41.348  27.732  28.072  1.00  0.00     0.031 A 
ATOM     33  C   UNL A   1      42.785  28.181  28.119  1.00  0.00     0.074 A 
ATOM     34  C   UNL A   1      40.369  28.575  28.447  1.00  0.00     0.049 A 
ATOM     35  N   UNL A   1      43.280  29.329  28.501  1.00  0.00    -0.248 NA
ATOM     36  C   UNL A   1      43.797  27.204  27.682  1.00  0.00     0.031 C 
ATOM     37  C   UNL A   1      38.943  28.258  28.457  1.00  0.00     0.029 A 
ATOM     38  N   UNL A   1      40.435  29.861  28.922  1.00  0.00    -0.354 N 
ATOM     39  C   UNL A   1      44.660  29.207  28.382  1.00  0.00     0.074 A 
ATOM     40  C   UNL A   1      44.925  27.870  27.894  1.00  0.00     0.031 C 
ATOM     41  C   UNL A   1      38.268  29.309  28.957  1.00  0.00     0.029 A 
ATOM     42  C   UNL A   1      39.216  30.363  29.313  1.00  0.00     0.049 A 
ATOM     43  H   UNL A   1      41.272  30.375  28.976  1.00  0.00     0.167 HD
ATOM     44  C   UNL A   1      45.618  30.128  28.639  1.00  0.00     0.034 A 
ATOM     45  C   UNL A   1      38.903  31.531  29.911  1.00  0.00     0.034 A 
ATOM     46  C   UNL A   1      45.356  31.469  29.087  1.00  0.00     0.049 A 
ATOM     47  C   UNL A   1      39.989  32.538  30.186  1.00  0.00     0.074 A 
ATOM     48  C   UNL A   1      46.259  32.498  29.294  1.00  0.00     0.029 A 
ATOM     49  N   UNL A   1      44.104  31.964  29.412  1.00  0.00    -0.354 N 
ATOM     50  N   UNL A   1      41.270  32.464  29.918  1.00  0.00    -0.248 NA
ATOM     51  C   UNL A   1      39.581  33.805  30.814  1.00  0.00     0.031 C 
ATOM     52  C   UNL A   1      45.553  33.610  29.764  1.00  0.00     0.029 A 
ATOM     53  C   UNL A   1      44.210  33.278  29.836  1.00  0.00     0.049 A 
ATOM     54  H   UNL A   1      43.262  31.457  29.350  1.00  0.00     0.167 HD
ATOM     55  C   UNL A   1      41.816  33.681  30.318  1.00  0.00     0.074 A 
ATOM     56  C   UNL A   1      40.721  34.483  30.824  1.00  0.00     0.031 C 
ATOM     57  C   UNL A   1      43.109  34.088  30.286  1.00  0.00     0.034 A 
BRANCH  44  58
ATOM     58  C   UNL A   1      47.051  29.735  28.404  1.00  0.00     0.023 A 
ATOM     59  C   UNL A   1      47.641  29.979  27.148  1.00  0.00     0.012 A 
ATOM     60  C   UNL A   1      47.834  29.200  29.445  1.00  0.00     0.148 A 
ATOM     61  C   UNL A   1      48.983  29.678  26.925  1.00  0.00     0.002 A 
ATOM     62  C   UNL A   1      49.182  28.935  29.226  1.00  0.00     0.091 A 
ATOM     63  F   UNL A   1      47.247  28.953  30.625  1.00  0.00    -0.205 F 
ATOM     64  C   UNL A   1      49.755  29.167  27.966  1.00  0.00     0.022 A 
BRANCH  62  65
ATOM     65  S   UNL A   1      50.272  28.338  30.523  1.00  0.00     0.127 S 
ATOM     66  O   UNL A   1      51.586  28.501  29.903  1.00  0.00    -0.237 OA
ATOM     67  O   UNL A   1      49.993  29.271  31.615  1.00  0.00    -0.237 OA
ATOM     68  O   UNL A   1      49.869  26.963  30.783  1.00  0.00    -0.744 OA
ENDBRANCH  62  65
ENDBRANCH  44  58
BRANCH  45  69
ATOM     69  C   UNL A   1      37.485  31.821  30.266  1.00  0.00     0.023 A 
ATOM     70  C   UNL A   1      37.040  31.607  31.584  1.00  0.00     0.012 A 
ATOM     71  C   UNL A   1      36.585  32.329  29.310  1.00  0.00     0.148 A 
ATOM     72  C   UNL A   1      35.715  31.871  31.937  1.00  0.00     0.002 A 
ATOM     73  C   UNL A   1      35.281  32.640  29.681  1.00  0.00     0.091 A 
ATOM     74  F   UNL A   1      37.019  32.500  28.053  1.00  0.00    -0.205 F 
ATOM     75  C   UNL A   1      34.840  32.398  30.990  1.00  0.00     0.022 A 
BRANCH  73  76
ATOM     76  S   UNL A   1      34.137  33.441  28.551  1.00  0.00     0.127 S 
ATOM     77  O   UNL A   1      33.423  34.352  29.440  1.00  0.00    -0.237 OA
ATOM     78  O   UNL A   1      35.043  34.090  27.602  1.00  0.00    -0.237 OA
ATOM     79  O   UNL A   1      33.347  32.362  27.972  1.00  0.00    -0.744 OA
ENDBRANCH  73  76
ENDBRANCH  45  69
BRANCH  57  80
ATOM     80  C   UNL A   1      43.423  35.470  30.798  1.00  0.00     0.023 A 
ATOM     81  C   UNL A   1      43.735  35.651  32.160  1.00  0.00     0.012 A 
ATOM     82  C   UNL A   1      43.494  36.570  29.921  1.00  0.00     0.148 A 
ATOM     83  C   UNL A   1      44.089  36.909  32.645  1.00  0.00     0.002 A 
ATOM     84  C   UNL A   1      43.889  37.813  30.403  1.00  0.00     0.091 A 
ATOM     85  F   UNL A   1      43.175  36.383  28.631  1.00  0.00    -0.205 F 
ATOM     86  C   UNL A   1      44.178  37.987  31.766  1.00  0.00     0.022 A 
BRANCH  84  87
ATOM     87  S   UNL A   1      44.119  39.232  29.324  1.00  0.00     0.127 S 
ATOM     88  O   UNL A   1      42.738  39.576  28.987  1.00  0.00    -0.237 OA
ATOM     89  O   UNL A   1      44.789  40.191  30.202  1.00  0.00    -0.237 OA
ATOM     90  O   UNL A   1      44.937  38.758  28.216  1.00  0.00    -0.744 OA
ENDBRANCH  84  87
ENDBRANCH  57  80
ENDBRANCH  31  32
ENDBRANCH  24  26
ENDBRANCH  23  24
ENDBRANCH  22  23
ENDBRANCH  21  22
ENDBRANCH  20  21
ENDBRANCH   1  20
TORSDOF 21
ENDMDL
MODEL 3
REMARK VINA RESULT:      -9.2      4.884     10.369
REMARK SMILES C[NH2+]C[C@H](C)C(=O)N1CCC[C@@H]1C(=O)OCCOCCOC(=O)c1ccc(-c2c3nc(c(-c4cccc(S(=O)(=O)[O-])c4F)c4ccc([nH]4)c(-c4cccc(S(=O)(=O)[O-])c4F)c4nc(c(-c5cccc(S(=O)(=O)[O-])c5F)c5ccc2[nH]5)C=C4)C=C3)cc1
REMARK SMILES IDX 17 1 16 2 15 3 13 4 14 5 12 6 8 7 9 8 10 9 11 10 6 11 7 12
REMARK SMILES IDX 4 13 5 14 3 15 2 16 1 17 18 20 19 21 20 22 21 23 22 24 23 25
REMARK SMILES IDX 24 26 25 27 86 28 26 29 85 30 27 31 28 32 29 33 79 34 30 35
REMARK SMILES IDX 84 36 78 37 80 38 31 39 83 40 77 41 76 42 32 44 64 45 44 46
REMARK SMILES IDX 63 47 45 48 48 49 62 50 81 51 46 52 47 53 61 55 82 56 49 57
REMARK SMILES IDX 33 58 34 59 42 60 35 61 37 62 43 63 36 64 38 65 39 66 40 67
REMARK SMILES IDX 41 68 65 69 66 70 74 71 67 72 69 73 75 74 68 75 70 76 71 77
REMARK SMILES IDX 72 78 73 79 50 80 51 81 59 82 52 83 54 84 60 85 53 86 55 87
REMARK SMILES IDX 56 88 57 89 58 90
REMARK H PARENT 2 18 2 19 80 43 48 54
REMARK Flexibility Score: inf
ROOT
ATOM      1  C   UNL A   1      31.706  28.734  27.428  1.00  0.00     0.202 C 
ENDROOT
BRANCH   1   2
ATOM      2  C   UNL A   1      31.527  27.502  26.531  1.00  0.00     0.261 C 
BRANCH   2   3
ATOM      3  O   UNL A   1      32.672  26.637  26.442  1.00  0.00    -0.462 OA
BRANCH   3   4
ATOM      4  C   UNL A   1      33.156  26.455  25.176  1.00  0.00     0.328 C 
ATOM      5  O   UNL A   1      33.854  27.271  24.585  1.00  0.00    -0.250 OA
BRANCH   4   6
ATOM      6  C   UNL A   1      32.636  25.160  24.524  1.00  0.00     0.195 C 
ATOM      7  N   UNL A   1      33.737  24.233  24.264  1.00  0.00    -0.328 N 
ATOM      8  C   UNL A   1      33.675  23.714  22.912  1.00  0.00     0.120 C 
ATOM      9  C   UNL A   1      32.894  24.760  22.142  1.00  0.00     0.024 C 
ATOM     10  C   UNL A   1      31.929  25.334  23.174  1.00  0.00     0.039 C 
BRANCH   7  11
ATOM     11  C   UNL A   1      34.430  23.670  25.308  1.00  0.00     0.231 C 
ATOM     12  O   UNL A   1      33.968  23.674  26.452  1.00  0.00    -0.274 OA
BRANCH  11  13
ATOM     13  C   UNL A   1      35.830  23.118  25.056  1.00  0.00     0.130 C 
ATOM     14  C   UNL A   1      36.895  23.843  25.872  1.00  0.00     0.024 C 
BRANCH  13  15
ATOM     15  C   UNL A   1      35.943  21.582  25.179  1.00  0.00     0.273 C 
BRANCH  15  16
ATOM     16  N   UNL A   1      34.854  20.879  25.870  1.00  0.00    -0.348 N 
ATOM     17  C   UNL A   1      34.012  20.091  24.984  1.00  0.00     0.330 C 
ATOM     18  H   UNL A   1      35.264  20.255  26.566  1.00  0.00     0.346 HD
ATOM     19  H   UNL A   1      34.258  21.593  26.291  1.00  0.00     0.346 HD
ENDBRANCH  15  16
ENDBRANCH  13  15
ENDBRANCH  11  13
ENDBRANCH   7  11
ENDBRANCH   4   6
ENDBRANCH   3   4
ENDBRANCH   2   3
ENDBRANCH   1   2
BRANCH   1  20
ATOM     20  O   UNL A   1      32.557  29.779  26.972  1.00  0.00    -0.374 OA
BRANCH  20  21
ATOM     21  C   UNL A   1      31.962  30.861  26.258  1.00  0.00     0.202 C 
BRANCH  21  22
ATOM     22  C   UNL A   1      31.603  32.128  27.043  1.00  0.00     0.261 C 
BRANCH  22  23
ATOM     23  O   UNL A   1      32.511  33.221  26.795  1.00  0.00    -0.460 OA
BRANCH  23  24
ATOM     24  C   UNL A   1      33.085  33.733  27.913  1.00  0.00     0.338 C 
ATOM     25  O   UNL A   1      32.610  34.576  28.662  1.00  0.00    -0.246 OA
BRANCH  24  26
ATOM     26  C   UNL A   1      34.342  33.037  28.235  1.00  0.00     0.060 A 
ATOM     27  C   UNL A   1      34.261  31.841  28.962  1.00  0.00     0.016 A 
ATOM     28  C   UNL A   1      35.578  33.632  27.982  1.00  0.00     0.016 A 
ATOM     29  C   UNL A   1      35.417  31.264  29.486  1.00  0.00     0.010 A 
ATOM     30  C   UNL A   1      36.737  33.053  28.516  1.00  0.00     0.010 A 
ATOM     31  C   UNL A   1      36.657  31.890  29.304  1.00  0.00    -0.014 A 
BRANCH  31  32
ATOM     32  C   UNL A   1      37.848  31.405  30.048  1.00  0.00     0.031 A 
ATOM     33  C   UNL A   1      38.744  30.373  29.416  1.00  0.00     0.074 A 
ATOM     34  C   UNL A   1      38.120  31.866  31.282  1.00  0.00     0.049 A 
ATOM     35  N   UNL A   1      39.813  29.798  29.902  1.00  0.00    -0.248 NA
ATOM     36  C   UNL A   1      38.386  29.927  28.059  1.00  0.00     0.031 C 
ATOM     37  C   UNL A   1      37.325  32.854  32.007  1.00  0.00     0.029 A 
ATOM     38  N   UNL A   1      39.126  31.534  32.154  1.00  0.00    -0.354 N 
ATOM     39  C   UNL A   1      40.239  28.901  28.929  1.00  0.00     0.074 A 
ATOM     40  C   UNL A   1      39.311  29.006  27.824  1.00  0.00     0.031 C 
ATOM     41  C   UNL A   1      37.850  33.020  33.233  1.00  0.00     0.029 A 
ATOM     42  C   UNL A   1      39.007  32.140  33.383  1.00  0.00     0.049 A 
ATOM     43  H   UNL A   1      39.862  30.924  31.923  1.00  0.00     0.167 HD
ATOM     44  C   UNL A   1      41.315  28.078  28.947  1.00  0.00     0.034 A 
ATOM     45  C   UNL A   1      39.735  31.985  34.508  1.00  0.00     0.034 A 
ATOM     46  C   UNL A   1      42.260  28.001  30.027  1.00  0.00     0.049 A 
ATOM     47  C   UNL A   1      40.926  31.062  34.499  1.00  0.00     0.074 A 
ATOM     48  C   UNL A   1      43.425  27.256  30.097  1.00  0.00     0.029 A 
ATOM     49  N   UNL A   1      42.143  28.676  31.231  1.00  0.00    -0.354 N 
ATOM     50  N   UNL A   1      41.406  30.342  33.514  1.00  0.00    -0.248 NA
ATOM     51  C   UNL A   1      41.698  30.957  35.748  1.00  0.00     0.031 C 
ATOM     52  C   UNL A   1      44.002  27.467  31.354  1.00  0.00     0.029 A 
ATOM     53  C   UNL A   1      43.205  28.353  32.059  1.00  0.00     0.049 A 
ATOM     54  H   UNL A   1      41.413  29.295  31.463  1.00  0.00     0.167 HD
ATOM     55  C   UNL A   1      42.547  29.722  34.014  1.00  0.00     0.074 A 
ATOM     56  C   UNL A   1      42.701  30.170  35.382  1.00  0.00     0.031 C 
ATOM     57  C   UNL A   1      43.381  28.846  33.400  1.00  0.00     0.034 A 
BRANCH  44  58
ATOM     58  C   UNL A   1      41.558  27.216  27.738  1.00  0.00     0.023 A 
ATOM     59  C   UNL A   1      42.101  27.791  26.573  1.00  0.00     0.012 A 
ATOM     60  C   UNL A   1      41.323  25.828  27.783  1.00  0.00     0.148 A 
ATOM     61  C   UNL A   1      42.391  27.001  25.462  1.00  0.00     0.002 A 
ATOM     62  C   UNL A   1      41.648  25.040  26.683  1.00  0.00     0.091 A 
ATOM     63  F   UNL A   1      40.783  25.305  28.893  1.00  0.00    -0.205 F 
ATOM     64  C   UNL A   1      42.174  25.626  25.521  1.00  0.00     0.022 A 
BRANCH  62  65
ATOM     65  S   UNL A   1      41.467  23.252  26.688  1.00  0.00     0.127 S 
ATOM     66  O   UNL A   1      42.094  22.896  27.960  1.00  0.00    -0.237 OA
ATOM     67  O   UNL A   1      40.013  23.089  26.659  1.00  0.00    -0.237 OA
ATOM     68  O   UNL A   1      42.154  22.778  25.496  1.00  0.00    -0.744 OA
ENDBRANCH  62  65
ENDBRANCH  44  58
BRANCH  45  69
ATOM     69  C   UNL A   1      39.370  32.748  35.734  1.00  0.00     0.023 A 
ATOM     70  C   UNL A   1      39.820  34.074  35.887  1.00  0.00     0.012 A 
ATOM     71  C   UNL A   1      38.563  32.176  36.736  1.00  0.00     0.148 A 
ATOM     72  C   UNL A   1      39.491  34.807  37.030  1.00  0.00     0.002 A 
ATOM     73  C   UNL A   1      38.195  32.930  37.845  1.00  0.00     0.091 A 
ATOM     74  F   UNL A   1      38.167  30.904  36.586  1.00  0.00    -0.205 F 
ATOM     75  C   UNL A   1      38.670  34.240  38.002  1.00  0.00     0.022 A 
BRANCH  73  76
ATOM     76  S   UNL A   1      37.036  32.311  39.072  1.00  0.00     0.127 S 
ATOM     77  O   UNL A   1      37.368  30.890  39.110  1.00  0.00    -0.237 OA
ATOM     78  O   UNL A   1      37.419  33.065  40.266  1.00  0.00    -0.237 OA
ATOM     79  O   UNL A   1      35.715  32.646  38.557  1.00  0.00    -0.744 OA
ENDBRANCH  73  76
ENDBRANCH  45  69
BRANCH  57  80
ATOM     80  C   UNL A   1      44.549  28.316  34.190  1.00  0.00     0.023 A 
ATOM     81  C   UNL A   1      44.413  27.113  34.908  1.00  0.00     0.012 A 
ATOM     82  C   UNL A   1      45.802  28.960  34.152  1.00  0.00     0.148 A 
ATOM     83  C   UNL A   1      45.497  26.571  35.597  1.00  0.00     0.002 A 
ATOM     84  C   UNL A   1      46.890  28.392  34.806  1.00  0.00     0.091 A 
ATOM     85  F   UNL A   1      45.909  30.115  33.478  1.00  0.00    -0.205 F 
ATOM     86  C   UNL A   1      46.738  27.202  35.536  1.00  0.00     0.022 A 
BRANCH  84  87
ATOM     87  S   UNL A   1      48.543  29.091  34.702  1.00  0.00     0.127 S 
ATOM     88  O   UNL A   1      48.513  29.730  33.387  1.00  0.00    -0.237 OA
ATOM     89  O   UNL A   1      48.563  30.021  35.831  1.00  0.00    -0.237 OA
ATOM     90  O   UNL A   1      49.458  27.965  34.833  1.00  0.00    -0.744 OA
ENDBRANCH  84  87
ENDBRANCH  57  80
ENDBRANCH  31  32
ENDBRANCH  24  26
ENDBRANCH  23  24
ENDBRANCH  22  23
ENDBRANCH  21  22
ENDBRANCH  20  21
ENDBRANCH   1  20
TORSDOF 21
ENDMDL
