MODEL 1
REMARK VINA RESULT:     -11.5      0.000      0.000
REMARK SMILES Cc1cc(Cl)cc2c1O[C@H](C(F)(F)F)C(C(=O)OCCOCCOC(=O)c1ccc(-c3c4nc(c(-c5cccc(S(=O)(=O)[O-])c5F)c5ccc([nH]5)c(-c5cccc(S(=O)(=O)[O-])c5F)c5nc(c(-c6cccc(S(=O)(=O)[O-])c6F)c6ccc3[nH]6)C=C5)C=C4)cc1)=C2
REMARK SMILES IDX 22 1 21 2 20 3 19 4 18 5 16 6 17 7 15 8 1 9 2 10 3 11 8 12
REMARK SMILES IDX 4 13 7 14 9 15 5 16 6 17 90 18 10 19 11 20 12 21 13 22 14 23
REMARK SMILES IDX 23 24 24 25 25 26 26 27 27 28 28 29 89 30 29 31 88 32 30 33
REMARK SMILES IDX 31 34 32 35 82 36 33 37 87 38 81 39 83 40 34 41 86 42 80 43
REMARK SMILES IDX 79 44 35 46 67 47 47 48 66 49 48 50 51 51 65 52 84 53 49 54
REMARK SMILES IDX 50 55 64 57 85 58 52 59 36 60 37 61 45 62 38 63 40 64 46 65
REMARK SMILES IDX 39 66 41 67 42 68 43 69 44 70 68 71 69 72 77 73 70 74 72 75
REMARK SMILES IDX 78 76 71 77 73 78 74 79 75 80 76 81 53 82 54 83 62 84 55 85
REMARK SMILES IDX 57 86 63 87 56 88 58 89 59 90 60 91 61 92
REMARK H PARENT 83 45 51 56
REMARK Flexibility Score: inf
ROOT
ATOM      1  C   UNL A   1      35.688  20.918  25.512  1.00  0.00     0.202 C 
ENDROOT
BRANCH   1   2
ATOM      2  O   UNL A   1      34.609  21.133  24.603  1.00  0.00    -0.374 OA
BRANCH   2   3
ATOM      3  C   UNL A   1      33.436  20.336  24.755  1.00  0.00     0.202 C 
BRANCH   3   4
ATOM      4  C   UNL A   1      32.183  21.019  25.312  1.00  0.00     0.261 C 
BRANCH   4   5
ATOM      5  O   UNL A   1      32.493  22.250  25.982  1.00  0.00    -0.460 OA
BRANCH   5   6
ATOM      6  C   UNL A   1      31.534  23.199  25.884  1.00  0.00     0.338 C 
ATOM      7  O   UNL A   1      30.363  23.097  26.220  1.00  0.00    -0.246 OA
BRANCH   6   8
ATOM      8  C   UNL A   1      32.131  24.471  25.437  1.00  0.00     0.087 C 
ATOM      9  C   UNL A   1      33.916  28.384  22.685  1.00  0.00     0.048 C 
ATOM     10  C   UNL A   1      33.307  28.225  24.050  1.00  0.00    -0.007 A 
ATOM     11  C   UNL A   1      32.961  29.361  24.799  1.00  0.00     0.027 A 
ATOM     12  C   UNL A   1      33.009  26.952  24.561  1.00  0.00     0.131 A 
ATOM     13  C   UNL A   1      32.347  29.224  26.042  1.00  0.00     0.042 A 
ATOM     14  C   UNL A   1      32.354  26.824  25.789  1.00  0.00     0.019 A 
ATOM     15  O   UNL A   1      33.391  25.876  23.809  1.00  0.00    -0.475 OA
ATOM     16  Cl  UNL A   1      31.929  30.622  26.952  1.00  0.00    -0.084 Cl
ATOM     17  C   UNL A   1      32.043  27.961  26.542  1.00  0.00     0.032 A 
ATOM     18  C   UNL A   1      31.919  25.518  26.244  1.00  0.00     0.027 C 
ATOM     19  C   UNL A   1      32.888  24.550  24.140  1.00  0.00     0.316 C 
BRANCH  19  20
ATOM     20  C   UNL A   1      32.074  24.037  22.943  1.00  0.00     0.430 C 
ATOM     21  F   UNL A   1      32.282  24.804  21.849  1.00  0.00    -0.167 F 
ATOM     22  F   UNL A   1      32.411  22.771  22.615  1.00  0.00    -0.167 F 
ATOM     23  F   UNL A   1      30.746  24.051  23.206  1.00  0.00    -0.167 F 
ENDBRANCH  19  20
ENDBRANCH   6   8
ENDBRANCH   5   6
ENDBRANCH   4   5
ENDBRANCH   3   4
ENDBRANCH   2   3
ENDBRANCH   1   2
BRANCH   1  24
ATOM     24  C   UNL A   1      37.018  20.398  24.949  1.00  0.00     0.261 C 
BRANCH  24  25
ATOM     25  O   UNL A   1      38.072  21.374  25.011  1.00  0.00    -0.460 OA
BRANCH  25  26
ATOM     26  C   UNL A   1      39.050  21.104  25.908  1.00  0.00     0.338 C 
ATOM     27  O   UNL A   1      39.591  20.023  26.110  1.00  0.00    -0.246 OA
BRANCH  26  28
ATOM     28  C   UNL A   1      39.536  22.358  26.504  1.00  0.00     0.060 A 
ATOM     29  C   UNL A   1      38.988  23.561  26.042  1.00  0.00     0.016 A 
ATOM     30  C   UNL A   1      40.560  22.359  27.452  1.00  0.00     0.016 A 
ATOM     31  C   UNL A   1      39.481  24.776  26.512  1.00  0.00     0.010 A 
ATOM     32  C   UNL A   1      41.059  23.580  27.915  1.00  0.00     0.010 A 
ATOM     33  C   UNL A   1      40.541  24.794  27.427  1.00  0.00    -0.014 A 
BRANCH  33  34
ATOM     34  C   UNL A   1      41.173  26.085  27.784  1.00  0.00     0.031 A 
ATOM     35  C   UNL A   1      42.583  26.362  27.341  1.00  0.00     0.074 A 
ATOM     36  C   UNL A   1      40.483  27.012  28.475  1.00  0.00     0.049 A 
ATOM     37  N   UNL A   1      43.308  27.435  27.520  1.00  0.00    -0.248 NA
ATOM     38  C   UNL A   1      43.268  25.292  26.596  1.00  0.00     0.031 C 
ATOM     39  C   UNL A   1      39.110  26.855  28.951  1.00  0.00     0.029 A 
ATOM     40  N   UNL A   1      40.847  28.265  28.900  1.00  0.00    -0.354 N 
ATOM     41  C   UNL A   1      44.533  27.168  26.922  1.00  0.00     0.074 A 
ATOM     42  C   UNL A   1      44.467  25.822  26.399  1.00  0.00     0.031 C 
ATOM     43  C   UNL A   1      38.746  27.970  29.607  1.00  0.00     0.029 A 
ATOM     44  C   UNL A   1      39.866  28.909  29.618  1.00  0.00     0.049 A 
ATOM     45  H   UNL A   1      41.726  28.665  28.710  1.00  0.00     0.167 HD
ATOM     46  C   UNL A   1      45.606  27.984  26.794  1.00  0.00     0.034 A 
ATOM     47  C   UNL A   1      39.873  30.117  30.218  1.00  0.00     0.034 A 
ATOM     48  C   UNL A   1      45.658  29.329  27.299  1.00  0.00     0.049 A 
ATOM     49  C   UNL A   1      41.098  30.988  30.100  1.00  0.00     0.074 A 
ATOM     50  C   UNL A   1      46.688  30.245  27.190  1.00  0.00     0.029 A 
ATOM     51  N   UNL A   1      44.643  29.949  28.012  1.00  0.00    -0.354 N 
ATOM     52  N   UNL A   1      42.207  30.765  29.436  1.00  0.00    -0.248 NA
ATOM     53  C   UNL A   1      41.066  32.289  30.786  1.00  0.00     0.031 C 
ATOM     54  C   UNL A   1      46.309  31.408  27.864  1.00  0.00     0.029 A 
ATOM     55  C   UNL A   1      45.029  31.230  28.362  1.00  0.00     0.049 A 
ATOM     56  H   UNL A   1      43.777  29.538  28.236  1.00  0.00     0.167 HD
ATOM     57  C   UNL A   1      42.987  31.906  29.593  1.00  0.00     0.074 A 
ATOM     58  C   UNL A   1      42.217  32.827  30.404  1.00  0.00     0.031 C 
ATOM     59  C   UNL A   1      44.230  32.162  29.119  1.00  0.00     0.034 A 
BRANCH  46  60
ATOM     60  C   UNL A   1      46.801  27.470  26.035  1.00  0.00     0.023 A 
ATOM     61  C   UNL A   1      46.922  27.758  24.661  1.00  0.00     0.012 A 
ATOM     62  C   UNL A   1      47.847  26.796  26.696  1.00  0.00     0.148 A 
ATOM     63  C   UNL A   1      48.056  27.365  23.950  1.00  0.00     0.002 A 
ATOM     64  C   UNL A   1      48.994  26.449  25.991  1.00  0.00     0.091 A 
ATOM     65  F   UNL A   1      47.705  26.516  28.000  1.00  0.00    -0.205 F 
ATOM     66  C   UNL A   1      49.095  26.723  24.618  1.00  0.00     0.022 A 
BRANCH  64  67
ATOM     67  S   UNL A   1      50.426  25.696  26.774  1.00  0.00     0.127 S 
ATOM     68  O   UNL A   1      51.328  25.525  25.635  1.00  0.00    -0.237 OA
ATOM     69  O   UNL A   1      50.834  26.730  27.725  1.00  0.00    -0.237 OA
ATOM     70  O   UNL A   1      49.952  24.460  27.381  1.00  0.00    -0.744 OA
ENDBRANCH  64  67
ENDBRANCH  46  60
BRANCH  47  71
ATOM     71  C   UNL A   1      38.654  30.599  30.928  1.00  0.00     0.023 A 
ATOM     72  C   UNL A   1      38.571  30.462  32.328  1.00  0.00     0.012 A 
ATOM     73  C   UNL A   1      37.600  31.229  30.239  1.00  0.00     0.148 A 
ATOM     74  C   UNL A   1      37.455  30.926  33.024  1.00  0.00     0.002 A 
ATOM     75  C   UNL A   1      36.516  31.739  30.944  1.00  0.00     0.091 A 
ATOM     76  F   UNL A   1      37.690  31.335  28.905  1.00  0.00    -0.205 F 
ATOM     77  C   UNL A   1      36.434  31.575  32.335  1.00  0.00     0.022 A 
BRANCH  75  78
ATOM     78  S   UNL A   1      35.221  32.706  30.161  1.00  0.00     0.127 S 
ATOM     79  O   UNL A   1      34.352  33.016  31.294  1.00  0.00    -0.237 OA
ATOM     80  O   UNL A   1      35.974  33.844  29.632  1.00  0.00    -0.237 OA
ATOM     81  O   UNL A   1      34.642  31.840  29.143  1.00  0.00    -0.744 OA
ENDBRANCH  75  78
ENDBRANCH  47  71
BRANCH  59  82
ATOM     82  C   UNL A   1      44.859  33.497  29.426  1.00  0.00     0.023 A 
ATOM     83  C   UNL A   1      45.725  33.621  30.530  1.00  0.00     0.012 A 
ATOM     84  C   UNL A   1      44.718  34.577  28.530  1.00  0.00     0.148 A 
ATOM     85  C   UNL A   1      46.436  34.801  30.741  1.00  0.00     0.002 A 
ATOM     86  C   UNL A   1      45.471  35.730  28.718  1.00  0.00     0.091 A 
ATOM     87  F   UNL A   1      43.881  34.440  27.493  1.00  0.00    -0.205 F 
ATOM     88  C   UNL A   1      46.323  35.847  29.829  1.00  0.00     0.022 A 
BRANCH  86  89
ATOM     89  S   UNL A   1      45.481  37.086  27.538  1.00  0.00     0.127 S 
ATOM     90  O   UNL A   1      46.115  38.151  28.314  1.00  0.00    -0.237 OA
ATOM     91  O   UNL A   1      46.306  36.545  26.457  1.00  0.00    -0.237 OA
ATOM     92  O   UNL A   1      44.089  37.324  27.183  1.00  0.00    -0.744 OA
ENDBRANCH  86  89
ENDBRANCH  59  82
ENDBRANCH  33  34
ENDBRANCH  26  28
ENDBRANCH  25  26
ENDBRANCH  24  25
ENDBRANCH   1  24
TORSDOF 18
ENDMDL
MODEL 2
REMARK VINA RESULT:     -11.3      5.358      9.634
REMARK SMILES Cc1cc(Cl)cc2c1O[C@H](C(F)(F)F)C(C(=O)OCCOCCOC(=O)c1ccc(-c3c4nc(c(-c5cccc(S(=O)(=O)[O-])c5F)c5ccc([nH]5)c(-c5cccc(S(=O)(=O)[O-])c5F)c5nc(c(-c6cccc(S(=O)(=O)[O-])c6F)c6ccc3[nH]6)C=C5)C=C4)cc1)=C2
REMARK SMILES IDX 22 1 21 2 20 3 19 4 18 5 16 6 17 7 15 8 1 9 2 10 3 11 8 12
REMARK SMILES IDX 4 13 7 14 9 15 5 16 6 17 90 18 10 19 11 20 12 21 13 22 14 23
REMARK SMILES IDX 23 24 24 25 25 26 26 27 27 28 28 29 89 30 29 31 88 32 30 33
REMARK SMILES IDX 31 34 32 35 82 36 33 37 87 38 81 39 83 40 34 41 86 42 80 43
REMARK SMILES IDX 79 44 35 46 67 47 47 48 66 49 48 50 51 51 65 52 84 53 49 54
REMARK SMILES IDX 50 55 64 57 85 58 52 59 36 60 37 61 45 62 38 63 40 64 46 65
REMARK SMILES IDX 39 66 41 67 42 68 43 69 44 70 68 71 69 72 77 73 70 74 72 75
REMARK SMILES IDX 78 76 71 77 73 78 74 79 75 80 76 81 53 82 54 83 62 84 55 85
REMARK SMILES IDX 57 86 63 87 56 88 58 89 59 90 60 91 61 92
REMARK H PARENT 83 45 51 56
REMARK Flexibility Score: inf
ROOT
ATOM      1  C   UNL A   1      33.677  33.467  27.884  1.00  0.00     0.202 C 
ENDROOT
BRANCH   1   2
ATOM      2  O   UNL A   1      34.190  34.799  27.869  1.00  0.00    -0.374 OA
BRANCH   2   3
ATOM      3  C   UNL A   1      33.869  35.654  28.965  1.00  0.00     0.202 C 
BRANCH   3   4
ATOM      4  C   UNL A   1      33.140  35.032  30.160  1.00  0.00     0.261 C 
BRANCH   4   5
ATOM      5  O   UNL A   1      33.967  34.988  31.332  1.00  0.00    -0.460 OA
BRANCH   5   6
ATOM      6  C   UNL A   1      34.720  33.870  31.446  1.00  0.00     0.338 C 
ATOM      7  O   UNL A   1      34.409  32.737  31.107  1.00  0.00    -0.246 OA
BRANCH   6   8
ATOM      8  C   UNL A   1      36.073  34.222  31.917  1.00  0.00     0.087 C 
ATOM      9  C   UNL A   1      40.323  34.872  34.671  1.00  0.00     0.048 C 
ATOM     10  C   UNL A   1      40.011  34.680  33.213  1.00  0.00    -0.007 A 
ATOM     11  C   UNL A   1      41.053  34.471  32.296  1.00  0.00     0.027 A 
ATOM     12  C   UNL A   1      38.682  34.632  32.762  1.00  0.00     0.131 A 
ATOM     13  C   UNL A   1      40.770  34.238  30.951  1.00  0.00     0.042 A 
ATOM     14  C   UNL A   1      38.406  34.355  31.419  1.00  0.00     0.019 A 
ATOM     15  O   UNL A   1      37.704  34.871  33.686  1.00  0.00    -0.475 OA
ATOM     16  Cl  UNL A   1      42.054  33.985  29.835  1.00  0.00    -0.084 Cl
ATOM     17  C   UNL A   1      39.452  34.181  30.508  1.00  0.00     0.032 A 
ATOM     18  C   UNL A   1      37.035  34.164  30.988  1.00  0.00     0.027 C 
ATOM     19  C   UNL A   1      36.315  34.581  33.357  1.00  0.00     0.316 C 
BRANCH  19  20
ATOM     20  C   UNL A   1      35.808  33.507  34.331  1.00  0.00     0.430 C 
ATOM     21  F   UNL A   1      34.456  33.481  34.365  1.00  0.00    -0.167 F 
ATOM     22  F   UNL A   1      36.224  32.272  33.974  1.00  0.00    -0.167 F 
ATOM     23  F   UNL A   1      36.245  33.737  35.592  1.00  0.00    -0.167 F 
ENDBRANCH  19  20
ENDBRANCH   6   8
ENDBRANCH   5   6
ENDBRANCH   4   5
ENDBRANCH   3   4
ENDBRANCH   2   3
ENDBRANCH   1   2
BRANCH   1  24
ATOM     24  C   UNL A   1      34.664  32.307  27.697  1.00  0.00     0.261 C 
BRANCH  24  25
ATOM     25  O   UNL A   1      34.129  31.043  28.125  1.00  0.00    -0.460 OA
BRANCH  25  26
ATOM     26  C   UNL A   1      34.723  29.956  27.577  1.00  0.00     0.338 C 
ATOM     27  O   UNL A   1      34.326  29.299  26.622  1.00  0.00    -0.246 OA
BRANCH  26  28
ATOM     28  C   UNL A   1      36.055  29.765  28.174  1.00  0.00     0.060 A 
ATOM     29  C   UNL A   1      37.175  29.961  27.357  1.00  0.00     0.016 A 
ATOM     30  C   UNL A   1      36.201  29.337  29.494  1.00  0.00     0.016 A 
ATOM     31  C   UNL A   1      38.451  29.705  27.854  1.00  0.00     0.010 A 
ATOM     32  C   UNL A   1      37.482  29.072  29.987  1.00  0.00     0.010 A 
ATOM     33  C   UNL A   1      38.610  29.229  29.162  1.00  0.00    -0.014 A 
BRANCH  33  34
ATOM     34  C   UNL A   1      39.950  28.792  29.620  1.00  0.00     0.031 A 
ATOM     35  C   UNL A   1      40.601  27.606  28.966  1.00  0.00     0.074 A 
ATOM     36  C   UNL A   1      40.589  29.469  30.593  1.00  0.00     0.049 A 
ATOM     37  N   UNL A   1      41.777  27.081  29.194  1.00  0.00    -0.248 NA
ATOM     38  C   UNL A   1      39.831  26.920  27.914  1.00  0.00     0.031 C 
ATOM     39  C   UNL A   1      40.057  30.636  31.294  1.00  0.00     0.029 A 
ATOM     40  N   UNL A   1      41.821  29.265  31.163  1.00  0.00    -0.354 N 
ATOM     41  C   UNL A   1      41.884  26.001  28.326  1.00  0.00     0.074 A 
ATOM     42  C   UNL A   1      40.644  25.925  27.586  1.00  0.00     0.031 C 
ATOM     43  C   UNL A   1      40.956  31.045  32.203  1.00  0.00     0.029 A 
ATOM     44  C   UNL A   1      42.117  30.157  32.167  1.00  0.00     0.049 A 
ATOM     45  H   UNL A   1      42.434  28.549  30.880  1.00  0.00     0.167 HD
ATOM     46  C   UNL A   1      42.934  25.166  28.142  1.00  0.00     0.034 A 
ATOM     47  C   UNL A   1      43.199  30.244  32.967  1.00  0.00     0.034 A 
ATOM     48  C   UNL A   1      44.171  25.259  28.867  1.00  0.00     0.049 A 
ATOM     49  C   UNL A   1      44.336  29.273  32.772  1.00  0.00     0.074 A 
ATOM     50  C   UNL A   1      45.305  24.480  28.729  1.00  0.00     0.029 A 
ATOM     51  N   UNL A   1      44.437  26.180  29.870  1.00  0.00    -0.354 N 
ATOM     52  N   UNL A   1      44.467  28.327  31.873  1.00  0.00    -0.248 NA
ATOM     53  C   UNL A   1      45.487  29.395  33.681  1.00  0.00     0.031 C 
ATOM     54  C   UNL A   1      46.246  24.909  29.667  1.00  0.00     0.029 A 
ATOM     55  C   UNL A   1      45.711  25.979  30.368  1.00  0.00     0.049 A 
ATOM     56  H   UNL A   1      43.811  26.874  30.180  1.00  0.00     0.167 HD
ATOM     57  C   UNL A   1      45.724  27.768  32.082  1.00  0.00     0.074 A 
ATOM     58  C   UNL A   1      46.322  28.491  33.185  1.00  0.00     0.031 C 
ATOM     59  C   UNL A   1      46.321  26.743  31.427  1.00  0.00     0.034 A 
BRANCH  46  60
ATOM     60  C   UNL A   1      42.817  24.104  27.080  1.00  0.00     0.023 A 
ATOM     61  C   UNL A   1      43.425  24.314  25.826  1.00  0.00     0.012 A 
ATOM     62  C   UNL A   1      42.201  22.868  27.353  1.00  0.00     0.148 A 
ATOM     63  C   UNL A   1      43.403  23.317  24.851  1.00  0.00     0.002 A 
ATOM     64  C   UNL A   1      42.224  21.862  26.393  1.00  0.00     0.091 A 
ATOM     65  F   UNL A   1      41.614  22.695  28.546  1.00  0.00    -0.205 F 
ATOM     66  C   UNL A   1      42.815  22.088  25.140  1.00  0.00     0.022 A 
BRANCH  64  67
ATOM     67  S   UNL A   1      41.572  20.215  26.694  1.00  0.00     0.127 S 
ATOM     68  O   UNL A   1      40.155  20.497  26.926  1.00  0.00    -0.237 OA
ATOM     69  O   UNL A   1      41.859  19.536  25.430  1.00  0.00    -0.237 OA
ATOM     70  O   UNL A   1      42.297  19.696  27.845  1.00  0.00    -0.744 OA
ENDBRANCH  64  67
ENDBRANCH  46  60
BRANCH  47  71
ATOM     71  C   UNL A   1      43.285  31.333  33.981  1.00  0.00     0.023 A 
ATOM     72  C   UNL A   1      43.999  32.509  33.674  1.00  0.00     0.012 A 
ATOM     73  C   UNL A   1      42.630  31.236  35.225  1.00  0.00     0.148 A 
ATOM     74  C   UNL A   1      44.076  33.556  34.592  1.00  0.00     0.002 A 
ATOM     75  C   UNL A   1      42.664  32.305  36.112  1.00  0.00     0.091 A 
ATOM     76  F   UNL A   1      41.969  30.104  35.506  1.00  0.00    -0.205 F 
ATOM     77  C   UNL A   1      43.399  33.461  35.805  1.00  0.00     0.022 A 
BRANCH  75  78
ATOM     78  S   UNL A   1      41.714  32.328  37.637  1.00  0.00     0.127 S 
ATOM     79  O   UNL A   1      42.403  31.316  38.434  1.00  0.00    -0.237 OA
ATOM     80  O   UNL A   1      41.908  33.706  38.090  1.00  0.00    -0.237 OA
ATOM     81  O   UNL A   1      40.346  32.006  37.255  1.00  0.00    -0.744 OA
ENDBRANCH  75  78
ENDBRANCH  47  71
BRANCH  59  82
ATOM     82  C   UNL A   1      47.708  26.331  31.845  1.00  0.00     0.023 A 
ATOM     83  C   UNL A   1      47.873  25.413  32.901  1.00  0.00     0.012 A 
ATOM     84  C   UNL A   1      48.831  26.726  31.089  1.00  0.00     0.148 A 
ATOM     85  C   UNL A   1      49.134  24.900  33.203  1.00  0.00     0.002 A 
ATOM     86  C   UNL A   1      50.075  26.171  31.362  1.00  0.00     0.091 A 
ATOM     87  F   UNL A   1      48.652  27.608  30.096  1.00  0.00    -0.205 F 
ATOM     88  C   UNL A   1      50.230  25.264  32.424  1.00  0.00     0.022 A 
BRANCH  86  89
ATOM     89  S   UNL A   1      51.524  26.488  30.346  1.00  0.00     0.127 S 
ATOM     90  O   UNL A   1      51.643  27.942  30.442  1.00  0.00    -0.237 OA
ATOM     91  O   UNL A   1      52.565  25.742  31.054  1.00  0.00    -0.237 OA
ATOM     92  O   UNL A   1      51.207  25.980  29.018  1.00  0.00    -0.744 OA
ENDBRANCH  86  89
ENDBRANCH  59  82
ENDBRANCH  33  34
ENDBRANCH  26  28
ENDBRANCH  25  26
ENDBRANCH  24  25
ENDBRANCH   1  24
TORSDOF 18
ENDMDL
MODEL 3
REMARK VINA RESULT:     -11.3      2.642      3.824
REMARK SMILES Cc1cc(Cl)cc2c1O[C@H](C(F)(F)F)C(C(=O)OCCOCCOC(=O)c1ccc(-c3c4nc(c(-c5cccc(S(=O)(=O)[O-])c5F)c5ccc([nH]5)c(-c5cccc(S(=O)(=O)[O-])c5F)c5nc(c(-c6cccc(S(=O)(=O)[O-])c6F)c6ccc3[nH]6)C=C5)C=C4)cc1)=C2
REMARK SMILES IDX 22 1 21 2 20 3 19 4 18 5 16 6 17 7 15 8 1 9 2 10 3 11 8 12
REMARK SMILES IDX 4 13 7 14 9 15 5 16 6 17 90 18 10 19 11 20 12 21 13 22 14 23
REMARK SMILES IDX 23 24 24 25 25 26 26 27 27 28 28 29 89 30 29 31 88 32 30 33
REMARK SMILES IDX 31 34 32 35 82 36 33 37 87 38 81 39 83 40 34 41 86 42 80 43
REMARK SMILES IDX 79 44 35 46 67 47 47 48 66 49 48 50 51 51 65 52 84 53 49 54
REMARK SMILES IDX 50 55 64 57 85 58 52 59 36 60 37 61 45 62 38 63 40 64 46 65
REMARK SMILES IDX 39 66 41 67 42 68 43 69 44 70 68 71 69 72 77 73 70 74 72 75
REMARK SMILES IDX 78 76 71 77 73 78 74 79 75 80 76 81 53 82 54 83 62 84 55 85
REMARK SMILES IDX 57 86 63 87 56 88 58 89 59 90 60 91 61 92
REMARK H PARENT 83 45 51 56
REMARK Flexibility Score: inf
ROOT
ATOM      1  C   UNL A   1      37.397  20.224  25.068  1.00  0.00     0.202 C 
ENDROOT
BRANCH   1   2
ATOM      2  O   UNL A   1      37.029  21.544  24.670  1.00  0.00    -0.374 OA
BRANCH   2   3
ATOM      3  C   UNL A   1      36.979  22.558  25.674  1.00  0.00     0.202 C 
BRANCH   3   4
ATOM      4  C   UNL A   1      35.760  23.484  25.685  1.00  0.00     0.261 C 
BRANCH   4   5
ATOM      5  O   UNL A   1      34.678  22.943  26.458  1.00  0.00    -0.460 OA
BRANCH   5   6
ATOM      6  C   UNL A   1      33.452  23.145  25.925  1.00  0.00     0.338 C 
ATOM      7  O   UNL A   1      32.789  24.170  25.975  1.00  0.00    -0.246 OA
BRANCH   6   8
ATOM      8  C   UNL A   1      33.056  21.974  25.120  1.00  0.00     0.087 C 
ATOM      9  C   UNL A   1      32.112  18.686  21.330  1.00  0.00     0.048 C 
ATOM     10  C   UNL A   1      32.474  18.567  22.784  1.00  0.00    -0.007 A 
ATOM     11  C   UNL A   1      32.798  17.314  23.325  1.00  0.00     0.027 A 
ATOM     12  C   UNL A   1      32.567  19.708  23.597  1.00  0.00     0.131 A 
ATOM     13  C   UNL A   1      33.187  17.202  24.659  1.00  0.00     0.042 A 
ATOM     14  C   UNL A   1      32.999  19.594  24.922  1.00  0.00     0.019 A 
ATOM     15  O   UNL A   1      32.212  20.902  23.034  1.00  0.00    -0.475 OA
ATOM     16  Cl  UNL A   1      33.580  15.660  25.313  1.00  0.00    -0.084 Cl
ATOM     17  C   UNL A   1      33.287  18.336  25.461  1.00  0.00     0.032 A 
ATOM     18  C   UNL A   1      33.231  20.786  25.712  1.00  0.00     0.027 C 
ATOM     19  C   UNL A   1      32.530  22.146  23.722  1.00  0.00     0.316 C 
BRANCH  19  20
ATOM     20  C   UNL A   1      33.477  22.959  22.826  1.00  0.00     0.430 C 
ATOM     21  F   UNL A   1      33.146  22.823  21.521  1.00  0.00    -0.167 F 
ATOM     22  F   UNL A   1      33.430  24.277  23.115  1.00  0.00    -0.167 F 
ATOM     23  F   UNL A   1      34.760  22.554  22.968  1.00  0.00    -0.167 F 
ENDBRANCH  19  20
ENDBRANCH   6   8
ENDBRANCH   5   6
ENDBRANCH   4   5
ENDBRANCH   3   4
ENDBRANCH   2   3
ENDBRANCH   1   2
BRANCH   1  24
ATOM     24  C   UNL A   1      38.891  19.880  25.146  1.00  0.00     0.261 C 
BRANCH  24  25
ATOM     25  O   UNL A   1      39.450  20.109  26.451  1.00  0.00    -0.460 OA
BRANCH  25  26
ATOM     26  C   UNL A   1      40.777  20.384  26.464  1.00  0.00     0.338 C 
ATOM     27  O   UNL A   1      41.679  19.697  26.001  1.00  0.00    -0.246 OA
BRANCH  26  28
ATOM     28  C   UNL A   1      40.993  21.754  26.955  1.00  0.00     0.060 A 
ATOM     29  C   UNL A   1      40.612  22.817  26.127  1.00  0.00     0.016 A 
ATOM     30  C   UNL A   1      41.621  21.993  28.178  1.00  0.00     0.016 A 
ATOM     31  C   UNL A   1      40.880  24.128  26.511  1.00  0.00     0.010 A 
ATOM     32  C   UNL A   1      41.897  23.310  28.557  1.00  0.00     0.010 A 
ATOM     33  C   UNL A   1      41.552  24.382  27.713  1.00  0.00    -0.014 A 
BRANCH  33  34
ATOM     34  C   UNL A   1      41.988  25.763  28.027  1.00  0.00     0.031 A 
ATOM     35  C   UNL A   1      43.379  26.197  27.658  1.00  0.00     0.074 A 
ATOM     36  C   UNL A   1      41.138  26.628  28.611  1.00  0.00     0.049 A 
ATOM     37  N   UNL A   1      43.947  27.365  27.815  1.00  0.00    -0.248 NA
ATOM     38  C   UNL A   1      44.246  25.187  27.029  1.00  0.00     0.031 C 
ATOM     39  C   UNL A   1      39.765  26.319  29.007  1.00  0.00     0.029 A 
ATOM     40  N   UNL A   1      41.308  27.940  28.978  1.00  0.00    -0.354 N 
ATOM     41  C   UNL A   1      45.236  27.228  27.314  1.00  0.00     0.074 A 
ATOM     42  C   UNL A   1      45.380  25.858  26.876  1.00  0.00     0.031 C 
ATOM     43  C   UNL A   1      39.217  27.411  29.566  1.00  0.00     0.029 A 
ATOM     44  C   UNL A   1      40.204  28.488  29.589  1.00  0.00     0.049 A 
ATOM     45  H   UNL A   1      42.140  28.440  28.819  1.00  0.00     0.167 HD
ATOM     46  C   UNL A   1      46.204  28.169  27.204  1.00  0.00     0.034 A 
ATOM     47  C   UNL A   1      40.015  29.718  30.110  1.00  0.00     0.034 A 
ATOM     48  C   UNL A   1      46.048  29.535  27.624  1.00  0.00     0.049 A 
ATOM     49  C   UNL A   1      41.125  30.734  30.014  1.00  0.00     0.074 A 
ATOM     50  C   UNL A   1      46.958  30.570  27.523  1.00  0.00     0.029 A 
ATOM     51  N   UNL A   1      44.913  30.055  28.230  1.00  0.00    -0.354 N 
ATOM     52  N   UNL A   1      42.298  30.622  29.439  1.00  0.00    -0.248 NA
ATOM     53  C   UNL A   1      40.878  32.055  30.613  1.00  0.00     0.031 C 
ATOM     54  C   UNL A   1      46.388  31.709  28.095  1.00  0.00     0.029 A 
ATOM     55  C   UNL A   1      45.107  31.393  28.521  1.00  0.00     0.049 A 
ATOM     56  H   UNL A   1      44.093  29.547  28.423  1.00  0.00     0.167 HD
ATOM     57  C   UNL A   1      42.913  31.862  29.573  1.00  0.00     0.074 A 
ATOM     58  C   UNL A   1      41.976  32.718  30.272  1.00  0.00     0.031 C 
ATOM     59  C   UNL A   1      44.145  32.252  29.164  1.00  0.00     0.034 A 
BRANCH  46  60
ATOM     60  C   UNL A   1      47.506  27.775  26.558  1.00  0.00     0.023 A 
ATOM     61  C   UNL A   1      48.552  27.278  27.360  1.00  0.00     0.012 A 
ATOM     62  C   UNL A   1      47.658  27.798  25.157  1.00  0.00     0.148 A 
ATOM     63  C   UNL A   1      49.739  26.829  26.782  1.00  0.00     0.002 A 
ATOM     64  C   UNL A   1      48.826  27.305  24.586  1.00  0.00     0.091 A 
ATOM     65  F   UNL A   1      46.658  28.290  24.413  1.00  0.00    -0.205 F 
ATOM     66  C   UNL A   1      49.870  26.831  25.396  1.00  0.00     0.022 A 
BRANCH  64  67
ATOM     67  S   UNL A   1      49.062  27.183  22.808  1.00  0.00     0.127 S 
ATOM     68  O   UNL A   1      50.519  27.107  22.709  1.00  0.00    -0.237 OA
ATOM     69  O   UNL A   1      48.364  25.937  22.492  1.00  0.00    -0.237 OA
ATOM     70  O   UNL A   1      48.462  28.381  22.238  1.00  0.00    -0.744 OA
ENDBRANCH  64  67
ENDBRANCH  46  60
BRANCH  47  71
ATOM     71  C   UNL A   1      38.697  30.074  30.708  1.00  0.00     0.023 A 
ATOM     72  C   UNL A   1      38.402  29.664  32.023  1.00  0.00     0.012 A 
ATOM     73  C   UNL A   1      37.754  30.851  30.006  1.00  0.00     0.148 A 
ATOM     74  C   UNL A   1      37.187  30.003  32.620  1.00  0.00     0.002 A 
ATOM     75  C   UNL A   1      36.570  31.232  30.625  1.00  0.00     0.091 A 
ATOM     76  F   UNL A   1      38.046  31.218  28.750  1.00  0.00    -0.205 F 
ATOM     77  C   UNL A   1      36.277  30.797  31.927  1.00  0.00     0.022 A 
BRANCH  75  78
ATOM     78  S   UNL A   1      35.400  32.363  29.864  1.00  0.00     0.127 S 
ATOM     79  O   UNL A   1      36.236  33.534  29.611  1.00  0.00    -0.237 OA
ATOM     80  O   UNL A   1      35.001  31.620  28.667  1.00  0.00    -0.237 OA
ATOM     81  O   UNL A   1      34.336  32.547  30.841  1.00  0.00    -0.744 OA
ENDBRANCH  75  78
ENDBRANCH  47  71
BRANCH  59  82
ATOM     82  C   UNL A   1      44.575  33.672  29.424  1.00  0.00     0.023 A 
ATOM     83  C   UNL A   1      45.183  34.001  30.652  1.00  0.00     0.012 A 
ATOM     84  C   UNL A   1      44.523  34.636  28.396  1.00  0.00     0.148 A 
ATOM     85  C   UNL A   1      45.728  35.269  30.854  1.00  0.00     0.002 A 
ATOM     86  C   UNL A   1      45.115  35.879  28.586  1.00  0.00     0.091 A 
ATOM     87  F   UNL A   1      43.931  34.304  27.241  1.00  0.00    -0.205 F 
ATOM     88  C   UNL A   1      45.709  36.200  29.818  1.00  0.00     0.022 A 
BRANCH  86  89
ATOM     89  S   UNL A   1      45.244  37.104  27.277  1.00  0.00     0.127 S 
ATOM     90  O   UNL A   1      43.838  37.341  26.952  1.00  0.00    -0.237 OA
ATOM     91  O   UNL A   1      45.908  38.214  27.960  1.00  0.00    -0.237 OA
ATOM     92  O   UNL A   1      46.027  36.483  26.217  1.00  0.00    -0.744 OA
ENDBRANCH  86  89
ENDBRANCH  59  82
ENDBRANCH  33  34
ENDBRANCH  26  28
ENDBRANCH  25  26
ENDBRANCH  24  25
ENDBRANCH   1  24
TORSDOF 18
ENDMDL
