MODEL 1
REMARK VINA RESULT:     -11.7      0.000      0.000
REMARK SMILES C[C@H]1c2ccc(O)cc2OC(=O)[C@@H]1CC(=O)N[C@@H](CC1=c2ccccc2=NC1)C(=O)OCCOCCOC(=O)c1ccc(-c2c3nc(c(-c4cccc(S(=O)(=O)[O-])c4F)c4ccc([nH]4)c(-c4cccc(S(=O)(=O)[O-])c4F)c4nc(c(-c5cccc(S(=O)(=O)[O-])c5F)c5ccc2[nH]5)C=C4)C=C3)cc1
REMARK SMILES IDX 33 1 32 2 31 3 29 4 30 5 18 6 17 7 15 8 16 9 14 11 13 12
REMARK SMILES IDX 1 13 2 14 3 15 4 16 9 17 11 18 5 19 8 20 10 21 12 22 6 23
REMARK SMILES IDX 7 24 19 26 20 27 21 28 28 29 22 30 26 31 27 32 23 33 25 34
REMARK SMILES IDX 24 35 34 36 35 37 36 38 37 39 38 40 39 41 40 42 41 43 102 44
REMARK SMILES IDX 42 45 101 46 43 47 44 48 45 49 95 50 46 51 100 52 94 53
REMARK SMILES IDX 96 54 47 55 99 56 93 57 92 58 48 60 80 61 60 62 79 63 61 64
REMARK SMILES IDX 64 65 78 66 97 67 62 68 63 69 77 71 98 72 65 73 49 74 50 75
REMARK SMILES IDX 58 76 51 77 53 78 59 79 52 80 54 81 55 82 56 83 57 84 81 85
REMARK SMILES IDX 82 86 90 87 83 88 85 89 91 90 84 91 86 92 87 93 88 94 89 95
REMARK SMILES IDX 66 96 67 97 75 98 68 99 70 100 76 101 69 102 71 103 72 104
REMARK SMILES IDX 73 105 74 106
REMARK H PARENT 17 10 7 25 96 59 64 70
REMARK Flexibility Score: inf
ROOT
ATOM      1  C   UNL A   1      31.172  27.554  23.135  1.00  0.00     0.202 C 
ENDROOT
BRANCH   1   2
ATOM      2  C   UNL A   1      29.924  26.932  23.770  1.00  0.00     0.261 C 
BRANCH   2   3
ATOM      3  O   UNL A   1      29.917  25.501  23.668  1.00  0.00    -0.462 OA
BRANCH   3   4
ATOM      4  C   UNL A   1      30.239  24.865  24.818  1.00  0.00     0.329 C 
ATOM      5  O   UNL A   1      29.871  25.202  25.941  1.00  0.00    -0.250 OA
BRANCH   4   6
ATOM      6  C   UNL A   1      31.122  23.640  24.613  1.00  0.00     0.196 C 
BRANCH   6   7
ATOM      7  N   UNL A   1      31.279  22.982  23.308  1.00  0.00    -0.342 N 
ATOM      8  C   UNL A   1      31.956  21.830  23.009  1.00  0.00     0.221 C 
ATOM      9  O   UNL A   1      32.293  21.615  21.845  1.00  0.00    -0.275 OA
ATOM     10  H   UNL A   1      30.839  23.428  22.548  1.00  0.00     0.164 HD
BRANCH   8  11
ATOM     11  C   UNL A   1      32.176  20.761  24.077  1.00  0.00     0.116 C 
BRANCH  11  12
ATOM     12  C   UNL A   1      33.504  20.812  24.865  1.00  0.00     0.116 C 
ATOM     13  C   UNL A   1      35.935  19.997  25.001  1.00  0.00     0.014 C 
ATOM     14  C   UNL A   1      34.559  19.801  24.344  1.00  0.00     0.034 C 
ATOM     15  C   UNL A   1      34.038  18.398  24.580  1.00  0.00    -0.001 A 
ATOM     16  C   UNL A   1      34.400  17.317  23.776  1.00  0.00     0.011 A 
ATOM     17  C   UNL A   1      33.113  18.183  25.609  1.00  0.00     0.138 A 
ATOM     18  C   UNL A   1      33.340  20.455  26.321  1.00  0.00     0.315 C 
ATOM     19  C   UNL A   1      33.767  16.079  23.942  1.00  0.00     0.047 A 
ATOM     20  C   UNL A   1      32.440  16.975  25.755  1.00  0.00     0.093 A 
ATOM     21  O   UNL A   1      32.847  19.183  26.559  1.00  0.00    -0.426 OA
ATOM     22  O   UNL A   1      33.620  21.220  27.235  1.00  0.00    -0.251 OA
ATOM     23  C   UNL A   1      32.764  15.932  24.902  1.00  0.00     0.119 A 
BRANCH  23  24
ATOM     24  O   UNL A   1      32.078  14.764  25.041  1.00  0.00    -0.508 OA
ATOM     25  H   UNL A   1      32.495  14.018  25.427  1.00  0.00     0.293 HD
ENDBRANCH  23  24
ENDBRANCH  11  12
ENDBRANCH   8  11
ENDBRANCH   6   7
BRANCH   6  26
ATOM     26  C   UNL A   1      32.483  23.949  25.263  1.00  0.00     0.070 C 
BRANCH  26  27
ATOM     27  C   UNL A   1      33.645  24.508  24.432  1.00  0.00    -0.037 C 
ATOM     28  C   UNL A   1      34.774  23.800  24.315  1.00  0.00     0.001 A 
ATOM     29  C   UNL A   1      34.032  25.863  25.006  1.00  0.00     0.174 C 
ATOM     30  C   UNL A   1      35.491  23.335  23.158  1.00  0.00     0.010 A 
ATOM     31  C   UNL A   1      35.629  24.456  25.338  1.00  0.00     0.065 A 
ATOM     32  N   UNL A   1      35.241  25.595  25.820  1.00  0.00    -0.280 NA
ATOM     33  C   UNL A   1      36.773  22.965  23.341  1.00  0.00     0.001 A 
ATOM     34  C   UNL A   1      36.852  23.703  25.669  1.00  0.00     0.028 A 
ATOM     35  C   UNL A   1      37.367  22.962  24.672  1.00  0.00     0.002 A 
ENDBRANCH  26  27
ENDBRANCH   6  26
ENDBRANCH   4   6
ENDBRANCH   3   4
ENDBRANCH   2   3
ENDBRANCH   1   2
BRANCH   1  36
ATOM     36  O   UNL A   1      31.640  28.785  23.679  1.00  0.00    -0.374 OA
BRANCH  36  37
ATOM     37  C   UNL A   1      31.495  29.019  25.079  1.00  0.00     0.202 C 
BRANCH  37  38
ATOM     38  C   UNL A   1      31.598  30.458  25.610  1.00  0.00     0.261 C 
BRANCH  38  39
ATOM     39  O   UNL A   1      32.144  30.543  26.940  1.00  0.00    -0.460 OA
BRANCH  39  40
ATOM     40  C   UNL A   1      32.889  31.652  27.185  1.00  0.00     0.338 C 
ATOM     41  O   UNL A   1      32.523  32.812  27.137  1.00  0.00    -0.246 OA
BRANCH  40  42
ATOM     42  C   UNL A   1      34.215  31.258  27.691  1.00  0.00     0.060 A 
ATOM     43  C   UNL A   1      35.165  32.229  28.002  1.00  0.00     0.016 A 
ATOM     44  C   UNL A   1      34.455  29.908  27.976  1.00  0.00     0.016 A 
ATOM     45  C   UNL A   1      36.359  31.840  28.615  1.00  0.00     0.010 A 
ATOM     46  C   UNL A   1      35.659  29.522  28.566  1.00  0.00     0.010 A 
ATOM     47  C   UNL A   1      36.620  30.487  28.899  1.00  0.00    -0.014 A 
BRANCH  47  48
ATOM     48  C   UNL A   1      37.835  30.093  29.654  1.00  0.00     0.031 A 
ATOM     49  C   UNL A   1      38.119  30.637  31.026  1.00  0.00     0.074 A 
ATOM     50  C   UNL A   1      38.720  29.269  29.062  1.00  0.00     0.049 A 
ATOM     51  N   UNL A   1      39.118  30.361  31.824  1.00  0.00    -0.248 NA
ATOM     52  C   UNL A   1      37.165  31.613  31.573  1.00  0.00     0.031 C 
ATOM     53  C   UNL A   1      38.584  28.725  27.709  1.00  0.00     0.029 A 
ATOM     54  N   UNL A   1      39.912  28.759  29.510  1.00  0.00    -0.354 N 
ATOM     55  C   UNL A   1      38.920  31.127  32.965  1.00  0.00     0.074 A 
ATOM     56  C   UNL A   1      37.709  31.891  32.753  1.00  0.00     0.031 C 
ATOM     57  C   UNL A   1      39.649  27.954  27.439  1.00  0.00     0.029 A 
ATOM     58  C   UNL A   1      40.550  27.965  28.587  1.00  0.00     0.049 A 
ATOM     59  H   UNL A   1      40.275  28.944  30.406  1.00  0.00     0.167 HD
ATOM     60  C   UNL A   1      39.671  31.177  34.091  1.00  0.00     0.034 A 
ATOM     61  C   UNL A   1      41.730  27.320  28.653  1.00  0.00     0.034 A 
ATOM     62  C   UNL A   1      40.878  30.423  34.298  1.00  0.00     0.049 A 
ATOM     63  C   UNL A   1      42.546  27.396  29.911  1.00  0.00     0.074 A 
ATOM     64  C   UNL A   1      41.673  30.372  35.431  1.00  0.00     0.029 A 
ATOM     65  N   UNL A   1      41.478  29.606  33.353  1.00  0.00    -0.354 N 
ATOM     66  N   UNL A   1      42.269  28.018  31.030  1.00  0.00    -0.248 NA
ATOM     67  C   UNL A   1      43.818  26.662  29.926  1.00  0.00     0.031 C 
ATOM     68  C   UNL A   1      42.764  29.540  35.164  1.00  0.00     0.029 A 
ATOM     69  C   UNL A   1      42.639  29.058  33.872  1.00  0.00     0.049 A 
ATOM     70  H   UNL A   1      41.130  29.441  32.447  1.00  0.00     0.167 HD
ATOM     71  C   UNL A   1      43.325  27.740  31.890  1.00  0.00     0.074 A 
ATOM     72  C   UNL A   1      44.236  26.875  31.168  1.00  0.00     0.031 C 
ATOM     73  C   UNL A   1      43.523  28.173  33.158  1.00  0.00     0.034 A 
BRANCH  60  74
ATOM     74  C   UNL A   1      39.190  32.039  35.226  1.00  0.00     0.023 A 
ATOM     75  C   UNL A   1      38.299  31.490  36.169  1.00  0.00     0.012 A 
ATOM     76  C   UNL A   1      39.706  33.334  35.427  1.00  0.00     0.148 A 
ATOM     77  C   UNL A   1      37.922  32.220  37.296  1.00  0.00     0.002 A 
ATOM     78  C   UNL A   1      39.346  34.045  36.567  1.00  0.00     0.091 A 
ATOM     79  F   UNL A   1      40.544  33.835  34.510  1.00  0.00    -0.205 F 
ATOM     80  C   UNL A   1      38.454  33.491  37.499  1.00  0.00     0.022 A 
BRANCH  78  81
ATOM     81  S   UNL A   1      40.010  35.669  36.952  1.00  0.00     0.127 S 
ATOM     82  O   UNL A   1      39.638  36.429  35.758  1.00  0.00    -0.237 OA
ATOM     83  O   UNL A   1      39.265  36.025  38.159  1.00  0.00    -0.237 OA
ATOM     84  O   UNL A   1      41.442  35.486  37.144  1.00  0.00    -0.744 OA
ENDBRANCH  78  81
ENDBRANCH  60  74
BRANCH  61  85
ATOM     85  C   UNL A   1      42.167  26.490  27.499  1.00  0.00     0.023 A 
ATOM     86  C   UNL A   1      42.959  27.076  26.494  1.00  0.00     0.012 A 
ATOM     87  C   UNL A   1      41.868  25.116  27.434  1.00  0.00     0.148 A 
ATOM     88  C   UNL A   1      43.442  26.307  25.436  1.00  0.00     0.002 A 
ATOM     89  C   UNL A   1      42.382  24.348  26.398  1.00  0.00     0.091 A 
ATOM     90  F   UNL A   1      41.112  24.586  28.407  1.00  0.00    -0.205 F 
ATOM     91  C   UNL A   1      43.162  24.943  25.393  1.00  0.00     0.022 A 
BRANCH  89  92
ATOM     92  S   UNL A   1      42.160  22.569  26.305  1.00  0.00     0.127 S 
ATOM     93  O   UNL A   1      42.961  22.109  27.439  1.00  0.00    -0.237 OA
ATOM     94  O   UNL A   1      40.714  22.440  26.481  1.00  0.00    -0.237 OA
ATOM     95  O   UNL A   1      42.652  22.173  24.994  1.00  0.00    -0.744 OA
ENDBRANCH  89  92
ENDBRANCH  61  85
BRANCH  73  96
ATOM     96  C   UNL A   1      44.774  27.727  33.866  1.00  0.00     0.023 A 
ATOM     97  C   UNL A   1      45.912  28.555  33.846  1.00  0.00     0.012 A 
ATOM     98  C   UNL A   1      44.787  26.545  34.631  1.00  0.00     0.148 A 
ATOM     99  C   UNL A   1      47.053  28.207  34.568  1.00  0.00     0.002 A 
ATOM    100  C   UNL A   1      45.915  26.221  35.375  1.00  0.00     0.091 A 
ATOM    101  F   UNL A   1      43.694  25.768  34.624  1.00  0.00    -0.205 F 
ATOM    102  C   UNL A   1      47.051  27.048  35.340  1.00  0.00     0.022 A 
BRANCH 100 103
ATOM    103  S   UNL A   1      45.984  24.787  36.454  1.00  0.00     0.127 S 
ATOM    104  O   UNL A   1      44.981  25.126  37.465  1.00  0.00    -0.237 OA
ATOM    105  O   UNL A   1      45.598  23.701  35.552  1.00  0.00    -0.237 OA
ATOM    106  O   UNL A   1      47.354  24.713  36.942  1.00  0.00    -0.744 OA
ENDBRANCH 100 103
ENDBRANCH  73  96
ENDBRANCH  47  48
ENDBRANCH  40  42
ENDBRANCH  39  40
ENDBRANCH  38  39
ENDBRANCH  37  38
ENDBRANCH  36  37
ENDBRANCH   1  36
TORSDOF 23
ENDMDL
MODEL 2
REMARK VINA RESULT:     -10.8      1.920      2.189
REMARK SMILES C[C@H]1c2ccc(O)cc2OC(=O)[C@@H]1CC(=O)N[C@@H](CC1=c2ccccc2=NC1)C(=O)OCCOCCOC(=O)c1ccc(-c2c3nc(c(-c4cccc(S(=O)(=O)[O-])c4F)c4ccc([nH]4)c(-c4cccc(S(=O)(=O)[O-])c4F)c4nc(c(-c5cccc(S(=O)(=O)[O-])c5F)c5ccc2[nH]5)C=C4)C=C3)cc1
REMARK SMILES IDX 33 1 32 2 31 3 29 4 30 5 18 6 17 7 15 8 16 9 14 11 13 12
REMARK SMILES IDX 1 13 2 14 3 15 4 16 9 17 11 18 5 19 8 20 10 21 12 22 6 23
REMARK SMILES IDX 7 24 19 26 20 27 21 28 28 29 22 30 26 31 27 32 23 33 25 34
REMARK SMILES IDX 24 35 34 36 35 37 36 38 37 39 38 40 39 41 40 42 41 43 102 44
REMARK SMILES IDX 42 45 101 46 43 47 44 48 45 49 95 50 46 51 100 52 94 53
REMARK SMILES IDX 96 54 47 55 99 56 93 57 92 58 48 60 80 61 60 62 79 63 61 64
REMARK SMILES IDX 64 65 78 66 97 67 62 68 63 69 77 71 98 72 65 73 49 74 50 75
REMARK SMILES IDX 58 76 51 77 53 78 59 79 52 80 54 81 55 82 56 83 57 84 81 85
REMARK SMILES IDX 82 86 90 87 83 88 85 89 91 90 84 91 86 92 87 93 88 94 89 95
REMARK SMILES IDX 66 96 67 97 75 98 68 99 70 100 76 101 69 102 71 103 72 104
REMARK SMILES IDX 73 105 74 106
REMARK H PARENT 17 10 7 25 96 59 64 70
REMARK Flexibility Score: inf
ROOT
ATOM      1  C   UNL A   1      30.300  27.929  23.889  1.00  0.00     0.202 C 
ENDROOT
BRANCH   1   2
ATOM      2  C   UNL A   1      30.637  26.863  24.937  1.00  0.00     0.261 C 
BRANCH   2   3
ATOM      3  O   UNL A   1      30.141  25.567  24.573  1.00  0.00    -0.462 OA
BRANCH   3   4
ATOM      4  C   UNL A   1      30.304  24.625  25.532  1.00  0.00     0.329 C 
ATOM      5  O   UNL A   1      29.784  24.651  26.645  1.00  0.00    -0.250 OA
BRANCH   4   6
ATOM      6  C   UNL A   1      31.208  23.473  25.111  1.00  0.00     0.196 C 
BRANCH   6   7
ATOM      7  N   UNL A   1      31.255  22.961  23.734  1.00  0.00    -0.342 N 
ATOM      8  C   UNL A   1      31.899  21.850  23.258  1.00  0.00     0.221 C 
ATOM      9  O   UNL A   1      32.140  21.764  22.054  1.00  0.00    -0.275 OA
ATOM     10  H   UNL A   1      30.758  23.485  23.065  1.00  0.00     0.164 HD
BRANCH   8  11
ATOM     11  C   UNL A   1      32.199  20.673  24.182  1.00  0.00     0.116 C 
BRANCH  11  12
ATOM     12  C   UNL A   1      33.545  20.694  24.941  1.00  0.00     0.116 C 
ATOM     13  C   UNL A   1      35.964  19.836  25.015  1.00  0.00     0.014 C 
ATOM     14  C   UNL A   1      34.570  19.669  24.388  1.00  0.00     0.034 C 
ATOM     15  C   UNL A   1      34.030  18.274  24.624  1.00  0.00    -0.001 A 
ATOM     16  C   UNL A   1      34.355  17.193  23.803  1.00  0.00     0.011 A 
ATOM     17  C   UNL A   1      33.124  18.066  25.672  1.00  0.00     0.138 A 
ATOM     18  C   UNL A   1      33.408  20.327  26.397  1.00  0.00     0.315 C 
ATOM     19  C   UNL A   1      33.704  15.965  23.974  1.00  0.00     0.047 A 
ATOM     20  C   UNL A   1      32.434  16.869  25.824  1.00  0.00     0.093 A 
ATOM     21  O   UNL A   1      32.898  19.062  26.635  1.00  0.00    -0.426 OA
ATOM     22  O   UNL A   1      33.722  21.080  27.310  1.00  0.00    -0.251 OA
ATOM     23  C   UNL A   1      32.720  15.828  24.955  1.00  0.00     0.119 A 
BRANCH  23  24
ATOM     24  O   UNL A   1      32.017  14.670  25.100  1.00  0.00    -0.508 OA
ATOM     25  H   UNL A   1      31.158  14.688  25.475  1.00  0.00     0.293 HD
ENDBRANCH  23  24
ENDBRANCH  11  12
ENDBRANCH   8  11
ENDBRANCH   6   7
BRANCH   6  26
ATOM     26  C   UNL A   1      32.615  23.782  25.653  1.00  0.00     0.070 C 
BRANCH  26  27
ATOM     27  C   UNL A   1      33.688  24.406  24.751  1.00  0.00    -0.037 C 
ATOM     28  C   UNL A   1      34.786  23.704  24.447  1.00  0.00     0.001 A 
ATOM     29  C   UNL A   1      34.159  25.700  25.398  1.00  0.00     0.174 C 
ATOM     30  C   UNL A   1      35.363  23.341  23.180  1.00  0.00     0.010 A 
ATOM     31  C   UNL A   1      35.758  24.257  25.424  1.00  0.00     0.065 A 
ATOM     32  N   UNL A   1      35.445  25.350  26.045  1.00  0.00    -0.280 NA
ATOM     33  C   UNL A   1      36.651  22.947  23.186  1.00  0.00     0.001 A 
ATOM     34  C   UNL A   1      36.998  23.469  25.547  1.00  0.00     0.028 A 
ATOM     35  C   UNL A   1      37.387  22.818  24.437  1.00  0.00     0.002 A 
ENDBRANCH  26  27
ENDBRANCH   6  26
ENDBRANCH   4   6
ENDBRANCH   3   4
ENDBRANCH   2   3
ENDBRANCH   1   2
BRANCH   1  36
ATOM     36  O   UNL A   1      31.080  29.121  23.893  1.00  0.00    -0.374 OA
BRANCH  36  37
ATOM     37  C   UNL A   1      31.359  29.758  25.140  1.00  0.00     0.202 C 
BRANCH  37  38
ATOM     38  C   UNL A   1      32.823  29.942  25.573  1.00  0.00     0.261 C 
BRANCH  38  39
ATOM     39  O   UNL A   1      32.975  30.250  26.971  1.00  0.00    -0.460 OA
BRANCH  39  40
ATOM     40  C   UNL A   1      33.724  31.351  27.239  1.00  0.00     0.338 C 
ATOM     41  O   UNL A   1      33.391  32.516  27.120  1.00  0.00    -0.246 OA
BRANCH  40  42
ATOM     42  C   UNL A   1      34.995  30.948  27.866  1.00  0.00     0.060 A 
ATOM     43  C   UNL A   1      36.029  31.870  28.010  1.00  0.00     0.016 A 
ATOM     44  C   UNL A   1      35.095  29.670  28.427  1.00  0.00     0.016 A 
ATOM     45  C   UNL A   1      37.168  31.506  28.736  1.00  0.00     0.010 A 
ATOM     46  C   UNL A   1      36.243  29.304  29.131  1.00  0.00     0.010 A 
ATOM     47  C   UNL A   1      37.287  30.223  29.298  1.00  0.00    -0.014 A 
BRANCH  47  48
ATOM     48  C   UNL A   1      38.443  29.882  30.165  1.00  0.00     0.031 A 
ATOM     49  C   UNL A   1      38.581  30.448  31.549  1.00  0.00     0.074 A 
ATOM     50  C   UNL A   1      39.407  29.086  29.665  1.00  0.00     0.049 A 
ATOM     51  N   UNL A   1      39.513  30.218  32.438  1.00  0.00    -0.248 NA
ATOM     52  C   UNL A   1      37.547  31.393  31.996  1.00  0.00     0.031 C 
ATOM     53  C   UNL A   1      39.415  28.525  28.312  1.00  0.00     0.029 A 
ATOM     54  N   UNL A   1      40.572  28.626  30.225  1.00  0.00    -0.354 N 
ATOM     55  C   UNL A   1      39.184  30.986  33.547  1.00  0.00     0.074 A 
ATOM     56  C   UNL A   1      37.970  31.702  33.217  1.00  0.00     0.031 C 
ATOM     57  C   UNL A   1      40.527  27.793  28.149  1.00  0.00     0.029 A 
ATOM     58  C   UNL A   1      41.320  27.849  29.374  1.00  0.00     0.049 A 
ATOM     59  H   UNL A   1      40.845  28.833  31.148  1.00  0.00     0.167 HD
ATOM     60  C   UNL A   1      39.828  31.074  34.735  1.00  0.00     0.034 A 
ATOM     61  C   UNL A   1      42.512  27.249  29.554  1.00  0.00     0.034 A 
ATOM     62  C   UNL A   1      41.038  30.368  35.060  1.00  0.00     0.049 A 
ATOM     63  C   UNL A   1      43.207  27.367  30.879  1.00  0.00     0.074 A 
ATOM     64  C   UNL A   1      41.728  30.357  36.260  1.00  0.00     0.029 A 
ATOM     65  N   UNL A   1      41.751  29.566  34.183  1.00  0.00    -0.354 N 
ATOM     66  N   UNL A   1      42.808  27.989  31.961  1.00  0.00    -0.248 NA
ATOM     67  C   UNL A   1      44.499  26.682  31.018  1.00  0.00     0.031 C 
ATOM     68  C   UNL A   1      42.870  29.565  36.103  1.00  0.00     0.029 A 
ATOM     69  C   UNL A   1      42.879  29.067  34.811  1.00  0.00     0.049 A 
ATOM     70  H   UNL A   1      41.493  29.380  33.251  1.00  0.00     0.167 HD
ATOM     71  C   UNL A   1      43.791  27.758  32.916  1.00  0.00     0.074 A 
ATOM     72  C   UNL A   1      44.795  26.922  32.289  1.00  0.00     0.031 C 
ATOM     73  C   UNL A   1      43.857  28.210  34.191  1.00  0.00     0.034 A 
BRANCH  60  74
ATOM     74  C   UNL A   1      39.215  31.927  35.811  1.00  0.00     0.023 A 
ATOM     75  C   UNL A   1      39.264  33.329  35.682  1.00  0.00     0.012 A 
ATOM     76  C   UNL A   1      38.491  31.352  36.875  1.00  0.00     0.148 A 
ATOM     77  C   UNL A   1      38.607  34.149  36.598  1.00  0.00     0.002 A 
ATOM     78  C   UNL A   1      37.817  32.176  37.769  1.00  0.00     0.091 A 
ATOM     79  F   UNL A   1      38.468  30.016  36.980  1.00  0.00    -0.205 F 
ATOM     80  C   UNL A   1      37.876  33.572  37.634  1.00  0.00     0.022 A 
BRANCH  78  81
ATOM     81  S   UNL A   1      36.806  31.537  39.110  1.00  0.00     0.127 S 
ATOM     82  O   UNL A   1      35.790  32.584  39.235  1.00  0.00    -0.237 OA
ATOM     83  O   UNL A   1      36.318  30.277  38.552  1.00  0.00    -0.237 OA
ATOM     84  O   UNL A   1      37.694  31.400  40.256  1.00  0.00    -0.744 OA
ENDBRANCH  78  81
ENDBRANCH  60  74
BRANCH  61  85
ATOM     85  C   UNL A   1      43.083  26.426  28.454  1.00  0.00     0.023 A 
ATOM     86  C   UNL A   1      42.511  25.172  28.169  1.00  0.00     0.012 A 
ATOM     87  C   UNL A   1      44.130  26.911  27.649  1.00  0.00     0.148 A 
ATOM     88  C   UNL A   1      42.979  24.409  27.099  1.00  0.00     0.002 A 
ATOM     89  C   UNL A   1      44.567  26.162  26.564  1.00  0.00     0.091 A 
ATOM     90  F   UNL A   1      44.654  28.109  27.946  1.00  0.00    -0.205 F 
ATOM     91  C   UNL A   1      43.999  24.907  26.292  1.00  0.00     0.022 A 
BRANCH  89  92
ATOM     92  S   UNL A   1      45.806  26.759  25.409  1.00  0.00     0.127 S 
ATOM     93  O   UNL A   1      46.933  27.035  26.298  1.00  0.00    -0.237 OA
ATOM     94  O   UNL A   1      45.981  25.598  24.536  1.00  0.00    -0.237 OA
ATOM     95  O   UNL A   1      45.221  27.925  24.763  1.00  0.00    -0.744 OA
ENDBRANCH  89  92
ENDBRANCH  61  85
BRANCH  73  96
ATOM     96  C   UNL A   1      45.054  27.818  35.014  1.00  0.00     0.023 A 
ATOM     97  C   UNL A   1      46.166  28.680  35.071  1.00  0.00     0.012 A 
ATOM     98  C   UNL A   1      45.034  26.654  35.807  1.00  0.00     0.148 A 
ATOM     99  C   UNL A   1      47.250  28.382  35.896  1.00  0.00     0.002 A 
ATOM    100  C   UNL A   1      46.102  26.381  36.653  1.00  0.00     0.091 A 
ATOM    101  F   UNL A   1      43.968  25.844  35.726  1.00  0.00    -0.205 F 
ATOM    102  C   UNL A   1      47.213  27.241  36.695  1.00  0.00     0.022 A 
BRANCH 100 103
ATOM    103  S   UNL A   1      46.118  24.974  37.770  1.00  0.00     0.127 S 
ATOM    104  O   UNL A   1      47.179  25.350  38.706  1.00  0.00    -0.237 OA
ATOM    105  O   UNL A   1      44.768  25.009  38.332  1.00  0.00    -0.237 OA
ATOM    106  O   UNL A   1      46.404  23.808  36.946  1.00  0.00    -0.744 OA
ENDBRANCH 100 103
ENDBRANCH  73  96
ENDBRANCH  47  48
ENDBRANCH  40  42
ENDBRANCH  39  40
ENDBRANCH  38  39
ENDBRANCH  37  38
ENDBRANCH  36  37
ENDBRANCH   1  36
TORSDOF 23
ENDMDL
MODEL 3
REMARK VINA RESULT:      -9.8      5.656     10.418
REMARK SMILES C[C@H]1c2ccc(O)cc2OC(=O)[C@@H]1CC(=O)N[C@@H](CC1=c2ccccc2=NC1)C(=O)OCCOCCOC(=O)c1ccc(-c2c3nc(c(-c4cccc(S(=O)(=O)[O-])c4F)c4ccc([nH]4)c(-c4cccc(S(=O)(=O)[O-])c4F)c4nc(c(-c5cccc(S(=O)(=O)[O-])c5F)c5ccc2[nH]5)C=C4)C=C3)cc1
REMARK SMILES IDX 33 1 32 2 31 3 29 4 30 5 18 6 17 7 15 8 16 9 14 11 13 12
REMARK SMILES IDX 1 13 2 14 3 15 4 16 9 17 11 18 5 19 8 20 10 21 12 22 6 23
REMARK SMILES IDX 7 24 19 26 20 27 21 28 28 29 22 30 26 31 27 32 23 33 25 34
REMARK SMILES IDX 24 35 34 36 35 37 36 38 37 39 38 40 39 41 40 42 41 43 102 44
REMARK SMILES IDX 42 45 101 46 43 47 44 48 45 49 95 50 46 51 100 52 94 53
REMARK SMILES IDX 96 54 47 55 99 56 93 57 92 58 48 60 80 61 60 62 79 63 61 64
REMARK SMILES IDX 64 65 78 66 97 67 62 68 63 69 77 71 98 72 65 73 49 74 50 75
REMARK SMILES IDX 58 76 51 77 53 78 59 79 52 80 54 81 55 82 56 83 57 84 81 85
REMARK SMILES IDX 82 86 90 87 83 88 85 89 91 90 84 91 86 92 87 93 88 94 89 95
REMARK SMILES IDX 66 96 67 97 75 98 68 99 70 100 76 101 69 102 71 103 72 104
REMARK SMILES IDX 73 105 74 106
REMARK H PARENT 17 10 7 25 96 59 64 70
REMARK Flexibility Score: inf
ROOT
ATOM      1  C   UNL A   1      40.904  21.764  26.807  1.00  0.00     0.202 C 
ENDROOT
BRANCH   1   2
ATOM      2  C   UNL A   1      39.927  20.779  26.156  1.00  0.00     0.261 C 
BRANCH   2   3
ATOM      3  O   UNL A   1      38.915  21.445  25.389  1.00  0.00    -0.462 OA
BRANCH   3   4
ATOM      4  C   UNL A   1      37.795  20.708  25.196  1.00  0.00     0.329 C 
ATOM      5  O   UNL A   1      37.735  19.671  24.540  1.00  0.00    -0.250 OA
BRANCH   4   6
ATOM      6  C   UNL A   1      36.563  21.274  25.891  1.00  0.00     0.196 C 
BRANCH   6   7
ATOM      7  N   UNL A   1      36.502  22.650  26.405  1.00  0.00    -0.342 N 
ATOM      8  C   UNL A   1      36.288  23.811  25.712  1.00  0.00     0.221 C 
ATOM      9  O   UNL A   1      36.623  24.883  26.218  1.00  0.00    -0.275 OA
ATOM     10  H   UNL A   1      36.632  22.750  27.377  1.00  0.00     0.164 HD
BRANCH   8  11
ATOM     11  C   UNL A   1      35.526  23.796  24.390  1.00  0.00     0.116 C 
BRANCH  11  12
ATOM     12  C   UNL A   1      34.013  23.486  24.449  1.00  0.00     0.116 C 
ATOM     13  C   UNL A   1      31.784  23.496  23.176  1.00  0.00     0.014 C 
ATOM     14  C   UNL A   1      33.242  23.983  23.199  1.00  0.00     0.034 C 
ATOM     15  C   UNL A   1      33.312  25.495  23.160  1.00  0.00    -0.001 A 
ATOM     16  C   UNL A   1      33.254  26.221  21.970  1.00  0.00     0.011 A 
ATOM     17  C   UNL A   1      33.499  26.196  24.358  1.00  0.00     0.138 A 
ATOM     18  C   UNL A   1      33.317  24.162  25.603  1.00  0.00     0.315 C 
ATOM     19  C   UNL A   1      33.482  27.603  21.981  1.00  0.00     0.047 A 
ATOM     20  C   UNL A   1      33.775  27.558  24.381  1.00  0.00     0.093 A 
ATOM     21  O   UNL A   1      33.385  25.545  25.598  1.00  0.00    -0.426 OA
ATOM     22  O   UNL A   1      32.729  23.548  26.485  1.00  0.00    -0.251 OA
ATOM     23  C   UNL A   1      33.782  28.250  23.180  1.00  0.00     0.119 A 
BRANCH  23  24
ATOM     24  O   UNL A   1      34.080  29.579  23.217  1.00  0.00    -0.508 OA
ATOM     25  H   UNL A   1      34.969  29.861  23.129  1.00  0.00     0.293 HD
ENDBRANCH  23  24
ENDBRANCH  11  12
ENDBRANCH   8  11
ENDBRANCH   6   7
BRANCH   6  26
ATOM     26  C   UNL A   1      35.351  20.943  25.003  1.00  0.00     0.070 C 
BRANCH  26  27
ATOM     27  C   UNL A   1      34.464  19.726  25.301  1.00  0.00    -0.037 C 
ATOM     28  C   UNL A   1      34.097  18.915  24.302  1.00  0.00     0.001 A 
ATOM     29  C   UNL A   1      33.184  20.220  25.959  1.00  0.00     0.174 C 
ATOM     30  C   UNL A   1      34.252  17.496  24.122  1.00  0.00     0.010 A 
ATOM     31  C   UNL A   1      32.732  19.421  24.011  1.00  0.00     0.065 A 
ATOM     32  N   UNL A   1      32.177  20.213  24.873  1.00  0.00    -0.280 NA
ATOM     33  C   UNL A   1      33.471  16.910  23.196  1.00  0.00     0.001 A 
ATOM     34  C   UNL A   1      32.167  18.925  22.742  1.00  0.00     0.028 A 
ATOM     35  C   UNL A   1      32.575  17.702  22.362  1.00  0.00     0.002 A 
ENDBRANCH  26  27
ENDBRANCH   6  26
ENDBRANCH   4   6
ENDBRANCH   3   4
ENDBRANCH   2   3
ENDBRANCH   1   2
BRANCH   1  36
ATOM     36  O   UNL A   1      40.876  23.113  26.349  1.00  0.00    -0.374 OA
BRANCH  36  37
ATOM     37  C   UNL A   1      40.192  24.092  27.131  1.00  0.00     0.202 C 
BRANCH  37  38
ATOM     38  C   UNL A   1      40.814  25.489  27.289  1.00  0.00     0.261 C 
BRANCH  38  39
ATOM     39  O   UNL A   1      42.226  25.527  27.011  1.00  0.00    -0.460 OA
BRANCH  39  40
ATOM     40  C   UNL A   1      42.610  26.466  26.108  1.00  0.00     0.338 C 
ATOM     41  O   UNL A   1      42.557  26.386  24.894  1.00  0.00    -0.246 OA
BRANCH  40  42
ATOM     42  C   UNL A   1      42.970  27.711  26.807  1.00  0.00     0.060 A 
ATOM     43  C   UNL A   1      42.498  28.937  26.344  1.00  0.00     0.016 A 
ATOM     44  C   UNL A   1      43.680  27.628  28.011  1.00  0.00     0.016 A 
ATOM     45  C   UNL A   1      42.733  30.087  27.105  1.00  0.00     0.010 A 
ATOM     46  C   UNL A   1      43.932  28.781  28.754  1.00  0.00     0.010 A 
ATOM     47  C   UNL A   1      43.453  30.021  28.311  1.00  0.00    -0.014 A 
BRANCH  47  48
ATOM     48  C   UNL A   1      43.597  31.222  29.171  1.00  0.00     0.031 A 
ATOM     49  C   UNL A   1      44.815  32.098  29.102  1.00  0.00     0.074 A 
ATOM     50  C   UNL A   1      42.627  31.489  30.067  1.00  0.00     0.049 A 
ATOM     51  N   UNL A   1      45.070  33.198  29.763  1.00  0.00    -0.248 NA
ATOM     52  C   UNL A   1      45.883  31.693  28.177  1.00  0.00     0.031 C 
ATOM     53  C   UNL A   1      41.426  30.677  30.272  1.00  0.00     0.029 A 
ATOM     54  N   UNL A   1      42.505  32.504  30.983  1.00  0.00    -0.354 N 
ATOM     55  C   UNL A   1      46.325  33.617  29.340  1.00  0.00     0.074 A 
ATOM     56  C   UNL A   1      46.788  32.646  28.371  1.00  0.00     0.031 C 
ATOM     57  C   UNL A   1      40.687  31.227  31.246  1.00  0.00     0.029 A 
ATOM     58  C   UNL A   1      41.369  32.415  31.750  1.00  0.00     0.049 A 
ATOM     59  H   UNL A   1      43.168  33.225  31.080  1.00  0.00     0.167 HD
ATOM     60  C   UNL A   1      47.019  34.718  29.714  1.00  0.00     0.034 A 
ATOM     61  C   UNL A   1      40.923  33.199  32.751  1.00  0.00     0.034 A 
ATOM     62  C   UNL A   1      46.561  35.679  30.682  1.00  0.00     0.049 A 
ATOM     63  C   UNL A   1      41.715  34.410  33.150  1.00  0.00     0.074 A 
ATOM     64  C   UNL A   1      47.177  36.853  31.081  1.00  0.00     0.029 A 
ATOM     65  N   UNL A   1      45.391  35.572  31.417  1.00  0.00    -0.354 N 
ATOM     66  N   UNL A   1      42.833  34.862  32.640  1.00  0.00    -0.248 NA
ATOM     67  C   UNL A   1      41.172  35.232  34.240  1.00  0.00     0.031 C 
ATOM     68  C   UNL A   1      46.390  37.447  32.072  1.00  0.00     0.029 A 
ATOM     69  C   UNL A   1      45.274  36.652  32.276  1.00  0.00     0.049 A 
ATOM     70  H   UNL A   1      44.741  34.838  31.340  1.00  0.00     0.167 HD
ATOM     71  C   UNL A   1      43.123  36.030  33.335  1.00  0.00     0.074 A 
ATOM     72  C   UNL A   1      42.050  36.226  34.289  1.00  0.00     0.031 C 
ATOM     73  C   UNL A   1      44.188  36.857  33.199  1.00  0.00     0.034 A 
BRANCH  60  74
ATOM     74  C   UNL A   1      48.336  34.988  29.040  1.00  0.00     0.023 A 
ATOM     75  C   UNL A   1      49.520  34.517  29.643  1.00  0.00     0.012 A 
ATOM     76  C   UNL A   1      48.395  35.591  27.768  1.00  0.00     0.148 A 
ATOM     77  C   UNL A   1      50.746  34.647  28.991  1.00  0.00     0.002 A 
ATOM     78  C   UNL A   1      49.617  35.692  27.114  1.00  0.00     0.091 A 
ATOM     79  F   UNL A   1      47.255  36.038  27.222  1.00  0.00    -0.205 F 
ATOM     80  C   UNL A   1      50.792  35.225  27.725  1.00  0.00     0.022 A 
BRANCH  78  81
ATOM     81  S   UNL A   1      49.784  36.373  25.460  1.00  0.00     0.127 S 
ATOM     82  O   UNL A   1      49.849  35.158  24.648  1.00  0.00    -0.237 OA
ATOM     83  O   UNL A   1      48.546  37.137  25.318  1.00  0.00    -0.237 OA
ATOM     84  O   UNL A   1      51.002  37.172  25.472  1.00  0.00    -0.744 OA
ENDBRANCH  78  81
ENDBRANCH  60  74
BRANCH  61  85
ATOM     85  C   UNL A   1      39.620  32.883  33.394  1.00  0.00     0.023 A 
ATOM     86  C   UNL A   1      39.602  32.067  34.540  1.00  0.00     0.012 A 
ATOM     87  C   UNL A   1      38.419  33.444  32.922  1.00  0.00     0.148 A 
ATOM     88  C   UNL A   1      38.403  31.810  35.206  1.00  0.00     0.002 A 
ATOM     89  C   UNL A   1      37.235  33.214  33.610  1.00  0.00     0.091 A 
ATOM     90  F   UNL A   1      38.469  34.218  31.827  1.00  0.00    -0.205 F 
ATOM     91  C   UNL A   1      37.223  32.390  34.747  1.00  0.00     0.022 A 
BRANCH  89  92
ATOM     92  S   UNL A   1      35.681  33.993  33.156  1.00  0.00     0.127 S 
ATOM     93  O   UNL A   1      34.738  33.315  34.044  1.00  0.00    -0.237 OA
ATOM     94  O   UNL A   1      35.943  35.393  33.489  1.00  0.00    -0.237 OA
ATOM     95  O   UNL A   1      35.502  33.727  31.736  1.00  0.00    -0.744 OA
ENDBRANCH  89  92
ENDBRANCH  61  85
BRANCH  73  96
ATOM     96  C   UNL A   1      44.264  38.059  34.101  1.00  0.00     0.023 A 
ATOM     97  C   UNL A   1      45.009  37.984  35.293  1.00  0.00     0.012 A 
ATOM     98  C   UNL A   1      43.687  39.285  33.717  1.00  0.00     0.148 A 
ATOM     99  C   UNL A   1      45.168  39.109  36.100  1.00  0.00     0.002 A 
ATOM    100  C   UNL A   1      43.879  40.411  34.508  1.00  0.00     0.091 A 
ATOM    101  F   UNL A   1      42.972  39.327  32.583  1.00  0.00    -0.205 F 
ATOM    102  C   UNL A   1      44.614  40.324  35.703  1.00  0.00     0.022 A 
BRANCH 100 103
ATOM    103  S   UNL A   1      43.263  42.034  34.047  1.00  0.00     0.127 S 
ATOM    104  O   UNL A   1      43.971  42.275  32.790  1.00  0.00    -0.237 OA
ATOM    105  O   UNL A   1      41.827  41.792  33.903  1.00  0.00    -0.237 OA
ATOM    106  O   UNL A   1      43.620  42.928  35.140  1.00  0.00    -0.744 OA
ENDBRANCH 100 103
ENDBRANCH  73  96
ENDBRANCH  47  48
ENDBRANCH  40  42
ENDBRANCH  39  40
ENDBRANCH  38  39
ENDBRANCH  37  38
ENDBRANCH  36  37
ENDBRANCH   1  36
TORSDOF 23
ENDMDL
