MODEL 1
REMARK VINA RESULT:     -10.7      0.000      0.000
REMARK SMILES CCc1c(Cl)ccc2c1C=C(C(=O)OCCOCCOC(=O)c1ccc(-c3c4nc(c(-c5cccc(S(=O)(=O)[O-])c5F)c5ccc([nH]5)c(-c5cccc(S(=O)(=O)[O-])c5F)c5nc(c(-c6cccc(S(=O)(=O)[O-])c6F)c6ccc3[nH]6)C=C5)C=C4)cc1)[C@@H](C(F)(F)F)O2
REMARK SMILES IDX 18 1 17 2 16 3 15 4 14 5 12 6 13 7 11 8 3 9 4 10 9 11 5 12
REMARK SMILES IDX 6 13 8 14 10 15 7 16 91 17 86 18 2 19 1 20 87 21 88 22 89 23
REMARK SMILES IDX 90 24 19 25 20 26 21 27 22 28 23 29 24 30 85 31 25 32 84 33
REMARK SMILES IDX 26 34 27 35 28 36 78 37 29 38 83 39 77 40 79 41 30 42 82 43
REMARK SMILES IDX 76 44 75 45 31 47 63 48 43 49 62 50 44 51 47 52 61 53 80 54
REMARK SMILES IDX 45 55 46 56 60 58 81 59 48 60 32 61 33 62 41 63 34 64 36 65
REMARK SMILES IDX 42 66 35 67 37 68 38 69 39 70 40 71 64 72 65 73 73 74 66 75
REMARK SMILES IDX 68 76 74 77 67 78 69 79 70 80 71 81 72 82 49 83 50 84 58 85
REMARK SMILES IDX 51 86 53 87 59 88 52 89 54 90 55 91 56 92 57 93
REMARK H PARENT 79 46 47 57
REMARK Flexibility Score: inf
ROOT
ATOM      1  C   UNL A   1      31.937  28.595  27.039  1.00  0.00     0.202 C 
ENDROOT
BRANCH   1   2
ATOM      2  O   UNL A   1      31.432  28.280  25.742  1.00  0.00    -0.374 OA
BRANCH   2   3
ATOM      3  C   UNL A   1      31.584  29.247  24.705  1.00  0.00     0.202 C 
BRANCH   3   4
ATOM      4  C   UNL A   1      32.518  28.897  23.541  1.00  0.00     0.261 C 
BRANCH   4   5
ATOM      5  O   UNL A   1      33.446  27.855  23.879  1.00  0.00    -0.460 OA
BRANCH   5   6
ATOM      6  C   UNL A   1      33.541  26.867  22.957  1.00  0.00     0.338 C 
ATOM      7  O   UNL A   1      33.873  26.980  21.788  1.00  0.00    -0.246 OA
BRANCH   6   8
ATOM      8  C   UNL A   1      33.336  25.560  23.611  1.00  0.00     0.087 C 
ATOM      9  C   UNL A   1      35.447  22.618  24.488  1.00  0.00    -0.019 A 
ATOM     10  C   UNL A   1      35.192  21.279  24.865  1.00  0.00     0.045 A 
ATOM     11  C   UNL A   1      34.326  23.476  24.326  1.00  0.00     0.022 A 
ATOM     12  Cl  UNL A   1      36.436  20.078  24.968  1.00  0.00    -0.084 Cl
ATOM     13  C   UNL A   1      33.895  20.839  25.151  1.00  0.00     0.024 A 
ATOM     14  C   UNL A   1      33.040  23.037  24.682  1.00  0.00     0.128 A 
ATOM     15  C   UNL A   1      34.431  24.797  23.721  1.00  0.00     0.027 C 
ATOM     16  C   UNL A   1      32.828  21.725  25.093  1.00  0.00     0.048 A 
ATOM     17  O   UNL A   1      31.920  23.819  24.664  1.00  0.00    -0.475 OA
ATOM     18  C   UNL A   1      31.976  25.150  24.087  1.00  0.00     0.316 C 
BRANCH   9  19
ATOM     19  C   UNL A   1      36.871  23.097  24.238  1.00  0.00     0.034 C 
ATOM     20  C   UNL A   1      37.586  23.688  25.456  1.00  0.00     0.009 C 
ENDBRANCH   9  19
BRANCH  18  21
ATOM     21  C   UNL A   1      30.926  25.222  22.967  1.00  0.00     0.430 C 
ATOM     22  F   UNL A   1      30.014  24.228  23.087  1.00  0.00    -0.167 F 
ATOM     23  F   UNL A   1      30.242  26.388  22.994  1.00  0.00    -0.167 F 
ATOM     24  F   UNL A   1      31.492  25.108  21.743  1.00  0.00    -0.167 F 
ENDBRANCH  18  21
ENDBRANCH   6   8
ENDBRANCH   5   6
ENDBRANCH   4   5
ENDBRANCH   3   4
ENDBRANCH   2   3
ENDBRANCH   1   2
BRANCH   1  25
ATOM     25  C   UNL A   1      33.452  28.501  27.273  1.00  0.00     0.261 C 
BRANCH  25  26
ATOM     26  O   UNL A   1      34.164  29.633  26.744  1.00  0.00    -0.460 OA
BRANCH  26  27
ATOM     27  C   UNL A   1      34.564  30.549  27.663  1.00  0.00     0.338 C 
ATOM     28  O   UNL A   1      33.917  31.486  28.102  1.00  0.00    -0.246 OA
BRANCH  27  29
ATOM     29  C   UNL A   1      35.856  30.114  28.222  1.00  0.00     0.060 A 
ATOM     30  C   UNL A   1      35.941  29.637  29.530  1.00  0.00     0.016 A 
ATOM     31  C   UNL A   1      36.996  30.177  27.408  1.00  0.00     0.016 A 
ATOM     32  C   UNL A   1      37.179  29.220  30.024  1.00  0.00     0.010 A 
ATOM     33  C   UNL A   1      38.231  29.767  27.907  1.00  0.00     0.010 A 
ATOM     34  C   UNL A   1      38.330  29.278  29.217  1.00  0.00    -0.014 A 
BRANCH  34  35
ATOM     35  C   UNL A   1      39.611  28.720  29.713  1.00  0.00     0.031 A 
ATOM     36  C   UNL A   1      40.285  27.572  29.024  1.00  0.00     0.074 A 
ATOM     37  C   UNL A   1      40.157  29.258  30.820  1.00  0.00     0.049 A 
ATOM     38  N   UNL A   1      41.440  27.022  29.295  1.00  0.00    -0.248 NA
ATOM     39  C   UNL A   1      39.580  26.960  27.887  1.00  0.00     0.031 C 
ATOM     40  C   UNL A   1      39.562  30.339  31.609  1.00  0.00     0.029 A 
ATOM     41  N   UNL A   1      41.326  28.969  31.477  1.00  0.00    -0.354 N 
ATOM     42  C   UNL A   1      41.601  25.997  28.373  1.00  0.00     0.074 A 
ATOM     43  C   UNL A   1      40.417  25.988  27.541  1.00  0.00     0.031 C 
ATOM     44  C   UNL A   1      40.377  30.633  32.634  1.00  0.00     0.029 A 
ATOM     45  C   UNL A   1      41.539  29.749  32.587  1.00  0.00     0.049 A 
ATOM     46  H   UNL A   1      41.952  28.268  31.181  1.00  0.00     0.167 HD
ATOM     47  C   UNL A   1      42.651  25.156  28.226  1.00  0.00     0.034 A 
ATOM     48  C   UNL A   1      42.556  29.761  33.470  1.00  0.00     0.034 A 
ATOM     49  C   UNL A   1      43.833  25.177  29.047  1.00  0.00     0.049 A 
ATOM     50  C   UNL A   1      43.711  28.822  33.277  1.00  0.00     0.074 A 
ATOM     51  C   UNL A   1      44.972  24.399  28.926  1.00  0.00     0.029 A 
ATOM     52  N   UNL A   1      44.025  25.998  30.145  1.00  0.00    -0.354 N 
ATOM     53  N   UNL A   1      43.905  27.946  32.323  1.00  0.00    -0.248 NA
ATOM     54  C   UNL A   1      44.802  28.890  34.261  1.00  0.00     0.031 C 
ATOM     55  C   UNL A   1      45.844  24.737  29.964  1.00  0.00     0.029 A 
ATOM     56  C   UNL A   1      45.259  25.743  30.716  1.00  0.00     0.049 A 
ATOM     57  H   UNL A   1      43.378  26.666  30.471  1.00  0.00     0.167 HD
ATOM     58  C   UNL A   1      45.145  27.376  32.574  1.00  0.00     0.074 A 
ATOM     59  C   UNL A   1      45.665  28.011  33.768  1.00  0.00     0.031 C 
ATOM     60  C   UNL A   1      45.788  26.408  31.879  1.00  0.00     0.034 A 
BRANCH  47  61
ATOM     61  C   UNL A   1      42.616  24.163  27.096  1.00  0.00     0.023 A 
ATOM     62  C   UNL A   1      43.273  24.476  25.890  1.00  0.00     0.012 A 
ATOM     63  C   UNL A   1      42.057  22.882  27.273  1.00  0.00     0.148 A 
ATOM     64  C   UNL A   1      43.371  23.528  24.872  1.00  0.00     0.002 A 
ATOM     65  C   UNL A   1      42.183  21.935  26.265  1.00  0.00     0.091 A 
ATOM     66  F   UNL A   1      41.432  22.615  28.427  1.00  0.00    -0.205 F 
ATOM     67  C   UNL A   1      42.838  22.256  25.063  1.00  0.00     0.022 A 
BRANCH  65  68
ATOM     68  S   UNL A   1      41.580  20.251  26.430  1.00  0.00     0.127 S 
ATOM     69  O   UNL A   1      42.263  19.585  25.320  1.00  0.00    -0.237 OA
ATOM     70  O   UNL A   1      42.069  19.879  27.758  1.00  0.00    -0.237 OA
ATOM     71  O   UNL A   1      40.132  20.326  26.306  1.00  0.00    -0.744 OA
ENDBRANCH  65  68
ENDBRANCH  47  61
BRANCH  48  72
ATOM     72  C   UNL A   1      42.540  30.752  34.577  1.00  0.00     0.023 A 
ATOM     73  C   UNL A   1      42.075  30.361  35.846  1.00  0.00     0.012 A 
ATOM     74  C   UNL A   1      43.064  32.046  34.397  1.00  0.00     0.148 A 
ATOM     75  C   UNL A   1      42.128  31.249  36.922  1.00  0.00     0.002 A 
ATOM     76  C   UNL A   1      43.150  32.910  35.481  1.00  0.00     0.091 A 
ATOM     77  F   UNL A   1      43.503  32.387  33.178  1.00  0.00    -0.205 F 
ATOM     78  C   UNL A   1      42.675  32.517  36.742  1.00  0.00     0.022 A 
BRANCH  76  79
ATOM     79  S   UNL A   1      43.926  34.526  35.374  1.00  0.00     0.127 S 
ATOM     80  O   UNL A   1      45.328  34.170  35.159  1.00  0.00    -0.237 OA
ATOM     81  O   UNL A   1      43.252  35.102  34.210  1.00  0.00    -0.237 OA
ATOM     82  O   UNL A   1      43.638  35.191  36.636  1.00  0.00    -0.744 OA
ENDBRANCH  76  79
ENDBRANCH  48  72
BRANCH  60  83
ATOM     83  C   UNL A   1      47.144  25.968  32.358  1.00  0.00     0.023 A 
ATOM     84  C   UNL A   1      48.294  26.632  31.892  1.00  0.00     0.012 A 
ATOM     85  C   UNL A   1      47.264  24.992  33.366  1.00  0.00     0.148 A 
ATOM     86  C   UNL A   1      49.548  26.327  32.421  1.00  0.00     0.002 A 
ATOM     87  C   UNL A   1      48.511  24.717  33.912  1.00  0.00     0.091 A 
ATOM     88  F   UNL A   1      46.152  24.370  33.786  1.00  0.00    -0.205 F 
ATOM     89  C   UNL A   1      49.654  25.380  33.438  1.00  0.00     0.022 A 
BRANCH  87  90
ATOM     90  S   UNL A   1      48.741  23.568  35.275  1.00  0.00     0.127 S 
ATOM     91  O   UNL A   1      48.323  22.303  34.670  1.00  0.00    -0.237 OA
ATOM     92  O   UNL A   1      50.177  23.676  35.530  1.00  0.00    -0.237 OA
ATOM     93  O   UNL A   1      47.891  24.045  36.357  1.00  0.00    -0.744 OA
ENDBRANCH  87  90
ENDBRANCH  60  83
ENDBRANCH  34  35
ENDBRANCH  27  29
ENDBRANCH  26  27
ENDBRANCH  25  26
ENDBRANCH   1  25
TORSDOF 19
ENDMDL
MODEL 2
REMARK VINA RESULT:     -10.7      5.101      9.647
REMARK SMILES CCc1c(Cl)ccc2c1C=C(C(=O)OCCOCCOC(=O)c1ccc(-c3c4nc(c(-c5cccc(S(=O)(=O)[O-])c5F)c5ccc([nH]5)c(-c5cccc(S(=O)(=O)[O-])c5F)c5nc(c(-c6cccc(S(=O)(=O)[O-])c6F)c6ccc3[nH]6)C=C5)C=C4)cc1)[C@@H](C(F)(F)F)O2
REMARK SMILES IDX 18 1 17 2 16 3 15 4 14 5 12 6 13 7 11 8 3 9 4 10 9 11 5 12
REMARK SMILES IDX 6 13 8 14 10 15 7 16 91 17 86 18 2 19 1 20 87 21 88 22 89 23
REMARK SMILES IDX 90 24 19 25 20 26 21 27 22 28 23 29 24 30 85 31 25 32 84 33
REMARK SMILES IDX 26 34 27 35 28 36 78 37 29 38 83 39 77 40 79 41 30 42 82 43
REMARK SMILES IDX 76 44 75 45 31 47 63 48 43 49 62 50 44 51 47 52 61 53 80 54
REMARK SMILES IDX 45 55 46 56 60 58 81 59 48 60 32 61 33 62 41 63 34 64 36 65
REMARK SMILES IDX 42 66 35 67 37 68 38 69 39 70 40 71 64 72 65 73 73 74 66 75
REMARK SMILES IDX 68 76 74 77 67 78 69 79 70 80 71 81 72 82 49 83 50 84 58 85
REMARK SMILES IDX 51 86 53 87 59 88 52 89 54 90 55 91 56 92 57 93
REMARK H PARENT 79 46 47 57
REMARK Flexibility Score: inf
ROOT
ATOM      1  C   UNL A   1      38.709  20.241  25.347  1.00  0.00     0.202 C 
ENDROOT
BRANCH   1   2
ATOM      2  O   UNL A   1      38.721  21.528  25.962  1.00  0.00    -0.374 OA
BRANCH   2   3
ATOM      3  C   UNL A   1      37.956  22.571  25.361  1.00  0.00     0.202 C 
BRANCH   3   4
ATOM      4  C   UNL A   1      36.980  22.180  24.245  1.00  0.00     0.261 C 
BRANCH   4   5
ATOM      5  O   UNL A   1      35.677  22.753  24.433  1.00  0.00    -0.460 OA
BRANCH   5   6
ATOM      6  C   UNL A   1      34.694  21.848  24.656  1.00  0.00     0.338 C 
ATOM      7  O   UNL A   1      34.807  20.634  24.703  1.00  0.00    -0.246 OA
BRANCH   6   8
ATOM      8  C   UNL A   1      33.445  22.553  25.005  1.00  0.00     0.087 C 
ATOM      9  C   UNL A   1      31.376  25.276  23.527  1.00  0.00    -0.019 A 
ATOM     10  C   UNL A   1      30.342  26.118  24.000  1.00  0.00     0.045 A 
ATOM     11  C   UNL A   1      31.853  24.269  24.408  1.00  0.00     0.022 A 
ATOM     12  Cl  UNL A   1      29.749  27.475  23.101  1.00  0.00    -0.084 Cl
ATOM     13  C   UNL A   1      29.754  25.913  25.253  1.00  0.00     0.024 A 
ATOM     14  C   UNL A   1      31.207  24.035  25.634  1.00  0.00     0.128 A 
ATOM     15  C   UNL A   1      33.058  23.496  24.138  1.00  0.00     0.027 C 
ATOM     16  C   UNL A   1      30.163  24.853  26.052  1.00  0.00     0.048 A 
ATOM     17  O   UNL A   1      31.523  23.024  26.498  1.00  0.00    -0.475 OA
ATOM     18  C   UNL A   1      32.705  22.214  26.262  1.00  0.00     0.316 C 
BRANCH   9  19
ATOM     19  C   UNL A   1      31.964  25.475  22.137  1.00  0.00     0.034 C 
ATOM     20  C   UNL A   1      32.969  26.623  22.010  1.00  0.00     0.009 C 
ENDBRANCH   9  19
BRANCH  18  21
ATOM     21  C   UNL A   1      33.601  22.318  27.507  1.00  0.00     0.430 C 
ATOM     22  F   UNL A   1      32.870  22.584  28.616  1.00  0.00    -0.167 F 
ATOM     23  F   UNL A   1      34.269  21.167  27.743  1.00  0.00    -0.167 F 
ATOM     24  F   UNL A   1      34.519  23.305  27.380  1.00  0.00    -0.167 F 
ENDBRANCH  18  21
ENDBRANCH   6   8
ENDBRANCH   5   6
ENDBRANCH   4   5
ENDBRANCH   3   4
ENDBRANCH   2   3
ENDBRANCH   1   2
BRANCH   1  25
ATOM     25  C   UNL A   1      39.624  19.150  25.924  1.00  0.00     0.261 C 
BRANCH  25  26
ATOM     26  O   UNL A   1      40.968  19.232  25.419  1.00  0.00    -0.460 OA
BRANCH  26  27
ATOM     27  C   UNL A   1      41.936  19.364  26.363  1.00  0.00     0.338 C 
ATOM     28  O   UNL A   1      42.655  18.486  26.809  1.00  0.00    -0.246 OA
BRANCH  27  29
ATOM     29  C   UNL A   1      42.135  20.799  26.627  1.00  0.00     0.060 A 
ATOM     30  C   UNL A   1      42.220  21.276  27.936  1.00  0.00     0.016 A 
ATOM     31  C   UNL A   1      42.251  21.674  25.538  1.00  0.00     0.016 A 
ATOM     32  C   UNL A   1      42.423  22.641  28.152  1.00  0.00     0.010 A 
ATOM     33  C   UNL A   1      42.446  23.037  25.758  1.00  0.00     0.010 A 
ATOM     34  C   UNL A   1      42.541  23.529  27.068  1.00  0.00    -0.014 A 
BRANCH  34  35
ATOM     35  C   UNL A   1      42.877  24.953  27.309  1.00  0.00     0.031 A 
ATOM     36  C   UNL A   1      41.879  25.904  27.900  1.00  0.00     0.074 A 
ATOM     37  C   UNL A   1      44.103  25.388  26.966  1.00  0.00     0.049 A 
ATOM     38  N   UNL A   1      42.046  27.156  28.235  1.00  0.00    -0.248 NA
ATOM     39  C   UNL A   1      40.522  25.391  28.148  1.00  0.00     0.031 C 
ATOM     40  C   UNL A   1      45.137  24.568  26.330  1.00  0.00     0.029 A 
ATOM     41  N   UNL A   1      44.689  26.622  27.098  1.00  0.00    -0.354 N 
ATOM     42  C   UNL A   1      40.821  27.588  28.726  1.00  0.00     0.074 A 
ATOM     43  C   UNL A   1      39.911  26.466  28.631  1.00  0.00     0.031 C 
ATOM     44  C   UNL A   1      46.234  25.317  26.141  1.00  0.00     0.029 A 
ATOM     45  C   UNL A   1      45.976  26.672  26.622  1.00  0.00     0.049 A 
ATOM     46  H   UNL A   1      44.229  27.397  27.494  1.00  0.00     0.167 HD
ATOM     47  C   UNL A   1      40.496  28.802  29.228  1.00  0.00     0.034 A 
ATOM     48  C   UNL A   1      46.857  27.689  26.579  1.00  0.00     0.034 A 
ATOM     49  C   UNL A   1      41.408  29.910  29.332  1.00  0.00     0.049 A 
ATOM     50  C   UNL A   1      46.472  29.023  27.149  1.00  0.00     0.074 A 
ATOM     51  C   UNL A   1      41.177  31.158  29.886  1.00  0.00     0.029 A 
ATOM     52  N   UNL A   1      42.712  29.916  28.865  1.00  0.00    -0.354 N 
ATOM     53  N   UNL A   1      45.350  29.375  27.726  1.00  0.00    -0.248 NA
ATOM     54  C   UNL A   1      47.480  30.093  27.092  1.00  0.00     0.031 C 
ATOM     55  C   UNL A   1      42.335  31.925  29.734  1.00  0.00     0.029 A 
ATOM     56  C   UNL A   1      43.295  31.146  29.109  1.00  0.00     0.049 A 
ATOM     57  H   UNL A   1      43.157  29.156  28.423  1.00  0.00     0.167 HD
ATOM     58  C   UNL A   1      45.522  30.694  28.123  1.00  0.00     0.074 A 
ATOM     59  C   UNL A   1      46.861  31.080  27.728  1.00  0.00     0.031 C 
ATOM     60  C   UNL A   1      44.643  31.510  28.750  1.00  0.00     0.034 A 
BRANCH  47  61
ATOM     61  C   UNL A   1      39.106  29.003  29.764  1.00  0.00     0.023 A 
ATOM     62  C   UNL A   1      38.831  28.654  31.101  1.00  0.00     0.012 A 
ATOM     63  C   UNL A   1      38.119  29.654  28.998  1.00  0.00     0.148 A 
ATOM     64  C   UNL A   1      37.591  28.946  31.668  1.00  0.00     0.002 A 
ATOM     65  C   UNL A   1      36.896  29.967  29.579  1.00  0.00     0.091 A 
ATOM     66  F   UNL A   1      38.405  29.968  27.727  1.00  0.00    -0.205 F 
ATOM     67  C   UNL A   1      36.630  29.612  30.912  1.00  0.00     0.022 A 
BRANCH  65  68
ATOM     68  S   UNL A   1      35.609  30.871  28.711  1.00  0.00     0.127 S 
ATOM     69  O   UNL A   1      36.386  31.587  27.699  1.00  0.00    -0.237 OA
ATOM     70  O   UNL A   1      34.775  29.790  28.187  1.00  0.00    -0.237 OA
ATOM     71  O   UNL A   1      34.967  31.716  29.707  1.00  0.00    -0.744 OA
ENDBRANCH  65  68
ENDBRANCH  47  61
BRANCH  48  72
ATOM     72  C   UNL A   1      48.215  27.445  26.028  1.00  0.00     0.023 A 
ATOM     73  C   UNL A   1      49.231  26.975  26.881  1.00  0.00     0.012 A 
ATOM     74  C   UNL A   1      48.476  27.591  24.653  1.00  0.00     0.148 A 
ATOM     75  C   UNL A   1      50.491  26.658  26.372  1.00  0.00     0.002 A 
ATOM     76  C   UNL A   1      49.720  27.237  24.147  1.00  0.00     0.091 A 
ATOM     77  F   UNL A   1      47.487  28.037  23.866  1.00  0.00    -0.205 F 
ATOM     78  C   UNL A   1      50.731  26.778  25.005  1.00  0.00     0.022 A 
BRANCH  76  79
ATOM     79  S   UNL A   1      50.095  27.263  22.390  1.00  0.00     0.127 S 
ATOM     80  O   UNL A   1      49.947  28.683  22.075  1.00  0.00    -0.237 OA
ATOM     81  O   UNL A   1      51.472  26.769  22.374  1.00  0.00    -0.237 OA
ATOM     82  O   UNL A   1      49.124  26.380  21.762  1.00  0.00    -0.744 OA
ENDBRANCH  76  79
ENDBRANCH  48  72
BRANCH  60  83
ATOM     83  C   UNL A   1      45.082  32.909  29.084  1.00  0.00     0.023 A 
ATOM     84  C   UNL A   1      45.772  33.152  30.287  1.00  0.00     0.012 A 
ATOM     85  C   UNL A   1      44.930  33.949  28.145  1.00  0.00     0.148 A 
ATOM     86  C   UNL A   1      46.301  34.415  30.553  1.00  0.00     0.002 A 
ATOM     87  C   UNL A   1      45.489  35.194  28.402  1.00  0.00     0.091 A 
ATOM     88  F   UNL A   1      44.263  33.690  27.011  1.00  0.00    -0.205 F 
ATOM     89  C   UNL A   1      46.170  35.430  29.607  1.00  0.00     0.022 A 
BRANCH  87  90
ATOM     90  S   UNL A   1      45.438  36.543  27.217  1.00  0.00     0.127 S 
ATOM     91  O   UNL A   1      44.006  36.636  26.933  1.00  0.00    -0.237 OA
ATOM     92  O   UNL A   1      45.979  37.658  27.994  1.00  0.00    -0.237 OA
ATOM     93  O   UNL A   1      46.264  36.126  26.091  1.00  0.00    -0.744 OA
ENDBRANCH  87  90
ENDBRANCH  60  83
ENDBRANCH  34  35
ENDBRANCH  27  29
ENDBRANCH  26  27
ENDBRANCH  25  26
ENDBRANCH   1  25
TORSDOF 19
ENDMDL
MODEL 3
REMARK VINA RESULT:     -10.7      5.462     11.057
REMARK SMILES CCc1c(Cl)ccc2c1C=C(C(=O)OCCOCCOC(=O)c1ccc(-c3c4nc(c(-c5cccc(S(=O)(=O)[O-])c5F)c5ccc([nH]5)c(-c5cccc(S(=O)(=O)[O-])c5F)c5nc(c(-c6cccc(S(=O)(=O)[O-])c6F)c6ccc3[nH]6)C=C5)C=C4)cc1)[C@@H](C(F)(F)F)O2
REMARK SMILES IDX 18 1 17 2 16 3 15 4 14 5 12 6 13 7 11 8 3 9 4 10 9 11 5 12
REMARK SMILES IDX 6 13 8 14 10 15 7 16 91 17 86 18 2 19 1 20 87 21 88 22 89 23
REMARK SMILES IDX 90 24 19 25 20 26 21 27 22 28 23 29 24 30 85 31 25 32 84 33
REMARK SMILES IDX 26 34 27 35 28 36 78 37 29 38 83 39 77 40 79 41 30 42 82 43
REMARK SMILES IDX 76 44 75 45 31 47 63 48 43 49 62 50 44 51 47 52 61 53 80 54
REMARK SMILES IDX 45 55 46 56 60 58 81 59 48 60 32 61 33 62 41 63 34 64 36 65
REMARK SMILES IDX 42 66 35 67 37 68 38 69 39 70 40 71 64 72 65 73 73 74 66 75
REMARK SMILES IDX 68 76 74 77 67 78 69 79 70 80 71 81 72 82 49 83 50 84 58 85
REMARK SMILES IDX 51 86 53 87 59 88 52 89 54 90 55 91 56 92 57 93
REMARK H PARENT 79 46 47 57
REMARK Flexibility Score: inf
ROOT
ATOM      1  C   UNL A   1      42.402  20.954  26.147  1.00  0.00     0.202 C 
ENDROOT
BRANCH   1   2
ATOM      2  O   UNL A   1      43.167  20.091  25.306  1.00  0.00    -0.374 OA
BRANCH   2   3
ATOM      3  C   UNL A   1      44.542  20.402  25.092  1.00  0.00     0.202 C 
BRANCH   3   4
ATOM      4  C   UNL A   1      44.868  21.520  24.094  1.00  0.00     0.261 C 
BRANCH   4   5
ATOM      5  O   UNL A   1      45.883  22.409  24.583  1.00  0.00    -0.460 OA
BRANCH   5   6
ATOM      6  C   UNL A   1      45.449  23.664  24.852  1.00  0.00     0.338 C 
ATOM      7  O   UNL A   1      44.565  24.276  24.276  1.00  0.00    -0.246 OA
BRANCH   6   8
ATOM      8  C   UNL A   1      46.098  24.158  26.082  1.00  0.00     0.087 C 
ATOM      9  C   UNL A   1      45.085  24.759  29.616  1.00  0.00    -0.019 A 
ATOM     10  C   UNL A   1      45.631  25.477  30.706  1.00  0.00     0.045 A 
ATOM     11  C   UNL A   1      45.855  24.699  28.423  1.00  0.00     0.022 A 
ATOM     12  Cl  UNL A   1      44.761  25.757  32.178  1.00  0.00    -0.084 Cl
ATOM     13  C   UNL A   1      46.913  26.034  30.642  1.00  0.00     0.024 A 
ATOM     14  C   UNL A   1      47.165  25.205  28.398  1.00  0.00     0.128 A 
ATOM     15  C   UNL A   1      45.315  24.198  27.166  1.00  0.00     0.027 C 
ATOM     16  C   UNL A   1      47.690  25.867  29.503  1.00  0.00     0.048 A 
ATOM     17  O   UNL A   1      48.018  25.100  27.336  1.00  0.00    -0.475 OA
ATOM     18  C   UNL A   1      47.532  24.590  26.066  1.00  0.00     0.316 C 
BRANCH   9  19
ATOM     19  C   UNL A   1      43.713  24.108  29.724  1.00  0.00     0.034 C 
ATOM     20  C   UNL A   1      43.716  22.578  29.760  1.00  0.00     0.009 C 
ENDBRANCH   9  19
BRANCH  18  21
ATOM     21  C   UNL A   1      47.802  25.661  24.996  1.00  0.00     0.430 C 
ATOM     22  F   UNL A   1      48.940  26.344  25.264  1.00  0.00    -0.167 F 
ATOM     23  F   UNL A   1      47.950  25.117  23.767  1.00  0.00    -0.167 F 
ATOM     24  F   UNL A   1      46.794  26.562  24.926  1.00  0.00    -0.167 F 
ENDBRANCH  18  21
ENDBRANCH   6   8
ENDBRANCH   5   6
ENDBRANCH   4   5
ENDBRANCH   3   4
ENDBRANCH   2   3
ENDBRANCH   1   2
BRANCH   1  25
ATOM     25  C   UNL A   1      40.902  20.667  26.312  1.00  0.00     0.261 C 
BRANCH  25  26
ATOM     26  O   UNL A   1      40.248  21.621  27.167  1.00  0.00    -0.460 OA
BRANCH  26  27
ATOM     27  C   UNL A   1      39.405  22.481  26.539  1.00  0.00     0.338 C 
ATOM     28  O   UNL A   1      38.441  22.197  25.848  1.00  0.00    -0.246 OA
BRANCH  27  29
ATOM     29  C   UNL A   1      39.712  23.848  26.995  1.00  0.00     0.060 A 
ATOM     30  C   UNL A   1      39.864  24.128  28.353  1.00  0.00     0.016 A 
ATOM     31  C   UNL A   1      39.861  24.859  26.036  1.00  0.00     0.016 A 
ATOM     32  C   UNL A   1      40.168  25.431  28.751  1.00  0.00     0.010 A 
ATOM     33  C   UNL A   1      40.157  26.162  26.436  1.00  0.00     0.010 A 
ATOM     34  C   UNL A   1      40.320  26.455  27.798  1.00  0.00    -0.014 A 
BRANCH  34  35
ATOM     35  C   UNL A   1      40.761  27.805  28.224  1.00  0.00     0.031 A 
ATOM     36  C   UNL A   1      42.205  28.207  28.183  1.00  0.00     0.074 A 
ATOM     37  C   UNL A   1      39.832  28.669  28.674  1.00  0.00     0.049 A 
ATOM     38  N   UNL A   1      42.735  29.371  28.456  1.00  0.00    -0.248 NA
ATOM     39  C   UNL A   1      43.181  27.179  27.789  1.00  0.00     0.031 C 
ATOM     40  C   UNL A   1      38.405  28.370  28.813  1.00  0.00     0.029 A 
ATOM     41  N   UNL A   1      39.944  29.968  29.099  1.00  0.00    -0.354 N 
ATOM     42  C   UNL A   1      44.103  29.220  28.275  1.00  0.00     0.074 A 
ATOM     43  C   UNL A   1      44.327  27.844  27.883  1.00  0.00     0.031 C 
ATOM     44  C   UNL A   1      37.773  29.458  29.277  1.00  0.00     0.029 A 
ATOM     45  C   UNL A   1      38.749  30.524  29.486  1.00  0.00     0.049 A 
ATOM     46  H   UNL A   1      40.800  30.455  29.126  1.00  0.00     0.167 HD
ATOM     47  C   UNL A   1      45.077  30.150  28.404  1.00  0.00     0.034 A 
ATOM     48  C   UNL A   1      38.463  31.755  29.953  1.00  0.00     0.034 A 
ATOM     49  C   UNL A   1      44.849  31.520  28.781  1.00  0.00     0.049 A 
ATOM     50  C   UNL A   1      39.562  32.769  30.080  1.00  0.00     0.074 A 
ATOM     51  C   UNL A   1      45.774  32.546  28.876  1.00  0.00     0.029 A 
ATOM     52  N   UNL A   1      43.622  32.054  29.140  1.00  0.00    -0.354 N 
ATOM     53  N   UNL A   1      40.831  32.644  29.781  1.00  0.00    -0.248 NA
ATOM     54  C   UNL A   1      39.190  34.101  30.578  1.00  0.00     0.031 C 
ATOM     55  C   UNL A   1      45.109  33.695  29.312  1.00  0.00     0.029 A 
ATOM     56  C   UNL A   1      43.766  33.391  29.464  1.00  0.00     0.049 A 
ATOM     57  H   UNL A   1      42.773  31.555  29.160  1.00  0.00     0.167 HD
ATOM     58  C   UNL A   1      41.405  33.883  30.029  1.00  0.00     0.074 A 
ATOM     59  C   UNL A   1      40.344  34.751  30.497  1.00  0.00     0.031 C 
ATOM     60  C   UNL A   1      42.698  34.260  29.889  1.00  0.00     0.034 A 
BRANCH  47  61
ATOM     61  C   UNL A   1      46.492  29.752  28.084  1.00  0.00     0.023 A 
ATOM     62  C   UNL A   1      46.914  29.747  26.739  1.00  0.00     0.012 A 
ATOM     63  C   UNL A   1      47.429  29.516  29.108  1.00  0.00     0.148 A 
ATOM     64  C   UNL A   1      48.249  29.510  26.418  1.00  0.00     0.002 A 
ATOM     65  C   UNL A   1      48.764  29.308  28.781  1.00  0.00     0.091 A 
ATOM     66  F   UNL A   1      47.000  29.519  30.377  1.00  0.00    -0.205 F 
ATOM     67  C   UNL A   1      49.175  29.302  27.437  1.00  0.00     0.022 A 
BRANCH  65  68
ATOM     68  S   UNL A   1      50.046  29.085  30.019  1.00  0.00     0.127 S 
ATOM     69  O   UNL A   1      50.925  28.118  29.359  1.00  0.00    -0.237 OA
ATOM     70  O   UNL A   1      50.600  30.434  30.133  1.00  0.00    -0.237 OA
ATOM     71  O   UNL A   1      49.375  28.592  31.213  1.00  0.00    -0.744 OA
ENDBRANCH  65  68
ENDBRANCH  47  61
BRANCH  48  72
ATOM     72  C   UNL A   1      37.052  32.097  30.268  1.00  0.00     0.023 A 
ATOM     73  C   UNL A   1      36.580  31.936  31.584  1.00  0.00     0.012 A 
ATOM     74  C   UNL A   1      36.210  32.664  29.293  1.00  0.00     0.148 A 
ATOM     75  C   UNL A   1      35.285  32.329  31.923  1.00  0.00     0.002 A 
ATOM     76  C   UNL A   1      34.936  33.089  29.647  1.00  0.00     0.091 A 
ATOM     77  F   UNL A   1      36.690  32.809  28.050  1.00  0.00    -0.205 F 
ATOM     78  C   UNL A   1      34.469  32.915  30.959  1.00  0.00     0.022 A 
BRANCH  76  79
ATOM     79  S   UNL A   1      33.846  33.943  28.503  1.00  0.00     0.127 S 
ATOM     80  O   UNL A   1      32.901  34.585  29.414  1.00  0.00    -0.237 OA
ATOM     81  O   UNL A   1      34.774  34.854  27.834  1.00  0.00    -0.237 OA
ATOM     82  O   UNL A   1      33.282  32.911  27.645  1.00  0.00    -0.744 OA
ENDBRANCH  76  79
ENDBRANCH  48  72
BRANCH  60  83
ATOM     83  C   UNL A   1      43.066  35.681  30.218  1.00  0.00     0.023 A 
ATOM     84  C   UNL A   1      43.547  35.994  31.503  1.00  0.00     0.012 A 
ATOM     85  C   UNL A   1      43.061  36.671  29.215  1.00  0.00     0.148 A 
ATOM     86  C   UNL A   1      44.015  37.276  31.788  1.00  0.00     0.002 A 
ATOM     87  C   UNL A   1      43.559  37.936  29.497  1.00  0.00     0.091 A 
ATOM     88  F   UNL A   1      42.590  36.347  28.002  1.00  0.00    -0.205 F 
ATOM     89  C   UNL A   1      44.033  38.242  30.783  1.00  0.00     0.022 A 
BRANCH  87  90
ATOM     90  S   UNL A   1      43.692  39.225  28.252  1.00  0.00     0.127 S 
ATOM     91  O   UNL A   1      42.286  39.519  27.978  1.00  0.00    -0.237 OA
ATOM     92  O   UNL A   1      44.406  40.278  28.973  1.00  0.00    -0.237 OA
ATOM     93  O   UNL A   1      44.428  38.640  27.138  1.00  0.00    -0.744 OA
ENDBRANCH  87  90
ENDBRANCH  60  83
ENDBRANCH  34  35
ENDBRANCH  27  29
ENDBRANCH  26  27
ENDBRANCH  25  26
ENDBRANCH   1  25
TORSDOF 19
ENDMDL
