MODEL 1
REMARK VINA RESULT:     -11.2      0.000      0.000
REMARK SMILES CC1(C)COCCN1C(=O)N1CCO[C@@H](CC(=O)OCCOCCOC(=O)c2ccc(-c3c4nc(c(-c5cccc(S(=O)(=O)[O-])c5F)c5ccc([nH]5)c(-c5cccc(S(=O)(=O)[O-])c5F)c5nc(c(-c6cccc(S(=O)(=O)[O-])c6F)c6ccc3[nH]6)C=C5)C=C4)cc2)C1
REMARK SMILES IDX 22 1 21 2 20 3 19 4 17 5 18 6 16 7 15 8 11 9 12 10 91 11
REMARK SMILES IDX 13 12 14 13 9 14 10 15 8 16 1 17 2 18 3 19 4 20 5 21 7 22
REMARK SMILES IDX 6 23 23 24 24 25 25 26 26 27 27 28 28 29 29 30 90 31 30 32
REMARK SMILES IDX 89 33 31 34 32 35 33 36 83 37 34 38 88 39 82 40 84 41 35 42
REMARK SMILES IDX 87 43 81 44 80 45 36 47 68 48 48 49 67 50 49 51 52 52 66 53
REMARK SMILES IDX 85 54 50 55 51 56 65 58 86 59 53 60 37 61 38 62 46 63 39 64
REMARK SMILES IDX 41 65 47 66 40 67 42 68 43 69 44 70 45 71 69 72 70 73 78 74
REMARK SMILES IDX 71 75 73 76 79 77 72 78 74 79 75 80 76 81 77 82 54 83 55 84
REMARK SMILES IDX 63 85 56 86 58 87 64 88 57 89 59 90 60 91 61 92 62 93
REMARK H PARENT 84 46 52 57
REMARK Flexibility Score: inf
ROOT
ATOM      1  O   UNL A   1      32.722  30.437  25.567  1.00  0.00    -0.374 OA
ENDROOT
BRANCH   1   2
ATOM      2  C   UNL A   1      33.374  29.170  25.597  1.00  0.00     0.202 C 
BRANCH   2   3
ATOM      3  C   UNL A   1      33.153  28.249  24.396  1.00  0.00     0.261 C 
BRANCH   3   4
ATOM      4  O   UNL A   1      32.439  28.919  23.340  1.00  0.00    -0.463 OA
BRANCH   4   5
ATOM      5  C   UNL A   1      31.198  28.444  23.072  1.00  0.00     0.308 C 
ATOM      6  O   UNL A   1      30.639  28.525  21.984  1.00  0.00    -0.252 OA
BRANCH   5   7
ATOM      7  C   UNL A   1      30.603  27.674  24.223  1.00  0.00     0.156 C 
BRANCH   7   8
ATOM      8  C   UNL A   1      29.919  26.337  23.927  1.00  0.00     0.149 C 
ATOM      9  N   UNL A   1      31.586  24.578  24.537  1.00  0.00    -0.320 N 
ATOM     10  C   UNL A   1      30.757  24.203  25.677  1.00  0.00     0.150 C 
ATOM     11  C   UNL A   1      30.790  25.156  23.462  1.00  0.00     0.154 C 
ATOM     12  C   UNL A   1      29.902  25.379  26.147  1.00  0.00     0.182 C 
ATOM     13  O   UNL A   1      29.121  25.949  25.078  1.00  0.00    -0.374 OA
BRANCH   9  14
ATOM     14  C   UNL A   1      32.484  23.609  24.136  1.00  0.00     0.320 C 
ATOM     15  O   UNL A   1      32.926  23.643  22.989  1.00  0.00    -0.248 OA
BRANCH  14  16
ATOM     16  N   UNL A   1      32.893  22.684  25.090  1.00  0.00    -0.315 N 
ATOM     17  C   UNL A   1      34.153  21.891  27.130  1.00  0.00     0.037 C 
ATOM     18  C   UNL A   1      34.251  22.509  25.708  1.00  0.00     0.062 C 
ATOM     19  C   UNL A   1      35.056  23.797  25.920  1.00  0.00     0.037 C 
ATOM     20  C   UNL A   1      34.993  21.509  24.785  1.00  0.00     0.188 C 
ATOM     21  O   UNL A   1      34.298  20.245  24.713  1.00  0.00    -0.377 OA
ATOM     22  C   UNL A   1      32.136  21.422  25.048  1.00  0.00     0.150 C 
ATOM     23  C   UNL A   1      32.943  20.397  24.231  1.00  0.00     0.182 C 
ENDBRANCH  14  16
ENDBRANCH   9  14
ENDBRANCH   7   8
ENDBRANCH   5   7
ENDBRANCH   4   5
ENDBRANCH   3   4
ENDBRANCH   2   3
ENDBRANCH   1   2
BRANCH   1  24
ATOM     24  C   UNL A   1      31.699  30.697  26.524  1.00  0.00     0.202 C 
BRANCH  24  25
ATOM     25  C   UNL A   1      31.457  32.150  26.964  1.00  0.00     0.261 C 
BRANCH  25  26
ATOM     26  O   UNL A   1      32.569  33.045  26.769  1.00  0.00    -0.460 OA
BRANCH  26  27
ATOM     27  C   UNL A   1      33.207  33.392  27.917  1.00  0.00     0.338 C 
ATOM     28  O   UNL A   1      32.771  34.105  28.805  1.00  0.00    -0.246 OA
BRANCH  27  29
ATOM     29  C   UNL A   1      34.507  32.706  28.058  1.00  0.00     0.060 A 
ATOM     30  C   UNL A   1      34.497  31.370  28.481  1.00  0.00     0.016 A 
ATOM     31  C   UNL A   1      35.702  33.426  28.014  1.00  0.00     0.016 A 
ATOM     32  C   UNL A   1      35.668  30.775  28.951  1.00  0.00     0.010 A 
ATOM     33  C   UNL A   1      36.875  32.829  28.491  1.00  0.00     0.010 A 
ATOM     34  C   UNL A   1      36.850  31.525  29.019  1.00  0.00    -0.014 A 
BRANCH  34  35
ATOM     35  C   UNL A   1      37.993  31.033  29.830  1.00  0.00     0.031 A 
ATOM     36  C   UNL A   1      38.933  30.022  29.217  1.00  0.00     0.074 A 
ATOM     37  C   UNL A   1      38.195  31.458  31.089  1.00  0.00     0.049 A 
ATOM     38  N   UNL A   1      39.940  29.390  29.760  1.00  0.00    -0.248 NA
ATOM     39  C   UNL A   1      38.701  29.679  27.803  1.00  0.00     0.031 C 
ATOM     40  C   UNL A   1      37.375  32.444  31.788  1.00  0.00     0.029 A 
ATOM     41  N   UNL A   1      39.141  31.087  32.012  1.00  0.00    -0.354 N 
ATOM     42  C   UNL A   1      40.437  28.548  28.771  1.00  0.00     0.074 A 
ATOM     43  C   UNL A   1      39.623  28.750  27.593  1.00  0.00     0.031 C 
ATOM     44  C   UNL A   1      37.832  32.574  33.047  1.00  0.00     0.029 A 
ATOM     45  C   UNL A   1      38.958  31.662  33.247  1.00  0.00     0.049 A 
ATOM     46  H   UNL A   1      39.880  30.468  31.810  1.00  0.00     0.167 HD
ATOM     47  C   UNL A   1      41.484  27.691  28.831  1.00  0.00     0.034 A 
ATOM     48  C   UNL A   1      39.606  31.455  34.412  1.00  0.00     0.034 A 
ATOM     49  C   UNL A   1      42.317  27.512  29.989  1.00  0.00     0.049 A 
ATOM     50  C   UNL A   1      40.757  30.482  34.458  1.00  0.00     0.074 A 
ATOM     51  C   UNL A   1      43.423  26.693  30.134  1.00  0.00     0.029 A 
ATOM     52  N   UNL A   1      42.136  28.161  31.199  1.00  0.00    -0.354 N 
ATOM     53  N   UNL A   1      41.278  29.772  33.487  1.00  0.00    -0.248 NA
ATOM     54  C   UNL A   1      41.430  30.304  35.755  1.00  0.00     0.031 C 
ATOM     55  C   UNL A   1      43.907  26.841  31.438  1.00  0.00     0.029 A 
ATOM     56  C   UNL A   1      43.109  27.761  32.098  1.00  0.00     0.049 A 
ATOM     57  H   UNL A   1      41.422  28.811  31.391  1.00  0.00     0.167 HD
ATOM     58  C   UNL A   1      42.362  29.099  34.044  1.00  0.00     0.074 A 
ATOM     59  C   UNL A   1      42.429  29.492  35.435  1.00  0.00     0.031 C 
ATOM     60  C   UNL A   1      43.214  28.223  33.458  1.00  0.00     0.034 A 
BRANCH  47  61
ATOM     61  C   UNL A   1      41.816  26.902  27.593  1.00  0.00     0.023 A 
ATOM     62  C   UNL A   1      42.384  27.561  26.485  1.00  0.00     0.012 A 
ATOM     63  C   UNL A   1      41.630  25.507  27.551  1.00  0.00     0.148 A 
ATOM     64  C   UNL A   1      42.740  26.846  25.342  1.00  0.00     0.002 A 
ATOM     65  C   UNL A   1      42.022  24.796  26.421  1.00  0.00     0.091 A 
ATOM     66  F   UNL A   1      41.066  24.902  28.606  1.00  0.00    -0.205 F 
ATOM     67  C   UNL A   1      42.570  25.464  25.315  1.00  0.00     0.022 A 
BRANCH  65  68
ATOM     68  S   UNL A   1      41.905  23.006  26.325  1.00  0.00     0.127 S 
ATOM     69  O   UNL A   1      42.645  22.597  27.518  1.00  0.00    -0.237 OA
ATOM     70  O   UNL A   1      40.461  22.782  26.399  1.00  0.00    -0.237 OA
ATOM     71  O   UNL A   1      42.508  22.635  25.053  1.00  0.00    -0.744 OA
ENDBRANCH  65  68
ENDBRANCH  47  61
BRANCH  48  72
ATOM     72  C   UNL A   1      39.206  32.218  35.629  1.00  0.00     0.023 A 
ATOM     73  C   UNL A   1      39.596  33.565  35.757  1.00  0.00     0.012 A 
ATOM     74  C   UNL A   1      38.430  31.626  36.645  1.00  0.00     0.148 A 
ATOM     75  C   UNL A   1      39.240  34.304  36.886  1.00  0.00     0.002 A 
ATOM     76  C   UNL A   1      38.036  32.383  37.742  1.00  0.00     0.091 A 
ATOM     77  F   UNL A   1      38.088  30.338  36.515  1.00  0.00    -0.205 F 
ATOM     78  C   UNL A   1      38.452  33.718  37.872  1.00  0.00     0.022 A 
BRANCH  76  79
ATOM     79  S   UNL A   1      36.921  31.751  39.002  1.00  0.00     0.127 S 
ATOM     80  O   UNL A   1      36.827  30.341  38.638  1.00  0.00    -0.237 OA
ATOM     81  O   UNL A   1      37.670  32.023  40.230  1.00  0.00    -0.237 OA
ATOM     82  O   UNL A   1      35.695  32.525  38.864  1.00  0.00    -0.744 OA
ENDBRANCH  76  79
ENDBRANCH  48  72
BRANCH  60  83
ATOM     83  C   UNL A   1      44.338  27.658  34.288  1.00  0.00     0.023 A 
ATOM     84  C   UNL A   1      45.527  28.395  34.447  1.00  0.00     0.012 A 
ATOM     85  C   UNL A   1      44.166  26.454  35.000  1.00  0.00     0.148 A 
ATOM     86  C   UNL A   1      46.537  27.935  35.291  1.00  0.00     0.002 A 
ATOM     87  C   UNL A   1      45.160  26.023  35.872  1.00  0.00     0.091 A 
ATOM     88  F   UNL A   1      43.033  25.761  34.821  1.00  0.00    -0.205 F 
ATOM     89  C   UNL A   1      46.348  26.758  36.014  1.00  0.00     0.022 A 
BRANCH  87  90
ATOM     90  S   UNL A   1      44.963  24.569  36.911  1.00  0.00     0.127 S 
ATOM     91  O   UNL A   1      43.870  24.980  37.792  1.00  0.00    -0.237 OA
ATOM     92  O   UNL A   1      44.606  23.537  35.938  1.00  0.00    -0.237 OA
ATOM     93  O   UNL A   1      46.250  24.366  37.564  1.00  0.00    -0.744 OA
ENDBRANCH  87  90
ENDBRANCH  60  83
ENDBRANCH  34  35
ENDBRANCH  27  29
ENDBRANCH  26  27
ENDBRANCH  25  26
ENDBRANCH  24  25
ENDBRANCH   1  24
TORSDOF 20
ENDMDL
MODEL 2
REMARK VINA RESULT:     -11.1      1.561      1.933
REMARK SMILES CC1(C)COCCN1C(=O)N1CCO[C@@H](CC(=O)OCCOCCOC(=O)c2ccc(-c3c4nc(c(-c5cccc(S(=O)(=O)[O-])c5F)c5ccc([nH]5)c(-c5cccc(S(=O)(=O)[O-])c5F)c5nc(c(-c6cccc(S(=O)(=O)[O-])c6F)c6ccc3[nH]6)C=C5)C=C4)cc2)C1
REMARK SMILES IDX 22 1 21 2 20 3 19 4 17 5 18 6 16 7 15 8 11 9 12 10 91 11
REMARK SMILES IDX 13 12 14 13 9 14 10 15 8 16 1 17 2 18 3 19 4 20 5 21 7 22
REMARK SMILES IDX 6 23 23 24 24 25 25 26 26 27 27 28 28 29 29 30 90 31 30 32
REMARK SMILES IDX 89 33 31 34 32 35 33 36 83 37 34 38 88 39 82 40 84 41 35 42
REMARK SMILES IDX 87 43 81 44 80 45 36 47 68 48 48 49 67 50 49 51 52 52 66 53
REMARK SMILES IDX 85 54 50 55 51 56 65 58 86 59 53 60 37 61 38 62 46 63 39 64
REMARK SMILES IDX 41 65 47 66 40 67 42 68 43 69 44 70 45 71 69 72 70 73 78 74
REMARK SMILES IDX 71 75 73 76 79 77 72 78 74 79 75 80 76 81 77 82 54 83 55 84
REMARK SMILES IDX 63 85 56 86 58 87 64 88 57 89 59 90 60 91 61 92 62 93
REMARK H PARENT 84 46 52 57
REMARK Flexibility Score: inf
ROOT
ATOM      1  O   UNL A   1      34.032  28.753  24.595  1.00  0.00    -0.374 OA
ENDROOT
BRANCH   1   2
ATOM      2  C   UNL A   1      33.788  28.996  23.212  1.00  0.00     0.202 C 
BRANCH   2   3
ATOM      3  C   UNL A   1      32.711  28.143  22.539  1.00  0.00     0.261 C 
BRANCH   3   4
ATOM      4  O   UNL A   1      31.503  28.895  22.316  1.00  0.00    -0.463 OA
BRANCH   4   5
ATOM      5  C   UNL A   1      30.357  28.313  22.748  1.00  0.00     0.308 C 
ATOM      6  O   UNL A   1      29.254  28.483  22.242  1.00  0.00    -0.252 OA
BRANCH   5   7
ATOM      7  C   UNL A   1      30.587  27.316  23.854  1.00  0.00     0.156 C 
BRANCH   7   8
ATOM      8  C   UNL A   1      29.776  26.018  23.841  1.00  0.00     0.149 C 
ATOM      9  N   UNL A   1      31.387  24.210  24.459  1.00  0.00    -0.320 N 
ATOM     10  C   UNL A   1      30.708  24.059  25.741  1.00  0.00     0.150 C 
ATOM     11  C   UNL A   1      30.486  24.715  23.431  1.00  0.00     0.154 C 
ATOM     12  C   UNL A   1      30.015  25.355  26.154  1.00  0.00     0.182 C 
ATOM     13  O   UNL A   1      29.128  25.851  25.132  1.00  0.00    -0.374 OA
BRANCH   9  14
ATOM     14  C   UNL A   1      32.148  23.122  24.079  1.00  0.00     0.320 C 
ATOM     15  O   UNL A   1      32.355  22.927  22.883  1.00  0.00    -0.248 OA
BRANCH  14  16
ATOM     16  N   UNL A   1      32.700  22.345  25.092  1.00  0.00    -0.315 N 
ATOM     17  C   UNL A   1      34.049  21.916  27.183  1.00  0.00     0.037 C 
ATOM     18  C   UNL A   1      34.058  22.454  25.725  1.00  0.00     0.062 C 
ATOM     19  C   UNL A   1      34.617  23.876  25.860  1.00  0.00     0.037 C 
ATOM     20  C   UNL A   1      34.980  21.548  24.870  1.00  0.00     0.188 C 
ATOM     21  O   UNL A   1      34.523  20.179  24.874  1.00  0.00    -0.377 OA
ATOM     22  C   UNL A   1      32.180  20.968  25.125  1.00  0.00     0.150 C 
ATOM     23  C   UNL A   1      33.171  20.056  24.378  1.00  0.00     0.182 C 
ENDBRANCH  14  16
ENDBRANCH   9  14
ENDBRANCH   7   8
ENDBRANCH   5   7
ENDBRANCH   4   5
ENDBRANCH   3   4
ENDBRANCH   2   3
ENDBRANCH   1   2
BRANCH   1  24
ATOM     24  C   UNL A   1      32.943  28.864  25.506  1.00  0.00     0.202 C 
BRANCH  24  25
ATOM     25  C   UNL A   1      32.479  30.267  25.930  1.00  0.00     0.261 C 
BRANCH  25  26
ATOM     26  O   UNL A   1      32.678  30.585  27.322  1.00  0.00    -0.460 OA
BRANCH  26  27
ATOM     27  C   UNL A   1      33.486  31.657  27.533  1.00  0.00     0.338 C 
ATOM     28  O   UNL A   1      33.138  32.821  27.636  1.00  0.00    -0.246 OA
BRANCH  27  29
ATOM     29  C   UNL A   1      34.891  31.258  27.748  1.00  0.00     0.060 A 
ATOM     30  C   UNL A   1      35.150  29.910  28.035  1.00  0.00     0.016 A 
ATOM     31  C   UNL A   1      35.889  32.220  27.907  1.00  0.00     0.016 A 
ATOM     32  C   UNL A   1      36.382  29.532  28.570  1.00  0.00     0.010 A 
ATOM     33  C   UNL A   1      37.123  31.840  28.449  1.00  0.00     0.010 A 
ATOM     34  C   UNL A   1      37.351  30.507  28.840  1.00  0.00    -0.014 A 
BRANCH  34  35
ATOM     35  C   UNL A   1      38.503  30.182  29.720  1.00  0.00     0.031 A 
ATOM     36  C   UNL A   1      39.530  29.190  29.230  1.00  0.00     0.074 A 
ATOM     37  C   UNL A   1      38.638  30.740  30.936  1.00  0.00     0.049 A 
ATOM     38  N   UNL A   1      40.564  28.689  29.854  1.00  0.00    -0.248 NA
ATOM     39  C   UNL A   1      39.364  28.696  27.851  1.00  0.00     0.031 C 
ATOM     40  C   UNL A   1      37.730  31.725  31.517  1.00  0.00     0.029 A 
ATOM     41  N   UNL A   1      39.582  30.530  31.911  1.00  0.00    -0.354 N 
ATOM     42  C   UNL A   1      41.148  27.795  28.963  1.00  0.00     0.074 A 
ATOM     43  C   UNL A   1      40.356  27.822  27.753  1.00  0.00     0.031 C 
ATOM     44  C   UNL A   1      38.140  32.009  32.766  1.00  0.00     0.029 A 
ATOM     45  C   UNL A   1      39.322  31.206  33.079  1.00  0.00     0.049 A 
ATOM     46  H   UNL A   1      40.368  29.952  31.786  1.00  0.00     0.167 HD
ATOM     47  C   UNL A   1      42.252  27.028  29.129  1.00  0.00     0.034 A 
ATOM     48  C   UNL A   1      39.950  31.161  34.272  1.00  0.00     0.034 A 
ATOM     49  C   UNL A   1      43.063  27.024  30.315  1.00  0.00     0.049 A 
ATOM     50  C   UNL A   1      41.166  30.286  34.438  1.00  0.00     0.074 A 
ATOM     51  C   UNL A   1      44.220  26.307  30.564  1.00  0.00     0.029 A 
ATOM     52  N   UNL A   1      42.801  27.770  31.452  1.00  0.00    -0.354 N 
ATOM     53  N   UNL A   1      41.765  29.525  33.553  1.00  0.00    -0.248 NA
ATOM     54  C   UNL A   1      41.813  30.284  35.760  1.00  0.00     0.031 C 
ATOM     55  C   UNL A   1      44.654  26.615  31.857  1.00  0.00     0.029 A 
ATOM     56  C   UNL A   1      43.774  27.532  32.407  1.00  0.00     0.049 A 
ATOM     57  H   UNL A   1      42.036  28.381  31.565  1.00  0.00     0.167 HD
ATOM     58  C   UNL A   1      42.878  28.992  34.196  1.00  0.00     0.074 A 
ATOM     59  C   UNL A   1      42.877  29.520  35.543  1.00  0.00     0.031 C 
ATOM     60  C   UNL A   1      43.807  28.130  33.717  1.00  0.00     0.034 A 
BRANCH  47  61
ATOM     61  C   UNL A   1      42.675  26.151  27.981  1.00  0.00     0.023 A 
ATOM     62  C   UNL A   1      43.694  26.592  27.113  1.00  0.00     0.012 A 
ATOM     63  C   UNL A   1      42.117  24.871  27.802  1.00  0.00     0.148 A 
ATOM     64  C   UNL A   1      44.134  25.780  26.068  1.00  0.00     0.002 A 
ATOM     65  C   UNL A   1      42.587  24.053  26.781  1.00  0.00     0.091 A 
ATOM     66  F   UNL A   1      41.132  24.480  28.624  1.00  0.00    -0.205 F 
ATOM     67  C   UNL A   1      43.589  24.508  25.909  1.00  0.00     0.022 A 
BRANCH  65  68
ATOM     68  S   UNL A   1      41.993  22.374  26.544  1.00  0.00     0.127 S 
ATOM     69  O   UNL A   1      40.558  22.589  26.376  1.00  0.00    -0.237 OA
ATOM     70  O   UNL A   1      42.694  21.962  25.327  1.00  0.00    -0.237 OA
ATOM     71  O   UNL A   1      42.384  21.641  27.741  1.00  0.00    -0.744 OA
ENDBRANCH  65  68
ENDBRANCH  47  61
BRANCH  48  72
ATOM     72  C   UNL A   1      39.462  32.005  35.400  1.00  0.00     0.023 A 
ATOM     73  C   UNL A   1      38.565  31.453  36.335  1.00  0.00     0.012 A 
ATOM     74  C   UNL A   1      39.892  33.337  35.562  1.00  0.00     0.148 A 
ATOM     75  C   UNL A   1      38.087  32.219  37.400  1.00  0.00     0.002 A 
ATOM     76  C   UNL A   1      39.452  34.077  36.653  1.00  0.00     0.091 A 
ATOM     77  F   UNL A   1      40.728  33.849  34.649  1.00  0.00    -0.205 F 
ATOM     78  C   UNL A   1      38.538  33.525  37.565  1.00  0.00     0.022 A 
BRANCH  76  79
ATOM     79  S   UNL A   1      40.072  35.724  37.016  1.00  0.00     0.127 S 
ATOM     80  O   UNL A   1      41.510  35.490  37.106  1.00  0.00    -0.237 OA
ATOM     81  O   UNL A   1      39.642  36.474  35.834  1.00  0.00    -0.237 OA
ATOM     82  O   UNL A   1      39.415  36.126  38.252  1.00  0.00    -0.744 OA
ENDBRANCH  76  79
ENDBRANCH  48  72
BRANCH  60  83
ATOM     83  C   UNL A   1      44.944  27.732  34.622  1.00  0.00     0.023 A 
ATOM     84  C   UNL A   1      46.107  28.524  34.672  1.00  0.00     0.012 A 
ATOM     85  C   UNL A   1      44.809  26.641  35.504  1.00  0.00     0.148 A 
ATOM     86  C   UNL A   1      47.126  28.229  35.575  1.00  0.00     0.002 A 
ATOM     87  C   UNL A   1      45.812  26.377  36.431  1.00  0.00     0.091 A 
ATOM     88  F   UNL A   1      43.701  25.890  35.428  1.00  0.00    -0.205 F 
ATOM     89  C   UNL A   1      46.973  27.166  36.463  1.00  0.00     0.022 A 
BRANCH  87  90
ATOM     90  S   UNL A   1      45.658  25.086  37.672  1.00  0.00     0.127 S 
ATOM     91  O   UNL A   1      46.318  23.960  37.014  1.00  0.00    -0.237 OA
ATOM     92  O   UNL A   1      46.396  25.651  38.803  1.00  0.00    -0.237 OA
ATOM     93  O   UNL A   1      44.229  24.924  37.906  1.00  0.00    -0.744 OA
ENDBRANCH  87  90
ENDBRANCH  60  83
ENDBRANCH  34  35
ENDBRANCH  27  29
ENDBRANCH  26  27
ENDBRANCH  25  26
ENDBRANCH  24  25
ENDBRANCH   1  24
TORSDOF 20
ENDMDL
MODEL 3
REMARK VINA RESULT:     -11.0      1.567      7.580
REMARK SMILES CC1(C)COCCN1C(=O)N1CCO[C@@H](CC(=O)OCCOCCOC(=O)c2ccc(-c3c4nc(c(-c5cccc(S(=O)(=O)[O-])c5F)c5ccc([nH]5)c(-c5cccc(S(=O)(=O)[O-])c5F)c5nc(c(-c6cccc(S(=O)(=O)[O-])c6F)c6ccc3[nH]6)C=C5)C=C4)cc2)C1
REMARK SMILES IDX 22 1 21 2 20 3 19 4 17 5 18 6 16 7 15 8 11 9 12 10 91 11
REMARK SMILES IDX 13 12 14 13 9 14 10 15 8 16 1 17 2 18 3 19 4 20 5 21 7 22
REMARK SMILES IDX 6 23 23 24 24 25 25 26 26 27 27 28 28 29 29 30 90 31 30 32
REMARK SMILES IDX 89 33 31 34 32 35 33 36 83 37 34 38 88 39 82 40 84 41 35 42
REMARK SMILES IDX 87 43 81 44 80 45 36 47 68 48 48 49 67 50 49 51 52 52 66 53
REMARK SMILES IDX 85 54 50 55 51 56 65 58 86 59 53 60 37 61 38 62 46 63 39 64
REMARK SMILES IDX 41 65 47 66 40 67 42 68 43 69 44 70 45 71 69 72 70 73 78 74
REMARK SMILES IDX 71 75 73 76 79 77 72 78 74 79 75 80 76 81 77 82 54 83 55 84
REMARK SMILES IDX 63 85 56 86 58 87 64 88 57 89 59 90 60 91 61 92 62 93
REMARK H PARENT 84 46 52 57
REMARK Flexibility Score: inf
ROOT
ATOM      1  O   UNL A   1      31.234  30.731  26.470  1.00  0.00    -0.374 OA
ENDROOT
BRANCH   1   2
ATOM      2  C   UNL A   1      32.353  29.958  26.894  1.00  0.00     0.202 C 
BRANCH   2   3
ATOM      3  C   UNL A   1      32.972  29.013  25.862  1.00  0.00     0.261 C 
BRANCH   3   4
ATOM      4  O   UNL A   1      33.016  29.614  24.554  1.00  0.00    -0.463 OA
BRANCH   4   5
ATOM      5  C   UNL A   1      33.129  28.754  23.512  1.00  0.00     0.308 C 
ATOM      6  O   UNL A   1      33.641  29.027  22.433  1.00  0.00    -0.252 OA
BRANCH   5   7
ATOM      7  C   UNL A   1      32.672  27.358  23.852  1.00  0.00     0.156 C 
BRANCH   7   8
ATOM      8  C   UNL A   1      32.068  26.500  22.738  1.00  0.00     0.149 C 
ATOM      9  N   UNL A   1      32.132  24.151  23.587  1.00  0.00    -0.320 N 
ATOM     10  C   UNL A   1      30.678  24.166  23.707  1.00  0.00     0.150 C 
ATOM     11  C   UNL A   1      32.595  25.066  22.551  1.00  0.00     0.154 C 
ATOM     12  C   UNL A   1      30.157  25.588  23.905  1.00  0.00     0.182 C 
ATOM     13  O   UNL A   1      30.622  26.489  22.880  1.00  0.00    -0.374 OA
BRANCH   9  14
ATOM     14  C   UNL A   1      32.691  22.889  23.537  1.00  0.00     0.320 C 
ATOM     15  O   UNL A   1      32.969  22.402  22.443  1.00  0.00    -0.248 OA
BRANCH  14  16
ATOM     16  N   UNL A   1      32.976  22.269  24.749  1.00  0.00    -0.315 N 
ATOM     17  C   UNL A   1      34.199  21.950  26.935  1.00  0.00     0.037 C 
ATOM     18  C   UNL A   1      34.314  22.023  25.387  1.00  0.00     0.062 C 
ATOM     19  C   UNL A   1      35.374  23.105  25.146  1.00  0.00     0.037 C 
ATOM     20  C   UNL A   1      34.769  20.640  24.859  1.00  0.00     0.188 C 
ATOM     21  O   UNL A   1      33.831  19.604  25.222  1.00  0.00    -0.377 OA
ATOM     22  C   UNL A   1      31.980  21.258  25.140  1.00  0.00     0.150 C 
ATOM     23  C   UNL A   1      32.503  19.872  24.720  1.00  0.00     0.182 C 
ENDBRANCH  14  16
ENDBRANCH   9  14
ENDBRANCH   7   8
ENDBRANCH   5   7
ENDBRANCH   4   5
ENDBRANCH   3   4
ENDBRANCH   2   3
ENDBRANCH   1   2
BRANCH   1  24
ATOM     24  C   UNL A   1      31.315  32.150  26.560  1.00  0.00     0.202 C 
BRANCH  24  25
ATOM     25  C   UNL A   1      32.627  32.782  27.053  1.00  0.00     0.261 C 
BRANCH  25  26
ATOM     26  O   UNL A   1      32.472  33.890  27.962  1.00  0.00    -0.460 OA
BRANCH  26  27
ATOM     27  C   UNL A   1      33.646  34.448  28.357  1.00  0.00     0.338 C 
ATOM     28  O   UNL A   1      33.817  35.597  28.726  1.00  0.00    -0.246 OA
BRANCH  27  29
ATOM     29  C   UNL A   1      34.740  33.458  28.410  1.00  0.00     0.060 A 
ATOM     30  C   UNL A   1      34.455  32.199  28.957  1.00  0.00     0.016 A 
ATOM     31  C   UNL A   1      36.059  33.840  28.159  1.00  0.00     0.016 A 
ATOM     32  C   UNL A   1      35.495  31.351  29.340  1.00  0.00     0.010 A 
ATOM     33  C   UNL A   1      37.100  32.989  28.549  1.00  0.00     0.010 A 
ATOM     34  C   UNL A   1      36.823  31.771  29.198  1.00  0.00    -0.014 A 
BRANCH  34  35
ATOM     35  C   UNL A   1      37.909  31.051  29.913  1.00  0.00     0.031 A 
ATOM     36  C   UNL A   1      38.211  31.431  31.342  1.00  0.00     0.074 A 
ATOM     37  C   UNL A   1      38.625  30.086  29.310  1.00  0.00     0.049 A 
ATOM     38  N   UNL A   1      39.163  31.005  32.131  1.00  0.00    -0.248 NA
ATOM     39  C   UNL A   1      37.320  32.428  31.961  1.00  0.00     0.031 C 
ATOM     40  C   UNL A   1      38.421  29.612  27.944  1.00  0.00     0.029 A 
ATOM     41  N   UNL A   1      39.693  29.354  29.768  1.00  0.00    -0.354 N 
ATOM     42  C   UNL A   1      39.011  31.706  33.322  1.00  0.00     0.074 A 
ATOM     43  C   UNL A   1      37.874  32.585  33.155  1.00  0.00     0.031 C 
ATOM     44  C   UNL A   1      39.360  28.691  27.660  1.00  0.00     0.029 A 
ATOM     45  C   UNL A   1      40.244  28.533  28.814  1.00  0.00     0.049 A 
ATOM     46  H   UNL A   1      40.032  29.412  30.690  1.00  0.00     0.167 HD
ATOM     47  C   UNL A   1      39.742  31.620  34.458  1.00  0.00     0.034 A 
ATOM     48  C   UNL A   1      41.351  27.762  28.858  1.00  0.00     0.034 A 
ATOM     49  C   UNL A   1      40.851  30.724  34.640  1.00  0.00     0.049 A 
ATOM     50  C   UNL A   1      42.159  27.696  30.129  1.00  0.00     0.074 A 
ATOM     51  C   UNL A   1      41.631  30.540  35.768  1.00  0.00     0.029 A 
ATOM     52  N   UNL A   1      41.337  29.862  33.671  1.00  0.00    -0.354 N 
ATOM     53  N   UNL A   1      41.942  28.288  31.278  1.00  0.00    -0.248 NA
ATOM     54  C   UNL A   1      43.351  26.834  30.119  1.00  0.00     0.031 C 
ATOM     55  C   UNL A   1      42.597  29.570  35.477  1.00  0.00     0.029 A 
ATOM     56  C   UNL A   1      42.407  29.144  34.172  1.00  0.00     0.049 A 
ATOM     57  H   UNL A   1      40.974  29.774  32.759  1.00  0.00     0.167 HD
ATOM     58  C   UNL A   1      42.940  27.837  32.137  1.00  0.00     0.074 A 
ATOM     59  C   UNL A   1      43.760  26.916  31.379  1.00  0.00     0.031 C 
ATOM     60  C   UNL A   1      43.164  28.168  33.432  1.00  0.00     0.034 A 
BRANCH  47  61
ATOM     61  C   UNL A   1      39.345  32.496  35.616  1.00  0.00     0.023 A 
ATOM     62  C   UNL A   1      38.521  31.969  36.631  1.00  0.00     0.012 A 
ATOM     63  C   UNL A   1      39.837  33.810  35.734  1.00  0.00     0.148 A 
ATOM     64  C   UNL A   1      38.174  32.746  37.734  1.00  0.00     0.002 A 
ATOM     65  C   UNL A   1      39.515  34.566  36.856  1.00  0.00     0.091 A 
ATOM     66  F   UNL A   1      40.599  34.301  34.745  1.00  0.00    -0.205 F 
ATOM     67  C   UNL A   1      38.679  34.039  37.852  1.00  0.00     0.022 A 
BRANCH  65  68
ATOM     68  S   UNL A   1      40.178  36.214  37.126  1.00  0.00     0.127 S 
ATOM     69  O   UNL A   1      39.910  36.854  35.839  1.00  0.00    -0.237 OA
ATOM     70  O   UNL A   1      39.355  36.705  38.233  1.00  0.00    -0.237 OA
ATOM     71  O   UNL A   1      41.584  36.029  37.457  1.00  0.00    -0.744 OA
ENDBRANCH  65  68
ENDBRANCH  47  61
BRANCH  48  72
ATOM     72  C   UNL A   1      41.740  26.953  27.667  1.00  0.00     0.023 A 
ATOM     73  C   UNL A   1      42.340  27.594  26.566  1.00  0.00     0.012 A 
ATOM     74  C   UNL A   1      41.538  25.560  27.627  1.00  0.00     0.148 A 
ATOM     75  C   UNL A   1      42.712  26.866  25.435  1.00  0.00     0.002 A 
ATOM     76  C   UNL A   1      41.958  24.833  26.519  1.00  0.00     0.091 A 
ATOM     77  F   UNL A   1      40.946  24.973  28.675  1.00  0.00    -0.205 F 
ATOM     78  C   UNL A   1      42.531  25.486  25.415  1.00  0.00     0.022 A 
BRANCH  76  79
ATOM     79  S   UNL A   1      41.878  23.039  26.453  1.00  0.00     0.127 S 
ATOM     80  O   UNL A   1      42.291  22.771  25.079  1.00  0.00    -0.237 OA
ATOM     81  O   UNL A   1      42.853  22.657  27.476  1.00  0.00    -0.237 OA
ATOM     82  O   UNL A   1      40.501  22.696  26.780  1.00  0.00    -0.744 OA
ENDBRANCH  76  79
ENDBRANCH  48  72
BRANCH  60  83
ATOM     83  C   UNL A   1      44.308  27.500  34.150  1.00  0.00     0.023 A 
ATOM     84  C   UNL A   1      45.566  28.129  34.198  1.00  0.00     0.012 A 
ATOM     85  C   UNL A   1      44.100  26.307  34.873  1.00  0.00     0.148 A 
ATOM     86  C   UNL A   1      46.607  27.575  34.941  1.00  0.00     0.002 A 
ATOM     87  C   UNL A   1      45.131  25.783  35.646  1.00  0.00     0.091 A 
ATOM     88  F   UNL A   1      42.899  25.716  34.800  1.00  0.00    -0.205 F 
ATOM     89  C   UNL A   1      46.385  26.411  35.676  1.00  0.00     0.022 A 
BRANCH  87  90
ATOM     90  S   UNL A   1      44.906  24.340  36.695  1.00  0.00     0.127 S 
ATOM     91  O   UNL A   1      43.876  24.806  37.623  1.00  0.00    -0.237 OA
ATOM     92  O   UNL A   1      44.455  23.327  35.740  1.00  0.00    -0.237 OA
ATOM     93  O   UNL A   1      46.209  24.071  37.290  1.00  0.00    -0.744 OA
ENDBRANCH  87  90
ENDBRANCH  60  83
ENDBRANCH  34  35
ENDBRANCH  27  29
ENDBRANCH  26  27
ENDBRANCH  25  26
ENDBRANCH  24  25
ENDBRANCH   1  24
TORSDOF 20
ENDMDL
