MODEL 1
REMARK VINA RESULT:      -9.8      0.000      0.000
REMARK SMILES Cc1c(I)cccc1[C@H]([NH3+])C(=O)OCCOCCOC(=O)c1ccc(-c2c3nc(c(-c4cccc(S(=O)(=O)[O-])c4F)c4ccc([nH]4)c(-c4cccc(S(=O)(=O)[O-])c4F)c4nc(c(-c5cccc(S(=O)(=O)[O-])c5F)c5ccc2[nH]5)C=C4)C=C3)cc1
REMARK SMILES IDX 17 1 16 2 15 3 14 4 13 5 11 6 12 7 9 8 8 9 1 10 2 11 3 12
REMARK SMILES IDX 4 13 5 14 7 15 6 16 10 17 18 21 19 22 20 23 21 24 22 25
REMARK SMILES IDX 23 26 84 27 24 28 83 29 25 30 26 31 27 32 77 33 28 34 82 35
REMARK SMILES IDX 76 36 78 37 29 38 81 39 75 40 74 41 30 43 62 44 42 45 61 46
REMARK SMILES IDX 43 47 46 48 60 49 79 50 44 51 45 52 59 54 80 55 47 56 31 57
REMARK SMILES IDX 32 58 40 59 33 60 35 61 41 62 34 63 36 64 37 65 38 66 39 67
REMARK SMILES IDX 63 68 64 69 72 70 65 71 67 72 73 73 66 74 68 75 69 76 70 77
REMARK SMILES IDX 71 78 48 79 49 80 57 81 50 82 52 83 58 84 51 85 53 86 54 87
REMARK SMILES IDX 55 88 56 89
REMARK H PARENT 10 18 10 19 10 20 78 42 46 53
REMARK Flexibility Score: inf
ROOT
ATOM      1  C   UNL A   1      41.740  19.692  26.585  1.00  0.00     0.202 C 
ENDROOT
BRANCH   1   2
ATOM      2  O   UNL A   1      42.327  19.324  25.337  1.00  0.00    -0.374 OA
BRANCH   2   3
ATOM      3  C   UNL A   1      43.668  18.837  25.380  1.00  0.00     0.202 C 
BRANCH   3   4
ATOM      4  C   UNL A   1      44.590  19.248  24.229  1.00  0.00     0.261 C 
BRANCH   4   5
ATOM      5  O   UNL A   1      44.528  20.652  23.927  1.00  0.00    -0.459 OA
BRANCH   5   6
ATOM      6  C   UNL A   1      45.121  21.473  24.837  1.00  0.00     0.369 C 
ATOM      7  O   UNL A   1      46.204  21.255  25.374  1.00  0.00    -0.245 OA
BRANCH   6   8
ATOM      8  C   UNL A   1      44.304  22.752  25.116  1.00  0.00     0.323 C 
BRANCH   8   9
ATOM      9  C   UNL A   1      44.502  23.311  26.533  1.00  0.00     0.025 A 
ATOM     10  C   UNL A   1      46.489  24.750  25.801  1.00  0.00     0.046 C 
ATOM     11  C   UNL A   1      45.561  24.210  26.863  1.00  0.00    -0.028 A 
ATOM     12  C   UNL A   1      45.748  24.567  28.218  1.00  0.00     0.016 A 
ATOM     13  I   UNL A   1      47.425  25.642  28.915  1.00  0.00    -0.044 I 
ATOM     14  C   UNL A   1      44.830  24.183  29.200  1.00  0.00     0.015 A 
ATOM     15  C   UNL A   1      43.579  22.969  27.547  1.00  0.00     0.011 A 
ATOM     16  C   UNL A   1      43.729  23.414  28.857  1.00  0.00     0.002 A 
ENDBRANCH   8   9
BRANCH   8  17
ATOM     17  N   UNL A   1      42.883  22.505  24.749  1.00  0.00    -0.342 N 
ATOM     18  H   UNL A   1      42.583  23.199  24.063  1.00  0.00     0.345 HD
ATOM     19  H   UNL A   1      42.298  22.576  25.582  1.00  0.00     0.345 HD
ATOM     20  H   UNL A   1      42.793  21.571  24.349  1.00  0.00     0.345 HD
ENDBRANCH   8  17
ENDBRANCH   6   8
ENDBRANCH   5   6
ENDBRANCH   4   5
ENDBRANCH   3   4
ENDBRANCH   2   3
ENDBRANCH   1   2
BRANCH   1  21
ATOM     21  C   UNL A   1      40.386  20.403  26.519  1.00  0.00     0.261 C 
BRANCH  21  22
ATOM     22  O   UNL A   1      40.511  21.794  26.856  1.00  0.00    -0.460 OA
BRANCH  22  23
ATOM     23  C   UNL A   1      39.459  22.573  26.502  1.00  0.00     0.338 C 
ATOM     24  O   UNL A   1      38.392  22.198  26.043  1.00  0.00    -0.246 OA
BRANCH  23  25
ATOM     25  C   UNL A   1      39.708  23.953  26.969  1.00  0.00     0.060 A 
ATOM     26  C   UNL A   1      39.492  24.328  28.296  1.00  0.00     0.016 A 
ATOM     27  C   UNL A   1      40.164  24.891  26.032  1.00  0.00     0.016 A 
ATOM     28  C   UNL A   1      39.766  25.641  28.689  1.00  0.00     0.010 A 
ATOM     29  C   UNL A   1      40.432  26.201  26.426  1.00  0.00     0.010 A 
ATOM     30  C   UNL A   1      40.254  26.581  27.763  1.00  0.00    -0.014 A 
BRANCH  30  31
ATOM     31  C   UNL A   1      40.723  27.908  28.226  1.00  0.00     0.031 A 
ATOM     32  C   UNL A   1      42.174  28.287  28.207  1.00  0.00     0.074 A 
ATOM     33  C   UNL A   1      39.807  28.769  28.709  1.00  0.00     0.049 A 
ATOM     34  N   UNL A   1      42.721  29.433  28.522  1.00  0.00    -0.248 NA
ATOM     35  C   UNL A   1      43.136  27.256  27.786  1.00  0.00     0.031 C 
ATOM     36  C   UNL A   1      38.377  28.483  28.841  1.00  0.00     0.029 A 
ATOM     37  N   UNL A   1      39.936  30.049  29.183  1.00  0.00    -0.354 N 
ATOM     38  C   UNL A   1      44.087  29.266  28.346  1.00  0.00     0.074 A 
ATOM     39  C   UNL A   1      44.291  27.899  27.913  1.00  0.00     0.031 C 
ATOM     40  C   UNL A   1      37.758  29.561  29.343  1.00  0.00     0.029 A 
ATOM     41  C   UNL A   1      38.747  30.607  29.587  1.00  0.00     0.049 A 
ATOM     42  H   UNL A   1      40.797  30.524  29.229  1.00  0.00     0.167 HD
ATOM     43  C   UNL A   1      45.073  30.179  28.509  1.00  0.00     0.034 A 
ATOM     44  C   UNL A   1      38.476  31.826  30.092  1.00  0.00     0.034 A 
ATOM     45  C   UNL A   1      44.861  31.540  28.926  1.00  0.00     0.049 A 
ATOM     46  C   UNL A   1      39.586  32.821  30.251  1.00  0.00     0.074 A 
ATOM     47  C   UNL A   1      45.799  32.552  29.052  1.00  0.00     0.029 A 
ATOM     48  N   UNL A   1      43.640  32.079  29.298  1.00  0.00    -0.354 N 
ATOM     49  N   UNL A   1      40.854  32.688  29.947  1.00  0.00    -0.248 NA
ATOM     50  C   UNL A   1      39.231  34.141  30.793  1.00  0.00     0.031 C 
ATOM     51  C   UNL A   1      45.146  33.697  29.519  1.00  0.00     0.029 A 
ATOM     52  C   UNL A   1      43.800  33.405  29.662  1.00  0.00     0.049 A 
ATOM     53  H   UNL A   1      42.785  31.591  29.302  1.00  0.00     0.167 HD
ATOM     54  C   UNL A   1      41.446  33.910  30.239  1.00  0.00     0.074 A 
ATOM     55  C   UNL A   1      40.395  34.778  30.733  1.00  0.00     0.031 C 
ATOM     56  C   UNL A   1      42.745  34.273  30.114  1.00  0.00     0.034 A 
BRANCH  43  57
ATOM     57  C   UNL A   1      46.483  29.773  28.177  1.00  0.00     0.023 A 
ATOM     58  C   UNL A   1      46.900  29.791  26.833  1.00  0.00     0.012 A 
ATOM     59  C   UNL A   1      47.423  29.511  29.194  1.00  0.00     0.148 A 
ATOM     60  C   UNL A   1      48.233  29.551  26.500  1.00  0.00     0.002 A 
ATOM     61  C   UNL A   1      48.756  29.300  28.857  1.00  0.00     0.091 A 
ATOM     62  F   UNL A   1      47.000  29.495  30.465  1.00  0.00    -0.205 F 
ATOM     63  C   UNL A   1      49.160  29.317  27.513  1.00  0.00     0.022 A 
BRANCH  61  64
ATOM     64  S   UNL A   1      50.043  29.044  30.083  1.00  0.00     0.127 S 
ATOM     65  O   UNL A   1      51.107  28.452  29.273  1.00  0.00    -0.237 OA
ATOM     66  O   UNL A   1      50.309  30.408  30.538  1.00  0.00    -0.237 OA
ATOM     67  O   UNL A   1      49.472  28.160  31.091  1.00  0.00    -0.744 OA
ENDBRANCH  61  64
ENDBRANCH  43  57
BRANCH  44  68
ATOM     68  C   UNL A   1      37.067  32.179  30.410  1.00  0.00     0.023 A 
ATOM     69  C   UNL A   1      36.589  31.990  31.720  1.00  0.00     0.012 A 
ATOM     70  C   UNL A   1      36.233  32.774  29.445  1.00  0.00     0.148 A 
ATOM     71  C   UNL A   1      35.297  32.386  32.065  1.00  0.00     0.002 A 
ATOM     72  C   UNL A   1      34.960  33.200  29.805  1.00  0.00     0.091 A 
ATOM     73  F   UNL A   1      36.717  32.943  28.207  1.00  0.00    -0.205 F 
ATOM     74  C   UNL A   1      34.487  32.999  31.112  1.00  0.00     0.022 A 
BRANCH  72  75
ATOM     75  S   UNL A   1      33.878  34.084  28.677  1.00  0.00     0.127 S 
ATOM     76  O   UNL A   1      34.779  35.097  28.132  1.00  0.00    -0.237 OA
ATOM     77  O   UNL A   1      33.499  33.027  27.739  1.00  0.00    -0.237 OA
ATOM     78  O   UNL A   1      32.786  34.595  29.492  1.00  0.00    -0.744 OA
ENDBRANCH  72  75
ENDBRANCH  44  68
BRANCH  56  79
ATOM     79  C   UNL A   1      43.131  35.673  30.501  1.00  0.00     0.023 A 
ATOM     80  C   UNL A   1      43.538  35.939  31.822  1.00  0.00     0.012 A 
ATOM     81  C   UNL A   1      43.220  36.687  29.526  1.00  0.00     0.148 A 
ATOM     82  C   UNL A   1      44.027  37.199  32.170  1.00  0.00     0.002 A 
ATOM     83  C   UNL A   1      43.740  37.928  29.872  1.00  0.00     0.091 A 
ATOM     84  F   UNL A   1      42.819  36.408  28.278  1.00  0.00    -0.205 F 
ATOM     85  C   UNL A   1      44.140  38.187  31.194  1.00  0.00     0.022 A 
BRANCH  83  86
ATOM     86  S   UNL A   1      43.991  39.243  28.673  1.00  0.00     0.127 S 
ATOM     87  O   UNL A   1      44.944  38.626  27.752  1.00  0.00    -0.237 OA
ATOM     88  O   UNL A   1      42.646  39.423  28.128  1.00  0.00    -0.237 OA
ATOM     89  O   UNL A   1      44.505  40.382  29.421  1.00  0.00    -0.744 OA
ENDBRANCH  83  86
ENDBRANCH  56  79
ENDBRANCH  30  31
ENDBRANCH  23  25
ENDBRANCH  22  23
ENDBRANCH  21  22
ENDBRANCH   1  21
TORSDOF 19
ENDMDL
MODEL 2
REMARK VINA RESULT:      -9.6      2.093      2.466
REMARK SMILES Cc1c(I)cccc1[C@H]([NH3+])C(=O)OCCOCCOC(=O)c1ccc(-c2c3nc(c(-c4cccc(S(=O)(=O)[O-])c4F)c4ccc([nH]4)c(-c4cccc(S(=O)(=O)[O-])c4F)c4nc(c(-c5cccc(S(=O)(=O)[O-])c5F)c5ccc2[nH]5)C=C4)C=C3)cc1
REMARK SMILES IDX 17 1 16 2 15 3 14 4 13 5 11 6 12 7 9 8 8 9 1 10 2 11 3 12
REMARK SMILES IDX 4 13 5 14 7 15 6 16 10 17 18 21 19 22 20 23 21 24 22 25
REMARK SMILES IDX 23 26 84 27 24 28 83 29 25 30 26 31 27 32 77 33 28 34 82 35
REMARK SMILES IDX 76 36 78 37 29 38 81 39 75 40 74 41 30 43 62 44 42 45 61 46
REMARK SMILES IDX 43 47 46 48 60 49 79 50 44 51 45 52 59 54 80 55 47 56 31 57
REMARK SMILES IDX 32 58 40 59 33 60 35 61 41 62 34 63 36 64 37 65 38 66 39 67
REMARK SMILES IDX 63 68 64 69 72 70 65 71 67 72 73 73 66 74 68 75 69 76 70 77
REMARK SMILES IDX 71 78 48 79 49 80 57 81 50 82 52 83 58 84 51 85 53 86 54 87
REMARK SMILES IDX 55 88 56 89
REMARK H PARENT 10 18 10 19 10 20 78 42 46 53
REMARK Flexibility Score: inf
ROOT
ATOM      1  C   UNL A   1      41.977  19.360  26.440  1.00  0.00     0.202 C 
ENDROOT
BRANCH   1   2
ATOM      2  O   UNL A   1      42.534  19.278  25.128  1.00  0.00    -0.374 OA
BRANCH   2   3
ATOM      3  C   UNL A   1      43.885  18.830  25.034  1.00  0.00     0.202 C 
BRANCH   3   4
ATOM      4  C   UNL A   1      44.732  19.419  23.903  1.00  0.00     0.261 C 
BRANCH   4   5
ATOM      5  O   UNL A   1      44.718  20.856  23.875  1.00  0.00    -0.459 OA
BRANCH   5   6
ATOM      6  C   UNL A   1      45.727  21.464  24.559  1.00  0.00     0.369 C 
ATOM      7  O   UNL A   1      46.721  20.889  24.997  1.00  0.00    -0.245 OA
BRANCH   6   8
ATOM      8  C   UNL A   1      45.521  22.986  24.710  1.00  0.00     0.323 C 
BRANCH   8   9
ATOM      9  C   UNL A   1      45.872  23.518  26.107  1.00  0.00     0.025 A 
ATOM     10  C   UNL A   1      43.881  22.319  27.181  1.00  0.00     0.046 C 
ATOM     11  C   UNL A   1      45.071  23.246  27.257  1.00  0.00    -0.028 A 
ATOM     12  C   UNL A   1      45.395  23.887  28.474  1.00  0.00     0.016 A 
ATOM     13  I   UNL A   1      44.158  23.828  30.184  1.00  0.00    -0.044 I 
ATOM     14  C   UNL A   1      46.561  24.648  28.603  1.00  0.00     0.015 A 
ATOM     15  C   UNL A   1      47.057  24.267  26.283  1.00  0.00     0.011 A 
ATOM     16  C   UNL A   1      47.408  24.807  27.517  1.00  0.00     0.002 A 
ENDBRANCH   8   9
BRANCH   8  17
ATOM     17  N   UNL A   1      44.148  23.333  24.250  1.00  0.00    -0.342 N 
ATOM     18  H   UNL A   1      43.743  22.537  23.757  1.00  0.00     0.345 HD
ATOM     19  H   UNL A   1      44.192  24.135  23.621  1.00  0.00     0.345 HD
ATOM     20  H   UNL A   1      43.568  23.564  25.056  1.00  0.00     0.345 HD
ENDBRANCH   8  17
ENDBRANCH   6   8
ENDBRANCH   5   6
ENDBRANCH   4   5
ENDBRANCH   3   4
ENDBRANCH   2   3
ENDBRANCH   1   2
BRANCH   1  21
ATOM     21  C   UNL A   1      40.566  19.945  26.548  1.00  0.00     0.261 C 
BRANCH  21  22
ATOM     22  O   UNL A   1      40.469  21.203  25.860  1.00  0.00    -0.460 OA
BRANCH  22  23
ATOM     23  C   UNL A   1      39.357  21.929  26.133  1.00  0.00     0.338 C 
ATOM     24  O   UNL A   1      38.203  21.531  26.124  1.00  0.00    -0.246 OA
BRANCH  23  25
ATOM     25  C   UNL A   1      39.766  23.242  26.674  1.00  0.00     0.060 A 
ATOM     26  C   UNL A   1      40.419  23.359  27.902  1.00  0.00     0.016 A 
ATOM     27  C   UNL A   1      39.468  24.384  25.917  1.00  0.00     0.016 A 
ATOM     28  C   UNL A   1      40.803  24.624  28.355  1.00  0.00     0.010 A 
ATOM     29  C   UNL A   1      39.848  25.645  26.374  1.00  0.00     0.010 A 
ATOM     30  C   UNL A   1      40.537  25.773  27.587  1.00  0.00    -0.014 A 
BRANCH  30  31
ATOM     31  C   UNL A   1      41.116  27.079  27.979  1.00  0.00     0.031 A 
ATOM     32  C   UNL A   1      42.548  27.427  27.701  1.00  0.00     0.074 A 
ATOM     33  C   UNL A   1      40.325  27.950  28.636  1.00  0.00     0.049 A 
ATOM     34  N   UNL A   1      43.171  28.555  27.930  1.00  0.00    -0.248 NA
ATOM     35  C   UNL A   1      43.391  26.386  27.095  1.00  0.00     0.031 C 
ATOM     36  C   UNL A   1      38.935  27.691  29.021  1.00  0.00     0.029 A 
ATOM     37  N   UNL A   1      40.569  29.217  29.099  1.00  0.00    -0.354 N 
ATOM     38  C   UNL A   1      44.477  28.363  27.504  1.00  0.00     0.074 A 
ATOM     39  C   UNL A   1      44.566  27.001  27.019  1.00  0.00     0.031 C 
ATOM     40  C   UNL A   1      38.445  28.772  29.646  1.00  0.00     0.029 A 
ATOM     41  C   UNL A   1      39.488  29.791  29.722  1.00  0.00     0.049 A 
ATOM     42  H   UNL A   1      41.436  29.672  28.994  1.00  0.00     0.167 HD
ATOM     43  C   UNL A   1      45.499  29.250  27.500  1.00  0.00     0.034 A 
ATOM     44  C   UNL A   1      39.344  31.005  30.288  1.00  0.00     0.034 A 
ATOM     45  C   UNL A   1      45.401  30.607  27.971  1.00  0.00     0.049 A 
ATOM     46  C   UNL A   1      40.489  31.973  30.257  1.00  0.00     0.074 A 
ATOM     47  C   UNL A   1      46.370  31.596  27.939  1.00  0.00     0.029 A 
ATOM     48  N   UNL A   1      44.281  31.164  28.568  1.00  0.00    -0.354 N 
ATOM     49  N   UNL A   1      41.677  31.819  29.724  1.00  0.00    -0.248 NA
ATOM     50  C   UNL A   1      40.272  33.289  30.877  1.00  0.00     0.031 C 
ATOM     51  C   UNL A   1      45.843  32.744  28.536  1.00  0.00     0.029 A 
ATOM     52  C   UNL A   1      44.538  32.478  28.918  1.00  0.00     0.049 A 
ATOM     53  H   UNL A   1      43.430  30.694  28.720  1.00  0.00     0.167 HD
ATOM     54  C   UNL A   1      42.342  33.022  29.924  1.00  0.00     0.074 A 
ATOM     55  C   UNL A   1      41.420  33.901  30.616  1.00  0.00     0.031 C 
ATOM     56  C   UNL A   1      43.605  33.360  29.570  1.00  0.00     0.034 A 
BRANCH  43  57
ATOM     57  C   UNL A   1      46.815  28.821  26.909  1.00  0.00     0.023 A 
ATOM     58  C   UNL A   1      47.910  28.607  27.768  1.00  0.00     0.012 A 
ATOM     59  C   UNL A   1      46.929  28.499  25.543  1.00  0.00     0.148 A 
ATOM     60  C   UNL A   1      49.104  28.081  27.275  1.00  0.00     0.002 A 
ATOM     61  C   UNL A   1      48.112  27.950  25.064  1.00  0.00     0.091 A 
ATOM     62  F   UNL A   1      45.872  28.717  24.746  1.00  0.00    -0.205 F 
ATOM     63  C   UNL A   1      49.201  27.744  25.927  1.00  0.00     0.022 A 
BRANCH  61  64
ATOM     64  S   UNL A   1      48.327  27.428  23.359  1.00  0.00     0.127 S 
ATOM     65  O   UNL A   1      49.712  27.823  23.102  1.00  0.00    -0.237 OA
ATOM     66  O   UNL A   1      48.110  25.985  23.450  1.00  0.00    -0.237 OA
ATOM     67  O   UNL A   1      47.327  28.152  22.585  1.00  0.00    -0.744 OA
ENDBRANCH  61  64
ENDBRANCH  43  57
BRANCH  44  68
ATOM     68  C   UNL A   1      38.025  31.381  30.864  1.00  0.00     0.023 A 
ATOM     69  C   UNL A   1      37.788  31.171  32.235  1.00  0.00     0.012 A 
ATOM     70  C   UNL A   1      37.047  32.020  30.079  1.00  0.00     0.148 A 
ATOM     71  C   UNL A   1      36.591  31.587  32.817  1.00  0.00     0.002 A 
ATOM     72  C   UNL A   1      35.872  32.465  30.672  1.00  0.00     0.091 A 
ATOM     73  F   UNL A   1      37.303  32.209  28.777  1.00  0.00    -0.205 F 
ATOM     74  C   UNL A   1      35.639  32.241  32.039  1.00  0.00     0.022 A 
BRANCH  72  75
ATOM     75  S   UNL A   1      34.628  33.401  29.778  1.00  0.00     0.127 S 
ATOM     76  O   UNL A   1      33.681  33.729  30.841  1.00  0.00    -0.237 OA
ATOM     77  O   UNL A   1      35.409  34.533  29.279  1.00  0.00    -0.237 OA
ATOM     78  O   UNL A   1      34.123  32.508  28.746  1.00  0.00    -0.744 OA
ENDBRANCH  72  75
ENDBRANCH  44  68
BRANCH  56  79
ATOM     79  C   UNL A   1      44.090  34.743  29.902  1.00  0.00     0.023 A 
ATOM     80  C   UNL A   1      44.875  34.943  31.054  1.00  0.00     0.012 A 
ATOM     81  C   UNL A   1      43.883  35.809  29.006  1.00  0.00     0.148 A 
ATOM     82  C   UNL A   1      45.446  36.190  31.310  1.00  0.00     0.002 A 
ATOM     83  C   UNL A   1      44.482  37.039  29.251  1.00  0.00     0.091 A 
ATOM     84  F   UNL A   1      43.125  35.592  27.921  1.00  0.00    -0.205 F 
ATOM     85  C   UNL A   1      45.261  37.231  30.404  1.00  0.00     0.022 A 
BRANCH  83  86
ATOM     86  S   UNL A   1      44.362  38.421  28.109  1.00  0.00     0.127 S 
ATOM     87  O   UNL A   1      44.776  37.803  26.850  1.00  0.00    -0.237 OA
ATOM     88  O   UNL A   1      42.941  38.759  28.183  1.00  0.00    -0.237 OA
ATOM     89  O   UNL A   1      45.262  39.447  28.617  1.00  0.00    -0.744 OA
ENDBRANCH  83  86
ENDBRANCH  56  79
ENDBRANCH  30  31
ENDBRANCH  23  25
ENDBRANCH  22  23
ENDBRANCH  21  22
ENDBRANCH   1  21
TORSDOF 19
ENDMDL
MODEL 3
REMARK VINA RESULT:      -9.4      4.205      6.483
REMARK SMILES Cc1c(I)cccc1[C@H]([NH3+])C(=O)OCCOCCOC(=O)c1ccc(-c2c3nc(c(-c4cccc(S(=O)(=O)[O-])c4F)c4ccc([nH]4)c(-c4cccc(S(=O)(=O)[O-])c4F)c4nc(c(-c5cccc(S(=O)(=O)[O-])c5F)c5ccc2[nH]5)C=C4)C=C3)cc1
REMARK SMILES IDX 17 1 16 2 15 3 14 4 13 5 11 6 12 7 9 8 8 9 1 10 2 11 3 12
REMARK SMILES IDX 4 13 5 14 7 15 6 16 10 17 18 21 19 22 20 23 21 24 22 25
REMARK SMILES IDX 23 26 84 27 24 28 83 29 25 30 26 31 27 32 77 33 28 34 82 35
REMARK SMILES IDX 76 36 78 37 29 38 81 39 75 40 74 41 30 43 62 44 42 45 61 46
REMARK SMILES IDX 43 47 46 48 60 49 79 50 44 51 45 52 59 54 80 55 47 56 31 57
REMARK SMILES IDX 32 58 40 59 33 60 35 61 41 62 34 63 36 64 37 65 38 66 39 67
REMARK SMILES IDX 63 68 64 69 72 70 65 71 67 72 73 73 66 74 68 75 69 76 70 77
REMARK SMILES IDX 71 78 48 79 49 80 57 81 50 82 52 83 58 84 51 85 53 86 54 87
REMARK SMILES IDX 55 88 56 89
REMARK H PARENT 10 18 10 19 10 20 78 42 46 53
REMARK Flexibility Score: inf
ROOT
ATOM      1  C   UNL A   1      35.536  21.162  25.576  1.00  0.00     0.202 C 
ENDROOT
BRANCH   1   2
ATOM      2  O   UNL A   1      34.252  20.779  25.084  1.00  0.00    -0.374 OA
BRANCH   2   3
ATOM      3  C   UNL A   1      33.516  21.775  24.374  1.00  0.00     0.202 C 
BRANCH   3   4
ATOM      4  C   UNL A   1      32.199  22.238  25.001  1.00  0.00     0.261 C 
BRANCH   4   5
ATOM      5  O   UNL A   1      32.346  23.394  25.841  1.00  0.00    -0.459 OA
BRANCH   5   6
ATOM      6  C   UNL A   1      31.224  23.777  26.510  1.00  0.00     0.369 C 
ATOM      7  O   UNL A   1      30.839  23.287  27.569  1.00  0.00    -0.245 OA
BRANCH   6   8
ATOM      8  C   UNL A   1      30.477  24.937  25.819  1.00  0.00     0.323 C 
BRANCH   8   9
ATOM      9  C   UNL A   1      31.308  26.223  25.705  1.00  0.00     0.025 A 
ATOM     10  C   UNL A   1      31.478  26.014  23.159  1.00  0.00     0.046 C 
ATOM     11  C   UNL A   1      31.821  26.699  24.460  1.00  0.00    -0.028 A 
ATOM     12  C   UNL A   1      32.688  27.816  24.468  1.00  0.00     0.016 A 
ATOM     13  I   UNL A   1      33.758  28.467  22.769  1.00  0.00    -0.044 I 
ATOM     14  C   UNL A   1      32.920  28.543  25.639  1.00  0.00     0.015 A 
ATOM     15  C   UNL A   1      31.541  27.001  26.862  1.00  0.00     0.011 A 
ATOM     16  C   UNL A   1      32.318  28.155  26.826  1.00  0.00     0.002 A 
ENDBRANCH   8   9
BRANCH   8  17
ATOM     17  N   UNL A   1      29.155  25.119  26.479  1.00  0.00    -0.342 N 
ATOM     18  H   UNL A   1      28.414  24.817  25.845  1.00  0.00     0.345 HD
ATOM     19  H   UNL A   1      29.023  26.103  26.711  1.00  0.00     0.345 HD
ATOM     20  H   UNL A   1      29.121  24.560  27.331  1.00  0.00     0.345 HD
ENDBRANCH   8  17
ENDBRANCH   6   8
ENDBRANCH   5   6
ENDBRANCH   4   5
ENDBRANCH   3   4
ENDBRANCH   2   3
ENDBRANCH   1   2
BRANCH   1  21
ATOM     21  C   UNL A   1      36.741  20.426  24.986  1.00  0.00     0.261 C 
BRANCH  21  22
ATOM     22  O   UNL A   1      37.903  21.271  24.954  1.00  0.00    -0.460 OA
BRANCH  22  23
ATOM     23  C   UNL A   1      38.886  20.939  25.828  1.00  0.00     0.338 C 
ATOM     24  O   UNL A   1      39.359  19.829  26.009  1.00  0.00    -0.246 OA
BRANCH  23  25
ATOM     25  C   UNL A   1      39.470  22.178  26.383  1.00  0.00     0.060 A 
ATOM     26  C   UNL A   1      40.554  22.148  27.262  1.00  0.00     0.016 A 
ATOM     27  C   UNL A   1      38.892  23.399  26.009  1.00  0.00     0.016 A 
ATOM     28  C   UNL A   1      41.081  23.351  27.739  1.00  0.00     0.010 A 
ATOM     29  C   UNL A   1      39.417  24.598  26.490  1.00  0.00     0.010 A 
ATOM     30  C   UNL A   1      40.528  24.584  27.344  1.00  0.00    -0.014 A 
BRANCH  30  31
ATOM     31  C   UNL A   1      41.209  25.852  27.697  1.00  0.00     0.031 A 
ATOM     32  C   UNL A   1      42.628  26.127  27.296  1.00  0.00     0.074 A 
ATOM     33  C   UNL A   1      40.527  26.752  28.430  1.00  0.00     0.049 A 
ATOM     34  N   UNL A   1      43.329  27.217  27.481  1.00  0.00    -0.248 NA
ATOM     35  C   UNL A   1      43.357  25.052  26.607  1.00  0.00     0.031 C 
ATOM     36  C   UNL A   1      39.166  26.562  28.934  1.00  0.00     0.029 A 
ATOM     37  N   UNL A   1      40.880  27.997  28.883  1.00  0.00    -0.354 N 
ATOM     38  C   UNL A   1      44.581  26.962  26.940  1.00  0.00     0.074 A 
ATOM     39  C   UNL A   1      44.552  25.605  26.434  1.00  0.00     0.031 C 
ATOM     40  C   UNL A   1      38.792  27.658  29.611  1.00  0.00     0.029 A 
ATOM     41  C   UNL A   1      39.891  28.619  29.606  1.00  0.00     0.049 A 
ATOM     42  H   UNL A   1      41.758  28.407  28.707  1.00  0.00     0.167 HD
ATOM     43  C   UNL A   1      45.646  27.794  26.854  1.00  0.00     0.034 A 
ATOM     44  C   UNL A   1      39.863  29.830  30.196  1.00  0.00     0.034 A 
ATOM     45  C   UNL A   1      45.663  29.147  27.347  1.00  0.00     0.049 A 
ATOM     46  C   UNL A   1      41.052  30.736  30.074  1.00  0.00     0.074 A 
ATOM     47  C   UNL A   1      46.678  30.082  27.241  1.00  0.00     0.029 A 
ATOM     48  N   UNL A   1      44.632  29.753  28.047  1.00  0.00    -0.354 N 
ATOM     49  N   UNL A   1      42.178  30.527  29.436  1.00  0.00    -0.248 NA
ATOM     50  C   UNL A   1      40.962  32.051  30.724  1.00  0.00     0.031 C 
ATOM     51  C   UNL A   1      46.268  31.248  27.894  1.00  0.00     0.029 A 
ATOM     52  C   UNL A   1      44.989  31.046  28.387  1.00  0.00     0.049 A 
ATOM     53  H   UNL A   1      43.773  29.326  28.268  1.00  0.00     0.167 HD
ATOM     54  C   UNL A   1      42.922  31.690  29.589  1.00  0.00     0.074 A 
ATOM     55  C   UNL A   1      42.114  32.606  30.369  1.00  0.00     0.031 C 
ATOM     56  C   UNL A   1      44.166  31.965  29.129  1.00  0.00     0.034 A 
BRANCH  43  57
ATOM     57  C   UNL A   1      46.879  27.304  26.145  1.00  0.00     0.023 A 
ATOM     58  C   UNL A   1      47.071  27.651  24.794  1.00  0.00     0.012 A 
ATOM     59  C   UNL A   1      47.900  26.630  26.843  1.00  0.00     0.148 A 
ATOM     60  C   UNL A   1      48.262  27.330  24.143  1.00  0.00     0.002 A 
ATOM     61  C   UNL A   1      49.095  26.338  26.196  1.00  0.00     0.091 A 
ATOM     62  F   UNL A   1      47.690  26.308  28.127  1.00  0.00    -0.205 F 
ATOM     63  C   UNL A   1      49.276  26.684  24.847  1.00  0.00     0.022 A 
BRANCH  61  64
ATOM     64  S   UNL A   1      50.487  25.558  27.021  1.00  0.00     0.127 S 
ATOM     65  O   UNL A   1      51.418  25.366  25.910  1.00  0.00    -0.237 OA
ATOM     66  O   UNL A   1      50.887  26.584  27.982  1.00  0.00    -0.237 OA
ATOM     67  O   UNL A   1      49.971  24.330  27.612  1.00  0.00    -0.744 OA
ENDBRANCH  61  64
ENDBRANCH  43  57
BRANCH  44  68
ATOM     68  C   UNL A   1      38.623  30.266  30.889  1.00  0.00     0.023 A 
ATOM     69  C   UNL A   1      38.479  30.012  32.266  1.00  0.00     0.012 A 
ATOM     70  C   UNL A   1      37.633  31.002  30.211  1.00  0.00     0.148 A 
ATOM     71  C   UNL A   1      37.362  30.480  32.958  1.00  0.00     0.002 A 
ATOM     72  C   UNL A   1      36.542  31.497  30.914  1.00  0.00     0.091 A 
ATOM     73  F   UNL A   1      37.799  31.231  28.901  1.00  0.00    -0.205 F 
ATOM     74  C   UNL A   1      36.400  31.229  32.286  1.00  0.00     0.022 A 
BRANCH  72  75
ATOM     75  S   UNL A   1      35.299  32.552  30.160  1.00  0.00     0.127 S 
ATOM     76  O   UNL A   1      36.084  33.733  29.809  1.00  0.00    -0.237 OA
ATOM     77  O   UNL A   1      34.869  31.738  29.023  1.00  0.00    -0.237 OA
ATOM     78  O   UNL A   1      34.282  32.760  31.180  1.00  0.00    -0.744 OA
ENDBRANCH  72  75
ENDBRANCH  44  68
BRANCH  56  79
ATOM     79  C   UNL A   1      44.753  33.315  29.432  1.00  0.00     0.023 A 
ATOM     80  C   UNL A   1      45.538  33.485  30.588  1.00  0.00     0.012 A 
ATOM     81  C   UNL A   1      44.639  34.370  28.505  1.00  0.00     0.148 A 
ATOM     82  C   UNL A   1      46.201  34.691  30.820  1.00  0.00     0.002 A 
ATOM     83  C   UNL A   1      45.329  35.556  28.726  1.00  0.00     0.091 A 
ATOM     84  F   UNL A   1      43.879  34.183  27.416  1.00  0.00    -0.205 F 
ATOM     85  C   UNL A   1      46.107  35.719  29.885  1.00  0.00     0.022 A 
BRANCH  83  86
ATOM     86  S   UNL A   1      45.329  36.912  27.547  1.00  0.00     0.127 S 
ATOM     87  O   UNL A   1      46.117  37.920  28.254  1.00  0.00    -0.237 OA
ATOM     88  O   UNL A   1      45.999  36.316  26.391  1.00  0.00    -0.237 OA
ATOM     89  O   UNL A   1      43.932  37.262  27.330  1.00  0.00    -0.744 OA
ENDBRANCH  83  86
ENDBRANCH  56  79
ENDBRANCH  30  31
ENDBRANCH  23  25
ENDBRANCH  22  23
ENDBRANCH  21  22
ENDBRANCH   1  21
TORSDOF 19
ENDMDL
