MODEL 1
REMARK VINA RESULT:     -12.0      0.000      0.000
REMARK SMILES C[C@H]1CCc2sc3ncn4nc(/C=C\C(=O)OCCOCCOC(=O)c5ccc(-c6c7nc(c(-c8cccc(S(=O)(=O)[O-])c8F)c8ccc([nH]8)c(-c8cccc(S(=O)(=O)[O-])c8F)c8nc(c(-c9cccc(S(=O)(=O)[O-])c9F)c9ccc6[nH]9)C=C8)C=C7)cc5)nc4c3c2C1
REMARK SMILES IDX 21 1 20 2 19 3 18 4 17 5 15 6 16 7 14 8 13 9 12 10 1 11 2 12
REMARK SMILES IDX 3 13 93 14 4 15 92 16 5 17 91 18 6 19 7 20 90 21 8 22 10 23
REMARK SMILES IDX 89 24 9 25 11 26 22 27 23 28 24 29 25 30 26 31 27 32 88 33
REMARK SMILES IDX 28 34 87 35 29 36 30 37 31 38 81 39 32 40 86 41 80 42 82 43
REMARK SMILES IDX 33 44 85 45 79 46 78 47 34 49 66 50 46 51 65 52 47 53 50 54
REMARK SMILES IDX 64 55 83 56 48 57 49 58 63 60 84 61 51 62 35 63 36 64 44 65
REMARK SMILES IDX 37 66 39 67 45 68 38 69 40 70 41 71 42 72 43 73 67 74 68 75
REMARK SMILES IDX 76 76 69 77 71 78 77 79 70 80 72 81 73 82 74 83 75 84 52 85
REMARK SMILES IDX 53 86 61 87 54 88 56 89 62 90 55 91 57 92 58 93 59 94 60 95
REMARK H PARENT 82 48 50 59
REMARK Flexibility Score: inf
ROOT
ATOM      1  C   UNL A   1      33.302  29.946  26.888  1.00  0.00     0.202 C 
ENDROOT
BRANCH   1   2
ATOM      2  O   UNL A   1      32.753  30.082  25.580  1.00  0.00    -0.374 OA
BRANCH   2   3
ATOM      3  C   UNL A   1      33.055  29.061  24.628  1.00  0.00     0.202 C 
BRANCH   3   4
ATOM      4  C   UNL A   1      31.841  28.364  24.020  1.00  0.00     0.261 C 
BRANCH   4   5
ATOM      5  O   UNL A   1      31.219  27.524  25.003  1.00  0.00    -0.460 OA
BRANCH   5   6
ATOM      6  C   UNL A   1      30.353  26.595  24.567  1.00  0.00     0.330 C 
ATOM      7  O   UNL A   1      30.009  26.423  23.405  1.00  0.00    -0.247 OA
BRANCH   6   8
ATOM      8  C   UNL A   1      29.963  25.630  25.615  1.00  0.00     0.097 C 
ATOM      9  C   UNL A   1      30.569  24.570  26.174  1.00  0.00     0.058 C 
BRANCH   9  10
ATOM     10  C   UNL A   1      31.853  23.981  25.981  1.00  0.00     0.175 A 
ATOM     11  C   UNL A   1      32.412  18.211  22.549  1.00  0.00     0.008 C 
ATOM     12  C   UNL A   1      32.437  18.103  24.078  1.00  0.00    -0.009 C 
ATOM     13  C   UNL A   1      33.604  17.223  24.578  1.00  0.00     0.009 C 
ATOM     14  C   UNL A   1      32.459  19.493  24.742  1.00  0.00     0.041 C 
ATOM     15  C   UNL A   1      34.997  17.854  24.375  1.00  0.00     0.047 C 
ATOM     16  C   UNL A   1      33.827  20.055  24.897  1.00  0.00    -0.020 A 
ATOM     17  C   UNL A   1      34.974  19.307  24.732  1.00  0.00     0.011 A 
ATOM     18  C   UNL A   1      34.155  21.378  25.252  1.00  0.00     0.060 A 
ATOM     19  S   UNL A   1      36.399  20.234  24.932  1.00  0.00    -0.120 S 
ATOM     20  C   UNL A   1      35.511  21.657  25.281  1.00  0.00     0.129 A 
ATOM     21  C   UNL A   1      33.298  22.523  25.579  1.00  0.00     0.168 A 
ATOM     22  N   UNL A   1      36.107  22.870  25.540  1.00  0.00    -0.225 NA
ATOM     23  N   UNL A   1      33.913  23.701  25.860  1.00  0.00    -0.201 N 
ATOM     24  N   UNL A   1      31.999  22.658  25.645  1.00  0.00    -0.207 NA
ATOM     25  C   UNL A   1      35.299  23.863  25.830  1.00  0.00     0.227 A 
ATOM     26  N   UNL A   1      33.006  24.663  26.118  1.00  0.00    -0.145 NA
ENDBRANCH   9  10
ENDBRANCH   6   8
ENDBRANCH   5   6
ENDBRANCH   4   5
ENDBRANCH   3   4
ENDBRANCH   2   3
ENDBRANCH   1   2
BRANCH   1  27
ATOM     27  C   UNL A   1      33.660  31.237  27.609  1.00  0.00     0.261 C 
BRANCH  27  28
ATOM     28  O   UNL A   1      35.063  31.371  27.812  1.00  0.00    -0.460 OA
BRANCH  28  29
ATOM     29  C   UNL A   1      35.409  31.992  28.958  1.00  0.00     0.338 C 
ATOM     30  O   UNL A   1      35.026  33.098  29.338  1.00  0.00    -0.246 OA
BRANCH  29  31
ATOM     31  C   UNL A   1      36.520  31.261  29.574  1.00  0.00     0.060 A 
ATOM     32  C   UNL A   1      37.742  31.934  29.633  1.00  0.00     0.016 A 
ATOM     33  C   UNL A   1      36.427  29.874  29.781  1.00  0.00     0.016 A 
ATOM     34  C   UNL A   1      38.895  31.186  29.686  1.00  0.00     0.010 A 
ATOM     35  C   UNL A   1      37.583  29.127  29.826  1.00  0.00     0.010 A 
ATOM     36  C   UNL A   1      38.798  29.788  29.690  1.00  0.00    -0.014 A 
BRANCH  36  37
ATOM     37  C   UNL A   1      40.035  29.041  29.651  1.00  0.00     0.031 A 
ATOM     38  C   UNL A   1      40.624  28.857  30.993  1.00  0.00     0.074 A 
ATOM     39  C   UNL A   1      40.574  28.563  28.514  1.00  0.00     0.049 A 
ATOM     40  N   UNL A   1      41.653  29.468  31.475  1.00  0.00    -0.248 NA
ATOM     41  C   UNL A   1      39.864  28.077  31.978  1.00  0.00     0.031 C 
ATOM     42  C   UNL A   1      39.964  28.461  27.187  1.00  0.00     0.029 A 
ATOM     43  N   UNL A   1      41.775  27.948  28.347  1.00  0.00    -0.354 N 
ATOM     44  C   UNL A   1      41.811  28.963  32.760  1.00  0.00     0.074 A 
ATOM     45  C   UNL A   1      40.579  28.296  33.083  1.00  0.00     0.031 C 
ATOM     46  C   UNL A   1      40.690  27.600  26.435  1.00  0.00     0.029 A 
ATOM     47  C   UNL A   1      41.876  27.207  27.177  1.00  0.00     0.049 A 
ATOM     48  H   UNL A   1      42.509  28.021  29.000  1.00  0.00     0.167 HD
ATOM     49  C   UNL A   1      43.040  28.914  33.339  1.00  0.00     0.034 A 
ATOM     50  C   UNL A   1      42.822  26.273  26.902  1.00  0.00     0.034 A 
ATOM     51  C   UNL A   1      43.975  29.767  32.644  1.00  0.00     0.049 A 
ATOM     52  C   UNL A   1      43.985  26.555  27.779  1.00  0.00     0.074 A 
ATOM     53  C   UNL A   1      44.046  31.119  32.372  1.00  0.00     0.029 A 
ATOM     54  N   UNL A   1      44.840  29.155  31.769  1.00  0.00    -0.354 N 
ATOM     55  N   UNL A   1      44.716  27.629  27.670  1.00  0.00    -0.248 NA
ATOM     56  C   UNL A   1      44.044  25.884  29.068  1.00  0.00     0.031 C 
ATOM     57  C   UNL A   1      44.585  31.200  31.055  1.00  0.00     0.029 A 
ATOM     58  C   UNL A   1      44.873  29.903  30.623  1.00  0.00     0.049 A 
ATOM     59  H   UNL A   1      45.346  28.328  31.937  1.00  0.00     0.167 HD
ATOM     60  C   UNL A   1      44.937  28.027  28.983  1.00  0.00     0.074 A 
ATOM     61  C   UNL A   1      44.588  26.863  29.797  1.00  0.00     0.031 C 
ATOM     62  C   UNL A   1      45.088  29.346  29.305  1.00  0.00     0.034 A 
BRANCH  49  63
ATOM     63  C   UNL A   1      43.516  27.817  34.265  1.00  0.00     0.023 A 
ATOM     64  C   UNL A   1      44.042  28.225  35.512  1.00  0.00     0.012 A 
ATOM     65  C   UNL A   1      43.745  26.475  33.885  1.00  0.00     0.148 A 
ATOM     66  C   UNL A   1      44.823  27.372  36.296  1.00  0.00     0.002 A 
ATOM     67  C   UNL A   1      44.459  25.607  34.701  1.00  0.00     0.091 A 
ATOM     68  F   UNL A   1      43.388  26.044  32.674  1.00  0.00    -0.205 F 
ATOM     69  C   UNL A   1      45.032  26.061  35.890  1.00  0.00     0.022 A 
BRANCH  67  70
ATOM     70  S   UNL A   1      44.727  23.887  34.249  1.00  0.00     0.127 S 
ATOM     71  O   UNL A   1      45.851  23.531  35.110  1.00  0.00    -0.237 OA
ATOM     72  O   UNL A   1      43.448  23.282  34.617  1.00  0.00    -0.237 OA
ATOM     73  O   UNL A   1      44.997  23.890  32.817  1.00  0.00    -0.744 OA
ENDBRANCH  67  70
ENDBRANCH  49  63
BRANCH  50  74
ATOM     74  C   UNL A   1      42.658  24.973  26.207  1.00  0.00     0.023 A 
ATOM     75  C   UNL A   1      43.607  24.554  25.252  1.00  0.00     0.012 A 
ATOM     76  C   UNL A   1      41.731  24.017  26.684  1.00  0.00     0.148 A 
ATOM     77  C   UNL A   1      43.646  23.225  24.807  1.00  0.00     0.002 A 
ATOM     78  C   UNL A   1      41.771  22.700  26.237  1.00  0.00     0.091 A 
ATOM     79  F   UNL A   1      40.872  24.377  27.645  1.00  0.00    -0.205 F 
ATOM     80  C   UNL A   1      42.735  22.297  25.305  1.00  0.00     0.022 A 
BRANCH  78  81
ATOM     81  S   UNL A   1      40.652  21.442  26.867  1.00  0.00     0.127 S 
ATOM     82  O   UNL A   1      41.171  20.232  26.229  1.00  0.00    -0.237 OA
ATOM     83  O   UNL A   1      40.885  21.523  28.307  1.00  0.00    -0.237 OA
ATOM     84  O   UNL A   1      39.318  21.829  26.424  1.00  0.00    -0.744 OA
ENDBRANCH  78  81
ENDBRANCH  50  74
BRANCH  62  85
ATOM     85  C   UNL A   1      45.234  30.347  28.185  1.00  0.00     0.023 A 
ATOM     86  C   UNL A   1      44.119  30.938  27.550  1.00  0.00     0.012 A 
ATOM     87  C   UNL A   1      46.515  30.861  27.920  1.00  0.00     0.148 A 
ATOM     88  C   UNL A   1      44.282  32.010  26.667  1.00  0.00     0.002 A 
ATOM     89  C   UNL A   1      46.667  31.959  27.085  1.00  0.00     0.091 A 
ATOM     90  F   UNL A   1      47.562  30.289  28.533  1.00  0.00    -0.205 F 
ATOM     91  C   UNL A   1      45.554  32.532  26.448  1.00  0.00     0.022 A 
BRANCH  89  92
ATOM     92  S   UNL A   1      48.255  32.769  26.880  1.00  0.00     0.127 S 
ATOM     93  O   UNL A   1      48.537  33.235  28.237  1.00  0.00    -0.237 OA
ATOM     94  O   UNL A   1      49.108  31.673  26.420  1.00  0.00    -0.237 OA
ATOM     95  O   UNL A   1      48.047  33.818  25.889  1.00  0.00    -0.744 OA
ENDBRANCH  89  92
ENDBRANCH  62  85
ENDBRANCH  36  37
ENDBRANCH  29  31
ENDBRANCH  28  29
ENDBRANCH  27  28
ENDBRANCH   1  27
TORSDOF 18
ENDMDL
MODEL 2
REMARK VINA RESULT:     -11.9      5.092     11.091
REMARK SMILES C[C@H]1CCc2sc3ncn4nc(/C=C\C(=O)OCCOCCOC(=O)c5ccc(-c6c7nc(c(-c8cccc(S(=O)(=O)[O-])c8F)c8ccc([nH]8)c(-c8cccc(S(=O)(=O)[O-])c8F)c8nc(c(-c9cccc(S(=O)(=O)[O-])c9F)c9ccc6[nH]9)C=C8)C=C7)cc5)nc4c3c2C1
REMARK SMILES IDX 21 1 20 2 19 3 18 4 17 5 15 6 16 7 14 8 13 9 12 10 1 11 2 12
REMARK SMILES IDX 3 13 93 14 4 15 92 16 5 17 91 18 6 19 7 20 90 21 8 22 10 23
REMARK SMILES IDX 89 24 9 25 11 26 22 27 23 28 24 29 25 30 26 31 27 32 88 33
REMARK SMILES IDX 28 34 87 35 29 36 30 37 31 38 81 39 32 40 86 41 80 42 82 43
REMARK SMILES IDX 33 44 85 45 79 46 78 47 34 49 66 50 46 51 65 52 47 53 50 54
REMARK SMILES IDX 64 55 83 56 48 57 49 58 63 60 84 61 51 62 35 63 36 64 44 65
REMARK SMILES IDX 37 66 39 67 45 68 38 69 40 70 41 71 42 72 43 73 67 74 68 75
REMARK SMILES IDX 76 76 69 77 71 78 77 79 70 80 72 81 73 82 74 83 75 84 52 85
REMARK SMILES IDX 53 86 61 87 54 88 56 89 62 90 55 91 57 92 58 93 59 94 60 95
REMARK H PARENT 82 48 50 59
REMARK Flexibility Score: inf
ROOT
ATOM      1  C   UNL A   1      42.357  19.677  26.830  1.00  0.00     0.202 C 
ENDROOT
BRANCH   1   2
ATOM      2  O   UNL A   1      42.595  20.221  25.534  1.00  0.00    -0.374 OA
BRANCH   2   3
ATOM      3  C   UNL A   1      43.734  21.068  25.373  1.00  0.00     0.202 C 
BRANCH   3   4
ATOM      4  C   UNL A   1      43.425  22.560  25.297  1.00  0.00     0.261 C 
BRANCH   4   5
ATOM      5  O   UNL A   1      44.229  23.174  24.278  1.00  0.00    -0.460 OA
BRANCH   5   6
ATOM      6  C   UNL A   1      44.988  24.221  24.635  1.00  0.00     0.330 C 
ATOM      7  O   UNL A   1      46.165  24.388  24.342  1.00  0.00    -0.247 OA
BRANCH   6   8
ATOM      8  C   UNL A   1      44.217  25.301  25.285  1.00  0.00     0.097 C 
ATOM      9  C   UNL A   1      44.401  26.036  26.393  1.00  0.00     0.058 C 
BRANCH   9  10
ATOM     10  C   UNL A   1      45.442  26.070  27.366  1.00  0.00     0.175 A 
ATOM     11  C   UNL A   1      44.513  23.177  33.377  1.00  0.00     0.008 C 
ATOM     12  C   UNL A   1      44.330  24.697  33.314  1.00  0.00    -0.009 C 
ATOM     13  C   UNL A   1      45.092  25.420  34.448  1.00  0.00     0.009 C 
ATOM     14  C   UNL A   1      44.720  25.256  31.933  1.00  0.00     0.041 C 
ATOM     15  C   UNL A   1      46.627  25.373  34.302  1.00  0.00     0.047 C 
ATOM     16  C   UNL A   1      46.169  25.564  31.804  1.00  0.00    -0.020 A 
ATOM     17  C   UNL A   1      47.029  25.618  32.881  1.00  0.00     0.011 A 
ATOM     18  C   UNL A   1      46.860  25.866  30.614  1.00  0.00     0.060 A 
ATOM     19  S   UNL A   1      48.643  25.952  32.421  1.00  0.00    -0.120 S 
ATOM     20  C   UNL A   1      48.222  26.067  30.763  1.00  0.00     0.129 A 
ATOM     21  C   UNL A   1      46.382  25.984  29.232  1.00  0.00     0.168 A 
ATOM     22  N   UNL A   1      49.141  26.320  29.771  1.00  0.00    -0.225 NA
ATOM     23  N   UNL A   1      47.305  26.265  28.276  1.00  0.00    -0.201 N 
ATOM     24  N   UNL A   1      45.196  25.855  28.698  1.00  0.00    -0.207 NA
ATOM     25  C   UNL A   1      48.665  26.420  28.552  1.00  0.00     0.227 A 
ATOM     26  N   UNL A   1      46.730  26.320  27.060  1.00  0.00    -0.145 NA
ENDBRANCH   9  10
ENDBRANCH   6   8
ENDBRANCH   5   6
ENDBRANCH   4   5
ENDBRANCH   3   4
ENDBRANCH   2   3
ENDBRANCH   1   2
BRANCH   1  27
ATOM     27  C   UNL A   1      41.130  20.193  27.565  1.00  0.00     0.261 C 
BRANCH  27  28
ATOM     28  O   UNL A   1      41.213  21.587  27.844  1.00  0.00    -0.460 OA
BRANCH  28  29
ATOM     29  C   UNL A   1      40.292  22.343  27.212  1.00  0.00     0.338 C 
ATOM     30  O   UNL A   1      39.371  21.938  26.502  1.00  0.00    -0.246 OA
BRANCH  29  31
ATOM     31  C   UNL A   1      40.702  23.748  27.289  1.00  0.00     0.060 A 
ATOM     32  C   UNL A   1      41.662  24.058  28.253  1.00  0.00     0.016 A 
ATOM     33  C   UNL A   1      39.937  24.745  26.659  1.00  0.00     0.016 A 
ATOM     34  C   UNL A   1      41.704  25.343  28.741  1.00  0.00     0.010 A 
ATOM     35  C   UNL A   1      39.976  26.029  27.154  1.00  0.00     0.010 A 
ATOM     36  C   UNL A   1      40.797  26.288  28.246  1.00  0.00    -0.014 A 
BRANCH  36  37
ATOM     37  C   UNL A   1      40.813  27.599  28.853  1.00  0.00     0.031 A 
ATOM     38  C   UNL A   1      41.885  28.458  28.308  1.00  0.00     0.074 A 
ATOM     39  C   UNL A   1      39.938  27.987  29.799  1.00  0.00     0.049 A 
ATOM     40  N   UNL A   1      42.987  28.781  28.893  1.00  0.00    -0.248 NA
ATOM     41  C   UNL A   1      41.825  28.816  26.884  1.00  0.00     0.031 C 
ATOM     42  C   UNL A   1      38.701  27.329  30.223  1.00  0.00     0.029 A 
ATOM     43  N   UNL A   1      39.928  29.146  30.510  1.00  0.00    -0.354 N 
ATOM     44  C   UNL A   1      43.661  29.590  27.986  1.00  0.00     0.074 A 
ATOM     45  C   UNL A   1      43.014  29.394  26.717  1.00  0.00     0.031 C 
ATOM     46  C   UNL A   1      37.945  28.216  30.914  1.00  0.00     0.029 A 
ATOM     47  C   UNL A   1      38.703  29.443  31.094  1.00  0.00     0.049 A 
ATOM     48  H   UNL A   1      40.720  29.724  30.603  1.00  0.00     0.167 HD
ATOM     49  C   UNL A   1      44.522  30.549  28.419  1.00  0.00     0.034 A 
ATOM     50  C   UNL A   1      38.329  30.647  31.596  1.00  0.00     0.034 A 
ATOM     51  C   UNL A   1      44.899  30.324  29.795  1.00  0.00     0.049 A 
ATOM     52  C   UNL A   1      39.571  31.401  31.902  1.00  0.00     0.074 A 
ATOM     53  C   UNL A   1      45.530  29.306  30.480  1.00  0.00     0.029 A 
ATOM     54  N   UNL A   1      44.258  31.083  30.745  1.00  0.00    -0.354 N 
ATOM     55  N   UNL A   1      40.412  31.041  32.831  1.00  0.00    -0.248 NA
ATOM     56  C   UNL A   1      40.110  32.271  30.869  1.00  0.00     0.031 C 
ATOM     57  C   UNL A   1      44.857  29.235  31.734  1.00  0.00     0.029 A 
ATOM     58  C   UNL A   1      43.901  30.252  31.772  1.00  0.00     0.049 A 
ATOM     59  H   UNL A   1      44.088  32.052  30.695  1.00  0.00     0.167 HD
ATOM     60  C   UNL A   1      41.661  31.234  32.254  1.00  0.00     0.074 A 
ATOM     61  C   UNL A   1      41.415  32.086  31.089  1.00  0.00     0.031 C 
ATOM     62  C   UNL A   1      42.725  30.447  32.592  1.00  0.00     0.034 A 
BRANCH  49  63
ATOM     63  C   UNL A   1      44.718  31.896  27.761  1.00  0.00     0.023 A 
ATOM     64  C   UNL A   1      45.948  32.104  27.096  1.00  0.00     0.012 A 
ATOM     65  C   UNL A   1      43.919  33.039  27.996  1.00  0.00     0.148 A 
ATOM     66  C   UNL A   1      46.396  33.384  26.761  1.00  0.00     0.002 A 
ATOM     67  C   UNL A   1      44.334  34.303  27.595  1.00  0.00     0.091 A 
ATOM     68  F   UNL A   1      42.804  32.948  28.722  1.00  0.00    -0.205 F 
ATOM     69  C   UNL A   1      45.589  34.485  27.011  1.00  0.00     0.022 A 
BRANCH  67  70
ATOM     70  S   UNL A   1      43.314  35.761  27.852  1.00  0.00     0.127 S 
ATOM     71  O   UNL A   1      44.263  36.834  27.576  1.00  0.00    -0.237 OA
ATOM     72  O   UNL A   1      42.274  35.576  26.841  1.00  0.00    -0.237 OA
ATOM     73  O   UNL A   1      42.834  35.672  29.226  1.00  0.00    -0.744 OA
ENDBRANCH  67  70
ENDBRANCH  49  63
BRANCH  50  74
ATOM     74  C   UNL A   1      37.008  31.315  31.500  1.00  0.00     0.023 A 
ATOM     75  C   UNL A   1      36.449  31.948  32.629  1.00  0.00     0.012 A 
ATOM     76  C   UNL A   1      36.428  31.579  30.237  1.00  0.00     0.148 A 
ATOM     77  C   UNL A   1      35.367  32.830  32.500  1.00  0.00     0.002 A 
ATOM     78  C   UNL A   1      35.352  32.452  30.115  1.00  0.00     0.091 A 
ATOM     79  F   UNL A   1      36.991  31.046  29.147  1.00  0.00    -0.205 F 
ATOM     80  C   UNL A   1      34.825  33.089  31.244  1.00  0.00     0.022 A 
BRANCH  78  81
ATOM     81  S   UNL A   1      34.630  32.862  28.520  1.00  0.00     0.127 S 
ATOM     82  O   UNL A   1      34.087  31.570  28.097  1.00  0.00    -0.237 OA
ATOM     83  O   UNL A   1      33.626  33.858  28.889  1.00  0.00    -0.237 OA
ATOM     84  O   UNL A   1      35.726  33.352  27.694  1.00  0.00    -0.744 OA
ENDBRANCH  78  81
ENDBRANCH  50  74
BRANCH  62  85
ATOM     85  C   UNL A   1      42.579  29.507  33.764  1.00  0.00     0.023 A 
ATOM     86  C   UNL A   1      41.921  28.262  33.657  1.00  0.00     0.012 A 
ATOM     87  C   UNL A   1      43.307  29.790  34.932  1.00  0.00     0.148 A 
ATOM     88  C   UNL A   1      41.983  27.327  34.694  1.00  0.00     0.002 A 
ATOM     89  C   UNL A   1      43.411  28.838  35.937  1.00  0.00     0.091 A 
ATOM     90  F   UNL A   1      43.926  30.977  35.017  1.00  0.00    -0.205 F 
ATOM     91  C   UNL A   1      42.743  27.607  35.827  1.00  0.00     0.022 A 
BRANCH  89  92
ATOM     92  S   UNL A   1      44.492  29.078  37.349  1.00  0.00     0.127 S 
ATOM     93  O   UNL A   1      43.894  30.244  37.996  1.00  0.00    -0.237 OA
ATOM     94  O   UNL A   1      44.333  27.822  38.083  1.00  0.00    -0.237 OA
ATOM     95  O   UNL A   1      45.828  29.282  36.803  1.00  0.00    -0.744 OA
ENDBRANCH  89  92
ENDBRANCH  62  85
ENDBRANCH  36  37
ENDBRANCH  29  31
ENDBRANCH  28  29
ENDBRANCH  27  28
ENDBRANCH   1  27
TORSDOF 18
ENDMDL
MODEL 3
REMARK VINA RESULT:     -11.8      1.551      2.152
REMARK SMILES C[C@H]1CCc2sc3ncn4nc(/C=C\C(=O)OCCOCCOC(=O)c5ccc(-c6c7nc(c(-c8cccc(S(=O)(=O)[O-])c8F)c8ccc([nH]8)c(-c8cccc(S(=O)(=O)[O-])c8F)c8nc(c(-c9cccc(S(=O)(=O)[O-])c9F)c9ccc6[nH]9)C=C8)C=C7)cc5)nc4c3c2C1
REMARK SMILES IDX 21 1 20 2 19 3 18 4 17 5 15 6 16 7 14 8 13 9 12 10 1 11 2 12
REMARK SMILES IDX 3 13 93 14 4 15 92 16 5 17 91 18 6 19 7 20 90 21 8 22 10 23
REMARK SMILES IDX 89 24 9 25 11 26 22 27 23 28 24 29 25 30 26 31 27 32 88 33
REMARK SMILES IDX 28 34 87 35 29 36 30 37 31 38 81 39 32 40 86 41 80 42 82 43
REMARK SMILES IDX 33 44 85 45 79 46 78 47 34 49 66 50 46 51 65 52 47 53 50 54
REMARK SMILES IDX 64 55 83 56 48 57 49 58 63 60 84 61 51 62 35 63 36 64 44 65
REMARK SMILES IDX 37 66 39 67 45 68 38 69 40 70 41 71 42 72 43 73 67 74 68 75
REMARK SMILES IDX 76 76 69 77 71 78 77 79 70 80 72 81 73 82 74 83 75 84 52 85
REMARK SMILES IDX 53 86 61 87 54 88 56 89 62 90 55 91 57 92 58 93 59 94 60 95
REMARK H PARENT 82 48 50 59
REMARK Flexibility Score: inf
ROOT
ATOM      1  C   UNL A   1      33.476  30.559  27.077  1.00  0.00     0.202 C 
ENDROOT
BRANCH   1   2
ATOM      2  O   UNL A   1      32.261  29.825  27.210  1.00  0.00    -0.374 OA
BRANCH   2   3
ATOM      3  C   UNL A   1      31.789  29.116  26.064  1.00  0.00     0.202 C 
BRANCH   3   4
ATOM      4  C   UNL A   1      32.875  28.666  25.089  1.00  0.00     0.261 C 
BRANCH   4   5
ATOM      5  O   UNL A   1      32.697  29.323  23.825  1.00  0.00    -0.460 OA
BRANCH   5   6
ATOM      6  C   UNL A   1      32.681  28.556  22.724  1.00  0.00     0.330 C 
ATOM      7  O   UNL A   1      33.662  28.182  22.094  1.00  0.00    -0.247 OA
BRANCH   6   8
ATOM      8  C   UNL A   1      31.340  28.017  22.414  1.00  0.00     0.097 C 
ATOM      9  C   UNL A   1      30.626  26.979  22.878  1.00  0.00     0.058 C 
BRANCH   9  10
ATOM     10  C   UNL A   1      30.886  26.002  23.883  1.00  0.00     0.175 A 
ATOM     11  C   UNL A   1      37.187  23.855  24.919  1.00  0.00     0.008 C 
ATOM     12  C   UNL A   1      36.286  22.949  24.073  1.00  0.00    -0.009 C 
ATOM     13  C   UNL A   1      36.345  21.477  24.537  1.00  0.00     0.009 C 
ATOM     14  C   UNL A   1      34.835  23.467  24.039  1.00  0.00     0.041 C 
ATOM     15  C   UNL A   1      35.689  21.224  25.911  1.00  0.00     0.047 C 
ATOM     16  C   UNL A   1      34.008  22.993  25.180  1.00  0.00    -0.020 A 
ATOM     17  C   UNL A   1      34.399  21.974  26.023  1.00  0.00     0.011 A 
ATOM     18  C   UNL A   1      32.734  23.467  25.546  1.00  0.00     0.060 A 
ATOM     19  S   UNL A   1      33.261  21.677  27.268  1.00  0.00    -0.120 S 
ATOM     20  C   UNL A   1      32.198  22.887  26.683  1.00  0.00     0.129 A 
ATOM     21  C   UNL A   1      31.881  24.494  24.936  1.00  0.00     0.168 A 
ATOM     22  N   UNL A   1      31.004  23.195  27.294  1.00  0.00    -0.225 NA
ATOM     23  N   UNL A   1      30.695  24.758  25.542  1.00  0.00    -0.201 N 
ATOM     24  N   UNL A   1      32.039  25.258  23.887  1.00  0.00    -0.207 NA
ATOM     25  C   UNL A   1      30.275  24.117  26.709  1.00  0.00     0.227 A 
ATOM     26  N   UNL A   1      30.032  25.732  24.888  1.00  0.00    -0.145 NA
ENDBRANCH   9  10
ENDBRANCH   6   8
ENDBRANCH   5   6
ENDBRANCH   4   5
ENDBRANCH   3   4
ENDBRANCH   2   3
ENDBRANCH   1   2
BRANCH   1  27
ATOM     27  C   UNL A   1      33.530  31.908  27.777  1.00  0.00     0.261 C 
BRANCH  27  28
ATOM     28  O   UNL A   1      34.449  31.916  28.864  1.00  0.00    -0.460 OA
BRANCH  28  29
ATOM     29  C   UNL A   1      35.685  32.358  28.554  1.00  0.00     0.338 C 
ATOM     30  O   UNL A   1      35.971  33.199  27.702  1.00  0.00    -0.246 OA
BRANCH  29  31
ATOM     31  C   UNL A   1      36.673  31.498  29.211  1.00  0.00     0.060 A 
ATOM     32  C   UNL A   1      37.894  32.094  29.530  1.00  0.00     0.016 A 
ATOM     33  C   UNL A   1      36.508  30.102  29.211  1.00  0.00     0.016 A 
ATOM     34  C   UNL A   1      39.003  31.289  29.639  1.00  0.00     0.010 A 
ATOM     35  C   UNL A   1      37.622  29.299  29.312  1.00  0.00     0.010 A 
ATOM     36  C   UNL A   1      38.864  29.910  29.438  1.00  0.00    -0.014 A 
BRANCH  36  37
ATOM     37  C   UNL A   1      40.070  29.114  29.467  1.00  0.00     0.031 A 
ATOM     38  C   UNL A   1      40.590  28.931  30.838  1.00  0.00     0.074 A 
ATOM     39  C   UNL A   1      40.640  28.594  28.365  1.00  0.00     0.049 A 
ATOM     40  N   UNL A   1      41.619  29.508  31.357  1.00  0.00    -0.248 NA
ATOM     41  C   UNL A   1      39.755  28.199  31.800  1.00  0.00     0.031 C 
ATOM     42  C   UNL A   1      40.088  28.492  27.012  1.00  0.00     0.029 A 
ATOM     43  N   UNL A   1      41.822  27.929  28.263  1.00  0.00    -0.354 N 
ATOM     44  C   UNL A   1      41.698  29.020  32.656  1.00  0.00     0.074 A 
ATOM     45  C   UNL A   1      40.426  28.409  32.933  1.00  0.00     0.031 C 
ATOM     46  C   UNL A   1      40.811  27.590  26.308  1.00  0.00     0.029 A 
ATOM     47  C   UNL A   1      41.946  27.163  27.111  1.00  0.00     0.049 A 
ATOM     48  H   UNL A   1      42.528  27.985  28.947  1.00  0.00     0.167 HD
ATOM     49  C   UNL A   1      42.897  28.933  33.291  1.00  0.00     0.034 A 
ATOM     50  C   UNL A   1      42.864  26.188  26.895  1.00  0.00     0.034 A 
ATOM     51  C   UNL A   1      43.896  29.736  32.627  1.00  0.00     0.049 A 
ATOM     52  C   UNL A   1      43.997  26.439  27.820  1.00  0.00     0.074 A 
ATOM     53  C   UNL A   1      44.035  31.078  32.337  1.00  0.00     0.029 A 
ATOM     54  N   UNL A   1      44.774  29.074  31.803  1.00  0.00    -0.354 N 
ATOM     55  N   UNL A   1      44.775  27.481  27.727  1.00  0.00    -0.248 NA
ATOM     56  C   UNL A   1      43.970  25.789  29.121  1.00  0.00     0.031 C 
ATOM     57  C   UNL A   1      44.635  31.115  31.045  1.00  0.00     0.029 A 
ATOM     58  C   UNL A   1      44.890  29.799  30.648  1.00  0.00     0.049 A 
ATOM     59  H   UNL A   1      45.238  28.231  32.007  1.00  0.00     0.167 HD
ATOM     60  C   UNL A   1      44.952  27.893  29.042  1.00  0.00     0.074 A 
ATOM     61  C   UNL A   1      44.519  26.759  29.858  1.00  0.00     0.031 C 
ATOM     62  C   UNL A   1      45.141  29.211  29.350  1.00  0.00     0.034 A 
BRANCH  49  63
ATOM     63  C   UNL A   1      43.285  27.835  34.256  1.00  0.00     0.023 A 
ATOM     64  C   UNL A   1      43.720  28.242  35.538  1.00  0.00     0.012 A 
ATOM     65  C   UNL A   1      43.523  26.487  33.900  1.00  0.00     0.148 A 
ATOM     66  C   UNL A   1      44.427  27.383  36.383  1.00  0.00     0.002 A 
ATOM     67  C   UNL A   1      44.161  25.614  34.773  1.00  0.00     0.091 A 
ATOM     68  F   UNL A   1      43.255  26.055  32.668  1.00  0.00    -0.205 F 
ATOM     69  C   UNL A   1      44.648  26.067  36.000  1.00  0.00     0.022 A 
BRANCH  67  70
ATOM     70  S   UNL A   1      44.439  23.889  34.351  1.00  0.00     0.127 S 
ATOM     71  O   UNL A   1      45.333  23.466  35.424  1.00  0.00    -0.237 OA
ATOM     72  O   UNL A   1      43.083  23.345  34.421  1.00  0.00    -0.237 OA
ATOM     73  O   UNL A   1      45.011  23.895  33.010  1.00  0.00    -0.744 OA
ENDBRANCH  67  70
ENDBRANCH  49  63
BRANCH  50  74
ATOM     74  C   UNL A   1      42.679  24.883  26.214  1.00  0.00     0.023 A 
ATOM     75  C   UNL A   1      43.607  24.452  25.243  1.00  0.00     0.012 A 
ATOM     76  C   UNL A   1      41.758  23.936  26.718  1.00  0.00     0.148 A 
ATOM     77  C   UNL A   1      43.629  23.119  24.808  1.00  0.00     0.002 A 
ATOM     78  C   UNL A   1      41.782  22.615  26.281  1.00  0.00     0.091 A 
ATOM     79  F   UNL A   1      40.921  24.308  27.693  1.00  0.00    -0.205 F 
ATOM     80  C   UNL A   1      42.724  22.200  25.333  1.00  0.00     0.022 A 
BRANCH  78  81
ATOM     81  S   UNL A   1      40.669  21.368  26.944  1.00  0.00     0.127 S 
ATOM     82  O   UNL A   1      40.956  21.443  28.377  1.00  0.00    -0.237 OA
ATOM     83  O   UNL A   1      39.362  21.890  26.553  1.00  0.00    -0.237 OA
ATOM     84  O   UNL A   1      41.056  20.109  26.319  1.00  0.00    -0.744 OA
ENDBRANCH  78  81
ENDBRANCH  50  74
BRANCH  62  85
ATOM     85  C   UNL A   1      45.379  30.185  28.222  1.00  0.00     0.023 A 
ATOM     86  C   UNL A   1      44.321  30.853  27.566  1.00  0.00     0.012 A 
ATOM     87  C   UNL A   1      46.699  30.596  27.970  1.00  0.00     0.148 A 
ATOM     88  C   UNL A   1      44.577  31.899  26.674  1.00  0.00     0.002 A 
ATOM     89  C   UNL A   1      46.946  31.670  27.125  1.00  0.00     0.091 A 
ATOM     90  F   UNL A   1      47.691  29.952  28.602  1.00  0.00    -0.205 F 
ATOM     91  C   UNL A   1      45.889  32.320  26.468  1.00  0.00     0.022 A 
BRANCH  89  92
ATOM     92  S   UNL A   1      48.594  32.353  26.935  1.00  0.00     0.127 S 
ATOM     93  O   UNL A   1      48.891  32.816  28.289  1.00  0.00    -0.237 OA
ATOM     94  O   UNL A   1      49.368  31.188  26.503  1.00  0.00    -0.237 OA
ATOM     95  O   UNL A   1      48.482  33.399  25.926  1.00  0.00    -0.744 OA
ENDBRANCH  89  92
ENDBRANCH  62  85
ENDBRANCH  36  37
ENDBRANCH  29  31
ENDBRANCH  28  29
ENDBRANCH  27  28
ENDBRANCH   1  27
TORSDOF 18
ENDMDL
