MODEL 1
REMARK VINA RESULT:     -10.4      0.000      0.000
REMARK SMILES Cc1c(CC(=O)N[C@@H](CCO)C(=O)OCCOCCOC(=O)c2ccc(-c3c4nc(c(-c5cccc(S(=O)(=O)[O-])c5F)c5ccc([nH]5)c(-c5cccc(S(=O)(=O)[O-])c5F)c5nc(c(-c6cccc(S(=O)(=O)[O-])c6F)c6ccc3[nH]6)C=C5)C=C4)cc2)cc(-c2ccc(S(C)(=O)=O)cc2)n1-c1ccc(F)cc1
REMARK SMILES IDX 16 1 15 2 14 3 12 4 13 5 8 6 7 7 5 8 6 9 4 11 3 12 1 13 2 14
REMARK SMILES IDX 98 15 86 16 87 17 99 18 100 19 105 20 101 21 104 22 102 23
REMARK SMILES IDX 103 24 88 25 89 26 97 27 90 28 96 29 91 30 92 31 93 32 94 33
REMARK SMILES IDX 95 34 9 35 10 36 11 37 17 39 18 40 19 41 20 42 21 43 22 44
REMARK SMILES IDX 23 45 24 46 85 47 25 48 84 49 26 50 27 51 28 52 78 53 29 54
REMARK SMILES IDX 83 55 77 56 79 57 30 58 82 59 76 60 75 61 31 63 63 64 43 65
REMARK SMILES IDX 62 66 44 67 47 68 61 69 80 70 45 71 46 72 60 74 81 75 48 76
REMARK SMILES IDX 32 77 33 78 41 79 34 80 36 81 42 82 35 83 37 84 38 85 39 86
REMARK SMILES IDX 40 87 64 88 65 89 73 90 66 91 68 92 74 93 67 94 69 95 70 96
REMARK SMILES IDX 71 97 72 98 49 99 50 100 58 101 51 102 53 103 59 104 52 105
REMARK SMILES IDX 54 106 55 107 56 108 57 109
REMARK H PARENT 7 10 11 38 79 62 47 73
REMARK Flexibility Score: inf
ROOT
ATOM      1  C   UNL A   1      34.883  22.613  25.835  1.00  0.00     0.202 C 
ENDROOT
BRANCH   1   2
ATOM      2  C   UNL A   1      34.923  24.128  25.563  1.00  0.00     0.261 C 
BRANCH   2   3
ATOM      3  O   UNL A   1      33.706  24.776  25.968  1.00  0.00    -0.462 OA
BRANCH   3   4
ATOM      4  C   UNL A   1      33.451  25.980  25.383  1.00  0.00     0.328 C 
ATOM      5  O   UNL A   1      33.906  26.352  24.306  1.00  0.00    -0.250 OA
BRANCH   4   6
ATOM      6  C   UNL A   1      32.617  26.891  26.295  1.00  0.00     0.194 C 
BRANCH   6   7
ATOM      7  N   UNL A   1      32.569  28.304  25.907  1.00  0.00    -0.342 N 
ATOM      8  C   UNL A   1      33.476  29.301  26.122  1.00  0.00     0.225 C 
ATOM      9  O   UNL A   1      33.195  30.426  25.702  1.00  0.00    -0.275 OA
ATOM     10  H   UNL A   1      31.759  28.575  25.417  1.00  0.00     0.164 HD
BRANCH   8  11
ATOM     11  C   UNL A   1      34.812  29.031  26.802  1.00  0.00     0.137 C 
BRANCH  11  12
ATOM     12  C   UNL A   1      35.216  30.084  27.791  1.00  0.00    -0.017 A 
ATOM     13  C   UNL A   1      37.766  29.683  27.919  1.00  0.00     0.065 C 
ATOM     14  C   UNL A   1      36.497  30.419  28.213  1.00  0.00     0.024 A 
ATOM     15  N   UNL A   1      36.405  31.537  29.039  1.00  0.00    -0.314 N 
ATOM     16  C   UNL A   1      34.321  30.921  28.504  1.00  0.00     0.033 A 
ATOM     17  C   UNL A   1      35.054  31.847  29.218  1.00  0.00     0.053 A 
BRANCH  15  18
ATOM     18  C   UNL A   1      37.490  32.285  29.574  1.00  0.00     0.046 A 
ATOM     19  C   UNL A   1      37.994  31.966  30.844  1.00  0.00     0.029 A 
ATOM     20  C   UNL A   1      37.980  33.395  28.873  1.00  0.00     0.029 A 
ATOM     21  C   UNL A   1      38.980  32.768  31.416  1.00  0.00     0.041 A 
ATOM     22  C   UNL A   1      38.958  34.199  29.460  1.00  0.00     0.041 A 
ATOM     23  C   UNL A   1      39.444  33.881  30.725  1.00  0.00     0.123 A 
ATOM     24  F   UNL A   1      40.369  34.667  31.294  1.00  0.00    -0.207 F 
ENDBRANCH  15  18
BRANCH  17  25
ATOM     25  C   UNL A   1      34.531  33.026  29.917  1.00  0.00    -0.001 A 
ATOM     26  C   UNL A   1      34.632  33.139  31.314  1.00  0.00     0.011 A 
ATOM     27  C   UNL A   1      33.944  34.068  29.188  1.00  0.00     0.011 A 
ATOM     28  C   UNL A   1      34.110  34.249  31.977  1.00  0.00     0.021 A 
ATOM     29  C   UNL A   1      33.418  35.183  29.845  1.00  0.00     0.021 A 
ATOM     30  C   UNL A   1      33.488  35.258  31.239  1.00  0.00     0.067 A 
BRANCH  30  31
ATOM     31  S   UNL A   1      32.802  36.660  32.085  1.00  0.00     0.175 S 
ATOM     32  C   UNL A   1      33.914  36.928  33.440  1.00  0.00     0.163 C 
ATOM     33  O   UNL A   1      32.905  37.797  31.183  1.00  0.00    -0.224 OA
ATOM     34  O   UNL A   1      31.525  36.266  32.643  1.00  0.00    -0.224 OA
ENDBRANCH  30  31
ENDBRANCH  17  25
ENDBRANCH  11  12
ENDBRANCH   8  11
ENDBRANCH   6   7
BRANCH   6  35
ATOM     35  C   UNL A   1      31.194  26.336  26.453  1.00  0.00     0.065 C 
BRANCH  35  36
ATOM     36  C   UNL A   1      30.574  25.792  25.165  1.00  0.00     0.159 C 
BRANCH  36  37
ATOM     37  O   UNL A   1      29.163  25.707  25.271  1.00  0.00    -0.396 OA
ATOM     38  H   UNL A   1      28.807  26.562  25.559  1.00  0.00     0.210 HD
ENDBRANCH  36  37
ENDBRANCH  35  36
ENDBRANCH   6  35
ENDBRANCH   4   6
ENDBRANCH   3   4
ENDBRANCH   2   3
ENDBRANCH   1   2
BRANCH   1  39
ATOM     39  O   UNL A   1      35.896  21.855  25.188  1.00  0.00    -0.374 OA
BRANCH  39  40
ATOM     40  C   UNL A   1      37.251  22.297  25.407  1.00  0.00     0.202 C 
BRANCH  40  41
ATOM     41  C   UNL A   1      38.419  21.273  25.160  1.00  0.00     0.261 C 
BRANCH  41  42
ATOM     42  O   UNL A   1      39.416  20.952  26.243  1.00  0.00    -0.460 OA
BRANCH  42  43
ATOM     43  C   UNL A   1      40.609  21.672  26.286  1.00  0.00     0.338 C 
ATOM     44  O   UNL A   1      41.553  21.367  25.562  1.00  0.00    -0.246 OA
BRANCH  43  45
ATOM     45  C   UNL A   1      40.759  22.920  27.250  1.00  0.00     0.060 A 
ATOM     46  C   UNL A   1      39.702  23.804  27.569  1.00  0.00     0.016 A 
ATOM     47  C   UNL A   1      41.963  23.453  27.669  1.00  0.00     0.016 A 
ATOM     48  C   UNL A   1      39.843  25.152  28.263  1.00  0.00     0.010 A 
ATOM     49  C   UNL A   1      42.084  24.804  28.328  1.00  0.00     0.010 A 
ATOM     50  C   UNL A   1      41.060  25.802  28.644  1.00  0.00    -0.014 A 
BRANCH  50  51
ATOM     51  C   UNL A   1      41.161  27.612  28.800  1.00  0.00     0.031 A 
ATOM     52  C   UNL A   1      41.629  28.093  27.432  1.00  0.00     0.074 A 
ATOM     53  C   UNL A   1      41.342  28.835  29.626  1.00  0.00     0.049 A 
ATOM     54  N   UNL A   1      42.855  28.518  27.395  1.00  0.00    -0.248 NA
ATOM     55  C   UNL A   1      41.258  27.478  26.159  1.00  0.00     0.031 C 
ATOM     56  C   UNL A   1      41.678  30.237  29.048  1.00  0.00     0.029 A 
ATOM     57  N   UNL A   1      41.470  29.244  31.015  1.00  0.00    -0.354 N 
ATOM     58  C   UNL A   1      43.451  27.468  26.796  1.00  0.00     0.074 A 
ATOM     59  C   UNL A   1      42.468  27.010  25.804  1.00  0.00     0.031 C 
ATOM     60  C   UNL A   1      41.892  31.210  29.966  1.00  0.00     0.029 A 
ATOM     61  C   UNL A   1      41.703  30.701  31.315  1.00  0.00     0.049 A 
ATOM     62  H   UNL A   1      41.405  28.583  31.743  1.00  0.00     0.167 HD
ATOM     63  C   UNL A   1      44.379  26.752  27.482  1.00  0.00     0.034 A 
ATOM     64  C   UNL A   1      42.321  31.376  32.380  1.00  0.00     0.034 A 
ATOM     65  C   UNL A   1      44.518  27.003  28.933  1.00  0.00     0.049 A 
ATOM     66  C   UNL A   1      43.542  30.621  32.707  1.00  0.00     0.074 A 
ATOM     67  C   UNL A   1      43.761  26.830  30.081  1.00  0.00     0.029 A 
ATOM     68  N   UNL A   1      45.639  27.633  29.433  1.00  0.00    -0.354 N 
ATOM     69  N   UNL A   1      44.752  30.854  32.289  1.00  0.00    -0.248 NA
ATOM     70  C   UNL A   1      43.349  29.457  33.551  1.00  0.00     0.031 C 
ATOM     71  C   UNL A   1      44.526  27.006  31.230  1.00  0.00     0.029 A 
ATOM     72  C   UNL A   1      45.464  27.900  30.795  1.00  0.00     0.049 A 
ATOM     73  H   UNL A   1      46.441  27.860  28.910  1.00  0.00     0.167 HD
ATOM     74  C   UNL A   1      45.370  29.626  32.470  1.00  0.00     0.074 A 
ATOM     75  C   UNL A   1      44.551  28.913  33.440  1.00  0.00     0.031 C 
ATOM     76  C   UNL A   1      46.006  29.085  31.393  1.00  0.00     0.034 A 
BRANCH  63  77
ATOM     77  C   UNL A   1      45.294  25.867  26.715  1.00  0.00     0.023 A 
ATOM     78  C   UNL A   1      44.963  24.518  26.455  1.00  0.00     0.012 A 
ATOM     79  C   UNL A   1      46.361  26.441  26.013  1.00  0.00     0.148 A 
ATOM     80  C   UNL A   1      45.621  23.788  25.475  1.00  0.00     0.002 A 
ATOM     81  C   UNL A   1      46.946  25.746  24.971  1.00  0.00     0.091 A 
ATOM     82  F   UNL A   1      46.785  27.667  26.350  1.00  0.00    -0.205 F 
ATOM     83  C   UNL A   1      46.577  24.421  24.696  1.00  0.00     0.022 A 
BRANCH  81  84
ATOM     84  S   UNL A   1      48.104  26.542  23.863  1.00  0.00     0.127 S 
ATOM     85  O   UNL A   1      49.177  26.908  24.784  1.00  0.00    -0.237 OA
ATOM     86  O   UNL A   1      48.435  25.467  22.929  1.00  0.00    -0.237 OA
ATOM     87  O   UNL A   1      47.392  27.666  23.269  1.00  0.00    -0.744 OA
ENDBRANCH  81  84
ENDBRANCH  63  77
BRANCH  64  88
ATOM     88  C   UNL A   1      42.218  32.657  33.282  1.00  0.00     0.023 A 
ATOM     89  C   UNL A   1      43.058  33.792  33.375  1.00  0.00     0.012 A 
ATOM     90  C   UNL A   1      41.231  32.582  34.325  1.00  0.00     0.148 A 
ATOM     91  C   UNL A   1      42.889  34.779  34.411  1.00  0.00     0.002 A 
ATOM     92  C   UNL A   1      41.070  33.545  35.341  1.00  0.00     0.091 A 
ATOM     93  F   UNL A   1      40.403  31.531  34.326  1.00  0.00    -0.205 F 
ATOM     94  C   UNL A   1      41.900  34.657  35.391  1.00  0.00     0.022 A 
BRANCH  92  95
ATOM     95  S   UNL A   1      39.782  33.362  36.602  1.00  0.00     0.127 S 
ATOM     96  O   UNL A   1      40.261  32.249  37.422  1.00  0.00    -0.237 OA
ATOM     97  O   UNL A   1      39.828  34.665  37.264  1.00  0.00    -0.237 OA
ATOM     98  O   UNL A   1      38.560  33.072  35.862  1.00  0.00    -0.744 OA
ENDBRANCH  92  95
ENDBRANCH  64  88
BRANCH  76  99
ATOM     99  C   UNL A   1      46.987  29.943  30.697  1.00  0.00     0.023 A 
ATOM    100  C   UNL A   1      48.302  29.839  31.171  1.00  0.00     0.012 A 
ATOM    101  C   UNL A   1      46.710  30.653  29.517  1.00  0.00     0.148 A 
ATOM    102  C   UNL A   1      49.349  30.363  30.431  1.00  0.00     0.002 A 
ATOM    103  C   UNL A   1      47.762  31.132  28.757  1.00  0.00     0.091 A 
ATOM    104  F   UNL A   1      45.441  30.753  29.095  1.00  0.00    -0.205 F 
ATOM    105  C   UNL A   1      49.082  30.983  29.211  1.00  0.00     0.022 A 
BRANCH 103 106
ATOM    106  S   UNL A   1      47.506  31.892  27.152  1.00  0.00     0.127 S 
ATOM    107  O   UNL A   1      46.633  30.923  26.488  1.00  0.00    -0.237 OA
ATOM    108  O   UNL A   1      46.858  33.151  27.507  1.00  0.00    -0.237 OA
ATOM    109  O   UNL A   1      48.825  32.016  26.545  1.00  0.00    -0.744 OA
ENDBRANCH 103 106
ENDBRANCH  76  99
ENDBRANCH  50  51
ENDBRANCH  43  45
ENDBRANCH  42  43
ENDBRANCH  41  42
ENDBRANCH  40  41
ENDBRANCH  39  40
ENDBRANCH   1  39
TORSDOF 26
ENDMDL
MODEL 2
REMARK VINA RESULT:      -9.6      1.783      2.116
REMARK SMILES Cc1c(CC(=O)N[C@@H](CCO)C(=O)OCCOCCOC(=O)c2ccc(-c3c4nc(c(-c5cccc(S(=O)(=O)[O-])c5F)c5ccc([nH]5)c(-c5cccc(S(=O)(=O)[O-])c5F)c5nc(c(-c6cccc(S(=O)(=O)[O-])c6F)c6ccc3[nH]6)C=C5)C=C4)cc2)cc(-c2ccc(S(C)(=O)=O)cc2)n1-c1ccc(F)cc1
REMARK SMILES IDX 16 1 15 2 14 3 12 4 13 5 8 6 7 7 5 8 6 9 4 11 3 12 1 13 2 14
REMARK SMILES IDX 98 15 86 16 87 17 99 18 100 19 105 20 101 21 104 22 102 23
REMARK SMILES IDX 103 24 88 25 89 26 97 27 90 28 96 29 91 30 92 31 93 32 94 33
REMARK SMILES IDX 95 34 9 35 10 36 11 37 17 39 18 40 19 41 20 42 21 43 22 44
REMARK SMILES IDX 23 45 24 46 85 47 25 48 84 49 26 50 27 51 28 52 78 53 29 54
REMARK SMILES IDX 83 55 77 56 79 57 30 58 82 59 76 60 75 61 31 63 63 64 43 65
REMARK SMILES IDX 62 66 44 67 47 68 61 69 80 70 45 71 46 72 60 74 81 75 48 76
REMARK SMILES IDX 32 77 33 78 41 79 34 80 36 81 42 82 35 83 37 84 38 85 39 86
REMARK SMILES IDX 40 87 64 88 65 89 73 90 66 91 68 92 74 93 67 94 69 95 70 96
REMARK SMILES IDX 71 97 72 98 49 99 50 100 58 101 51 102 53 103 59 104 52 105
REMARK SMILES IDX 54 106 55 107 56 108 57 109
REMARK H PARENT 7 10 11 38 79 62 47 73
REMARK Flexibility Score: inf
ROOT
ATOM      1  C   UNL A   1      34.172  22.911  23.966  1.00  0.00     0.202 C 
ENDROOT
BRANCH   1   2
ATOM      2  C   UNL A   1      34.244  24.382  23.512  1.00  0.00     0.261 C 
BRANCH   2   3
ATOM      3  O   UNL A   1      34.070  25.289  24.613  1.00  0.00    -0.462 OA
BRANCH   3   4
ATOM      4  C   UNL A   1      33.380  26.431  24.338  1.00  0.00     0.328 C 
ATOM      5  O   UNL A   1      33.370  27.006  23.254  1.00  0.00    -0.250 OA
BRANCH   4   6
ATOM      6  C   UNL A   1      32.702  27.004  25.591  1.00  0.00     0.194 C 
BRANCH   6   7
ATOM      7  N   UNL A   1      32.532  28.460  25.612  1.00  0.00    -0.342 N 
ATOM      8  C   UNL A   1      33.336  29.427  26.142  1.00  0.00     0.225 C 
ATOM      9  O   UNL A   1      32.962  30.597  26.039  1.00  0.00    -0.275 OA
ATOM     10  H   UNL A   1      31.713  28.790  25.177  1.00  0.00     0.164 HD
BRANCH   8  11
ATOM     11  C   UNL A   1      34.675  29.086  26.785  1.00  0.00     0.137 C 
BRANCH  11  12
ATOM     12  C   UNL A   1      35.153  30.109  27.773  1.00  0.00    -0.017 A 
ATOM     13  C   UNL A   1      37.702  29.686  27.721  1.00  0.00     0.065 C 
ATOM     14  C   UNL A   1      36.462  30.423  28.117  1.00  0.00     0.024 A 
ATOM     15  N   UNL A   1      36.436  31.518  28.977  1.00  0.00    -0.314 N 
ATOM     16  C   UNL A   1      34.315  30.933  28.565  1.00  0.00     0.033 A 
ATOM     17  C   UNL A   1      35.103  31.834  29.254  1.00  0.00     0.053 A 
BRANCH  15  18
ATOM     18  C   UNL A   1      37.560  32.244  29.459  1.00  0.00     0.046 A 
ATOM     19  C   UNL A   1      38.246  31.787  30.594  1.00  0.00     0.029 A 
ATOM     20  C   UNL A   1      37.912  33.459  28.857  1.00  0.00     0.029 A 
ATOM     21  C   UNL A   1      39.277  32.555  31.133  1.00  0.00     0.041 A 
ATOM     22  C   UNL A   1      38.936  34.228  29.411  1.00  0.00     0.041 A 
ATOM     23  C   UNL A   1      39.604  33.771  30.544  1.00  0.00     0.123 A 
ATOM     24  F   UNL A   1      40.574  34.521  31.085  1.00  0.00    -0.207 F 
ENDBRANCH  15  18
BRANCH  17  25
ATOM     25  C   UNL A   1      34.637  32.997  30.017  1.00  0.00    -0.001 A 
ATOM     26  C   UNL A   1      34.856  33.083  31.402  1.00  0.00     0.011 A 
ATOM     27  C   UNL A   1      33.989  34.050  29.361  1.00  0.00     0.011 A 
ATOM     28  C   UNL A   1      34.388  34.179  32.129  1.00  0.00     0.021 A 
ATOM     29  C   UNL A   1      33.518  35.151  30.082  1.00  0.00     0.021 A 
ATOM     30  C   UNL A   1      33.705  35.199  31.465  1.00  0.00     0.067 A 
BRANCH  30  31
ATOM     31  S   UNL A   1      33.090  36.582  32.394  1.00  0.00     0.175 S 
ATOM     32  C   UNL A   1      31.388  36.179  32.685  1.00  0.00     0.163 C 
ATOM     33  O   UNL A   1      33.782  36.580  33.675  1.00  0.00    -0.224 OA
ATOM     34  O   UNL A   1      33.119  37.747  31.535  1.00  0.00    -0.224 OA
ENDBRANCH  30  31
ENDBRANCH  17  25
ENDBRANCH  11  12
ENDBRANCH   8  11
ENDBRANCH   6   7
BRANCH   6  35
ATOM     35  C   UNL A   1      31.355  26.309  25.838  1.00  0.00     0.065 C 
BRANCH  35  36
ATOM     36  C   UNL A   1      30.254  26.677  24.842  1.00  0.00     0.159 C 
BRANCH  36  37
ATOM     37  O   UNL A   1      29.681  25.518  24.260  1.00  0.00    -0.396 OA
ATOM     38  H   UNL A   1      28.715  25.601  24.258  1.00  0.00     0.210 HD
ENDBRANCH  36  37
ENDBRANCH  35  36
ENDBRANCH   6  35
ENDBRANCH   4   6
ENDBRANCH   3   4
ENDBRANCH   2   3
ENDBRANCH   1   2
BRANCH   1  39
ATOM     39  O   UNL A   1      35.419  22.232  24.011  1.00  0.00    -0.374 OA
BRANCH  39  40
ATOM     40  C   UNL A   1      35.897  21.878  25.324  1.00  0.00     0.202 C 
BRANCH  40  41
ATOM     41  C   UNL A   1      36.793  22.914  26.096  1.00  0.00     0.261 C 
BRANCH  41  42
ATOM     42  O   UNL A   1      38.213  23.187  25.672  1.00  0.00    -0.460 OA
BRANCH  42  43
ATOM     43  C   UNL A   1      39.240  22.946  26.584  1.00  0.00     0.338 C 
ATOM     44  O   UNL A   1      39.760  21.836  26.664  1.00  0.00    -0.246 OA
BRANCH  43  45
ATOM     45  C   UNL A   1      39.778  24.110  27.514  1.00  0.00     0.060 A 
ATOM     46  C   UNL A   1      38.975  25.169  27.998  1.00  0.00     0.016 A 
ATOM     47  C   UNL A   1      41.113  24.388  27.738  1.00  0.00     0.016 A 
ATOM     48  C   UNL A   1      39.482  26.442  28.663  1.00  0.00     0.010 A 
ATOM     49  C   UNL A   1      41.595  25.668  28.372  1.00  0.00     0.010 A 
ATOM     50  C   UNL A   1      40.846  26.834  28.848  1.00  0.00    -0.014 A 
BRANCH  50  51
ATOM     51  C   UNL A   1      41.321  28.584  28.989  1.00  0.00     0.031 A 
ATOM     52  C   UNL A   1      41.862  28.951  27.613  1.00  0.00     0.074 A 
ATOM     53  C   UNL A   1      41.759  29.748  29.805  1.00  0.00     0.049 A 
ATOM     54  N   UNL A   1      43.149  29.114  27.560  1.00  0.00    -0.248 NA
ATOM     55  C   UNL A   1      41.357  28.419  26.349  1.00  0.00     0.031 C 
ATOM     56  C   UNL A   1      42.371  31.047  29.212  1.00  0.00     0.029 A 
ATOM     57  N   UNL A   1      41.985  30.129  31.189  1.00  0.00    -0.354 N 
ATOM     58  C   UNL A   1      43.509  27.960  26.964  1.00  0.00     0.074 A 
ATOM     59  C   UNL A   1      42.441  27.710  25.985  1.00  0.00     0.031 C 
ATOM     60  C   UNL A   1      42.792  31.960  30.120  1.00  0.00     0.029 A 
ATOM     61  C   UNL A   1      42.517  31.509  31.475  1.00  0.00     0.049 A 
ATOM     62  H   UNL A   1      41.793  29.500  31.922  1.00  0.00     0.167 HD
ATOM     63  C   UNL A   1      44.276  27.072  27.645  1.00  0.00     0.034 A 
ATOM     64  C   UNL A   1      43.274  32.046  32.529  1.00  0.00     0.034 A 
ATOM     65  C   UNL A   1      44.480  27.296  29.092  1.00  0.00     0.049 A 
ATOM     66  C   UNL A   1      44.316  31.058  32.849  1.00  0.00     0.074 A 
ATOM     67  C   UNL A   1      43.717  27.289  30.249  1.00  0.00     0.029 A 
ATOM     68  N   UNL A   1      45.714  27.684  29.576  1.00  0.00    -0.354 N 
ATOM     69  N   UNL A   1      45.543  31.034  32.417  1.00  0.00    -0.248 NA
ATOM     70  C   UNL A   1      43.897  29.963  33.703  1.00  0.00     0.031 C 
ATOM     71  C   UNL A   1      44.515  27.309  31.389  1.00  0.00     0.029 A 
ATOM     72  C   UNL A   1      45.613  27.988  30.939  1.00  0.00     0.049 A 
ATOM     73  H   UNL A   1      46.539  27.738  29.044  1.00  0.00     0.167 HD
ATOM     74  C   UNL A   1      45.897  29.705  32.601  1.00  0.00     0.074 A 
ATOM     75  C   UNL A   1      44.960  29.182  33.585  1.00  0.00     0.031 C 
ATOM     76  C   UNL A   1      46.395  29.039  31.522  1.00  0.00     0.034 A 
BRANCH  63  77
ATOM     77  C   UNL A   1      44.980  26.013  26.876  1.00  0.00     0.023 A 
ATOM     78  C   UNL A   1      44.337  24.801  26.538  1.00  0.00     0.012 A 
ATOM     79  C   UNL A   1      46.192  26.325  26.247  1.00  0.00     0.148 A 
ATOM     80  C   UNL A   1      44.842  23.964  25.553  1.00  0.00     0.002 A 
ATOM     81  C   UNL A   1      46.638  25.542  25.198  1.00  0.00     0.091 A 
ATOM     82  F   UNL A   1      46.891  27.391  26.659  1.00  0.00    -0.205 F 
ATOM     83  C   UNL A   1      45.965  24.363  24.845  1.00  0.00     0.022 A 
BRANCH  81  84
ATOM     84  S   UNL A   1      48.014  26.060  24.178  1.00  0.00     0.127 S 
ATOM     85  O   UNL A   1      48.090  24.959  23.220  1.00  0.00    -0.237 OA
ATOM     86  O   UNL A   1      47.538  27.325  23.624  1.00  0.00    -0.237 OA
ATOM     87  O   UNL A   1      49.160  26.179  25.071  1.00  0.00    -0.744 OA
ENDBRANCH  81  84
ENDBRANCH  63  77
BRANCH  64  88
ATOM     88  C   UNL A   1      43.448  33.326  33.422  1.00  0.00     0.023 A 
ATOM     89  C   UNL A   1      42.959  33.625  34.716  1.00  0.00     0.012 A 
ATOM     90  C   UNL A   1      44.022  34.458  32.746  1.00  0.00     0.148 A 
ATOM     91  C   UNL A   1      43.073  34.942  35.286  1.00  0.00     0.002 A 
ATOM     92  C   UNL A   1      44.129  35.748  33.303  1.00  0.00     0.091 A 
ATOM     93  F   UNL A   1      44.495  34.273  31.509  1.00  0.00    -0.205 F 
ATOM     94  C   UNL A   1      43.655  36.001  34.583  1.00  0.00     0.022 A 
BRANCH  92  95
ATOM     95  S   UNL A   1      44.885  37.106  32.370  1.00  0.00     0.127 S 
ATOM     96  O   UNL A   1      44.687  38.268  33.236  1.00  0.00    -0.237 OA
ATOM     97  O   UNL A   1      46.272  36.657  32.267  1.00  0.00    -0.237 OA
ATOM     98  O   UNL A   1      44.145  37.166  31.115  1.00  0.00    -0.744 OA
ENDBRANCH  92  95
ENDBRANCH  64  88
BRANCH  76  99
ATOM     99  C   UNL A   1      47.523  29.672  30.810  1.00  0.00     0.023 A 
ATOM    100  C   UNL A   1      48.794  29.261  31.235  1.00  0.00     0.012 A 
ATOM    101  C   UNL A   1      47.380  30.459  29.654  1.00  0.00     0.148 A 
ATOM    102  C   UNL A   1      49.911  29.556  30.470  1.00  0.00     0.002 A 
ATOM    103  C   UNL A   1      48.490  30.708  28.868  1.00  0.00     0.091 A 
ATOM    104  F   UNL A   1      46.155  30.854  29.279  1.00  0.00    -0.205 F 
ATOM    105  C   UNL A   1      49.755  30.253  29.272  1.00  0.00     0.022 A 
BRANCH 103 106
ATOM    106  S   UNL A   1      48.366  31.550  27.288  1.00  0.00     0.127 S 
ATOM    107  O   UNL A   1      47.440  30.688  26.552  1.00  0.00    -0.237 OA
ATOM    108  O   UNL A   1      47.815  32.847  27.673  1.00  0.00    -0.237 OA
ATOM    109  O   UNL A   1      49.714  31.582  26.736  1.00  0.00    -0.744 OA
ENDBRANCH 103 106
ENDBRANCH  76  99
ENDBRANCH  50  51
ENDBRANCH  43  45
ENDBRANCH  42  43
ENDBRANCH  41  42
ENDBRANCH  40  41
ENDBRANCH  39  40
ENDBRANCH   1  39
TORSDOF 26
ENDMDL
MODEL 3
REMARK VINA RESULT:      -9.1      1.800      2.165
REMARK SMILES Cc1c(CC(=O)N[C@@H](CCO)C(=O)OCCOCCOC(=O)c2ccc(-c3c4nc(c(-c5cccc(S(=O)(=O)[O-])c5F)c5ccc([nH]5)c(-c5cccc(S(=O)(=O)[O-])c5F)c5nc(c(-c6cccc(S(=O)(=O)[O-])c6F)c6ccc3[nH]6)C=C5)C=C4)cc2)cc(-c2ccc(S(C)(=O)=O)cc2)n1-c1ccc(F)cc1
REMARK SMILES IDX 16 1 15 2 14 3 12 4 13 5 8 6 7 7 5 8 6 9 4 11 3 12 1 13 2 14
REMARK SMILES IDX 98 15 86 16 87 17 99 18 100 19 105 20 101 21 104 22 102 23
REMARK SMILES IDX 103 24 88 25 89 26 97 27 90 28 96 29 91 30 92 31 93 32 94 33
REMARK SMILES IDX 95 34 9 35 10 36 11 37 17 39 18 40 19 41 20 42 21 43 22 44
REMARK SMILES IDX 23 45 24 46 85 47 25 48 84 49 26 50 27 51 28 52 78 53 29 54
REMARK SMILES IDX 83 55 77 56 79 57 30 58 82 59 76 60 75 61 31 63 63 64 43 65
REMARK SMILES IDX 62 66 44 67 47 68 61 69 80 70 45 71 46 72 60 74 81 75 48 76
REMARK SMILES IDX 32 77 33 78 41 79 34 80 36 81 42 82 35 83 37 84 38 85 39 86
REMARK SMILES IDX 40 87 64 88 65 89 73 90 66 91 68 92 74 93 67 94 69 95 70 96
REMARK SMILES IDX 71 97 72 98 49 99 50 100 58 101 51 102 53 103 59 104 52 105
REMARK SMILES IDX 54 106 55 107 56 108 57 109
REMARK H PARENT 7 10 11 38 79 62 47 73
REMARK Flexibility Score: inf
ROOT
ATOM      1  C   UNL A   1      34.132  22.699  23.809  1.00  0.00     0.202 C 
ENDROOT
BRANCH   1   2
ATOM      2  C   UNL A   1      34.128  24.100  23.169  1.00  0.00     0.261 C 
BRANCH   2   3
ATOM      3  O   UNL A   1      34.631  25.101  24.069  1.00  0.00    -0.462 OA
BRANCH   3   4
ATOM      4  C   UNL A   1      33.752  26.082  24.417  1.00  0.00     0.328 C 
ATOM      5  O   UNL A   1      33.193  26.840  23.632  1.00  0.00    -0.250 OA
BRANCH   4   6
ATOM      6  C   UNL A   1      33.632  26.224  25.942  1.00  0.00     0.194 C 
BRANCH   6   7
ATOM      7  N   UNL A   1      32.798  27.335  26.411  1.00  0.00    -0.342 N 
ATOM      8  C   UNL A   1      33.137  28.629  26.682  1.00  0.00     0.225 C 
ATOM      9  O   UNL A   1      32.245  29.379  27.082  1.00  0.00    -0.275 OA
ATOM     10  H   UNL A   1      31.849  27.113  26.554  1.00  0.00     0.164 HD
BRANCH   8  11
ATOM     11  C   UNL A   1      34.549  29.149  26.444  1.00  0.00     0.137 C 
BRANCH  11  12
ATOM     12  C   UNL A   1      35.020  30.127  27.479  1.00  0.00    -0.017 A 
ATOM     13  C   UNL A   1      37.533  29.539  27.605  1.00  0.00     0.065 C 
ATOM     14  C   UNL A   1      36.317  30.351  27.922  1.00  0.00     0.024 A 
ATOM     15  N   UNL A   1      36.299  31.437  28.795  1.00  0.00    -0.314 N 
ATOM     16  C   UNL A   1      34.181  30.996  28.222  1.00  0.00     0.033 A 
ATOM     17  C   UNL A   1      34.973  31.836  28.980  1.00  0.00     0.053 A 
BRANCH  15  18
ATOM     18  C   UNL A   1      37.431  32.081  29.368  1.00  0.00     0.046 A 
ATOM     19  C   UNL A   1      38.061  31.513  30.485  1.00  0.00     0.029 A 
ATOM     20  C   UNL A   1      37.843  33.326  28.875  1.00  0.00     0.029 A 
ATOM     21  C   UNL A   1      39.098  32.199  31.115  1.00  0.00     0.041 A 
ATOM     22  C   UNL A   1      38.872  34.012  29.522  1.00  0.00     0.041 A 
ATOM     23  C   UNL A   1      39.486  33.445  30.635  1.00  0.00     0.123 A 
ATOM     24  F   UNL A   1      40.461  34.115  31.264  1.00  0.00    -0.207 F 
ENDBRANCH  15  18
BRANCH  17  25
ATOM     25  C   UNL A   1      34.529  33.019  29.726  1.00  0.00    -0.001 A 
ATOM     26  C   UNL A   1      33.866  34.073  29.075  1.00  0.00     0.011 A 
ATOM     27  C   UNL A   1      34.745  33.097  31.107  1.00  0.00     0.011 A 
ATOM     28  C   UNL A   1      33.470  35.208  29.783  1.00  0.00     0.021 A 
ATOM     29  C   UNL A   1      34.351  34.230  31.823  1.00  0.00     0.021 A 
ATOM     30  C   UNL A   1      33.732  35.288  31.151  1.00  0.00     0.067 A 
BRANCH  30  31
ATOM     31  S   UNL A   1      33.249  36.742  32.047  1.00  0.00     0.175 S 
ATOM     32  C   UNL A   1      31.767  36.254  32.890  1.00  0.00     0.163 C 
ATOM     33  O   UNL A   1      34.277  36.991  33.047  1.00  0.00    -0.224 OA
ATOM     34  O   UNL A   1      32.885  37.761  31.085  1.00  0.00    -0.224 OA
ENDBRANCH  30  31
ENDBRANCH  17  25
ENDBRANCH  11  12
ENDBRANCH   8  11
ENDBRANCH   6   7
BRANCH   6  35
ATOM     35  C   UNL A   1      33.158  24.904  26.568  1.00  0.00     0.065 C 
BRANCH  35  36
ATOM     36  C   UNL A   1      31.651  24.660  26.481  1.00  0.00     0.159 C 
BRANCH  36  37
ATOM     37  O   UNL A   1      31.356  23.570  25.624  1.00  0.00    -0.396 OA
ATOM     38  H   UNL A   1      31.433  22.739  26.118  1.00  0.00     0.210 HD
ENDBRANCH  36  37
ENDBRANCH  35  36
ENDBRANCH   6  35
ENDBRANCH   4   6
ENDBRANCH   3   4
ENDBRANCH   2   3
ENDBRANCH   1   2
BRANCH   1  39
ATOM     39  O   UNL A   1      35.369  22.003  23.730  1.00  0.00    -0.374 OA
BRANCH  39  40
ATOM     40  C   UNL A   1      35.939  21.586  24.987  1.00  0.00     0.202 C 
BRANCH  40  41
ATOM     41  C   UNL A   1      36.677  22.661  25.865  1.00  0.00     0.261 C 
BRANCH  41  42
ATOM     42  O   UNL A   1      38.006  23.232  25.446  1.00  0.00    -0.460 OA
BRANCH  42  43
ATOM     43  C   UNL A   1      39.114  23.016  26.265  1.00  0.00     0.338 C 
ATOM     44  O   UNL A   1      39.781  21.990  26.161  1.00  0.00    -0.246 OA
BRANCH  43  45
ATOM     45  C   UNL A   1      39.552  24.107  27.328  1.00  0.00     0.060 A 
ATOM     46  C   UNL A   1      38.748  25.208  27.706  1.00  0.00     0.016 A 
ATOM     47  C   UNL A   1      40.839  24.276  27.800  1.00  0.00     0.016 A 
ATOM     48  C   UNL A   1      39.212  26.418  28.508  1.00  0.00     0.010 A 
ATOM     49  C   UNL A   1      41.284  25.496  28.567  1.00  0.00     0.010 A 
ATOM     50  C   UNL A   1      40.543  26.699  28.953  1.00  0.00    -0.014 A 
BRANCH  50  51
ATOM     51  C   UNL A   1      41.103  28.403  29.254  1.00  0.00     0.031 A 
ATOM     52  C   UNL A   1      41.688  28.861  27.924  1.00  0.00     0.074 A 
ATOM     53  C   UNL A   1      41.585  29.466  30.175  1.00  0.00     0.049 A 
ATOM     54  N   UNL A   1      42.982  28.960  27.903  1.00  0.00    -0.248 NA
ATOM     55  C   UNL A   1      41.179  28.468  26.610  1.00  0.00     0.031 C 
ATOM     56  C   UNL A   1      42.272  30.779  29.708  1.00  0.00     0.029 A 
ATOM     57  N   UNL A   1      41.804  29.712  31.591  1.00  0.00    -0.354 N 
ATOM     58  C   UNL A   1      43.293  27.845  27.211  1.00  0.00     0.074 A 
ATOM     59  C   UNL A   1      42.232  27.738  26.200  1.00  0.00     0.031 C 
ATOM     60  C   UNL A   1      42.722  31.585  30.699  1.00  0.00     0.029 A 
ATOM     61  C   UNL A   1      42.400  31.032  32.005  1.00  0.00     0.049 A 
ATOM     62  H   UNL A   1      41.568  29.032  32.263  1.00  0.00     0.167 HD
ATOM     63  C   UNL A   1      44.002  26.862  27.822  1.00  0.00     0.034 A 
ATOM     64  C   UNL A   1      43.164  31.435  33.113  1.00  0.00     0.034 A 
ATOM     65  C   UNL A   1      44.191  26.948  29.286  1.00  0.00     0.049 A 
ATOM     66  C   UNL A   1      44.149  30.370  33.358  1.00  0.00     0.074 A 
ATOM     67  C   UNL A   1      43.408  26.879  30.428  1.00  0.00     0.029 A 
ATOM     68  N   UNL A   1      45.433  27.227  29.820  1.00  0.00    -0.354 N 
ATOM     69  N   UNL A   1      45.381  30.320  32.943  1.00  0.00    -0.248 NA
ATOM     70  C   UNL A   1      43.660  29.228  34.107  1.00  0.00     0.031 C 
ATOM     71  C   UNL A   1      44.185  26.758  31.576  1.00  0.00     0.029 A 
ATOM     72  C   UNL A   1      45.323  27.416  31.202  1.00  0.00     0.049 A 
ATOM     73  H   UNL A   1      46.270  27.284  29.305  1.00  0.00     0.167 HD
ATOM     74  C   UNL A   1      45.663  28.963  33.014  1.00  0.00     0.074 A 
ATOM     75  C   UNL A   1      44.683  28.406  33.934  1.00  0.00     0.031 C 
ATOM     76  C   UNL A   1      46.146  28.369  31.886  1.00  0.00     0.034 A 
BRANCH  63  77
ATOM     77  C   UNL A   1      44.666  25.839  26.972  1.00  0.00     0.023 A 
ATOM     78  C   UNL A   1      43.975  24.686  26.538  1.00  0.00     0.012 A 
ATOM     79  C   UNL A   1      45.892  26.150  26.371  1.00  0.00     0.148 A 
ATOM     80  C   UNL A   1      44.449  23.909  25.491  1.00  0.00     0.002 A 
ATOM     81  C   UNL A   1      46.310  25.436  25.264  1.00  0.00     0.091 A 
ATOM     82  F   UNL A   1      46.632  27.151  26.867  1.00  0.00    -0.205 F 
ATOM     83  C   UNL A   1      45.591  24.316  24.818  1.00  0.00     0.022 A 
BRANCH  81  84
ATOM     84  S   UNL A   1      47.710  25.975  24.289  1.00  0.00     0.127 S 
ATOM     85  O   UNL A   1      47.240  27.271  23.805  1.00  0.00    -0.237 OA
ATOM     86  O   UNL A   1      48.779  26.041  25.284  1.00  0.00    -0.237 OA
ATOM     87  O   UNL A   1      47.900  24.964  23.257  1.00  0.00    -0.744 OA
ENDBRANCH  81  84
ENDBRANCH  63  77
BRANCH  64  88
ATOM     88  C   UNL A   1      43.386  32.621  34.118  1.00  0.00     0.023 A 
ATOM     89  C   UNL A   1      44.474  33.513  34.269  1.00  0.00     0.012 A 
ATOM     90  C   UNL A   1      42.429  32.691  35.188  1.00  0.00     0.148 A 
ATOM     91  C   UNL A   1      44.565  34.418  35.386  1.00  0.00     0.002 A 
ATOM     92  C   UNL A   1      42.522  33.572  36.284  1.00  0.00     0.091 A 
ATOM     93  F   UNL A   1      41.375  31.870  35.137  1.00  0.00    -0.205 F 
ATOM     94  C   UNL A   1      43.594  34.448  36.391  1.00  0.00     0.022 A 
BRANCH  92  95
ATOM     95  S   UNL A   1      41.250  33.590  37.575  1.00  0.00     0.127 S 
ATOM     96  O   UNL A   1      40.007  33.791  36.829  1.00  0.00    -0.237 OA
ATOM     97  O   UNL A   1      41.398  32.256  38.155  1.00  0.00    -0.237 OA
ATOM     98  O   UNL A   1      41.606  34.702  38.448  1.00  0.00    -0.744 OA
ENDBRANCH  92  95
ENDBRANCH  64  88
BRANCH  76  99
ATOM     99  C   UNL A   1      47.318  29.002  31.249  1.00  0.00     0.023 A 
ATOM    100  C   UNL A   1      47.012  29.948  30.260  1.00  0.00     0.012 A 
ATOM    101  C   UNL A   1      48.637  28.859  31.712  1.00  0.00     0.148 A 
ATOM    102  C   UNL A   1      47.995  30.808  29.795  1.00  0.00     0.002 A 
ATOM    103  C   UNL A   1      49.602  29.752  31.282  1.00  0.00     0.091 A 
ATOM    104  F   UNL A   1      48.907  27.935  32.646  1.00  0.00    -0.205 F 
ATOM    105  C   UNL A   1      49.281  30.730  30.328  1.00  0.00     0.022 A 
BRANCH 103 106
ATOM    106  S   UNL A   1      51.265  29.752  31.958  1.00  0.00     0.127 S 
ATOM    107  O   UNL A   1      51.026  30.083  33.364  1.00  0.00    -0.237 OA
ATOM    108  O   UNL A   1      51.693  28.377  31.721  1.00  0.00    -0.237 OA
ATOM    109  O   UNL A   1      52.002  30.773  31.225  1.00  0.00    -0.744 OA
ENDBRANCH 103 106
ENDBRANCH  76  99
ENDBRANCH  50  51
ENDBRANCH  43  45
ENDBRANCH  42  43
ENDBRANCH  41  42
ENDBRANCH  40  41
ENDBRANCH  39  40
ENDBRANCH   1  39
TORSDOF 26
ENDMDL
