MODEL 1
REMARK VINA RESULT:      -9.9      0.000      0.000
REMARK SMILES [NH3+][C@H](Cc1cnc2[nH]cccc1-2)C(=O)OCCOCCOC(=O)c1ccc(-c2c3nc(c(-c4cccc(S(=O)(=O)[O-])c4F)c4ccc([nH]4)c(-c4cccc(S(=O)(=O)[O-])c4F)c4nc(c(-c5cccc(S(=O)(=O)[O-])c5F)c5ccc2[nH]5)C=C4)C=C3)cc1
REMARK SMILES IDX 19 1 18 2 17 3 16 4 15 5 13 6 14 7 2 8 1 9 3 13 4 14 5 15
REMARK SMILES IDX 12 16 6 17 7 18 11 19 8 20 10 21 9 22 20 24 21 25 22 26
REMARK SMILES IDX 23 27 24 28 25 29 86 30 26 31 85 32 27 33 28 34 29 35 79 36
REMARK SMILES IDX 30 37 84 38 78 39 80 40 31 41 83 42 77 43 76 44 32 46 64 47
REMARK SMILES IDX 44 48 63 49 45 50 48 51 62 52 81 53 46 54 47 55 61 57 82 58
REMARK SMILES IDX 49 59 33 60 34 61 42 62 35 63 37 64 43 65 36 66 38 67 39 68
REMARK SMILES IDX 40 69 41 70 65 71 66 72 74 73 67 74 69 75 75 76 68 77 70 78
REMARK SMILES IDX 71 79 72 80 73 81 50 82 51 83 59 84 52 85 54 86 60 87 53 88
REMARK SMILES IDX 55 89 56 90 57 91 58 92
REMARK H PARENT 1 10 1 11 1 12 8 23 80 45 48 56
REMARK Flexibility Score: inf
ROOT
ATOM      1  C   UNL A   1      41.576  19.648  26.447  1.00  0.00     0.202 C 
ENDROOT
BRANCH   1   2
ATOM      2  O   UNL A   1      42.949  19.265  26.404  1.00  0.00    -0.374 OA
BRANCH   2   3
ATOM      3  C   UNL A   1      43.546  19.049  25.126  1.00  0.00     0.202 C 
BRANCH   3   4
ATOM      4  C   UNL A   1      44.960  19.576  24.875  1.00  0.00     0.261 C 
BRANCH   4   5
ATOM      5  O   UNL A   1      44.954  20.917  24.366  1.00  0.00    -0.459 OA
BRANCH   5   6
ATOM      6  C   UNL A   1      45.227  21.910  25.250  1.00  0.00     0.365 C 
ATOM      7  O   UNL A   1      46.224  21.945  25.965  1.00  0.00    -0.245 OA
BRANCH   6   8
ATOM      8  C   UNL A   1      44.151  23.022  25.256  1.00  0.00     0.296 C 
BRANCH   8   9
ATOM      9  N   UNL A   1      42.903  22.560  24.607  1.00  0.00    -0.346 N 
ATOM     10  H   UNL A   1      42.100  22.978  25.077  1.00  0.00     0.345 HD
ATOM     11  H   UNL A   1      42.842  21.544  24.669  1.00  0.00     0.345 HD
ATOM     12  H   UNL A   1      42.906  22.841  23.626  1.00  0.00     0.345 HD
ENDBRANCH   8   9
BRANCH   8  13
ATOM     13  C   UNL A   1      44.538  24.444  24.797  1.00  0.00     0.115 C 
BRANCH  13  14
ATOM     14  C   UNL A   1      45.012  25.503  25.741  1.00  0.00    -0.012 A 
ATOM     15  C   UNL A   1      45.167  26.805  25.402  1.00  0.00     0.118 A 
ATOM     16  C   UNL A   1      45.239  25.488  27.156  1.00  0.00     0.022 A 
ATOM     17  N   UNL A   1      45.465  27.678  26.437  1.00  0.00    -0.238 NA
ATOM     18  C   UNL A   1      45.491  26.923  27.506  1.00  0.00     0.137 A 
ATOM     19  C   UNL A   1      45.246  24.606  28.167  1.00  0.00     0.014 A 
ATOM     20  N   UNL A   1      45.692  27.288  28.810  1.00  0.00    -0.346 N 
ATOM     21  C   UNL A   1      45.384  25.053  29.550  1.00  0.00     0.018 A 
ATOM     22  C   UNL A   1      45.601  26.352  29.815  1.00  0.00     0.084 A 
ATOM     23  H   UNL A   1      45.902  28.224  29.029  1.00  0.00     0.167 HD
ENDBRANCH  13  14
ENDBRANCH   8  13
ENDBRANCH   6   8
ENDBRANCH   5   6
ENDBRANCH   4   5
ENDBRANCH   3   4
ENDBRANCH   2   3
ENDBRANCH   1   2
BRANCH   1  24
ATOM     24  C   UNL A   1      41.111  20.677  27.496  1.00  0.00     0.261 C 
BRANCH  24  25
ATOM     25  O   UNL A   1      41.326  22.032  27.099  1.00  0.00    -0.460 OA
BRANCH  25  26
ATOM     26  C   UNL A   1      40.202  22.748  26.824  1.00  0.00     0.338 C 
ATOM     27  O   UNL A   1      39.098  22.324  26.528  1.00  0.00    -0.246 OA
BRANCH  26  28
ATOM     28  C   UNL A   1      40.487  24.131  27.230  1.00  0.00     0.060 A 
ATOM     29  C   UNL A   1      41.659  24.432  27.912  1.00  0.00     0.016 A 
ATOM     30  C   UNL A   1      39.459  25.076  27.104  1.00  0.00     0.016 A 
ATOM     31  C   UNL A   1      41.749  25.654  28.565  1.00  0.00     0.010 A 
ATOM     32  C   UNL A   1      39.552  26.290  27.781  1.00  0.00     0.010 A 
ATOM     33  C   UNL A   1      40.672  26.558  28.567  1.00  0.00    -0.014 A 
BRANCH  33  34
ATOM     34  C   UNL A   1      40.845  27.830  29.294  1.00  0.00     0.031 A 
ATOM     35  C   UNL A   1      41.840  28.752  28.659  1.00  0.00     0.074 A 
ATOM     36  C   UNL A   1      40.114  28.226  30.363  1.00  0.00     0.049 A 
ATOM     37  N   UNL A   1      42.919  29.255  29.173  1.00  0.00    -0.248 NA
ATOM     38  C   UNL A   1      41.684  29.012  27.217  1.00  0.00     0.031 C 
ATOM     39  C   UNL A   1      38.962  27.548  30.963  1.00  0.00     0.029 A 
ATOM     40  N   UNL A   1      40.158  29.407  31.058  1.00  0.00    -0.354 N 
ATOM     41  C   UNL A   1      43.457  30.068  28.176  1.00  0.00     0.074 A 
ATOM     42  C   UNL A   1      42.763  29.746  26.955  1.00  0.00     0.031 C 
ATOM     43  C   UNL A   1      38.262  28.431  31.708  1.00  0.00     0.029 A 
ATOM     44  C   UNL A   1      38.970  29.697  31.740  1.00  0.00     0.049 A 
ATOM     45  H   UNL A   1      40.947  29.995  31.076  1.00  0.00     0.167 HD
ATOM     46  C   UNL A   1      44.270  31.125  28.438  1.00  0.00     0.034 A 
ATOM     47  C   UNL A   1      38.562  30.912  32.195  1.00  0.00     0.034 A 
ATOM     48  C   UNL A   1      44.846  31.081  29.747  1.00  0.00     0.049 A 
ATOM     49  C   UNL A   1      39.767  31.760  32.309  1.00  0.00     0.074 A 
ATOM     50  C   UNL A   1      45.684  30.216  30.421  1.00  0.00     0.029 A 
ATOM     51  N   UNL A   1      44.293  31.894  30.702  1.00  0.00    -0.354 N 
ATOM     52  N   UNL A   1      40.724  31.554  33.168  1.00  0.00    -0.248 NA
ATOM     53  C   UNL A   1      40.095  32.620  31.187  1.00  0.00     0.031 C 
ATOM     54  C   UNL A   1      45.218  30.233  31.767  1.00  0.00     0.029 A 
ATOM     55  C   UNL A   1      44.161  31.139  31.836  1.00  0.00     0.049 A 
ATOM     56  H   UNL A   1      44.041  32.838  30.594  1.00  0.00     0.167 HD
ATOM     57  C   UNL A   1      41.878  31.878  32.471  1.00  0.00     0.074 A 
ATOM     58  C   UNL A   1      41.425  32.613  31.294  1.00  0.00     0.031 C 
ATOM     59  C   UNL A   1      43.065  31.276  32.765  1.00  0.00     0.034 A 
BRANCH  46  60
ATOM     60  C   UNL A   1      44.259  32.382  27.611  1.00  0.00     0.023 A 
ATOM     61  C   UNL A   1      45.225  32.547  26.600  1.00  0.00     0.012 A 
ATOM     62  C   UNL A   1      43.488  33.514  27.965  1.00  0.00     0.148 A 
ATOM     63  C   UNL A   1      45.401  33.781  25.959  1.00  0.00     0.002 A 
ATOM     64  C   UNL A   1      43.609  34.710  27.274  1.00  0.00     0.091 A 
ATOM     65  F   UNL A   1      42.722  33.471  29.062  1.00  0.00    -0.205 F 
ATOM     66  C   UNL A   1      44.579  34.856  26.282  1.00  0.00     0.022 A 
BRANCH  64  67
ATOM     67  S   UNL A   1      42.541  36.109  27.632  1.00  0.00     0.127 S 
ATOM     68  O   UNL A   1      43.027  36.517  28.947  1.00  0.00    -0.237 OA
ATOM     69  O   UNL A   1      42.867  37.022  26.536  1.00  0.00    -0.237 OA
ATOM     70  O   UNL A   1      41.185  35.578  27.582  1.00  0.00    -0.744 OA
ENDBRANCH  64  67
ENDBRANCH  46  60
BRANCH  47  71
ATOM     71  C   UNL A   1      37.200  31.522  32.238  1.00  0.00     0.023 A 
ATOM     72  C   UNL A   1      36.686  31.976  33.475  1.00  0.00     0.012 A 
ATOM     73  C   UNL A   1      36.543  31.950  31.064  1.00  0.00     0.148 A 
ATOM     74  C   UNL A   1      35.609  32.871  33.537  1.00  0.00     0.002 A 
ATOM     75  C   UNL A   1      35.462  32.829  31.130  1.00  0.00     0.091 A 
ATOM     76  F   UNL A   1      37.031  31.584  29.873  1.00  0.00    -0.205 F 
ATOM     77  C   UNL A   1      35.005  33.308  32.363  1.00  0.00     0.022 A 
BRANCH  75  78
ATOM     78  S   UNL A   1      34.644  33.433  29.646  1.00  0.00     0.127 S 
ATOM     79  O   UNL A   1      33.604  34.301  30.201  1.00  0.00    -0.237 OA
ATOM     80  O   UNL A   1      35.729  34.134  28.967  1.00  0.00    -0.237 OA
ATOM     81  O   UNL A   1      34.132  32.247  28.971  1.00  0.00    -0.744 OA
ENDBRANCH  75  78
ENDBRANCH  47  71
BRANCH  59  82
ATOM     82  C   UNL A   1      43.162  30.468  34.028  1.00  0.00     0.023 A 
ATOM     83  C   UNL A   1      43.452  31.052  35.279  1.00  0.00     0.012 A 
ATOM     84  C   UNL A   1      42.751  29.126  33.974  1.00  0.00     0.148 A 
ATOM     85  C   UNL A   1      43.331  30.306  36.455  1.00  0.00     0.002 A 
ATOM     86  C   UNL A   1      42.597  28.401  35.146  1.00  0.00     0.091 A 
ATOM     87  F   UNL A   1      42.474  28.601  32.771  1.00  0.00    -0.205 F 
ATOM     88  C   UNL A   1      42.889  28.986  36.390  1.00  0.00     0.022 A 
BRANCH  86  89
ATOM     89  S   UNL A   1      41.932  26.735  35.143  1.00  0.00     0.127 S 
ATOM     90  O   UNL A   1      40.689  26.904  34.394  1.00  0.00    -0.237 OA
ATOM     91  O   UNL A   1      42.976  25.988  34.439  1.00  0.00    -0.237 OA
ATOM     92  O   UNL A   1      41.767  26.361  36.542  1.00  0.00    -0.744 OA
ENDBRANCH  86  89
ENDBRANCH  59  82
ENDBRANCH  33  34
ENDBRANCH  26  28
ENDBRANCH  25  26
ENDBRANCH  24  25
ENDBRANCH   1  24
TORSDOF 20
ENDMDL
MODEL 2
REMARK VINA RESULT:      -9.5      5.493     11.424
REMARK SMILES [NH3+][C@H](Cc1cnc2[nH]cccc1-2)C(=O)OCCOCCOC(=O)c1ccc(-c2c3nc(c(-c4cccc(S(=O)(=O)[O-])c4F)c4ccc([nH]4)c(-c4cccc(S(=O)(=O)[O-])c4F)c4nc(c(-c5cccc(S(=O)(=O)[O-])c5F)c5ccc2[nH]5)C=C4)C=C3)cc1
REMARK SMILES IDX 19 1 18 2 17 3 16 4 15 5 13 6 14 7 2 8 1 9 3 13 4 14 5 15
REMARK SMILES IDX 12 16 6 17 7 18 11 19 8 20 10 21 9 22 20 24 21 25 22 26
REMARK SMILES IDX 23 27 24 28 25 29 86 30 26 31 85 32 27 33 28 34 29 35 79 36
REMARK SMILES IDX 30 37 84 38 78 39 80 40 31 41 83 42 77 43 76 44 32 46 64 47
REMARK SMILES IDX 44 48 63 49 45 50 48 51 62 52 81 53 46 54 47 55 61 57 82 58
REMARK SMILES IDX 49 59 33 60 34 61 42 62 35 63 37 64 43 65 36 66 38 67 39 68
REMARK SMILES IDX 40 69 41 70 65 71 66 72 74 73 67 74 69 75 75 76 68 77 70 78
REMARK SMILES IDX 71 79 72 80 73 81 50 82 51 83 59 84 52 85 54 86 60 87 53 88
REMARK SMILES IDX 55 89 56 90 57 91 58 92
REMARK H PARENT 1 10 1 11 1 12 8 23 80 45 48 56
REMARK Flexibility Score: inf
ROOT
ATOM      1  C   UNL A   1      32.370  30.168  26.928  1.00  0.00     0.202 C 
ENDROOT
BRANCH   1   2
ATOM      2  O   UNL A   1      32.112  29.928  25.546  1.00  0.00    -0.374 OA
BRANCH   2   3
ATOM      3  C   UNL A   1      32.780  28.835  24.917  1.00  0.00     0.202 C 
BRANCH   3   4
ATOM      4  C   UNL A   1      33.311  27.696  25.789  1.00  0.00     0.261 C 
BRANCH   4   5
ATOM      5  O   UNL A   1      32.500  26.518  25.690  1.00  0.00    -0.459 OA
BRANCH   5   6
ATOM      6  C   UNL A   1      31.318  26.529  26.356  1.00  0.00     0.365 C 
ATOM      7  O   UNL A   1      31.135  27.093  27.430  1.00  0.00    -0.245 OA
BRANCH   6   8
ATOM      8  C   UNL A   1      30.199  25.766  25.608  1.00  0.00     0.296 C 
BRANCH   8   9
ATOM      9  N   UNL A   1      30.263  24.313  25.892  1.00  0.00    -0.346 N 
ATOM     10  H   UNL A   1      29.633  24.089  26.661  1.00  0.00     0.345 HD
ATOM     11  H   UNL A   1      31.216  24.058  26.148  1.00  0.00     0.345 HD
ATOM     12  H   UNL A   1      29.982  23.793  25.061  1.00  0.00     0.345 HD
ENDBRANCH   8   9
BRANCH   8  13
ATOM     13  C   UNL A   1      29.975  26.042  24.107  1.00  0.00     0.115 C 
BRANCH  13  14
ATOM     14  C   UNL A   1      28.953  27.011  23.601  1.00  0.00    -0.012 A 
ATOM     15  C   UNL A   1      27.640  26.967  23.930  1.00  0.00     0.118 A 
ATOM     16  C   UNL A   1      29.079  28.227  22.854  1.00  0.00     0.022 A 
ATOM     17  N   UNL A   1      26.863  28.030  23.497  1.00  0.00    -0.238 NA
ATOM     18  C   UNL A   1      27.700  28.815  22.869  1.00  0.00     0.137 A 
ATOM     19  C   UNL A   1      30.034  28.935  22.233  1.00  0.00     0.014 A 
ATOM     20  N   UNL A   1      27.465  30.031  22.288  1.00  0.00    -0.346 N 
ATOM     21  C   UNL A   1      29.753  30.264  21.698  1.00  0.00     0.018 A 
ATOM     22  C   UNL A   1      28.502  30.753  21.742  1.00  0.00     0.084 A 
ATOM     23  H   UNL A   1      26.550  30.392  22.260  1.00  0.00     0.167 HD
ENDBRANCH  13  14
ENDBRANCH   8  13
ENDBRANCH   6   8
ENDBRANCH   5   6
ENDBRANCH   4   5
ENDBRANCH   3   4
ENDBRANCH   2   3
ENDBRANCH   1   2
BRANCH   1  24
ATOM     24  C   UNL A   1      33.248  31.367  27.335  1.00  0.00     0.261 C 
BRANCH  24  25
ATOM     25  O   UNL A   1      34.649  31.087  27.298  1.00  0.00    -0.460 OA
BRANCH  25  26
ATOM     26  C   UNL A   1      35.441  31.969  27.965  1.00  0.00     0.338 C 
ATOM     27  O   UNL A   1      35.174  33.110  28.301  1.00  0.00    -0.246 OA
BRANCH  26  28
ATOM     28  C   UNL A   1      36.588  31.195  28.463  1.00  0.00     0.060 A 
ATOM     29  C   UNL A   1      37.617  31.832  29.143  1.00  0.00     0.016 A 
ATOM     30  C   UNL A   1      36.711  29.864  28.043  1.00  0.00     0.016 A 
ATOM     31  C   UNL A   1      38.819  31.158  29.305  1.00  0.00     0.010 A 
ATOM     32  C   UNL A   1      37.929  29.204  28.192  1.00  0.00     0.010 A 
ATOM     33  C   UNL A   1      39.010  29.872  28.768  1.00  0.00    -0.014 A 
BRANCH  33  34
ATOM     34  C   UNL A   1      40.321  29.228  28.975  1.00  0.00     0.031 A 
ATOM     35  C   UNL A   1      40.622  28.932  30.412  1.00  0.00     0.074 A 
ATOM     36  C   UNL A   1      41.152  28.813  27.991  1.00  0.00     0.049 A 
ATOM     37  N   UNL A   1      41.624  29.339  31.128  1.00  0.00    -0.248 NA
ATOM     38  C   UNL A   1      39.584  28.221  31.180  1.00  0.00     0.031 C 
ATOM     39  C   UNL A   1      40.907  28.822  26.546  1.00  0.00     0.029 A 
ATOM     40  N   UNL A   1      42.350  28.152  28.084  1.00  0.00    -0.354 N 
ATOM     41  C   UNL A   1      41.444  28.750  32.379  1.00  0.00     0.074 A 
ATOM     42  C   UNL A   1      40.103  28.226  32.406  1.00  0.00     0.031 C 
ATOM     43  C   UNL A   1      41.759  27.963  25.943  1.00  0.00     0.029 A 
ATOM     44  C   UNL A   1      42.683  27.435  26.929  1.00  0.00     0.049 A 
ATOM     45  H   UNL A   1      42.921  28.179  28.885  1.00  0.00     0.167 HD
ATOM     46  C   UNL A   1      42.468  28.509  33.241  1.00  0.00     0.034 A 
ATOM     47  C   UNL A   1      43.574  26.413  26.827  1.00  0.00     0.034 A 
ATOM     48  C   UNL A   1      43.645  29.265  32.941  1.00  0.00     0.049 A 
ATOM     49  C   UNL A   1      44.487  26.516  27.985  1.00  0.00     0.074 A 
ATOM     50  C   UNL A   1      43.959  30.608  32.878  1.00  0.00     0.029 A 
ATOM     51  N   UNL A   1      44.667  28.607  32.307  1.00  0.00    -0.354 N 
ATOM     52  N   UNL A   1      45.339  27.487  28.157  1.00  0.00    -0.248 NA
ATOM     53  C   UNL A   1      44.172  25.732  29.165  1.00  0.00     0.031 C 
ATOM     54  C   UNL A   1      44.884  30.716  31.800  1.00  0.00     0.029 A 
ATOM     55  C   UNL A   1      45.109  29.430  31.307  1.00  0.00     0.049 A 
ATOM     56  H   UNL A   1      45.018  27.715  32.530  1.00  0.00     0.167 HD
ATOM     57  C   UNL A   1      45.317  27.717  29.524  1.00  0.00     0.074 A 
ATOM     58  C   UNL A   1      44.654  26.551  30.101  1.00  0.00     0.031 C 
ATOM     59  C   UNL A   1      45.580  28.955  30.029  1.00  0.00     0.034 A 
BRANCH  46  60
ATOM     60  C   UNL A   1      42.496  27.313  34.153  1.00  0.00     0.023 A 
ATOM     61  C   UNL A   1      41.980  27.432  35.458  1.00  0.00     0.012 A 
ATOM     62  C   UNL A   1      43.243  26.150  33.852  1.00  0.00     0.148 A 
ATOM     63  C   UNL A   1      42.185  26.429  36.413  1.00  0.00     0.002 A 
ATOM     64  C   UNL A   1      43.376  25.123  34.775  1.00  0.00     0.091 A 
ATOM     65  F   UNL A   1      43.940  26.092  32.711  1.00  0.00    -0.205 F 
ATOM     66  C   UNL A   1      42.865  25.265  36.066  1.00  0.00     0.022 A 
BRANCH  64  67
ATOM     67  S   UNL A   1      44.211  23.590  34.355  1.00  0.00     0.127 S 
ATOM     68  O   UNL A   1      43.474  23.173  33.166  1.00  0.00    -0.237 OA
ATOM     69  O   UNL A   1      45.578  24.051  34.111  1.00  0.00    -0.237 OA
ATOM     70  O   UNL A   1      44.070  22.742  35.532  1.00  0.00    -0.744 OA
ENDBRANCH  64  67
ENDBRANCH  46  60
BRANCH  47  71
ATOM     71  C   UNL A   1      43.527  25.164  26.011  1.00  0.00     0.023 A 
ATOM     72  C   UNL A   1      44.548  24.920  25.063  1.00  0.00     0.012 A 
ATOM     73  C   UNL A   1      42.693  24.081  26.362  1.00  0.00     0.148 A 
ATOM     74  C   UNL A   1      44.772  23.638  24.541  1.00  0.00     0.002 A 
ATOM     75  C   UNL A   1      42.910  22.810  25.829  1.00  0.00     0.091 A 
ATOM     76  F   UNL A   1      41.749  24.259  27.293  1.00  0.00    -0.205 F 
ATOM     77  C   UNL A   1      43.961  22.580  24.935  1.00  0.00     0.022 A 
BRANCH  75  78
ATOM     78  S   UNL A   1      41.897  21.402  26.304  1.00  0.00     0.127 S 
ATOM     79  O   UNL A   1      42.194  21.277  27.732  1.00  0.00    -0.237 OA
ATOM     80  O   UNL A   1      40.552  21.879  25.997  1.00  0.00    -0.237 OA
ATOM     81  O   UNL A   1      42.375  20.286  25.498  1.00  0.00    -0.744 OA
ENDBRANCH  75  78
ENDBRANCH  47  71
BRANCH  59  82
ATOM     82  C   UNL A   1      46.163  29.991  29.110  1.00  0.00     0.023 A 
ATOM     83  C   UNL A   1      47.532  30.016  28.769  1.00  0.00     0.012 A 
ATOM     84  C   UNL A   1      45.268  30.828  28.424  1.00  0.00     0.148 A 
ATOM     85  C   UNL A   1      47.996  30.862  27.758  1.00  0.00     0.002 A 
ATOM     86  C   UNL A   1      45.727  31.639  27.397  1.00  0.00     0.091 A 
ATOM     87  F   UNL A   1      43.972  30.777  28.764  1.00  0.00    -0.205 F 
ATOM     88  C   UNL A   1      47.091  31.661  27.061  1.00  0.00     0.022 A 
BRANCH  86  89
ATOM     89  S   UNL A   1      44.605  32.611  26.391  1.00  0.00     0.127 S 
ATOM     90  O   UNL A   1      45.515  33.231  25.430  1.00  0.00    -0.237 OA
ATOM     91  O   UNL A   1      43.726  31.584  25.829  1.00  0.00    -0.237 OA
ATOM     92  O   UNL A   1      43.941  33.536  27.301  1.00  0.00    -0.744 OA
ENDBRANCH  86  89
ENDBRANCH  59  82
ENDBRANCH  33  34
ENDBRANCH  26  28
ENDBRANCH  25  26
ENDBRANCH  24  25
ENDBRANCH   1  24
TORSDOF 20
ENDMDL
MODEL 3
REMARK VINA RESULT:      -9.5      4.592     10.750
REMARK SMILES [NH3+][C@H](Cc1cnc2[nH]cccc1-2)C(=O)OCCOCCOC(=O)c1ccc(-c2c3nc(c(-c4cccc(S(=O)(=O)[O-])c4F)c4ccc([nH]4)c(-c4cccc(S(=O)(=O)[O-])c4F)c4nc(c(-c5cccc(S(=O)(=O)[O-])c5F)c5ccc2[nH]5)C=C4)C=C3)cc1
REMARK SMILES IDX 19 1 18 2 17 3 16 4 15 5 13 6 14 7 2 8 1 9 3 13 4 14 5 15
REMARK SMILES IDX 12 16 6 17 7 18 11 19 8 20 10 21 9 22 20 24 21 25 22 26
REMARK SMILES IDX 23 27 24 28 25 29 86 30 26 31 85 32 27 33 28 34 29 35 79 36
REMARK SMILES IDX 30 37 84 38 78 39 80 40 31 41 83 42 77 43 76 44 32 46 64 47
REMARK SMILES IDX 44 48 63 49 45 50 48 51 62 52 81 53 46 54 47 55 61 57 82 58
REMARK SMILES IDX 49 59 33 60 34 61 42 62 35 63 37 64 43 65 36 66 38 67 39 68
REMARK SMILES IDX 40 69 41 70 65 71 66 72 74 73 67 74 69 75 75 76 68 77 70 78
REMARK SMILES IDX 71 79 72 80 73 81 50 82 51 83 59 84 52 85 54 86 60 87 53 88
REMARK SMILES IDX 55 89 56 90 57 91 58 92
REMARK H PARENT 1 10 1 11 1 12 8 23 80 45 48 56
REMARK Flexibility Score: inf
ROOT
ATOM      1  C   UNL A   1      32.953  29.287  26.369  1.00  0.00     0.202 C 
ENDROOT
BRANCH   1   2
ATOM      2  O   UNL A   1      31.775  29.093  25.589  1.00  0.00    -0.374 OA
BRANCH   2   3
ATOM      3  C   UNL A   1      31.928  28.833  24.194  1.00  0.00     0.202 C 
BRANCH   3   4
ATOM      4  C   UNL A   1      31.064  27.749  23.548  1.00  0.00     0.261 C 
BRANCH   4   5
ATOM      5  O   UNL A   1      30.400  26.935  24.524  1.00  0.00    -0.459 OA
BRANCH   5   6
ATOM      6  C   UNL A   1      30.718  25.615  24.541  1.00  0.00     0.365 C 
ATOM      7  O   UNL A   1      30.492  24.837  23.619  1.00  0.00    -0.245 OA
BRANCH   6   8
ATOM      8  C   UNL A   1      31.423  25.184  25.849  1.00  0.00     0.296 C 
BRANCH   8   9
ATOM      9  N   UNL A   1      31.275  26.216  26.901  1.00  0.00    -0.346 N 
ATOM     10  H   UNL A   1      30.317  26.212  27.249  1.00  0.00     0.345 HD
ATOM     11  H   UNL A   1      31.491  27.133  26.510  1.00  0.00     0.345 HD
ATOM     12  H   UNL A   1      31.916  26.013  27.668  1.00  0.00     0.345 HD
ENDBRANCH   8   9
BRANCH   8  13
ATOM     13  C   UNL A   1      32.867  24.644  25.781  1.00  0.00     0.115 C 
BRANCH  13  14
ATOM     14  C   UNL A   1      33.225  23.230  26.113  1.00  0.00    -0.012 A 
ATOM     15  C   UNL A   1      33.700  22.832  27.317  1.00  0.00     0.118 A 
ATOM     16  C   UNL A   1      33.023  22.002  25.401  1.00  0.00     0.022 A 
ATOM     17  N   UNL A   1      33.833  21.464  27.503  1.00  0.00    -0.238 NA
ATOM     18  C   UNL A   1      33.412  20.938  26.382  1.00  0.00     0.137 A 
ATOM     19  C   UNL A   1      32.578  21.592  24.204  1.00  0.00     0.014 A 
ATOM     20  N   UNL A   1      33.285  19.616  26.049  1.00  0.00    -0.346 N 
ATOM     21  C   UNL A   1      32.383  20.173  23.924  1.00  0.00     0.018 A 
ATOM     22  C   UNL A   1      32.739  19.254  24.838  1.00  0.00     0.084 A 
ATOM     23  H   UNL A   1      33.584  18.922  26.678  1.00  0.00     0.167 HD
ENDBRANCH  13  14
ENDBRANCH   8  13
ENDBRANCH   6   8
ENDBRANCH   5   6
ENDBRANCH   4   5
ENDBRANCH   3   4
ENDBRANCH   2   3
ENDBRANCH   1   2
BRANCH   1  24
ATOM     24  C   UNL A   1      33.352  30.713  26.796  1.00  0.00     0.261 C 
BRANCH  24  25
ATOM     25  O   UNL A   1      34.226  30.746  27.925  1.00  0.00    -0.460 OA
BRANCH  25  26
ATOM     26  C   UNL A   1      35.253  31.635  27.845  1.00  0.00     0.338 C 
ATOM     27  O   UNL A   1      35.195  32.828  27.600  1.00  0.00    -0.246 OA
BRANCH  26  28
ATOM     28  C   UNL A   1      36.432  30.949  28.392  1.00  0.00     0.060 A 
ATOM     29  C   UNL A   1      37.468  31.683  28.954  1.00  0.00     0.016 A 
ATOM     30  C   UNL A   1      36.572  29.579  28.133  1.00  0.00     0.016 A 
ATOM     31  C   UNL A   1      38.691  31.055  29.155  1.00  0.00     0.010 A 
ATOM     32  C   UNL A   1      37.808  28.964  28.318  1.00  0.00     0.010 A 
ATOM     33  C   UNL A   1      38.892  29.717  28.771  1.00  0.00    -0.014 A 
BRANCH  33  34
ATOM     34  C   UNL A   1      40.223  29.127  29.009  1.00  0.00     0.031 A 
ATOM     35  C   UNL A   1      40.497  28.829  30.451  1.00  0.00     0.074 A 
ATOM     36  C   UNL A   1      41.098  28.758  28.044  1.00  0.00     0.049 A 
ATOM     37  N   UNL A   1      41.461  29.271  31.198  1.00  0.00    -0.248 NA
ATOM     38  C   UNL A   1      39.470  28.067  31.182  1.00  0.00     0.031 C 
ATOM     39  C   UNL A   1      40.893  28.772  26.593  1.00  0.00     0.029 A 
ATOM     40  N   UNL A   1      42.320  28.148  28.165  1.00  0.00    -0.354 N 
ATOM     41  C   UNL A   1      41.272  28.662  32.438  1.00  0.00     0.074 A 
ATOM     42  C   UNL A   1      39.954  28.081  32.422  1.00  0.00     0.031 C 
ATOM     43  C   UNL A   1      41.797  27.956  26.006  1.00  0.00     0.029 A 
ATOM     44  C   UNL A   1      42.715  27.458  27.013  1.00  0.00     0.049 A 
ATOM     45  H   UNL A   1      42.867  28.191  28.982  1.00  0.00     0.167 HD
ATOM     46  C   UNL A   1      42.281  28.455  33.325  1.00  0.00     0.034 A 
ATOM     47  C   UNL A   1      43.652  26.476  26.926  1.00  0.00     0.034 A 
ATOM     48  C   UNL A   1      43.433  29.264  33.066  1.00  0.00     0.049 A 
ATOM     49  C   UNL A   1      44.527  26.606  28.110  1.00  0.00     0.074 A 
ATOM     50  C   UNL A   1      43.691  30.619  33.024  1.00  0.00     0.029 A 
ATOM     51  N   UNL A   1      44.499  28.657  32.455  1.00  0.00    -0.354 N 
ATOM     52  N   UNL A   1      45.332  27.609  28.314  1.00  0.00    -0.248 NA
ATOM     53  C   UNL A   1      44.214  25.796  29.274  1.00  0.00     0.031 C 
ATOM     54  C   UNL A   1      44.639  30.778  31.973  1.00  0.00     0.029 A 
ATOM     55  C   UNL A   1      44.932  29.508  31.475  1.00  0.00     0.049 A 
ATOM     56  H   UNL A   1      44.881  27.778  32.678  1.00  0.00     0.167 HD
ATOM     57  C   UNL A   1      45.263  27.824  29.682  1.00  0.00     0.074 A 
ATOM     58  C   UNL A   1      44.634  26.625  30.230  1.00  0.00     0.031 C 
ATOM     59  C   UNL A   1      45.458  29.066  30.206  1.00  0.00     0.034 A 
BRANCH  46  60
ATOM     60  C   UNL A   1      42.336  27.252  34.227  1.00  0.00     0.023 A 
ATOM     61  C   UNL A   1      41.775  27.334  35.516  1.00  0.00     0.012 A 
ATOM     62  C   UNL A   1      43.143  26.127  33.939  1.00  0.00     0.148 A 
ATOM     63  C   UNL A   1      41.996  26.331  36.468  1.00  0.00     0.002 A 
ATOM     64  C   UNL A   1      43.293  25.097  34.856  1.00  0.00     0.091 A 
ATOM     65  F   UNL A   1      43.876  26.112  32.818  1.00  0.00    -0.205 F 
ATOM     66  C   UNL A   1      42.738  25.203  36.132  1.00  0.00     0.022 A 
BRANCH  64  67
ATOM     67  S   UNL A   1      44.208  23.607  34.447  1.00  0.00     0.127 S 
ATOM     68  O   UNL A   1      44.241  22.922  35.736  1.00  0.00    -0.237 OA
ATOM     69  O   UNL A   1      43.346  22.994  33.437  1.00  0.00    -0.237 OA
ATOM     70  O   UNL A   1      45.490  24.075  33.932  1.00  0.00    -0.744 OA
ENDBRANCH  64  67
ENDBRANCH  46  60
BRANCH  47  71
ATOM     71  C   UNL A   1      43.680  25.235  26.097  1.00  0.00     0.023 A 
ATOM     72  C   UNL A   1      44.753  25.030  25.198  1.00  0.00     0.012 A 
ATOM     73  C   UNL A   1      42.862  24.124  26.397  1.00  0.00     0.148 A 
ATOM     74  C   UNL A   1      45.039  23.761  24.676  1.00  0.00     0.002 A 
ATOM     75  C   UNL A   1      43.142  22.866  25.864  1.00  0.00     0.091 A 
ATOM     76  F   UNL A   1      41.870  24.266  27.283  1.00  0.00    -0.205 F 
ATOM     77  C   UNL A   1      44.241  22.676  25.020  1.00  0.00     0.022 A 
BRANCH  75  78
ATOM     78  S   UNL A   1      42.148  21.424  26.277  1.00  0.00     0.127 S 
ATOM     79  O   UNL A   1      40.800  21.866  25.917  1.00  0.00    -0.237 OA
ATOM     80  O   UNL A   1      42.714  20.406  25.397  1.00  0.00    -0.237 OA
ATOM     81  O   UNL A   1      42.343  21.210  27.705  1.00  0.00    -0.744 OA
ENDBRANCH  75  78
ENDBRANCH  47  71
BRANCH  59  82
ATOM     82  C   UNL A   1      46.022  30.136  29.313  1.00  0.00     0.023 A 
ATOM     83  C   UNL A   1      47.407  30.292  29.102  1.00  0.00     0.012 A 
ATOM     84  C   UNL A   1      45.118  30.862  28.520  1.00  0.00     0.148 A 
ATOM     85  C   UNL A   1      47.881  31.159  28.112  1.00  0.00     0.002 A 
ATOM     86  C   UNL A   1      45.592  31.693  27.515  1.00  0.00     0.091 A 
ATOM     87  F   UNL A   1      43.807  30.687  28.739  1.00  0.00    -0.205 F 
ATOM     88  C   UNL A   1      46.973  31.846  27.309  1.00  0.00     0.022 A 
BRANCH  86  89
ATOM     89  S   UNL A   1      44.481  32.523  26.378  1.00  0.00     0.127 S 
ATOM     90  O   UNL A   1      43.850  33.520  27.241  1.00  0.00    -0.237 OA
ATOM     91  O   UNL A   1      45.408  33.070  25.386  1.00  0.00    -0.237 OA
ATOM     92  O   UNL A   1      43.586  31.496  25.860  1.00  0.00    -0.744 OA
ENDBRANCH  86  89
ENDBRANCH  59  82
ENDBRANCH  33  34
ENDBRANCH  26  28
ENDBRANCH  25  26
ENDBRANCH  24  25
ENDBRANCH   1  24
TORSDOF 20
ENDMDL
