MODEL 1
REMARK VINA RESULT:     -12.4      0.000      0.000
REMARK SMILES Cc1ccc(Oc2cc(C(=O)OCCOCCOC(=O)c3ccc(-c4c5nc(c(-c6cccc(S(=O)(=O)[O-])c6F)c6ccc([nH]6)c(-c6cccc(S(=O)(=O)[O-])c6F)c6nc(c(-c7cccc(S(=O)(=O)[O-])c7F)c7ccc4[nH]7)C=C6)C=C5)cc3)nc3ccccc23)cc1
REMARK SMILES IDX 16 1 15 2 14 3 13 4 12 5 10 6 11 7 9 8 7 9 8 10 90 11 85 12
REMARK SMILES IDX 89 13 84 14 86 15 88 16 87 17 6 18 5 19 1 20 2 21 3 22 92 23
REMARK SMILES IDX 4 24 91 25 17 26 18 27 19 28 20 29 21 30 22 31 83 32 23 33
REMARK SMILES IDX 82 34 24 35 25 36 26 37 76 38 27 39 81 40 75 41 77 42 28 43
REMARK SMILES IDX 80 44 74 45 73 46 29 48 61 49 41 50 60 51 42 52 45 53 59 54
REMARK SMILES IDX 78 55 43 56 44 57 58 59 79 60 46 61 30 62 31 63 39 64 32 65
REMARK SMILES IDX 34 66 40 67 33 68 35 69 36 70 37 71 38 72 62 73 63 74 71 75
REMARK SMILES IDX 64 76 66 77 72 78 65 79 67 80 68 81 69 82 70 83 47 84 48 85
REMARK SMILES IDX 56 86 49 87 51 88 57 89 50 90 52 91 53 92 54 93 55 94
REMARK H PARENT 77 47 45 58
REMARK Flexibility Score: inf
ROOT
ATOM      1  C   UNL A   1      31.759  25.834  22.995  1.00  0.00     0.202 C 
ENDROOT
BRANCH   1   2
ATOM      2  O   UNL A   1      30.521  25.302  23.394  1.00  0.00    -0.374 OA
BRANCH   2   3
ATOM      3  C   UNL A   1      29.592  26.179  23.998  1.00  0.00     0.202 C 
BRANCH   3   4
ATOM      4  C   UNL A   1      29.716  25.953  25.478  1.00  0.00     0.261 C 
BRANCH   4   5
ATOM      5  O   UNL A   1      30.956  25.284  25.794  1.00  0.00    -0.459 OA
BRANCH   5   6
ATOM      6  C   UNL A   1      30.991  24.096  26.472  1.00  0.00     0.357 C 
ATOM      7  O   UNL A   1      30.222  23.616  27.269  1.00  0.00    -0.244 OA
BRANCH   6   8
ATOM      8  C   UNL A   1      32.119  23.327  25.921  1.00  0.00     0.152 A 
ATOM      9  C   UNL A   1      33.006  21.763  24.410  1.00  0.00     0.139 A 
ATOM     10  C   UNL A   1      31.885  22.348  24.977  1.00  0.00     0.084 A 
ATOM     11  C   UNL A   1      34.314  22.188  24.762  1.00  0.00     0.043 A 
ATOM     12  C   UNL A   1      34.401  23.179  25.753  1.00  0.00     0.075 A 
ATOM     13  C   UNL A   1      35.522  21.673  24.242  1.00  0.00     0.014 A 
ATOM     14  N   UNL A   1      33.347  23.734  26.312  1.00  0.00    -0.240 NA
ATOM     15  C   UNL A   1      35.620  23.622  26.214  1.00  0.00     0.029 A 
ATOM     16  C   UNL A   1      36.753  22.116  24.731  1.00  0.00     0.001 A 
ATOM     17  C   UNL A   1      36.803  23.092  25.721  1.00  0.00     0.002 A 
BRANCH   9  18
ATOM     18  O   UNL A   1      32.778  20.735  23.520  1.00  0.00    -0.457 OA
BRANCH  18  19
ATOM     19  C   UNL A   1      32.709  19.462  24.052  1.00  0.00     0.127 A 
ATOM     20  C   UNL A   1      33.059  15.413  25.442  1.00  0.00     0.044 C 
ATOM     21  C   UNL A   1      32.873  16.817  24.956  1.00  0.00    -0.051 A 
ATOM     22  C   UNL A   1      32.837  17.095  23.583  1.00  0.00     0.007 A 
ATOM     23  C   UNL A   1      32.735  17.864  25.868  1.00  0.00     0.007 A 
ATOM     24  C   UNL A   1      32.758  18.415  23.133  1.00  0.00     0.047 A 
ATOM     25  C   UNL A   1      32.637  19.178  25.419  1.00  0.00     0.047 A 
ENDBRANCH  18  19
ENDBRANCH   9  18
ENDBRANCH   6   8
ENDBRANCH   5   6
ENDBRANCH   4   5
ENDBRANCH   3   4
ENDBRANCH   2   3
ENDBRANCH   1   2
BRANCH   1  26
ATOM     26  C   UNL A   1      31.607  27.263  22.482  1.00  0.00     0.261 C 
BRANCH  26  27
ATOM     27  O   UNL A   1      32.579  28.127  23.114  1.00  0.00    -0.460 OA
BRANCH  27  28
ATOM     28  C   UNL A   1      32.225  28.611  24.344  1.00  0.00     0.338 C 
ATOM     29  O   UNL A   1      31.213  29.262  24.548  1.00  0.00    -0.246 OA
BRANCH  28  30
ATOM     30  C   UNL A   1      33.339  28.408  25.323  1.00  0.00     0.060 A 
ATOM     31  C   UNL A   1      33.067  28.123  26.673  1.00  0.00     0.016 A 
ATOM     32  C   UNL A   1      34.613  28.828  24.958  1.00  0.00     0.016 A 
ATOM     33  C   UNL A   1      34.002  28.450  27.673  1.00  0.00     0.010 A 
ATOM     34  C   UNL A   1      35.465  29.264  25.950  1.00  0.00     0.010 A 
ATOM     35  C   UNL A   1      35.158  29.130  27.319  1.00  0.00    -0.014 A 
BRANCH  35  36
ATOM     36  C   UNL A   1      36.156  29.717  28.225  1.00  0.00     0.031 A 
ATOM     37  C   UNL A   1      35.853  31.083  28.723  1.00  0.00     0.074 A 
ATOM     38  C   UNL A   1      37.140  29.013  28.849  1.00  0.00     0.049 A 
ATOM     39  N   UNL A   1      36.658  31.785  29.441  1.00  0.00    -0.248 NA
ATOM     40  C   UNL A   1      34.623  31.806  28.397  1.00  0.00     0.031 C 
ATOM     41  C   UNL A   1      37.582  29.224  30.235  1.00  0.00     0.029 A 
ATOM     42  N   UNL A   1      37.895  27.906  28.459  1.00  0.00    -0.354 N 
ATOM     43  C   UNL A   1      35.938  32.840  29.951  1.00  0.00     0.074 A 
ATOM     44  C   UNL A   1      34.749  32.900  29.149  1.00  0.00     0.031 C 
ATOM     45  C   UNL A   1      38.617  28.419  30.521  1.00  0.00     0.029 A 
ATOM     46  C   UNL A   1      39.015  27.767  29.291  1.00  0.00     0.049 A 
ATOM     47  H   UNL A   1      37.672  27.307  27.710  1.00  0.00     0.167 HD
ATOM     48  C   UNL A   1      36.377  33.419  31.101  1.00  0.00     0.034 A 
ATOM     49  C   UNL A   1      40.276  27.635  28.796  1.00  0.00     0.034 A 
ATOM     50  C   UNL A   1      37.657  32.816  31.522  1.00  0.00     0.049 A 
ATOM     51  C   UNL A   1      41.102  28.829  29.189  1.00  0.00     0.074 A 
ATOM     52  C   UNL A   1      37.991  31.914  32.518  1.00  0.00     0.029 A 
ATOM     53  N   UNL A   1      38.771  32.912  30.690  1.00  0.00    -0.354 N 
ATOM     54  N   UNL A   1      40.572  29.856  29.786  1.00  0.00    -0.248 NA
ATOM     55  C   UNL A   1      42.538  28.998  29.003  1.00  0.00     0.031 C 
ATOM     56  C   UNL A   1      39.307  31.444  32.259  1.00  0.00     0.029 A 
ATOM     57  C   UNL A   1      39.792  32.084  31.128  1.00  0.00     0.049 A 
ATOM     58  H   UNL A   1      38.825  33.490  29.896  1.00  0.00     0.167 HD
ATOM     59  C   UNL A   1      41.484  30.838  29.972  1.00  0.00     0.074 A 
ATOM     60  C   UNL A   1      42.723  30.238  29.501  1.00  0.00     0.031 C 
ATOM     61  C   UNL A   1      41.089  32.056  30.448  1.00  0.00     0.034 A 
BRANCH  48  62
ATOM     62  C   UNL A   1      35.591  34.354  32.013  1.00  0.00     0.023 A 
ATOM     63  C   UNL A   1      35.877  34.262  33.396  1.00  0.00     0.012 A 
ATOM     64  C   UNL A   1      34.569  35.273  31.665  1.00  0.00     0.148 A 
ATOM     65  C   UNL A   1      35.173  34.979  34.369  1.00  0.00     0.002 A 
ATOM     66  C   UNL A   1      33.875  36.007  32.635  1.00  0.00     0.091 A 
ATOM     67  F   UNL A   1      34.232  35.463  30.394  1.00  0.00    -0.205 F 
ATOM     68  C   UNL A   1      34.168  35.851  33.989  1.00  0.00     0.022 A 
BRANCH  66  69
ATOM     69  S   UNL A   1      32.562  37.176  32.224  1.00  0.00     0.127 S 
ATOM     70  O   UNL A   1      31.530  36.837  33.205  1.00  0.00    -0.237 OA
ATOM     71  O   UNL A   1      33.211  38.467  32.448  1.00  0.00    -0.237 OA
ATOM     72  O   UNL A   1      32.183  36.913  30.839  1.00  0.00    -0.744 OA
ENDBRANCH  66  69
ENDBRANCH  48  62
BRANCH  49  73
ATOM     73  C   UNL A   1      40.307  26.849  27.525  1.00  0.00     0.023 A 
ATOM     74  C   UNL A   1      40.903  27.498  26.412  1.00  0.00     0.012 A 
ATOM     75  C   UNL A   1      40.295  25.442  27.559  1.00  0.00     0.148 A 
ATOM     76  C   UNL A   1      41.593  26.771  25.438  1.00  0.00     0.002 A 
ATOM     77  C   UNL A   1      41.033  24.728  26.615  1.00  0.00     0.091 A 
ATOM     78  F   UNL A   1      39.656  24.835  28.569  1.00  0.00    -0.205 F 
ATOM     79  C   UNL A   1      41.700  25.392  25.571  1.00  0.00     0.022 A 
BRANCH  77  80
ATOM     80  S   UNL A   1      41.368  22.970  26.791  1.00  0.00     0.127 S 
ATOM     81  O   UNL A   1      40.030  22.400  26.661  1.00  0.00    -0.237 OA
ATOM     82  O   UNL A   1      42.254  22.713  25.652  1.00  0.00    -0.237 OA
ATOM     83  O   UNL A   1      42.000  22.815  28.092  1.00  0.00    -0.744 OA
ENDBRANCH  77  80
ENDBRANCH  49  73
BRANCH  61  84
ATOM     84  C   UNL A   1      41.902  33.321  30.335  1.00  0.00     0.023 A 
ATOM     85  C   UNL A   1      41.987  34.046  29.132  1.00  0.00     0.012 A 
ATOM     86  C   UNL A   1      42.483  33.917  31.483  1.00  0.00     0.148 A 
ATOM     87  C   UNL A   1      42.679  35.255  29.047  1.00  0.00     0.002 A 
ATOM     88  C   UNL A   1      43.054  35.180  31.420  1.00  0.00     0.091 A 
ATOM     89  F   UNL A   1      42.508  33.255  32.648  1.00  0.00    -0.205 F 
ATOM     90  C   UNL A   1      43.192  35.836  30.196  1.00  0.00     0.022 A 
BRANCH  88  91
ATOM     91  S   UNL A   1      43.489  36.080  32.913  1.00  0.00     0.127 S 
ATOM     92  O   UNL A   1      43.815  37.400  32.379  1.00  0.00    -0.237 OA
ATOM     93  O   UNL A   1      42.243  36.022  33.680  1.00  0.00    -0.237 OA
ATOM     94  O   UNL A   1      44.591  35.336  33.507  1.00  0.00    -0.744 OA
ENDBRANCH  88  91
ENDBRANCH  61  84
ENDBRANCH  35  36
ENDBRANCH  28  30
ENDBRANCH  27  28
ENDBRANCH  26  27
ENDBRANCH   1  26
TORSDOF 19
ENDMDL
MODEL 2
REMARK VINA RESULT:     -12.4      3.724      9.094
REMARK SMILES Cc1ccc(Oc2cc(C(=O)OCCOCCOC(=O)c3ccc(-c4c5nc(c(-c6cccc(S(=O)(=O)[O-])c6F)c6ccc([nH]6)c(-c6cccc(S(=O)(=O)[O-])c6F)c6nc(c(-c7cccc(S(=O)(=O)[O-])c7F)c7ccc4[nH]7)C=C6)C=C5)cc3)nc3ccccc23)cc1
REMARK SMILES IDX 16 1 15 2 14 3 13 4 12 5 10 6 11 7 9 8 7 9 8 10 90 11 85 12
REMARK SMILES IDX 89 13 84 14 86 15 88 16 87 17 6 18 5 19 1 20 2 21 3 22 92 23
REMARK SMILES IDX 4 24 91 25 17 26 18 27 19 28 20 29 21 30 22 31 83 32 23 33
REMARK SMILES IDX 82 34 24 35 25 36 26 37 76 38 27 39 81 40 75 41 77 42 28 43
REMARK SMILES IDX 80 44 74 45 73 46 29 48 61 49 41 50 60 51 42 52 45 53 59 54
REMARK SMILES IDX 78 55 43 56 44 57 58 59 79 60 46 61 30 62 31 63 39 64 32 65
REMARK SMILES IDX 34 66 40 67 33 68 35 69 36 70 37 71 38 72 62 73 63 74 71 75
REMARK SMILES IDX 64 76 66 77 72 78 65 79 67 80 68 81 69 82 70 83 47 84 48 85
REMARK SMILES IDX 56 86 49 87 51 88 57 89 50 90 52 91 53 92 54 93 55 94
REMARK H PARENT 77 47 45 58
REMARK Flexibility Score: inf
ROOT
ATOM      1  C   UNL A   1      32.069  30.366  26.619  1.00  0.00     0.202 C 
ENDROOT
BRANCH   1   2
ATOM      2  O   UNL A   1      31.920  29.976  25.277  1.00  0.00    -0.374 OA
BRANCH   2   3
ATOM      3  C   UNL A   1      31.113  28.848  25.007  1.00  0.00     0.202 C 
BRANCH   3   4
ATOM      4  C   UNL A   1      32.016  27.846  24.345  1.00  0.00     0.261 C 
BRANCH   4   5
ATOM      5  O   UNL A   1      31.538  26.501  24.561  1.00  0.00    -0.459 OA
BRANCH   5   6
ATOM      6  C   UNL A   1      31.855  25.786  25.684  1.00  0.00     0.357 C 
ATOM      7  O   UNL A   1      31.439  25.861  26.815  1.00  0.00    -0.244 OA
BRANCH   6   8
ATOM      8  C   UNL A   1      32.737  24.689  25.252  1.00  0.00     0.152 A 
ATOM      9  C   UNL A   1      33.181  22.796  23.934  1.00  0.00     0.139 A 
ATOM     10  C   UNL A   1      32.255  23.716  24.399  1.00  0.00     0.084 A 
ATOM     11  C   UNL A   1      34.552  22.888  24.291  1.00  0.00     0.043 A 
ATOM     12  C   UNL A   1      34.895  23.916  25.184  1.00  0.00     0.075 A 
ATOM     13  C   UNL A   1      35.580  22.016  23.869  1.00  0.00     0.014 A 
ATOM     14  N   UNL A   1      34.026  24.789  25.647  1.00  0.00    -0.240 NA
ATOM     15  C   UNL A   1      36.184  24.060  25.645  1.00  0.00     0.029 A 
ATOM     16  C   UNL A   1      36.880  22.160  24.358  1.00  0.00     0.001 A 
ATOM     17  C   UNL A   1      37.184  23.183  25.250  1.00  0.00     0.002 A 
BRANCH   9  18
ATOM     18  O   UNL A   1      32.691  21.782  23.140  1.00  0.00    -0.457 OA
BRANCH  18  19
ATOM     19  C   UNL A   1      32.580  20.537  23.728  1.00  0.00     0.127 A 
ATOM     20  C   UNL A   1      32.755  16.518  25.235  1.00  0.00     0.044 C 
ATOM     21  C   UNL A   1      32.629  17.917  24.716  1.00  0.00    -0.051 A 
ATOM     22  C   UNL A   1      32.455  18.154  23.346  1.00  0.00     0.007 A 
ATOM     23  C   UNL A   1      32.688  19.000  25.594  1.00  0.00     0.007 A 
ATOM     24  C   UNL A   1      32.434  19.461  22.853  1.00  0.00     0.047 A 
ATOM     25  C   UNL A   1      32.647  20.302  25.105  1.00  0.00     0.047 A 
ENDBRANCH  18  19
ENDBRANCH   9  18
ENDBRANCH   6   8
ENDBRANCH   5   6
ENDBRANCH   4   5
ENDBRANCH   3   4
ENDBRANCH   2   3
ENDBRANCH   1   2
BRANCH   1  26
ATOM     26  C   UNL A   1      33.460  30.022  27.144  1.00  0.00     0.261 C 
BRANCH  26  27
ATOM     27  O   UNL A   1      33.877  30.996  28.128  1.00  0.00    -0.460 OA
BRANCH  27  28
ATOM     28  C   UNL A   1      35.166  31.441  28.006  1.00  0.00     0.338 C 
ATOM     29  O   UNL A   1      35.460  32.555  27.606  1.00  0.00    -0.246 OA
BRANCH  28  30
ATOM     30  C   UNL A   1      36.127  30.315  28.229  1.00  0.00     0.060 A 
ATOM     31  C   UNL A   1      36.277  29.740  29.504  1.00  0.00     0.016 A 
ATOM     32  C   UNL A   1      37.091  30.078  27.257  1.00  0.00     0.016 A 
ATOM     33  C   UNL A   1      37.480  29.101  29.861  1.00  0.00     0.010 A 
ATOM     34  C   UNL A   1      38.310  29.570  27.656  1.00  0.00     0.010 A 
ATOM     35  C   UNL A   1      38.542  29.119  28.971  1.00  0.00    -0.014 A 
BRANCH  35  36
ATOM     36  C   UNL A   1      39.922  28.678  29.225  1.00  0.00     0.031 A 
ATOM     37  C   UNL A   1      40.209  27.250  28.930  1.00  0.00     0.074 A 
ATOM     38  C   UNL A   1      40.977  29.516  29.416  1.00  0.00     0.049 A 
ATOM     39  N   UNL A   1      41.330  26.671  29.186  1.00  0.00    -0.248 NA
ATOM     40  C   UNL A   1      39.221  26.329  28.368  1.00  0.00     0.031 C 
ATOM     41  C   UNL A   1      42.330  29.307  28.878  1.00  0.00     0.029 A 
ATOM     42  N   UNL A   1      41.085  30.769  30.021  1.00  0.00    -0.354 N 
ATOM     43  C   UNL A   1      41.331  25.469  28.518  1.00  0.00     0.074 A 
ATOM     44  C   UNL A   1      39.957  25.234  28.174  1.00  0.00     0.031 C 
ATOM     45  C   UNL A   1      43.155  30.276  29.307  1.00  0.00     0.029 A 
ATOM     46  C   UNL A   1      42.430  31.066  30.280  1.00  0.00     0.049 A 
ATOM     47  H   UNL A   1      40.327  31.359  30.234  1.00  0.00     0.167 HD
ATOM     48  C   UNL A   1      42.532  24.915  28.199  1.00  0.00     0.034 A 
ATOM     49  C   UNL A   1      42.863  31.466  31.507  1.00  0.00     0.034 A 
ATOM     50  C   UNL A   1      43.634  25.723  28.759  1.00  0.00     0.049 A 
ATOM     51  C   UNL A   1      43.790  30.430  32.080  1.00  0.00     0.074 A 
ATOM     52  C   UNL A   1      44.534  26.609  28.191  1.00  0.00     0.029 A 
ATOM     53  N   UNL A   1      43.733  25.893  30.138  1.00  0.00    -0.354 N 
ATOM     54  N   UNL A   1      43.979  29.285  31.490  1.00  0.00    -0.248 NA
ATOM     55  C   UNL A   1      44.594  30.549  33.291  1.00  0.00     0.031 C 
ATOM     56  C   UNL A   1      45.155  27.336  29.242  1.00  0.00     0.029 A 
ATOM     57  C   UNL A   1      44.663  26.871  30.453  1.00  0.00     0.049 A 
ATOM     58  H   UNL A   1      43.213  25.385  30.801  1.00  0.00     0.167 HD
ATOM     59  C   UNL A   1      44.788  28.485  32.223  1.00  0.00     0.074 A 
ATOM     60  C   UNL A   1      45.187  29.338  33.331  1.00  0.00     0.031 C 
ATOM     61  C   UNL A   1      44.987  27.187  31.846  1.00  0.00     0.034 A 
BRANCH  48  62
ATOM     62  C   UNL A   1      42.786  23.792  27.199  1.00  0.00     0.023 A 
ATOM     63  C   UNL A   1      43.546  24.136  26.057  1.00  0.00     0.012 A 
ATOM     64  C   UNL A   1      42.315  22.456  27.235  1.00  0.00     0.148 A 
ATOM     65  C   UNL A   1      43.781  23.247  25.003  1.00  0.00     0.002 A 
ATOM     66  C   UNL A   1      42.564  21.557  26.190  1.00  0.00     0.091 A 
ATOM     67  F   UNL A   1      41.612  22.012  28.271  1.00  0.00    -0.205 F 
ATOM     68  C   UNL A   1      43.287  21.957  25.066  1.00  0.00     0.022 A 
BRANCH  66  69
ATOM     69  S   UNL A   1      41.970  19.852  26.203  1.00  0.00     0.127 S 
ATOM     70  O   UNL A   1      42.440  19.372  27.503  1.00  0.00    -0.237 OA
ATOM     71  O   UNL A   1      40.521  20.026  26.109  1.00  0.00    -0.237 OA
ATOM     72  O   UNL A   1      42.582  19.185  25.059  1.00  0.00    -0.744 OA
ENDBRANCH  66  69
ENDBRANCH  48  62
BRANCH  49  73
ATOM     73  C   UNL A   1      41.859  32.320  32.212  1.00  0.00     0.023 A 
ATOM     74  C   UNL A   1      41.643  33.606  31.652  1.00  0.00     0.012 A 
ATOM     75  C   UNL A   1      40.828  31.730  32.966  1.00  0.00     0.148 A 
ATOM     76  C   UNL A   1      40.389  34.220  31.719  1.00  0.00     0.002 A 
ATOM     77  C   UNL A   1      39.565  32.322  32.980  1.00  0.00     0.091 A 
ATOM     78  F   UNL A   1      41.069  30.554  33.563  1.00  0.00    -0.205 F 
ATOM     79  C   UNL A   1      39.339  33.552  32.339  1.00  0.00     0.022 A 
BRANCH  77  80
ATOM     80  S   UNL A   1      38.113  31.466  33.609  1.00  0.00     0.127 S 
ATOM     81  O   UNL A   1      37.033  32.193  32.948  1.00  0.00    -0.237 OA
ATOM     82  O   UNL A   1      38.324  30.103  33.114  1.00  0.00    -0.237 OA
ATOM     83  O   UNL A   1      38.173  31.597  35.056  1.00  0.00    -0.744 OA
ENDBRANCH  77  80
ENDBRANCH  49  73
BRANCH  61  84
ATOM     84  C   UNL A   1      45.528  26.109  32.751  1.00  0.00     0.023 A 
ATOM     85  C   UNL A   1      46.908  25.860  32.868  1.00  0.00     0.012 A 
ATOM     86  C   UNL A   1      44.674  25.410  33.641  1.00  0.00     0.148 A 
ATOM     87  C   UNL A   1      47.414  24.913  33.761  1.00  0.00     0.002 A 
ATOM     88  C   UNL A   1      45.194  24.569  34.616  1.00  0.00     0.091 A 
ATOM     89  F   UNL A   1      43.344  25.537  33.541  1.00  0.00    -0.205 F 
ATOM     90  C   UNL A   1      46.560  24.284  34.652  1.00  0.00     0.022 A 
BRANCH  88  91
ATOM     91  S   UNL A   1      44.166  23.944  35.950  1.00  0.00     0.127 S 
ATOM     92  O   UNL A   1      43.062  23.333  35.213  1.00  0.00    -0.237 OA
ATOM     93  O   UNL A   1      45.063  22.993  36.609  1.00  0.00    -0.237 OA
ATOM     94  O   UNL A   1      43.831  25.108  36.759  1.00  0.00    -0.744 OA
ENDBRANCH  88  91
ENDBRANCH  61  84
ENDBRANCH  35  36
ENDBRANCH  28  30
ENDBRANCH  27  28
ENDBRANCH  26  27
ENDBRANCH   1  26
TORSDOF 19
ENDMDL
MODEL 3
REMARK VINA RESULT:     -12.3      3.375      9.195
REMARK SMILES Cc1ccc(Oc2cc(C(=O)OCCOCCOC(=O)c3ccc(-c4c5nc(c(-c6cccc(S(=O)(=O)[O-])c6F)c6ccc([nH]6)c(-c6cccc(S(=O)(=O)[O-])c6F)c6nc(c(-c7cccc(S(=O)(=O)[O-])c7F)c7ccc4[nH]7)C=C6)C=C5)cc3)nc3ccccc23)cc1
REMARK SMILES IDX 16 1 15 2 14 3 13 4 12 5 10 6 11 7 9 8 7 9 8 10 90 11 85 12
REMARK SMILES IDX 89 13 84 14 86 15 88 16 87 17 6 18 5 19 1 20 2 21 3 22 92 23
REMARK SMILES IDX 4 24 91 25 17 26 18 27 19 28 20 29 21 30 22 31 83 32 23 33
REMARK SMILES IDX 82 34 24 35 25 36 26 37 76 38 27 39 81 40 75 41 77 42 28 43
REMARK SMILES IDX 80 44 74 45 73 46 29 48 61 49 41 50 60 51 42 52 45 53 59 54
REMARK SMILES IDX 78 55 43 56 44 57 58 59 79 60 46 61 30 62 31 63 39 64 32 65
REMARK SMILES IDX 34 66 40 67 33 68 35 69 36 70 37 71 38 72 62 73 63 74 71 75
REMARK SMILES IDX 64 76 66 77 72 78 65 79 67 80 68 81 69 82 70 83 47 84 48 85
REMARK SMILES IDX 56 86 49 87 51 88 57 89 50 90 52 91 53 92 54 93 55 94
REMARK H PARENT 77 47 45 58
REMARK Flexibility Score: inf
ROOT
ATOM      1  C   UNL A   1      33.772  29.502  27.169  1.00  0.00     0.202 C 
ENDROOT
BRANCH   1   2
ATOM      2  O   UNL A   1      33.055  29.267  25.984  1.00  0.00    -0.374 OA
BRANCH   2   3
ATOM      3  C   UNL A   1      32.882  27.926  25.575  1.00  0.00     0.202 C 
BRANCH   3   4
ATOM      4  C   UNL A   1      31.662  27.430  26.299  1.00  0.00     0.261 C 
BRANCH   4   5
ATOM      5  O   UNL A   1      31.909  26.139  26.898  1.00  0.00    -0.459 OA
BRANCH   5   6
ATOM      6  C   UNL A   1      31.229  25.015  26.514  1.00  0.00     0.357 C 
ATOM      7  O   UNL A   1      30.060  24.727  26.602  1.00  0.00    -0.244 OA
BRANCH   6   8
ATOM      8  C   UNL A   1      32.177  24.188  25.749  1.00  0.00     0.152 A 
ATOM      9  C   UNL A   1      32.657  22.630  24.057  1.00  0.00     0.139 A 
ATOM     10  C   UNL A   1      31.704  23.273  24.831  1.00  0.00     0.084 A 
ATOM     11  C   UNL A   1      34.037  22.939  24.186  1.00  0.00     0.043 A 
ATOM     12  C   UNL A   1      34.376  23.875  25.176  1.00  0.00     0.075 A 
ATOM     13  C   UNL A   1      35.090  22.357  23.446  1.00  0.00     0.014 A 
ATOM     14  N   UNL A   1      33.484  24.484  25.929  1.00  0.00    -0.240 NA
ATOM     15  C   UNL A   1      35.689  24.203  25.429  1.00  0.00     0.029 A 
ATOM     16  C   UNL A   1      36.420  22.684  23.724  1.00  0.00     0.001 A 
ATOM     17  C   UNL A   1      36.721  23.608  24.719  1.00  0.00     0.002 A 
BRANCH   9  18
ATOM     18  O   UNL A   1      32.194  21.664  23.190  1.00  0.00    -0.457 OA
BRANCH  18  19
ATOM     19  C   UNL A   1      32.351  20.351  23.590  1.00  0.00     0.127 A 
ATOM     20  C   UNL A   1      33.347  16.264  24.460  1.00  0.00     0.044 C 
ATOM     21  C   UNL A   1      32.938  17.674  24.166  1.00  0.00    -0.051 A 
ATOM     22  C   UNL A   1      32.609  18.061  22.860  1.00  0.00     0.007 A 
ATOM     23  C   UNL A   1      32.883  18.618  25.192  1.00  0.00     0.007 A 
ATOM     24  C   UNL A   1      32.319  19.398  22.573  1.00  0.00     0.047 A 
ATOM     25  C   UNL A   1      32.574  19.945  24.910  1.00  0.00     0.047 A 
ENDBRANCH  18  19
ENDBRANCH   9  18
ENDBRANCH   6   8
ENDBRANCH   5   6
ENDBRANCH   4   5
ENDBRANCH   3   4
ENDBRANCH   2   3
ENDBRANCH   1   2
BRANCH   1  26
ATOM     26  C   UNL A   1      34.285  30.938  27.229  1.00  0.00     0.261 C 
BRANCH  26  27
ATOM     27  O   UNL A   1      33.464  31.725  28.122  1.00  0.00    -0.460 OA
BRANCH  27  28
ATOM     28  C   UNL A   1      33.901  33.002  28.352  1.00  0.00     0.338 C 
ATOM     29  O   UNL A   1      33.383  33.991  27.862  1.00  0.00    -0.246 OA
BRANCH  28  30
ATOM     30  C   UNL A   1      35.196  32.980  29.102  1.00  0.00     0.060 A 
ATOM     31  C   UNL A   1      36.396  33.363  28.475  1.00  0.00     0.016 A 
ATOM     32  C   UNL A   1      35.247  32.272  30.296  1.00  0.00     0.016 A 
ATOM     33  C   UNL A   1      37.630  32.866  28.935  1.00  0.00     0.010 A 
ATOM     34  C   UNL A   1      36.442  31.686  30.658  1.00  0.00     0.010 A 
ATOM     35  C   UNL A   1      37.641  31.932  29.959  1.00  0.00    -0.014 A 
BRANCH  35  36
ATOM     36  C   UNL A   1      38.796  31.164  30.449  1.00  0.00     0.031 A 
ATOM     37  C   UNL A   1      39.028  29.854  29.789  1.00  0.00     0.074 A 
ATOM     38  C   UNL A   1      39.795  31.679  31.217  1.00  0.00     0.049 A 
ATOM     39  N   UNL A   1      39.928  29.009  30.156  1.00  0.00    -0.248 NA
ATOM     40  C   UNL A   1      38.214  29.353  28.681  1.00  0.00     0.031 C 
ATOM     41  C   UNL A   1      41.223  31.361  31.070  1.00  0.00     0.029 A 
ATOM     42  N   UNL A   1      39.807  32.656  32.213  1.00  0.00    -0.354 N 
ATOM     43  C   UNL A   1      40.046  28.075  29.154  1.00  0.00     0.074 A 
ATOM     44  C   UNL A   1      38.862  28.234  28.357  1.00  0.00     0.031 C 
ATOM     45  C   UNL A   1      41.937  31.977  32.026  1.00  0.00     0.029 A 
ATOM     46  C   UNL A   1      40.999  32.586  32.945  1.00  0.00     0.049 A 
ATOM     47  H   UNL A   1      39.082  33.303  32.376  1.00  0.00     0.167 HD
ATOM     48  C   UNL A   1      41.222  27.402  29.040  1.00  0.00     0.034 A 
ATOM     49  C   UNL A   1      41.014  32.521  34.305  1.00  0.00     0.034 A 
ATOM     50  C   UNL A   1      42.133  27.773  30.141  1.00  0.00     0.049 A 
ATOM     51  C   UNL A   1      41.578  31.198  34.743  1.00  0.00     0.074 A 
ATOM     52  C   UNL A   1      43.256  28.582  30.202  1.00  0.00     0.029 A 
ATOM     53  N   UNL A   1      41.762  27.517  31.460  1.00  0.00    -0.354 N 
ATOM     54  N   UNL A   1      41.849  30.256  33.886  1.00  0.00    -0.248 NA
ATOM     55  C   UNL A   1      41.917  30.799  36.104  1.00  0.00     0.031 C 
ATOM     56  C   UNL A   1      43.539  28.834  31.572  1.00  0.00     0.029 A 
ATOM     57  C   UNL A   1      42.614  28.153  32.349  1.00  0.00     0.049 A 
ATOM     58  H   UNL A   1      40.997  26.959  31.725  1.00  0.00     0.167 HD
ATOM     59  C   UNL A   1      42.270  29.133  34.511  1.00  0.00     0.074 A 
ATOM     60  C   UNL A   1      42.340  29.533  35.908  1.00  0.00     0.031 C 
ATOM     61  C   UNL A   1      42.461  27.985  33.796  1.00  0.00     0.034 A 
BRANCH  48  62
ATOM     62  C   UNL A   1      41.699  26.585  27.845  1.00  0.00     0.023 A 
ATOM     63  C   UNL A   1      42.036  27.319  26.683  1.00  0.00     0.012 A 
ATOM     64  C   UNL A   1      41.799  25.176  27.722  1.00  0.00     0.148 A 
ATOM     65  C   UNL A   1      42.395  26.712  25.476  1.00  0.00     0.002 A 
ATOM     66  C   UNL A   1      42.175  24.565  26.520  1.00  0.00     0.091 A 
ATOM     67  F   UNL A   1      41.531  24.385  28.755  1.00  0.00    -0.205 F 
ATOM     68  C   UNL A   1      42.461  25.333  25.391  1.00  0.00     0.022 A 
BRANCH  66  69
ATOM     69  S   UNL A   1      42.302  22.774  26.330  1.00  0.00     0.127 S 
ATOM     70  O   UNL A   1      40.924  22.341  26.567  1.00  0.00    -0.237 OA
ATOM     71  O   UNL A   1      42.750  22.638  24.944  1.00  0.00    -0.237 OA
ATOM     72  O   UNL A   1      43.258  22.312  27.331  1.00  0.00    -0.744 OA
ENDBRANCH  66  69
ENDBRANCH  48  62
BRANCH  49  73
ATOM     73  C   UNL A   1      39.916  33.324  34.923  1.00  0.00     0.023 A 
ATOM     74  C   UNL A   1      38.646  32.693  34.978  1.00  0.00     0.012 A 
ATOM     75  C   UNL A   1      40.213  34.328  35.865  1.00  0.00     0.148 A 
ATOM     76  C   UNL A   1      37.757  32.952  36.026  1.00  0.00     0.002 A 
ATOM     77  C   UNL A   1      39.346  34.537  36.938  1.00  0.00     0.091 A 
ATOM     78  F   UNL A   1      41.379  34.978  35.755  1.00  0.00    -0.205 F 
ATOM     79  C   UNL A   1      38.132  33.835  37.031  1.00  0.00     0.022 A 
BRANCH  77  80
ATOM     80  S   UNL A   1      39.810  35.530  38.364  1.00  0.00     0.127 S 
ATOM     81  O   UNL A   1      39.557  36.883  37.878  1.00  0.00    -0.237 OA
ATOM     82  O   UNL A   1      38.866  35.061  39.382  1.00  0.00    -0.237 OA
ATOM     83  O   UNL A   1      41.201  35.203  38.638  1.00  0.00    -0.744 OA
ENDBRANCH  77  80
ENDBRANCH  49  73
BRANCH  61  84
ATOM     84  C   UNL A   1      42.546  26.606  34.401  1.00  0.00     0.023 A 
ATOM     85  C   UNL A   1      41.491  26.059  35.155  1.00  0.00     0.012 A 
ATOM     86  C   UNL A   1      43.630  25.744  34.099  1.00  0.00     0.148 A 
ATOM     87  C   UNL A   1      41.540  24.755  35.654  1.00  0.00     0.002 A 
ATOM     88  C   UNL A   1      43.611  24.411  34.484  1.00  0.00     0.091 A 
ATOM     89  F   UNL A   1      44.705  26.212  33.450  1.00  0.00    -0.205 F 
ATOM     90  C   UNL A   1      42.588  23.922  35.298  1.00  0.00     0.022 A 
BRANCH  88  91
ATOM     91  S   UNL A   1      44.802  23.236  33.830  1.00  0.00     0.127 S 
ATOM     92  O   UNL A   1      44.366  21.991  34.456  1.00  0.00    -0.237 OA
ATOM     93  O   UNL A   1      44.553  23.317  32.389  1.00  0.00    -0.237 OA
ATOM     94  O   UNL A   1      46.107  23.738  34.238  1.00  0.00    -0.744 OA
ENDBRANCH  88  91
ENDBRANCH  61  84
ENDBRANCH  35  36
ENDBRANCH  28  30
ENDBRANCH  27  28
ENDBRANCH  26  27
ENDBRANCH   1  26
TORSDOF 19
ENDMDL
