MODEL 1
REMARK VINA RESULT:     -10.6      0.000      0.000
REMARK SMILES O=C(OCCOCCOC(=O)c1ccc(COc2cccc(Cl)c2Cl)o1)c1ccc(-c2c3nc(c(-c4cccc(S(=O)(=O)[O-])c4F)c4ccc([nH]4)c(-c4cccc(S(=O)(=O)[O-])c4F)c4nc(c(-c5cccc(S(=O)(=O)[O-])c5F)c5ccc2[nH]5)C=C4)C=C3)cc1
REMARK SMILES IDX 6 1 5 2 4 3 3 4 2 5 1 6 27 7 28 8 89 9 29 10 88 11 30 12
REMARK SMILES IDX 31 13 32 14 82 15 33 16 87 17 81 18 83 19 34 20 86 21 80 22
REMARK SMILES IDX 79 23 35 25 67 26 47 27 66 28 48 29 51 30 65 31 84 32 49 33
REMARK SMILES IDX 50 34 64 36 85 37 52 38 36 39 37 40 45 41 38 42 40 43 46 44
REMARK SMILES IDX 39 45 41 46 42 47 43 48 44 49 68 50 69 51 77 52 70 53 72 54
REMARK SMILES IDX 78 55 71 56 73 57 74 58 75 59 76 60 53 61 54 62 62 63 55 64
REMARK SMILES IDX 57 65 63 66 56 67 58 68 59 69 60 70 61 71 7 72 8 73 9 74
REMARK SMILES IDX 10 75 11 76 12 77 13 78 26 79 14 80 15 81 16 82 17 83 18 84
REMARK SMILES IDX 19 85 24 86 20 87 22 88 25 89 21 90 23 91
REMARK H PARENT 83 24 51 35
REMARK Flexibility Score: inf
ROOT
ATOM      1  O   UNL A   1      34.478  21.586  26.857  1.00  0.00    -0.374 OA
ENDROOT
BRANCH   1   2
ATOM      2  C   UNL A   1      35.595  22.022  26.078  1.00  0.00     0.202 C 
BRANCH   2   3
ATOM      3  C   UNL A   1      36.339  20.893  25.356  1.00  0.00     0.261 C 
BRANCH   3   4
ATOM      4  O   UNL A   1      37.697  21.284  25.083  1.00  0.00    -0.460 OA
BRANCH   4   5
ATOM      5  C   UNL A   1      38.763  21.313  25.919  1.00  0.00     0.338 C 
ATOM      6  O   UNL A   1      39.230  20.238  26.294  1.00  0.00    -0.246 OA
BRANCH   5   7
ATOM      7  C   UNL A   1      39.410  22.570  26.410  1.00  0.00     0.060 A 
ATOM      8  C   UNL A   1      38.992  23.863  26.095  1.00  0.00     0.016 A 
ATOM      9  C   UNL A   1      40.466  22.431  27.330  1.00  0.00     0.016 A 
ATOM     10  C   UNL A   1      39.646  24.981  26.598  1.00  0.00     0.010 A 
ATOM     11  C   UNL A   1      41.091  23.552  27.891  1.00  0.00     0.010 A 
ATOM     12  C   UNL A   1      40.693  24.835  27.507  1.00  0.00    -0.014 A 
BRANCH  12  13
ATOM     13  C   UNL A   1      41.348  26.064  27.999  1.00  0.00     0.031 A 
ATOM     14  C   UNL A   1      42.752  26.369  27.579  1.00  0.00     0.074 A 
ATOM     15  C   UNL A   1      40.617  26.952  28.701  1.00  0.00     0.049 A 
ATOM     16  N   UNL A   1      43.458  27.445  27.794  1.00  0.00    -0.248 NA
ATOM     17  C   UNL A   1      43.450  25.335  26.795  1.00  0.00     0.031 C 
ATOM     18  C   UNL A   1      39.227  26.750  29.120  1.00  0.00     0.029 A 
ATOM     19  N   UNL A   1      40.923  28.208  29.155  1.00  0.00    -0.354 N 
ATOM     20  C   UNL A   1      44.686  27.216  27.188  1.00  0.00     0.074 A 
ATOM     21  C   UNL A   1      44.635  25.895  26.604  1.00  0.00     0.031 C 
ATOM     22  C   UNL A   1      38.792  27.855  29.744  1.00  0.00     0.029 A 
ATOM     23  C   UNL A   1      39.879  28.827  29.803  1.00  0.00     0.049 A 
ATOM     24  H   UNL A   1      41.804  28.627  29.029  1.00  0.00     0.167 HD
ATOM     25  C   UNL A   1      45.754  28.044  27.115  1.00  0.00     0.034 A 
ATOM     26  C   UNL A   1      39.814  30.042  30.381  1.00  0.00     0.034 A 
ATOM     27  C   UNL A   1      45.786  29.355  27.702  1.00  0.00     0.049 A 
ATOM     28  C   UNL A   1      41.025  30.931  30.299  1.00  0.00     0.074 A 
ATOM     29  C   UNL A   1      46.833  30.257  27.745  1.00  0.00     0.029 A 
ATOM     30  N   UNL A   1      44.714  29.951  28.351  1.00  0.00    -0.354 N 
ATOM     31  N   UNL A   1      42.163  30.717  29.682  1.00  0.00    -0.248 NA
ATOM     32  C   UNL A   1      40.940  32.234  30.970  1.00  0.00     0.031 C 
ATOM     33  C   UNL A   1      46.395  31.397  28.428  1.00  0.00     0.029 A 
ATOM     34  C   UNL A   1      45.072  31.210  28.798  1.00  0.00     0.049 A 
ATOM     35  H   UNL A   1      43.828  29.538  28.475  1.00  0.00     0.167 HD
ATOM     36  C   UNL A   1      42.928  31.859  29.886  1.00  0.00     0.074 A 
ATOM     37  C   UNL A   1      42.104  32.779  30.644  1.00  0.00     0.031 C 
ATOM     38  C   UNL A   1      44.207  32.114  29.513  1.00  0.00     0.034 A 
BRANCH  25  39
ATOM     39  C   UNL A   1      46.955  27.546  26.363  1.00  0.00     0.023 A 
ATOM     40  C   UNL A   1      47.044  27.770  24.974  1.00  0.00     0.012 A 
ATOM     41  C   UNL A   1      47.990  26.854  27.021  1.00  0.00     0.148 A 
ATOM     42  C   UNL A   1      48.133  27.290  24.247  1.00  0.00     0.002 A 
ATOM     43  C   UNL A   1      49.086  26.404  26.294  1.00  0.00     0.091 A 
ATOM     44  F   UNL A   1      47.870  26.629  28.338  1.00  0.00    -0.205 F 
ATOM     45  C   UNL A   1      49.155  26.614  24.907  1.00  0.00     0.022 A 
BRANCH  43  46
ATOM     46  S   UNL A   1      50.472  25.552  27.054  1.00  0.00     0.127 S 
ATOM     47  O   UNL A   1      50.873  26.506  28.087  1.00  0.00    -0.237 OA
ATOM     48  O   UNL A   1      49.843  24.333  27.560  1.00  0.00    -0.237 OA
ATOM     49  O   UNL A   1      51.446  25.340  25.992  1.00  0.00    -0.744 OA
ENDBRANCH  43  46
ENDBRANCH  25  39
BRANCH  26  50
ATOM     50  C   UNL A   1      38.560  30.488  31.056  1.00  0.00     0.023 A 
ATOM     51  C   UNL A   1      38.350  30.191  32.416  1.00  0.00     0.012 A 
ATOM     52  C   UNL A   1      37.585  31.232  30.363  1.00  0.00     0.148 A 
ATOM     53  C   UNL A   1      37.181  30.603  33.063  1.00  0.00     0.002 A 
ATOM     54  C   UNL A   1      36.454  31.692  31.028  1.00  0.00     0.091 A 
ATOM     55  F   UNL A   1      37.779  31.483  29.060  1.00  0.00    -0.205 F 
ATOM     56  C   UNL A   1      36.241  31.365  32.375  1.00  0.00     0.022 A 
BRANCH  54  57
ATOM     57  S   UNL A   1      35.288  32.801  30.229  1.00  0.00     0.127 S 
ATOM     58  O   UNL A   1      36.132  33.947  29.906  1.00  0.00    -0.237 OA
ATOM     59  O   UNL A   1      34.847  32.017  29.074  1.00  0.00    -0.237 OA
ATOM     60  O   UNL A   1      34.245  33.026  31.223  1.00  0.00    -0.744 OA
ENDBRANCH  54  57
ENDBRANCH  26  50
BRANCH  38  61
ATOM     61  C   UNL A   1      44.788  33.436  29.933  1.00  0.00     0.023 A 
ATOM     62  C   UNL A   1      45.521  33.514  31.135  1.00  0.00     0.012 A 
ATOM     63  C   UNL A   1      44.672  34.574  29.115  1.00  0.00     0.148 A 
ATOM     64  C   UNL A   1      46.107  34.715  31.528  1.00  0.00     0.002 A 
ATOM     65  C   UNL A   1      45.295  35.757  29.492  1.00  0.00     0.091 A 
ATOM     66  F   UNL A   1      43.948  34.484  27.989  1.00  0.00    -0.205 F 
ATOM     67  C   UNL A   1      46.005  35.832  30.702  1.00  0.00     0.022 A 
BRANCH  65  68
ATOM     68  S   UNL A   1      45.285  37.209  28.437  1.00  0.00     0.127 S 
ATOM     69  O   UNL A   1      45.887  36.693  27.210  1.00  0.00    -0.237 OA
ATOM     70  O   UNL A   1      43.857  37.518  28.334  1.00  0.00    -0.237 OA
ATOM     71  O   UNL A   1      46.062  38.215  29.149  1.00  0.00    -0.744 OA
ENDBRANCH  65  68
ENDBRANCH  38  61
ENDBRANCH  12  13
ENDBRANCH   5   7
ENDBRANCH   4   5
ENDBRANCH   3   4
ENDBRANCH   2   3
ENDBRANCH   1   2
BRANCH   1  72
ATOM     72  C   UNL A   1      33.576  20.685  26.204  1.00  0.00     0.202 C 
BRANCH  72  73
ATOM     73  C   UNL A   1      32.746  21.444  25.163  1.00  0.00     0.261 C 
BRANCH  73  74
ATOM     74  O   UNL A   1      31.424  21.645  25.695  1.00  0.00    -0.457 OA
BRANCH  74  75
ATOM     75  C   UNL A   1      31.216  22.907  26.165  1.00  0.00     0.374 C 
ATOM     76  O   UNL A   1      31.358  23.267  27.328  1.00  0.00    -0.242 OA
BRANCH  75  77
ATOM     77  C   UNL A   1      30.935  23.776  25.053  1.00  0.00     0.211 A 
ATOM     78  C   UNL A   1      30.828  23.588  23.690  1.00  0.00     0.058 A 
ATOM     79  O   UNL A   1      30.796  25.103  25.331  1.00  0.00    -0.450 OA
ATOM     80  C   UNL A   1      30.542  24.860  23.125  1.00  0.00     0.050 A 
ATOM     81  C   UNL A   1      30.522  25.758  24.174  1.00  0.00     0.142 A 
BRANCH  81  82
ATOM     82  C   UNL A   1      30.262  27.223  24.280  1.00  0.00     0.304 C 
BRANCH  82  83
ATOM     83  O   UNL A   1      31.407  27.970  23.826  1.00  0.00    -0.484 OA
BRANCH  83  84
ATOM     84  C   UNL A   1      31.915  28.799  24.797  1.00  0.00     0.140 A 
ATOM     85  C   UNL A   1      31.194  29.956  25.111  1.00  0.00     0.048 A 
ATOM     86  C   UNL A   1      33.061  28.462  25.528  1.00  0.00     0.101 A 
ATOM     87  C   UNL A   1      31.653  30.830  26.091  1.00  0.00     0.005 A 
ATOM     88  C   UNL A   1      33.506  29.335  26.533  1.00  0.00     0.063 A 
ATOM     89  Cl  UNL A   1      33.891  26.979  25.188  1.00  0.00    -0.079 Cl
ATOM     90  C   UNL A   1      32.811  30.522  26.799  1.00  0.00     0.022 A 
ATOM     91  Cl  UNL A   1      34.909  29.010  27.490  1.00  0.00    -0.083 Cl
ENDBRANCH  83  84
ENDBRANCH  82  83
ENDBRANCH  81  82
ENDBRANCH  75  77
ENDBRANCH  74  75
ENDBRANCH  73  74
ENDBRANCH  72  73
ENDBRANCH   1  72
TORSDOF 20
ENDMDL
MODEL 2
REMARK VINA RESULT:     -10.4      1.874      2.295
REMARK SMILES O=C(OCCOCCOC(=O)c1ccc(COc2cccc(Cl)c2Cl)o1)c1ccc(-c2c3nc(c(-c4cccc(S(=O)(=O)[O-])c4F)c4ccc([nH]4)c(-c4cccc(S(=O)(=O)[O-])c4F)c4nc(c(-c5cccc(S(=O)(=O)[O-])c5F)c5ccc2[nH]5)C=C4)C=C3)cc1
REMARK SMILES IDX 6 1 5 2 4 3 3 4 2 5 1 6 27 7 28 8 89 9 29 10 88 11 30 12
REMARK SMILES IDX 31 13 32 14 82 15 33 16 87 17 81 18 83 19 34 20 86 21 80 22
REMARK SMILES IDX 79 23 35 25 67 26 47 27 66 28 48 29 51 30 65 31 84 32 49 33
REMARK SMILES IDX 50 34 64 36 85 37 52 38 36 39 37 40 45 41 38 42 40 43 46 44
REMARK SMILES IDX 39 45 41 46 42 47 43 48 44 49 68 50 69 51 77 52 70 53 72 54
REMARK SMILES IDX 78 55 71 56 73 57 74 58 75 59 76 60 53 61 54 62 62 63 55 64
REMARK SMILES IDX 57 65 63 66 56 67 58 68 59 69 60 70 61 71 7 72 8 73 9 74
REMARK SMILES IDX 10 75 11 76 12 77 13 78 26 79 14 80 15 81 16 82 17 83 18 84
REMARK SMILES IDX 19 85 24 86 20 87 22 88 25 89 21 90 23 91
REMARK H PARENT 83 24 51 35
REMARK Flexibility Score: inf
ROOT
ATOM      1  O   UNL A   1      35.381  21.266  24.993  1.00  0.00    -0.374 OA
ENDROOT
BRANCH   1   2
ATOM      2  C   UNL A   1      36.570  20.473  25.033  1.00  0.00     0.202 C 
BRANCH   2   3
ATOM      3  C   UNL A   1      37.865  21.284  25.163  1.00  0.00     0.261 C 
BRANCH   3   4
ATOM      4  O   UNL A   1      38.947  20.434  25.583  1.00  0.00    -0.460 OA
BRANCH   4   5
ATOM      5  C   UNL A   1      39.904  20.665  26.515  1.00  0.00     0.338 C 
ATOM      6  O   UNL A   1      40.386  19.694  27.097  1.00  0.00    -0.246 OA
BRANCH   5   7
ATOM      7  C   UNL A   1      40.413  22.026  26.874  1.00  0.00     0.060 A 
ATOM      8  C   UNL A   1      40.068  23.209  26.221  1.00  0.00     0.016 A 
ATOM      9  C   UNL A   1      41.232  22.123  28.014  1.00  0.00     0.016 A 
ATOM     10  C   UNL A   1      40.582  24.436  26.623  1.00  0.00     0.010 A 
ATOM     11  C   UNL A   1      41.705  23.363  28.464  1.00  0.00     0.010 A 
ATOM     12  C   UNL A   1      41.396  24.524  27.751  1.00  0.00    -0.014 A 
BRANCH  12  13
ATOM     13  C   UNL A   1      41.912  25.858  28.120  1.00  0.00     0.031 A 
ATOM     14  C   UNL A   1      43.271  26.277  27.649  1.00  0.00     0.074 A 
ATOM     15  C   UNL A   1      41.092  26.719  28.751  1.00  0.00     0.049 A 
ATOM     16  N   UNL A   1      43.853  27.440  27.754  1.00  0.00    -0.248 NA
ATOM     17  C   UNL A   1      44.074  25.260  26.949  1.00  0.00     0.031 C 
ATOM     18  C   UNL A   1      39.737  26.404  29.212  1.00  0.00     0.029 A 
ATOM     19  N   UNL A   1      41.259  28.037  29.085  1.00  0.00    -0.354 N 
ATOM     20  C   UNL A   1      45.094  27.295  27.149  1.00  0.00     0.074 A 
ATOM     21  C   UNL A   1      45.187  25.928  26.687  1.00  0.00     0.031 C 
ATOM     22  C   UNL A   1      39.186  27.506  29.742  1.00  0.00     0.029 A 
ATOM     23  C   UNL A   1      40.157  28.593  29.694  1.00  0.00     0.049 A 
ATOM     24  H   UNL A   1      42.086  28.539  28.907  1.00  0.00     0.167 HD
ATOM     25  C   UNL A   1      46.061  28.226  26.983  1.00  0.00     0.034 A 
ATOM     26  C   UNL A   1      39.960  29.841  30.161  1.00  0.00     0.034 A 
ATOM     27  C   UNL A   1      45.951  29.580  27.450  1.00  0.00     0.049 A 
ATOM     28  C   UNL A   1      41.063  30.848  29.978  1.00  0.00     0.074 A 
ATOM     29  C   UNL A   1      46.891  30.593  27.392  1.00  0.00     0.029 A 
ATOM     30  N   UNL A   1      44.824  30.110  28.061  1.00  0.00    -0.354 N 
ATOM     31  N   UNL A   1      42.214  30.707  29.363  1.00  0.00    -0.248 NA
ATOM     32  C   UNL A   1      40.838  32.189  30.532  1.00  0.00     0.031 C 
ATOM     33  C   UNL A   1      46.333  31.735  27.978  1.00  0.00     0.029 A 
ATOM     34  C   UNL A   1      45.042  31.437  28.387  1.00  0.00     0.049 A 
ATOM     35  H   UNL A   1      43.991  29.615  28.238  1.00  0.00     0.167 HD
ATOM     36  C   UNL A   1      42.848  31.940  29.450  1.00  0.00     0.074 A 
ATOM     37  C   UNL A   1      41.930  32.829  30.137  1.00  0.00     0.031 C 
ATOM     38  C   UNL A   1      44.086  32.301  29.033  1.00  0.00     0.034 A 
BRANCH  25  39
ATOM     39  C   UNL A   1      47.306  27.797  26.258  1.00  0.00     0.023 A 
ATOM     40  C   UNL A   1      48.395  27.288  26.994  1.00  0.00     0.012 A 
ATOM     41  C   UNL A   1      47.403  27.901  24.857  1.00  0.00     0.148 A 
ATOM     42  C   UNL A   1      49.573  26.913  26.349  1.00  0.00     0.002 A 
ATOM     43  C   UNL A   1      48.571  27.499  24.219  1.00  0.00     0.091 A 
ATOM     44  F   UNL A   1      46.365  28.414  24.181  1.00  0.00    -0.205 F 
ATOM     45  C   UNL A   1      49.659  27.013  24.963  1.00  0.00     0.022 A 
BRANCH  43  46
ATOM     46  S   UNL A   1      48.770  27.554  22.435  1.00  0.00     0.127 S 
ATOM     47  O   UNL A   1      50.144  28.039  22.307  1.00  0.00    -0.237 OA
ATOM     48  O   UNL A   1      48.581  26.153  22.061  1.00  0.00    -0.237 OA
ATOM     49  O   UNL A   1      47.742  28.460  21.943  1.00  0.00    -0.744 OA
ENDBRANCH  43  46
ENDBRANCH  25  39
BRANCH  26  50
ATOM     50  C   UNL A   1      38.670  30.205  30.816  1.00  0.00     0.023 A 
ATOM     51  C   UNL A   1      38.433  29.840  32.155  1.00  0.00     0.012 A 
ATOM     52  C   UNL A   1      37.684  30.939  30.126  1.00  0.00     0.148 A 
ATOM     53  C   UNL A   1      37.229  30.175  32.782  1.00  0.00     0.002 A 
ATOM     54  C   UNL A   1      36.516  31.322  30.775  1.00  0.00     0.091 A 
ATOM     55  F   UNL A   1      37.905  31.255  28.841  1.00  0.00    -0.205 F 
ATOM     56  C   UNL A   1      36.278  30.927  32.098  1.00  0.00     0.022 A 
BRANCH  54  57
ATOM     57  S   UNL A   1      35.328  32.417  29.989  1.00  0.00     0.127 S 
ATOM     58  O   UNL A   1      34.848  31.597  28.881  1.00  0.00    -0.237 OA
ATOM     59  O   UNL A   1      34.350  32.641  31.056  1.00  0.00    -0.237 OA
ATOM     60  O   UNL A   1      36.093  33.605  29.631  1.00  0.00    -0.744 OA
ENDBRANCH  54  57
ENDBRANCH  26  50
BRANCH  38  61
ATOM     61  C   UNL A   1      44.519  33.712  29.323  1.00  0.00     0.023 A 
ATOM     62  C   UNL A   1      45.252  33.979  30.497  1.00  0.00     0.012 A 
ATOM     63  C   UNL A   1      44.266  34.751  28.409  1.00  0.00     0.148 A 
ATOM     64  C   UNL A   1      45.702  35.269  30.770  1.00  0.00     0.002 A 
ATOM     65  C   UNL A   1      44.755  36.025  28.667  1.00  0.00     0.091 A 
ATOM     66  F   UNL A   1      43.545  34.480  27.311  1.00  0.00    -0.205 F 
ATOM     67  C   UNL A   1      45.465  36.288  29.851  1.00  0.00     0.022 A 
BRANCH  65  68
ATOM     68  S   UNL A   1      44.570  37.367  27.488  1.00  0.00     0.127 S 
ATOM     69  O   UNL A   1      43.254  37.085  26.918  1.00  0.00    -0.237 OA
ATOM     70  O   UNL A   1      44.622  38.553  28.346  1.00  0.00    -0.237 OA
ATOM     71  O   UNL A   1      45.697  37.242  26.574  1.00  0.00    -0.744 OA
ENDBRANCH  65  68
ENDBRANCH  38  61
ENDBRANCH  12  13
ENDBRANCH   5   7
ENDBRANCH   4   5
ENDBRANCH   3   4
ENDBRANCH   2   3
ENDBRANCH   1   2
BRANCH   1  72
ATOM     72  C   UNL A   1      34.223  20.683  25.603  1.00  0.00     0.202 C 
BRANCH  72  73
ATOM     73  C   UNL A   1      33.282  20.140  24.521  1.00  0.00     0.261 C 
BRANCH  73  74
ATOM     74  O   UNL A   1      32.266  21.127  24.268  1.00  0.00    -0.457 OA
BRANCH  74  75
ATOM     75  C   UNL A   1      32.301  21.628  23.002  1.00  0.00     0.374 C 
ATOM     76  O   UNL A   1      31.864  21.069  22.002  1.00  0.00    -0.242 OA
BRANCH  75  77
ATOM     77  C   UNL A   1      32.808  22.974  23.049  1.00  0.00     0.211 A 
ATOM     78  C   UNL A   1      33.203  23.886  22.092  1.00  0.00     0.058 A 
ATOM     79  O   UNL A   1      33.032  23.501  24.285  1.00  0.00    -0.450 OA
ATOM     80  C   UNL A   1      33.624  25.052  22.789  1.00  0.00     0.050 A 
ATOM     81  C   UNL A   1      33.491  24.770  24.134  1.00  0.00     0.142 A 
BRANCH  81  82
ATOM     82  C   UNL A   1      33.728  25.550  25.384  1.00  0.00     0.304 C 
BRANCH  82  83
ATOM     83  O   UNL A   1      32.474  25.940  25.977  1.00  0.00    -0.484 OA
BRANCH  83  84
ATOM     84  C   UNL A   1      32.230  27.286  25.860  1.00  0.00     0.140 A 
ATOM     85  C   UNL A   1      33.021  28.162  26.611  1.00  0.00     0.048 A 
ATOM     86  C   UNL A   1      31.294  27.789  24.948  1.00  0.00     0.101 A 
ATOM     87  C   UNL A   1      32.828  29.537  26.529  1.00  0.00     0.005 A 
ATOM     88  C   UNL A   1      31.120  29.178  24.850  1.00  0.00     0.063 A 
ATOM     89  Cl  UNL A   1      30.385  26.693  23.958  1.00  0.00    -0.079 Cl
ATOM     90  C   UNL A   1      31.874  30.045  25.651  1.00  0.00     0.022 A 
ATOM     91  Cl  UNL A   1      29.990  29.897  23.755  1.00  0.00    -0.083 Cl
ENDBRANCH  83  84
ENDBRANCH  82  83
ENDBRANCH  81  82
ENDBRANCH  75  77
ENDBRANCH  74  75
ENDBRANCH  73  74
ENDBRANCH  72  73
ENDBRANCH   1  72
TORSDOF 20
ENDMDL
MODEL 3
REMARK VINA RESULT:     -10.2      2.751      4.432
REMARK SMILES O=C(OCCOCCOC(=O)c1ccc(COc2cccc(Cl)c2Cl)o1)c1ccc(-c2c3nc(c(-c4cccc(S(=O)(=O)[O-])c4F)c4ccc([nH]4)c(-c4cccc(S(=O)(=O)[O-])c4F)c4nc(c(-c5cccc(S(=O)(=O)[O-])c5F)c5ccc2[nH]5)C=C4)C=C3)cc1
REMARK SMILES IDX 6 1 5 2 4 3 3 4 2 5 1 6 27 7 28 8 89 9 29 10 88 11 30 12
REMARK SMILES IDX 31 13 32 14 82 15 33 16 87 17 81 18 83 19 34 20 86 21 80 22
REMARK SMILES IDX 79 23 35 25 67 26 47 27 66 28 48 29 51 30 65 31 84 32 49 33
REMARK SMILES IDX 50 34 64 36 85 37 52 38 36 39 37 40 45 41 38 42 40 43 46 44
REMARK SMILES IDX 39 45 41 46 42 47 43 48 44 49 68 50 69 51 77 52 70 53 72 54
REMARK SMILES IDX 78 55 71 56 73 57 74 58 75 59 76 60 53 61 54 62 62 63 55 64
REMARK SMILES IDX 57 65 63 66 56 67 58 68 59 69 60 70 61 71 7 72 8 73 9 74
REMARK SMILES IDX 10 75 11 76 12 77 13 78 26 79 14 80 15 81 16 82 17 83 18 84
REMARK SMILES IDX 19 85 24 86 20 87 22 88 25 89 21 90 23 91
REMARK H PARENT 83 24 51 35
REMARK Flexibility Score: inf
ROOT
ATOM      1  O   UNL A   1      37.702  21.704  25.224  1.00  0.00    -0.374 OA
ENDROOT
BRANCH   1   2
ATOM      2  C   UNL A   1      38.768  21.043  25.909  1.00  0.00     0.202 C 
BRANCH   2   3
ATOM      3  C   UNL A   1      39.123  19.664  25.342  1.00  0.00     0.261 C 
BRANCH   3   4
ATOM      4  O   UNL A   1      40.297  19.143  25.990  1.00  0.00    -0.460 OA
BRANCH   4   5
ATOM      5  C   UNL A   1      41.567  19.616  25.968  1.00  0.00     0.338 C 
ATOM      6  O   UNL A   1      42.448  18.878  25.530  1.00  0.00    -0.246 OA
BRANCH   5   7
ATOM      7  C   UNL A   1      41.961  20.981  26.439  1.00  0.00     0.060 A 
ATOM      8  C   UNL A   1      42.194  21.335  27.767  1.00  0.00     0.016 A 
ATOM      9  C   UNL A   1      42.199  21.955  25.451  1.00  0.00     0.016 A 
ATOM     10  C   UNL A   1      42.563  22.627  28.120  1.00  0.00     0.010 A 
ATOM     11  C   UNL A   1      42.632  23.243  25.792  1.00  0.00     0.010 A 
ATOM     12  C   UNL A   1      42.794  23.588  27.136  1.00  0.00    -0.014 A 
BRANCH  12  13
ATOM     13  C   UNL A   1      43.180  24.943  27.580  1.00  0.00     0.031 A 
ATOM     14  C   UNL A   1      44.560  25.446  27.293  1.00  0.00     0.074 A 
ATOM     15  C   UNL A   1      42.237  25.746  28.109  1.00  0.00     0.049 A 
ATOM     16  N   UNL A   1      45.056  26.638  27.482  1.00  0.00    -0.248 NA
ATOM     17  C   UNL A   1      45.505  24.488  26.693  1.00  0.00     0.031 C 
ATOM     18  C   UNL A   1      40.854  25.346  28.387  1.00  0.00     0.029 A 
ATOM     19  N   UNL A   1      42.281  27.066  28.473  1.00  0.00    -0.354 N 
ATOM     20  C   UNL A   1      46.370  26.574  27.042  1.00  0.00     0.074 A 
ATOM     21  C   UNL A   1      46.602  25.223  26.583  1.00  0.00     0.031 C 
ATOM     22  C   UNL A   1      40.176  26.407  28.851  1.00  0.00     0.029 A 
ATOM     23  C   UNL A   1      41.080  27.548  28.939  1.00  0.00     0.049 A 
ATOM     24  H   UNL A   1      43.094  27.616  28.407  1.00  0.00     0.167 HD
ATOM     25  C   UNL A   1      47.295  27.561  27.011  1.00  0.00     0.034 A 
ATOM     26  C   UNL A   1      40.752  28.775  29.389  1.00  0.00     0.034 A 
ATOM     27  C   UNL A   1      47.046  28.899  27.471  1.00  0.00     0.049 A 
ATOM     28  C   UNL A   1      41.809  29.845  29.359  1.00  0.00     0.074 A 
ATOM     29  C   UNL A   1      47.925  29.964  27.545  1.00  0.00     0.029 A 
ATOM     30  N   UNL A   1      45.821  29.354  27.937  1.00  0.00    -0.354 N 
ATOM     31  N   UNL A   1      43.035  29.780  28.896  1.00  0.00    -0.248 NA
ATOM     32  C   UNL A   1      41.436  31.162  29.891  1.00  0.00     0.031 C 
ATOM     33  C   UNL A   1      47.231  31.063  28.064  1.00  0.00     0.029 A 
ATOM     34  C   UNL A   1      45.917  30.685  28.300  1.00  0.00     0.049 A 
ATOM     35  H   UNL A   1      45.003  28.809  28.000  1.00  0.00     0.167 HD
ATOM     36  C   UNL A   1      43.579  31.045  29.075  1.00  0.00     0.074 A 
ATOM     37  C   UNL A   1      42.531  31.869  29.646  1.00  0.00     0.031 C 
ATOM     38  C   UNL A   1      44.838  31.483  28.825  1.00  0.00     0.034 A 
BRANCH  25  39
ATOM     39  C   UNL A   1      48.645  27.216  26.448  1.00  0.00     0.023 A 
ATOM     40  C   UNL A   1      49.618  26.638  27.290  1.00  0.00     0.012 A 
ATOM     41  C   UNL A   1      48.956  27.466  25.098  1.00  0.00     0.148 A 
ATOM     42  C   UNL A   1      50.889  26.337  26.801  1.00  0.00     0.002 A 
ATOM     43  C   UNL A   1      50.216  27.137  24.612  1.00  0.00     0.091 A 
ATOM     44  F   UNL A   1      48.024  28.042  24.325  1.00  0.00    -0.205 F 
ATOM     45  C   UNL A   1      51.186  26.581  25.463  1.00  0.00     0.022 A 
BRANCH  43  46
ATOM     46  S   UNL A   1      50.688  27.378  22.896  1.00  0.00     0.127 S 
ATOM     47  O   UNL A   1      50.709  28.837  22.799  1.00  0.00    -0.237 OA
ATOM     48  O   UNL A   1      52.004  26.744  22.847  1.00  0.00    -0.237 OA
ATOM     49  O   UNL A   1      49.663  26.717  22.100  1.00  0.00    -0.744 OA
ENDBRANCH  43  46
ENDBRANCH  25  39
BRANCH  26  50
ATOM     50  C   UNL A   1      39.369  29.054  29.874  1.00  0.00     0.023 A 
ATOM     51  C   UNL A   1      38.983  28.651  31.167  1.00  0.00     0.012 A 
ATOM     52  C   UNL A   1      38.441  29.744  29.071  1.00  0.00     0.148 A 
ATOM     53  C   UNL A   1      37.691  28.906  31.637  1.00  0.00     0.002 A 
ATOM     54  C   UNL A   1      37.178  30.050  29.567  1.00  0.00     0.091 A 
ATOM     55  F   UNL A   1      38.807  30.097  27.829  1.00  0.00    -0.205 F 
ATOM     56  C   UNL A   1      36.794  29.617  30.844  1.00  0.00     0.022 A 
BRANCH  54  57
ATOM     57  S   UNL A   1      36.040  31.092  28.646  1.00  0.00     0.127 S 
ATOM     58  O   UNL A   1      34.990  31.337  29.629  1.00  0.00    -0.237 OA
ATOM     59  O   UNL A   1      36.867  32.257  28.326  1.00  0.00    -0.237 OA
ATOM     60  O   UNL A   1      35.664  30.298  27.483  1.00  0.00    -0.744 OA
ENDBRANCH  54  57
ENDBRANCH  26  50
BRANCH  38  61
ATOM     61  C   UNL A   1      45.147  32.911  29.181  1.00  0.00     0.023 A 
ATOM     62  C   UNL A   1      45.658  33.206  30.461  1.00  0.00     0.012 A 
ATOM     63  C   UNL A   1      45.001  33.943  28.236  1.00  0.00     0.148 A 
ATOM     64  C   UNL A   1      45.993  34.514  30.804  1.00  0.00     0.002 A 
ATOM     65  C   UNL A   1      45.377  35.238  28.570  1.00  0.00     0.091 A 
ATOM     66  F   UNL A   1      44.488  33.644  27.033  1.00  0.00    -0.205 F 
ATOM     67  C   UNL A   1      45.864  35.527  29.856  1.00  0.00     0.022 A 
BRANCH  65  68
ATOM     68  S   UNL A   1      45.328  36.576  27.375  1.00  0.00     0.127 S 
ATOM     69  O   UNL A   1      43.901  36.651  27.069  1.00  0.00    -0.237 OA
ATOM     70  O   UNL A   1      45.847  37.709  28.145  1.00  0.00    -0.237 OA
ATOM     71  O   UNL A   1      46.190  36.154  26.280  1.00  0.00    -0.744 OA
ENDBRANCH  65  68
ENDBRANCH  38  61
ENDBRANCH  12  13
ENDBRANCH   5   7
ENDBRANCH   4   5
ENDBRANCH   3   4
ENDBRANCH   2   3
ENDBRANCH   1   2
BRANCH   1  72
ATOM     72  C   UNL A   1      37.552  23.102  25.506  1.00  0.00     0.202 C 
BRANCH  72  73
ATOM     73  C   UNL A   1      36.125  23.384  25.990  1.00  0.00     0.261 C 
BRANCH  73  74
ATOM     74  O   UNL A   1      35.680  24.616  25.393  1.00  0.00    -0.457 OA
BRANCH  74  75
ATOM     75  C   UNL A   1      34.324  24.728  25.331  1.00  0.00     0.374 C 
ATOM     76  O   UNL A   1      33.619  25.308  26.149  1.00  0.00    -0.242 OA
BRANCH  75  77
ATOM     77  C   UNL A   1      33.869  24.176  24.083  1.00  0.00     0.211 A 
ATOM     78  C   UNL A   1      33.957  24.578  22.765  1.00  0.00     0.058 A 
ATOM     79  O   UNL A   1      33.124  23.037  24.151  1.00  0.00    -0.450 OA
ATOM     80  C   UNL A   1      33.287  23.590  21.993  1.00  0.00     0.050 A 
ATOM     81  C   UNL A   1      32.800  22.658  22.888  1.00  0.00     0.142 A 
BRANCH  81  82
ATOM     82  C   UNL A   1      32.041  21.382  22.746  1.00  0.00     0.304 C 
BRANCH  82  83
ATOM     83  O   UNL A   1      32.090  20.630  23.974  1.00  0.00    -0.484 OA
BRANCH  83  84
ATOM     84  C   UNL A   1      32.764  19.440  23.839  1.00  0.00     0.140 A 
ATOM     85  C   UNL A   1      32.280  18.518  22.905  1.00  0.00     0.048 A 
ATOM     86  C   UNL A   1      33.954  19.184  24.531  1.00  0.00     0.101 A 
ATOM     87  C   UNL A   1      32.923  17.299  22.716  1.00  0.00     0.005 A 
ATOM     88  C   UNL A   1      34.613  17.964  24.318  1.00  0.00     0.063 A 
ATOM     89  Cl  UNL A   1      34.589  20.377  25.617  1.00  0.00    -0.079 Cl
ATOM     90  C   UNL A   1      34.088  17.020  23.426  1.00  0.00     0.022 A 
ATOM     91  Cl  UNL A   1      36.087  17.553  25.124  1.00  0.00    -0.083 Cl
ENDBRANCH  83  84
ENDBRANCH  82  83
ENDBRANCH  81  82
ENDBRANCH  75  77
ENDBRANCH  74  75
ENDBRANCH  73  74
ENDBRANCH  72  73
ENDBRANCH   1  72
TORSDOF 20
ENDMDL
