MODEL 1
REMARK VINA RESULT:     -11.8      0.000      0.000
REMARK SMILES COc1cccc(C[C@H](C(=O)OCCOCCOC(=O)c2ccc(-c3c4nc(c(-c5cccc(S(=O)(=O)[O-])c5F)c5ccc([nH]5)c(-c5cccc(S(=O)(=O)[O-])c5F)c5nc(c(-c6cccc(S(=O)(=O)[O-])c6F)c6ccc3[nH]6)C=C5)C=C4)cc2)c2cccc(C)c2)n1
REMARK SMILES IDX 15 1 14 2 13 3 12 4 10 5 11 6 9 7 8 8 7 9 3 10 4 11 91 12
REMARK SMILES IDX 5 13 6 14 2 15 1 16 84 17 85 18 90 19 86 20 88 21 87 22
REMARK SMILES IDX 89 23 16 24 17 25 18 26 19 27 20 28 21 29 22 30 83 31 23 32
REMARK SMILES IDX 82 33 24 34 25 35 26 36 76 37 27 38 81 39 75 40 77 41 28 42
REMARK SMILES IDX 80 43 74 44 73 45 29 47 61 48 41 49 60 50 42 51 45 52 59 53
REMARK SMILES IDX 78 54 43 55 44 56 58 58 79 59 46 60 30 61 31 62 39 63 32 64
REMARK SMILES IDX 34 65 40 66 33 67 35 68 36 69 37 70 38 71 62 72 63 73 71 74
REMARK SMILES IDX 64 75 66 76 72 77 65 78 67 79 68 80 69 81 70 82 47 83 48 84
REMARK SMILES IDX 56 85 49 86 51 87 57 88 50 89 52 90 53 91 54 92 55 93
REMARK H PARENT 77 46 45 57
REMARK Flexibility Score: inf
ROOT
ATOM      1  O   UNL A   1      35.569  21.595  24.943  1.00  0.00    -0.374 OA
ENDROOT
BRANCH   1   2
ATOM      2  C   UNL A   1      34.709  22.001  26.014  1.00  0.00     0.202 C 
BRANCH   2   3
ATOM      3  C   UNL A   1      33.426  22.743  25.633  1.00  0.00     0.261 C 
BRANCH   3   4
ATOM      4  O   UNL A   1      33.021  23.603  26.715  1.00  0.00    -0.463 OA
BRANCH   4   5
ATOM      5  C   UNL A   1      32.076  24.534  26.413  1.00  0.00     0.313 C 
ATOM      6  O   UNL A   1      30.909  24.477  26.787  1.00  0.00    -0.252 OA
BRANCH   5   7
ATOM      7  C   UNL A   1      32.616  25.648  25.517  1.00  0.00     0.135 C 
BRANCH   7   8
ATOM      8  C   UNL A   1      32.117  25.688  24.045  1.00  0.00     0.076 C 
BRANCH   8   9
ATOM      9  C   UNL A   1      30.893  26.485  23.674  1.00  0.00     0.046 A 
ATOM     10  C   UNL A   1      30.016  28.375  22.650  1.00  0.00     0.213 A 
ATOM     11  C   UNL A   1      28.722  28.051  23.024  1.00  0.00     0.068 A 
ATOM     12  N   UNL A   1      31.088  27.615  22.960  1.00  0.00    -0.219 NA
ATOM     13  C   UNL A   1      28.529  26.912  23.797  1.00  0.00     0.007 A 
ATOM     14  C   UNL A   1      29.627  26.121  24.134  1.00  0.00     0.024 A 
BRANCH  10  15
ATOM     15  O   UNL A   1      30.295  29.471  21.880  1.00  0.00    -0.481 OA
ATOM     16  C   UNL A   1      29.128  30.217  21.558  1.00  0.00     0.280 C 
ENDBRANCH  10  15
ENDBRANCH   8   9
ENDBRANCH   7   8
BRANCH   7  17
ATOM     17  C   UNL A   1      32.691  27.018  26.205  1.00  0.00    -0.033 A 
ATOM     18  C   UNL A   1      31.564  27.773  26.562  1.00  0.00     0.004 A 
ATOM     19  C   UNL A   1      33.964  27.559  26.478  1.00  0.00     0.008 A 
ATOM     20  C   UNL A   1      31.706  29.051  27.110  1.00  0.00     0.001 A 
ATOM     21  C   UNL A   1      34.115  28.836  27.032  1.00  0.00    -0.051 A 
ATOM     22  C   UNL A   1      32.975  29.586  27.332  1.00  0.00     0.003 A 
ATOM     23  C   UNL A   1      35.479  29.411  27.278  1.00  0.00     0.044 C 
ENDBRANCH   7  17
ENDBRANCH   5   7
ENDBRANCH   4   5
ENDBRANCH   3   4
ENDBRANCH   2   3
ENDBRANCH   1   2
BRANCH   1  24
ATOM     24  C   UNL A   1      36.074  20.268  24.985  1.00  0.00     0.202 C 
BRANCH  24  25
ATOM     25  C   UNL A   1      37.595  20.073  24.988  1.00  0.00     0.261 C 
BRANCH  25  26
ATOM     26  O   UNL A   1      38.320  21.266  25.283  1.00  0.00    -0.460 OA
BRANCH  26  27
ATOM     27  C   UNL A   1      39.405  21.049  26.064  1.00  0.00     0.338 C 
ATOM     28  O   UNL A   1      40.087  20.033  26.116  1.00  0.00    -0.246 OA
BRANCH  27  29
ATOM     29  C   UNL A   1      39.788  22.291  26.748  1.00  0.00     0.060 A 
ATOM     30  C   UNL A   1      39.127  23.460  26.350  1.00  0.00     0.016 A 
ATOM     31  C   UNL A   1      40.803  22.329  27.706  1.00  0.00     0.016 A 
ATOM     32  C   UNL A   1      39.526  24.687  26.861  1.00  0.00     0.010 A 
ATOM     33  C   UNL A   1      41.210  23.567  28.210  1.00  0.00     0.010 A 
ATOM     34  C   UNL A   1      40.603  24.751  27.752  1.00  0.00    -0.014 A 
BRANCH  34  35
ATOM     35  C   UNL A   1      41.201  26.072  28.051  1.00  0.00     0.031 A 
ATOM     36  C   UNL A   1      42.611  26.340  27.598  1.00  0.00     0.074 A 
ATOM     37  C   UNL A   1      40.481  27.029  28.661  1.00  0.00     0.049 A 
ATOM     38  N   UNL A   1      43.341  27.412  27.756  1.00  0.00    -0.248 NA
ATOM     39  C   UNL A   1      43.288  25.256  26.862  1.00  0.00     0.031 C 
ATOM     40  C   UNL A   1      39.098  26.886  29.114  1.00  0.00     0.029 A 
ATOM     41  N   UNL A   1      40.821  28.309  29.016  1.00  0.00    -0.354 N 
ATOM     42  C   UNL A   1      44.563  27.129  27.156  1.00  0.00     0.074 A 
ATOM     43  C   UNL A   1      44.488  25.777  26.652  1.00  0.00     0.031 C 
ATOM     44  C   UNL A   1      38.716  28.027  29.715  1.00  0.00     0.029 A 
ATOM     45  C   UNL A   1      39.834  28.966  29.711  1.00  0.00     0.049 A 
ATOM     46  H   UNL A   1      41.689  28.718  28.794  1.00  0.00     0.167 HD
ATOM     47  C   UNL A   1      45.643  27.933  27.017  1.00  0.00     0.034 A 
ATOM     48  C   UNL A   1      39.850  30.179  30.298  1.00  0.00     0.034 A 
ATOM     49  C   UNL A   1      45.704  29.282  27.510  1.00  0.00     0.049 A 
ATOM     50  C   UNL A   1      41.088  31.031  30.175  1.00  0.00     0.074 A 
ATOM     51  C   UNL A   1      46.750  30.183  27.423  1.00  0.00     0.029 A 
ATOM     52  N   UNL A   1      44.676  29.924  28.184  1.00  0.00    -0.354 N 
ATOM     53  N   UNL A   1      42.207  30.779  29.538  1.00  0.00    -0.248 NA
ATOM     54  C   UNL A   1      41.054  32.349  30.823  1.00  0.00     0.031 C 
ATOM     55  C   UNL A   1      46.363  31.363  28.065  1.00  0.00     0.029 A 
ATOM     56  C   UNL A   1      45.062  31.209  28.517  1.00  0.00     0.049 A 
ATOM     57  H   UNL A   1      43.802  29.523  28.394  1.00  0.00     0.167 HD
ATOM     58  C   UNL A   1      42.985  31.925  29.666  1.00  0.00     0.074 A 
ATOM     59  C   UNL A   1      42.203  32.877  30.426  1.00  0.00     0.031 C 
ATOM     60  C   UNL A   1      44.239  32.164  29.211  1.00  0.00     0.034 A 
BRANCH  47  61
ATOM     61  C   UNL A   1      46.834  27.392  26.274  1.00  0.00     0.023 A 
ATOM     62  C   UNL A   1      47.666  26.438  26.896  1.00  0.00     0.012 A 
ATOM     63  C   UNL A   1      47.087  27.764  24.940  1.00  0.00     0.148 A 
ATOM     64  C   UNL A   1      48.742  25.879  26.210  1.00  0.00     0.002 A 
ATOM     65  C   UNL A   1      48.135  27.170  24.247  1.00  0.00     0.091 A 
ATOM     66  F   UNL A   1      46.296  28.686  24.373  1.00  0.00    -0.205 F 
ATOM     67  C   UNL A   1      48.970  26.235  24.883  1.00  0.00     0.022 A 
BRANCH  65  68
ATOM     68  S   UNL A   1      48.470  27.502  22.514  1.00  0.00     0.127 S 
ATOM     69  O   UNL A   1      49.731  28.237  22.592  1.00  0.00    -0.237 OA
ATOM     70  O   UNL A   1      48.583  26.153  21.961  1.00  0.00    -0.237 OA
ATOM     71  O   UNL A   1      47.335  28.272  22.023  1.00  0.00    -0.744 OA
ENDBRANCH  65  68
ENDBRANCH  47  61
BRANCH  48  72
ATOM     72  C   UNL A   1      38.661  30.674  31.050  1.00  0.00     0.023 A 
ATOM     73  C   UNL A   1      38.540  30.404  32.427  1.00  0.00     0.012 A 
ATOM     74  C   UNL A   1      37.631  31.380  30.397  1.00  0.00     0.148 A 
ATOM     75  C   UNL A   1      37.391  30.778  33.127  1.00  0.00     0.002 A 
ATOM     76  C   UNL A   1      36.517  31.801  31.114  1.00  0.00     0.091 A 
ATOM     77  F   UNL A   1      37.753  31.614  29.083  1.00  0.00    -0.205 F 
ATOM     78  C   UNL A   1      36.384  31.482  32.473  1.00  0.00     0.022 A 
BRANCH  76  79
ATOM     79  S   UNL A   1      35.235  32.818  30.375  1.00  0.00     0.127 S 
ATOM     80  O   UNL A   1      34.359  33.072  31.516  1.00  0.00    -0.237 OA
ATOM     81  O   UNL A   1      35.995  33.978  29.910  1.00  0.00    -0.237 OA
ATOM     82  O   UNL A   1      34.666  32.010  29.304  1.00  0.00    -0.744 OA
ENDBRANCH  76  79
ENDBRANCH  48  72
BRANCH  60  83
ATOM     83  C   UNL A   1      44.822  33.533  29.455  1.00  0.00     0.023 A 
ATOM     84  C   UNL A   1      45.419  33.837  30.694  1.00  0.00     0.012 A 
ATOM     85  C   UNL A   1      44.837  34.493  28.424  1.00  0.00     0.148 A 
ATOM     86  C   UNL A   1      45.989  35.090  30.915  1.00  0.00     0.002 A 
ATOM     87  C   UNL A   1      45.454  35.720  28.634  1.00  0.00     0.091 A 
ATOM     88  F   UNL A   1      44.249  34.189  27.258  1.00  0.00    -0.205 F 
ATOM     89  C   UNL A   1      46.016  36.026  29.883  1.00  0.00     0.022 A 
BRANCH  87  90
ATOM     90  S   UNL A   1      45.628  36.946  27.333  1.00  0.00     0.127 S 
ATOM     91  O   UNL A   1      46.713  37.777  27.852  1.00  0.00    -0.237 OA
ATOM     92  O   UNL A   1      45.989  36.122  26.180  1.00  0.00    -0.237 OA
ATOM     93  O   UNL A   1      44.334  37.606  27.225  1.00  0.00    -0.744 OA
ENDBRANCH  87  90
ENDBRANCH  60  83
ENDBRANCH  34  35
ENDBRANCH  27  29
ENDBRANCH  26  27
ENDBRANCH  25  26
ENDBRANCH  24  25
ENDBRANCH   1  24
TORSDOF 21
ENDMDL
MODEL 2
REMARK VINA RESULT:     -11.2      1.814      3.034
REMARK SMILES COc1cccc(C[C@H](C(=O)OCCOCCOC(=O)c2ccc(-c3c4nc(c(-c5cccc(S(=O)(=O)[O-])c5F)c5ccc([nH]5)c(-c5cccc(S(=O)(=O)[O-])c5F)c5nc(c(-c6cccc(S(=O)(=O)[O-])c6F)c6ccc3[nH]6)C=C5)C=C4)cc2)c2cccc(C)c2)n1
REMARK SMILES IDX 15 1 14 2 13 3 12 4 10 5 11 6 9 7 8 8 7 9 3 10 4 11 91 12
REMARK SMILES IDX 5 13 6 14 2 15 1 16 84 17 85 18 90 19 86 20 88 21 87 22
REMARK SMILES IDX 89 23 16 24 17 25 18 26 19 27 20 28 21 29 22 30 83 31 23 32
REMARK SMILES IDX 82 33 24 34 25 35 26 36 76 37 27 38 81 39 75 40 77 41 28 42
REMARK SMILES IDX 80 43 74 44 73 45 29 47 61 48 41 49 60 50 42 51 45 52 59 53
REMARK SMILES IDX 78 54 43 55 44 56 58 58 79 59 46 60 30 61 31 62 39 63 32 64
REMARK SMILES IDX 34 65 40 66 33 67 35 68 36 69 37 70 38 71 62 72 63 73 71 74
REMARK SMILES IDX 64 75 66 76 72 77 65 78 67 79 68 80 69 81 70 82 47 83 48 84
REMARK SMILES IDX 56 85 49 86 51 87 57 88 50 89 52 90 53 91 54 92 55 93
REMARK H PARENT 77 46 45 57
REMARK Flexibility Score: inf
ROOT
ATOM      1  O   UNL A   1      36.334  22.274  23.995  1.00  0.00    -0.374 OA
ENDROOT
BRANCH   1   2
ATOM      2  C   UNL A   1      35.545  23.461  24.126  1.00  0.00     0.202 C 
BRANCH   2   3
ATOM      3  C   UNL A   1      34.843  23.974  22.866  1.00  0.00     0.261 C 
BRANCH   3   4
ATOM      4  O   UNL A   1      33.769  24.859  23.233  1.00  0.00    -0.463 OA
BRANCH   4   5
ATOM      5  C   UNL A   1      32.916  25.207  22.231  1.00  0.00     0.313 C 
ATOM      6  O   UNL A   1      33.244  25.309  21.053  1.00  0.00    -0.252 OA
BRANCH   5   7
ATOM      7  C   UNL A   1      31.505  25.503  22.737  1.00  0.00     0.135 C 
BRANCH   7   8
ATOM      8  C   UNL A   1      30.681  24.311  23.298  1.00  0.00     0.076 C 
BRANCH   8   9
ATOM      9  C   UNL A   1      31.376  23.084  23.830  1.00  0.00     0.046 A 
ATOM     10  C   UNL A   1      32.368  22.017  25.637  1.00  0.00     0.213 A 
ATOM     11  C   UNL A   1      32.725  20.919  24.871  1.00  0.00     0.068 A 
ATOM     12  N   UNL A   1      31.706  23.083  25.140  1.00  0.00    -0.219 NA
ATOM     13  C   UNL A   1      32.424  20.942  23.514  1.00  0.00     0.007 A 
ATOM     14  C   UNL A   1      31.748  22.040  22.982  1.00  0.00     0.024 A 
BRANCH  10  15
ATOM     15  O   UNL A   1      32.615  22.072  26.982  1.00  0.00    -0.481 OA
ATOM     16  C   UNL A   1      33.773  22.838  27.289  1.00  0.00     0.280 C 
ENDBRANCH  10  15
ENDBRANCH   8   9
ENDBRANCH   7   8
BRANCH   7  17
ATOM     17  C   UNL A   1      31.397  26.798  23.555  1.00  0.00    -0.033 A 
ATOM     18  C   UNL A   1      31.200  28.064  22.985  1.00  0.00     0.004 A 
ATOM     19  C   UNL A   1      31.520  26.714  24.956  1.00  0.00     0.008 A 
ATOM     20  C   UNL A   1      31.195  29.212  23.783  1.00  0.00     0.001 A 
ATOM     21  C   UNL A   1      31.511  27.859  25.764  1.00  0.00    -0.051 A 
ATOM     22  C   UNL A   1      31.362  29.112  25.163  1.00  0.00     0.003 A 
ATOM     23  C   UNL A   1      31.683  27.753  27.250  1.00  0.00     0.044 C 
ENDBRANCH   7  17
ENDBRANCH   5   7
ENDBRANCH   4   5
ENDBRANCH   3   4
ENDBRANCH   2   3
ENDBRANCH   1   2
BRANCH   1  24
ATOM     24  C   UNL A   1      36.264  21.328  25.053  1.00  0.00     0.202 C 
BRANCH  24  25
ATOM     25  C   UNL A   1      37.476  20.418  25.290  1.00  0.00     0.261 C 
BRANCH  25  26
ATOM     26  O   UNL A   1      38.728  21.083  25.123  1.00  0.00    -0.460 OA
BRANCH  26  27
ATOM     27  C   UNL A   1      39.594  20.845  26.135  1.00  0.00     0.338 C 
ATOM     28  O   UNL A   1      40.140  19.783  26.408  1.00  0.00    -0.246 OA
BRANCH  27  29
ATOM     29  C   UNL A   1      39.953  22.107  26.797  1.00  0.00     0.060 A 
ATOM     30  C   UNL A   1      39.281  23.258  26.366  1.00  0.00     0.016 A 
ATOM     31  C   UNL A   1      40.955  22.179  27.766  1.00  0.00     0.016 A 
ATOM     32  C   UNL A   1      39.658  24.501  26.854  1.00  0.00     0.010 A 
ATOM     33  C   UNL A   1      41.341  23.433  28.247  1.00  0.00     0.010 A 
ATOM     34  C   UNL A   1      40.724  24.599  27.756  1.00  0.00    -0.014 A 
BRANCH  34  35
ATOM     35  C   UNL A   1      41.301  25.934  28.033  1.00  0.00     0.031 A 
ATOM     36  C   UNL A   1      42.707  26.216  27.576  1.00  0.00     0.074 A 
ATOM     37  C   UNL A   1      40.565  26.890  28.626  1.00  0.00     0.049 A 
ATOM     38  N   UNL A   1      43.420  27.301  27.717  1.00  0.00    -0.248 NA
ATOM     39  C   UNL A   1      43.402  25.130  26.860  1.00  0.00     0.031 C 
ATOM     40  C   UNL A   1      39.184  26.732  29.081  1.00  0.00     0.029 A 
ATOM     41  N   UNL A   1      40.885  28.181  28.960  1.00  0.00    -0.354 N 
ATOM     42  C   UNL A   1      44.647  27.028  27.123  1.00  0.00     0.074 A 
ATOM     43  C   UNL A   1      44.593  25.666  26.642  1.00  0.00     0.031 C 
ATOM     44  C   UNL A   1      38.784  27.878  29.661  1.00  0.00     0.029 A 
ATOM     45  C   UNL A   1      39.887  28.834  29.643  1.00  0.00     0.049 A 
ATOM     46  H   UNL A   1      41.747  28.599  28.732  1.00  0.00     0.167 HD
ATOM     47  C   UNL A   1      45.714  27.846  26.972  1.00  0.00     0.034 A 
ATOM     48  C   UNL A   1      39.884  30.057  30.209  1.00  0.00     0.034 A 
ATOM     49  C   UNL A   1      45.754  29.204  27.442  1.00  0.00     0.049 A 
ATOM     50  C   UNL A   1      41.108  30.925  30.072  1.00  0.00     0.074 A 
ATOM     51  C   UNL A   1      46.786  30.119  27.340  1.00  0.00     0.029 A 
ATOM     52  N   UNL A   1      44.716  29.841  28.103  1.00  0.00    -0.354 N 
ATOM     53  N   UNL A   1      42.231  30.680  29.441  1.00  0.00    -0.248 NA
ATOM     54  C   UNL A   1      41.053  32.254  30.698  1.00  0.00     0.031 C 
ATOM     55  C   UNL A   1      46.380  31.304  27.961  1.00  0.00     0.029 A 
ATOM     56  C   UNL A   1      45.081  31.137  28.415  1.00  0.00     0.049 A 
ATOM     57  H   UNL A   1      43.848  29.430  28.319  1.00  0.00     0.167 HD
ATOM     58  C   UNL A   1      42.992  31.840  29.550  1.00  0.00     0.074 A 
ATOM     59  C   UNL A   1      42.194  32.793  30.293  1.00  0.00     0.031 C 
ATOM     60  C   UNL A   1      44.243  32.092  29.092  1.00  0.00     0.034 A 
BRANCH  47  61
ATOM     61  C   UNL A   1      46.914  27.311  26.239  1.00  0.00     0.023 A 
ATOM     62  C   UNL A   1      47.044  27.546  24.855  1.00  0.00     0.012 A 
ATOM     63  C   UNL A   1      47.948  26.645  26.927  1.00  0.00     0.148 A 
ATOM     64  C   UNL A   1      48.173  27.110  24.163  1.00  0.00     0.002 A 
ATOM     65  C   UNL A   1      49.090  26.252  26.239  1.00  0.00     0.091 A 
ATOM     66  F   UNL A   1      47.795  26.414  28.239  1.00  0.00    -0.205 F 
ATOM     67  C   UNL A   1      49.200  26.475  24.856  1.00  0.00     0.022 A 
BRANCH  65  68
ATOM     68  S   UNL A   1      50.502  25.493  27.049  1.00  0.00     0.127 S 
ATOM     69  O   UNL A   1      50.889  26.531  28.004  1.00  0.00    -0.237 OA
ATOM     70  O   UNL A   1      49.903  24.302  27.652  1.00  0.00    -0.237 OA
ATOM     71  O   UNL A   1      51.475  25.225  25.999  1.00  0.00    -0.744 OA
ENDBRANCH  65  68
ENDBRANCH  47  61
BRANCH  48  72
ATOM     72  C   UNL A   1      38.687  30.546  30.952  1.00  0.00     0.023 A 
ATOM     73  C   UNL A   1      38.570  30.300  32.333  1.00  0.00     0.012 A 
ATOM     74  C   UNL A   1      37.644  31.222  30.285  1.00  0.00     0.148 A 
ATOM     75  C   UNL A   1      37.414  30.668  33.026  1.00  0.00     0.002 A 
ATOM     76  C   UNL A   1      36.524  31.638  30.994  1.00  0.00     0.091 A 
ATOM     77  F   UNL A   1      37.764  31.433  28.967  1.00  0.00    -0.205 F 
ATOM     78  C   UNL A   1      36.396  31.342  32.359  1.00  0.00     0.022 A 
BRANCH  76  79
ATOM     79  S   UNL A   1      35.225  32.619  30.235  1.00  0.00     0.127 S 
ATOM     80  O   UNL A   1      34.764  31.733  29.169  1.00  0.00    -0.237 OA
ATOM     81  O   UNL A   1      34.286  32.791  31.344  1.00  0.00    -0.237 OA
ATOM     82  O   UNL A   1      35.869  33.852  29.803  1.00  0.00    -0.744 OA
ENDBRANCH  76  79
ENDBRANCH  48  72
BRANCH  60  83
ATOM     83  C   UNL A   1      44.804  33.473  29.313  1.00  0.00     0.023 A 
ATOM     84  C   UNL A   1      45.493  33.774  30.504  1.00  0.00     0.012 A 
ATOM     85  C   UNL A   1      44.706  34.449  28.302  1.00  0.00     0.148 A 
ATOM     86  C   UNL A   1      46.042  35.040  30.702  1.00  0.00     0.002 A 
ATOM     87  C   UNL A   1      45.302  35.691  28.484  1.00  0.00     0.091 A 
ATOM     88  F   UNL A   1      44.033  34.147  27.183  1.00  0.00    -0.205 F 
ATOM     89  C   UNL A   1      45.957  35.994  29.688  1.00  0.00     0.022 A 
BRANCH  87  90
ATOM     90  S   UNL A   1      45.333  36.943  27.197  1.00  0.00     0.127 S 
ATOM     91  O   UNL A   1      46.013  36.237  26.111  1.00  0.00    -0.237 OA
ATOM     92  O   UNL A   1      43.909  37.186  26.969  1.00  0.00    -0.237 OA
ATOM     93  O   UNL A   1      46.059  38.076  27.753  1.00  0.00    -0.744 OA
ENDBRANCH  87  90
ENDBRANCH  60  83
ENDBRANCH  34  35
ENDBRANCH  27  29
ENDBRANCH  26  27
ENDBRANCH  25  26
ENDBRANCH  24  25
ENDBRANCH   1  24
TORSDOF 21
ENDMDL
MODEL 3
REMARK VINA RESULT:     -10.8      1.905      2.329
REMARK SMILES COc1cccc(C[C@H](C(=O)OCCOCCOC(=O)c2ccc(-c3c4nc(c(-c5cccc(S(=O)(=O)[O-])c5F)c5ccc([nH]5)c(-c5cccc(S(=O)(=O)[O-])c5F)c5nc(c(-c6cccc(S(=O)(=O)[O-])c6F)c6ccc3[nH]6)C=C5)C=C4)cc2)c2cccc(C)c2)n1
REMARK SMILES IDX 15 1 14 2 13 3 12 4 10 5 11 6 9 7 8 8 7 9 3 10 4 11 91 12
REMARK SMILES IDX 5 13 6 14 2 15 1 16 84 17 85 18 90 19 86 20 88 21 87 22
REMARK SMILES IDX 89 23 16 24 17 25 18 26 19 27 20 28 21 29 22 30 83 31 23 32
REMARK SMILES IDX 82 33 24 34 25 35 26 36 76 37 27 38 81 39 75 40 77 41 28 42
REMARK SMILES IDX 80 43 74 44 73 45 29 47 61 48 41 49 60 50 42 51 45 52 59 53
REMARK SMILES IDX 78 54 43 55 44 56 58 58 79 59 46 60 30 61 31 62 39 63 32 64
REMARK SMILES IDX 34 65 40 66 33 67 35 68 36 69 37 70 38 71 62 72 63 73 71 74
REMARK SMILES IDX 64 75 66 76 72 77 65 78 67 79 68 80 69 81 70 82 47 83 48 84
REMARK SMILES IDX 56 85 49 86 51 87 57 88 50 89 52 90 53 91 54 92 55 93
REMARK H PARENT 77 46 45 57
REMARK Flexibility Score: inf
ROOT
ATOM      1  O   UNL A   1      35.827  21.048  25.028  1.00  0.00    -0.374 OA
ENDROOT
BRANCH   1   2
ATOM      2  C   UNL A   1      35.065  21.324  26.208  1.00  0.00     0.202 C 
BRANCH   2   3
ATOM      3  C   UNL A   1      34.625  22.774  26.430  1.00  0.00     0.261 C 
BRANCH   3   4
ATOM      4  O   UNL A   1      33.594  22.822  27.434  1.00  0.00    -0.463 OA
BRANCH   4   5
ATOM      5  C   UNL A   1      32.440  23.446  27.073  1.00  0.00     0.313 C 
ATOM      6  O   UNL A   1      31.381  23.342  27.684  1.00  0.00    -0.252 OA
BRANCH   5   7
ATOM      7  C   UNL A   1      32.592  24.263  25.790  1.00  0.00     0.135 C 
BRANCH   7   8
ATOM      8  C   UNL A   1      31.599  23.968  24.632  1.00  0.00     0.076 C 
BRANCH   8   9
ATOM      9  C   UNL A   1      32.110  23.639  23.252  1.00  0.00     0.046 A 
ATOM     10  C   UNL A   1      32.815  24.416  21.182  1.00  0.00     0.213 A 
ATOM     11  C   UNL A   1      32.967  23.132  20.684  1.00  0.00     0.068 A 
ATOM     12  N   UNL A   1      32.398  24.678  22.439  1.00  0.00    -0.219 NA
ATOM     13  C   UNL A   1      32.625  22.066  21.507  1.00  0.00     0.007 A 
ATOM     14  C   UNL A   1      32.185  22.319  22.806  1.00  0.00     0.024 A 
BRANCH  10  15
ATOM     15  O   UNL A   1      33.139  25.522  20.444  1.00  0.00    -0.481 OA
ATOM     16  C   UNL A   1      32.488  25.539  19.180  1.00  0.00     0.280 C 
ENDBRANCH  10  15
ENDBRANCH   8   9
ENDBRANCH   7   8
BRANCH   7  17
ATOM     17  C   UNL A   1      32.870  25.753  26.032  1.00  0.00    -0.033 A 
ATOM     18  C   UNL A   1      34.030  26.409  25.594  1.00  0.00     0.004 A 
ATOM     19  C   UNL A   1      31.917  26.503  26.750  1.00  0.00     0.008 A 
ATOM     20  C   UNL A   1      34.258  27.749  25.922  1.00  0.00     0.001 A 
ATOM     21  C   UNL A   1      32.135  27.847  27.078  1.00  0.00    -0.051 A 
ATOM     22  C   UNL A   1      33.323  28.461  26.670  1.00  0.00     0.003 A 
ATOM     23  C   UNL A   1      31.126  28.617  27.877  1.00  0.00     0.044 C 
ENDBRANCH   7  17
ENDBRANCH   5   7
ENDBRANCH   4   5
ENDBRANCH   3   4
ENDBRANCH   2   3
ENDBRANCH   1   2
BRANCH   1  24
ATOM     24  C   UNL A   1      36.477  19.786  24.957  1.00  0.00     0.202 C 
BRANCH  24  25
ATOM     25  C   UNL A   1      38.010  19.765  24.929  1.00  0.00     0.261 C 
BRANCH  25  26
ATOM     26  O   UNL A   1      38.604  20.988  25.364  1.00  0.00    -0.460 OA
BRANCH  26  27
ATOM     27  C   UNL A   1      39.657  20.802  26.194  1.00  0.00     0.338 C 
ATOM     28  O   UNL A   1      40.340  19.791  26.307  1.00  0.00    -0.246 OA
BRANCH  27  29
ATOM     29  C   UNL A   1      40.008  22.067  26.852  1.00  0.00     0.060 A 
ATOM     30  C   UNL A   1      39.335  23.215  26.411  1.00  0.00     0.016 A 
ATOM     31  C   UNL A   1      41.003  22.147  27.827  1.00  0.00     0.016 A 
ATOM     32  C   UNL A   1      39.705  24.461  26.897  1.00  0.00     0.010 A 
ATOM     33  C   UNL A   1      41.382  23.404  28.305  1.00  0.00     0.010 A 
ATOM     34  C   UNL A   1      40.765  24.566  27.805  1.00  0.00    -0.014 A 
BRANCH  34  35
ATOM     35  C   UNL A   1      41.336  25.904  28.079  1.00  0.00     0.031 A 
ATOM     36  C   UNL A   1      42.739  26.193  27.618  1.00  0.00     0.074 A 
ATOM     37  C   UNL A   1      40.598  26.857  28.674  1.00  0.00     0.049 A 
ATOM     38  N   UNL A   1      43.448  27.282  27.756  1.00  0.00    -0.248 NA
ATOM     39  C   UNL A   1      43.437  25.110  26.900  1.00  0.00     0.031 C 
ATOM     40  C   UNL A   1      39.219  26.693  29.134  1.00  0.00     0.029 A 
ATOM     41  N   UNL A   1      40.912  28.149  29.006  1.00  0.00    -0.354 N 
ATOM     42  C   UNL A   1      44.674  27.014  27.159  1.00  0.00     0.074 A 
ATOM     43  C   UNL A   1      44.626  25.652  26.678  1.00  0.00     0.031 C 
ATOM     44  C   UNL A   1      38.815  27.836  29.715  1.00  0.00     0.029 A 
ATOM     45  C   UNL A   1      39.914  28.798  29.693  1.00  0.00     0.049 A 
ATOM     46  H   UNL A   1      41.772  28.571  28.775  1.00  0.00     0.167 HD
ATOM     47  C   UNL A   1      45.737  27.837  27.003  1.00  0.00     0.034 A 
ATOM     48  C   UNL A   1      39.906  30.021  30.258  1.00  0.00     0.034 A 
ATOM     49  C   UNL A   1      45.772  29.195  27.472  1.00  0.00     0.049 A 
ATOM     50  C   UNL A   1      41.126  30.896  30.117  1.00  0.00     0.074 A 
ATOM     51  C   UNL A   1      46.799  30.116  27.367  1.00  0.00     0.029 A 
ATOM     52  N   UNL A   1      44.732  29.828  28.137  1.00  0.00    -0.354 N 
ATOM     53  N   UNL A   1      42.248  30.656  29.482  1.00  0.00    -0.248 NA
ATOM     54  C   UNL A   1      41.066  32.224  30.742  1.00  0.00     0.031 C 
ATOM     55  C   UNL A   1      46.389  31.299  27.989  1.00  0.00     0.029 A 
ATOM     56  C   UNL A   1      45.092  31.126  28.447  1.00  0.00     0.049 A 
ATOM     57  H   UNL A   1      43.867  29.413  28.356  1.00  0.00     0.167 HD
ATOM     58  C   UNL A   1      43.003  31.819  29.589  1.00  0.00     0.074 A 
ATOM     59  C   UNL A   1      42.203  32.768  30.333  1.00  0.00     0.031 C 
ATOM     60  C   UNL A   1      44.251  32.077  29.126  1.00  0.00     0.034 A 
BRANCH  47  61
ATOM     61  C   UNL A   1      46.937  27.308  26.267  1.00  0.00     0.023 A 
ATOM     62  C   UNL A   1      47.073  27.564  24.887  1.00  0.00     0.012 A 
ATOM     63  C   UNL A   1      47.965  26.627  26.948  1.00  0.00     0.148 A 
ATOM     64  C   UNL A   1      48.203  27.133  24.192  1.00  0.00     0.002 A 
ATOM     65  C   UNL A   1      49.107  26.239  26.259  1.00  0.00     0.091 A 
ATOM     66  F   UNL A   1      47.806  26.377  28.256  1.00  0.00    -0.205 F 
ATOM     67  C   UNL A   1      49.224  26.482  24.880  1.00  0.00     0.022 A 
BRANCH  65  68
ATOM     68  S   UNL A   1      50.513  25.461  27.063  1.00  0.00     0.127 S 
ATOM     69  O   UNL A   1      51.389  25.185  25.925  1.00  0.00    -0.237 OA
ATOM     70  O   UNL A   1      50.982  26.523  27.951  1.00  0.00    -0.237 OA
ATOM     71  O   UNL A   1      49.990  24.282  27.740  1.00  0.00    -0.744 OA
ENDBRANCH  65  68
ENDBRANCH  47  61
BRANCH  48  72
ATOM     72  C   UNL A   1      38.709  30.505  31.004  1.00  0.00     0.023 A 
ATOM     73  C   UNL A   1      38.596  30.256  32.386  1.00  0.00     0.012 A 
ATOM     74  C   UNL A   1      37.662  31.178  30.341  1.00  0.00     0.148 A 
ATOM     75  C   UNL A   1      37.441  30.619  33.082  1.00  0.00     0.002 A 
ATOM     76  C   UNL A   1      36.542  31.588  31.053  1.00  0.00     0.091 A 
ATOM     77  F   UNL A   1      37.778  31.391  29.023  1.00  0.00    -0.205 F 
ATOM     78  C   UNL A   1      36.418  31.290  32.419  1.00  0.00     0.022 A 
BRANCH  76  79
ATOM     79  S   UNL A   1      35.237  32.566  30.300  1.00  0.00     0.127 S 
ATOM     80  O   UNL A   1      34.290  32.702  31.403  1.00  0.00    -0.237 OA
ATOM     81  O   UNL A   1      35.946  33.794  29.939  1.00  0.00    -0.237 OA
ATOM     82  O   UNL A   1      34.776  31.786  29.158  1.00  0.00    -0.744 OA
ENDBRANCH  76  79
ENDBRANCH  48  72
BRANCH  60  83
ATOM     83  C   UNL A   1      44.806  33.461  29.345  1.00  0.00     0.023 A 
ATOM     84  C   UNL A   1      45.528  33.756  30.518  1.00  0.00     0.012 A 
ATOM     85  C   UNL A   1      44.669  34.447  28.348  1.00  0.00     0.148 A 
ATOM     86  C   UNL A   1      46.071  35.026  30.713  1.00  0.00     0.002 A 
ATOM     87  C   UNL A   1      45.259  35.692  28.525  1.00  0.00     0.091 A 
ATOM     88  F   UNL A   1      43.966  34.149  27.246  1.00  0.00    -0.205 F 
ATOM     89  C   UNL A   1      45.947  35.988  29.712  1.00  0.00     0.022 A 
BRANCH  87  90
ATOM     90  S   UNL A   1      45.240  36.957  27.251  1.00  0.00     0.127 S 
ATOM     91  O   UNL A   1      45.910  38.069  27.926  1.00  0.00    -0.237 OA
ATOM     92  O   UNL A   1      46.022  36.332  26.184  1.00  0.00    -0.237 OA
ATOM     93  O   UNL A   1      43.839  37.180  26.924  1.00  0.00    -0.744 OA
ENDBRANCH  87  90
ENDBRANCH  60  83
ENDBRANCH  34  35
ENDBRANCH  27  29
ENDBRANCH  26  27
ENDBRANCH  25  26
ENDBRANCH  24  25
ENDBRANCH   1  24
TORSDOF 21
ENDMDL
