MODEL 1
REMARK VINA RESULT:     -10.1      0.000      0.000
REMARK SMILES CC(C)(C)OC(=O)[C@H]1CC[C@]1([NH3+])C(=O)OCCOCCOC(=O)c1ccc(-c2c3nc(c(-c4cccc(S(=O)(=O)[O-])c4F)c4ccc([nH]4)c(-c4cccc(S(=O)(=O)[O-])c4F)c4nc(c(-c5cccc(S(=O)(=O)[O-])c5F)c5ccc2[nH]5)C=C4)C=C3)cc1
REMARK SMILES IDX 18 1 17 2 16 3 15 4 13 5 14 6 11 7 8 8 9 9 10 10 6 11 7 12
REMARK SMILES IDX 5 13 2 14 1 15 3 16 4 17 12 18 19 22 20 23 21 24 22 25 23 26
REMARK SMILES IDX 24 27 25 28 86 29 26 30 85 31 27 32 28 33 29 34 79 35 30 36
REMARK SMILES IDX 84 37 78 38 80 39 31 40 83 41 77 42 76 43 32 45 64 46 44 47
REMARK SMILES IDX 63 48 45 49 48 50 62 51 81 52 46 53 47 54 61 56 82 57 49 58
REMARK SMILES IDX 33 59 34 60 42 61 35 62 37 63 43 64 36 65 38 66 39 67 40 68
REMARK SMILES IDX 41 69 65 70 66 71 74 72 67 73 69 74 75 75 68 76 70 77 71 78
REMARK SMILES IDX 72 79 73 80 50 81 51 82 59 83 52 84 54 85 60 86 53 87 55 88
REMARK SMILES IDX 56 89 57 90 58 91
REMARK H PARENT 12 19 12 20 12 21 80 44 48 55
REMARK Flexibility Score: inf
ROOT
ATOM      1  O   UNL A   1      37.191  21.642  24.443  1.00  0.00    -0.374 OA
ENDROOT
BRANCH   1   2
ATOM      2  C   UNL A   1      36.203  22.507  25.009  1.00  0.00     0.202 C 
BRANCH   2   3
ATOM      3  C   UNL A   1      34.787  21.933  25.123  1.00  0.00     0.261 C 
BRANCH   3   4
ATOM      4  O   UNL A   1      33.896  22.539  24.166  1.00  0.00    -0.459 OA
BRANCH   4   5
ATOM      5  C   UNL A   1      32.588  22.143  24.231  1.00  0.00     0.368 C 
ATOM      6  O   UNL A   1      32.198  21.046  23.825  1.00  0.00    -0.245 OA
BRANCH   5   7
ATOM      7  C   UNL A   1      31.628  23.220  24.880  1.00  0.00     0.206 C 
ATOM      8  C   UNL A   1      32.166  24.391  25.774  1.00  0.00     0.172 C 
ATOM      9  C   UNL A   1      31.902  23.457  26.998  1.00  0.00     0.030 C 
ATOM     10  C   UNL A   1      30.856  22.719  26.141  1.00  0.00     0.083 C 
BRANCH   8  11
ATOM     11  C   UNL A   1      31.370  25.730  25.843  1.00  0.00     0.316 C 
ATOM     12  O   UNL A   1      30.739  26.102  26.834  1.00  0.00    -0.252 OA
BRANCH  11  13
ATOM     13  O   UNL A   1      31.474  26.465  24.697  1.00  0.00    -0.460 OA
BRANCH  13  14
ATOM     14  C   UNL A   1      32.338  27.634  24.657  1.00  0.00     0.104 C 
ATOM     15  C   UNL A   1      31.455  28.808  25.105  1.00  0.00     0.056 C 
ATOM     16  C   UNL A   1      32.828  27.913  23.230  1.00  0.00     0.056 C 
ATOM     17  C   UNL A   1      33.504  27.503  25.647  1.00  0.00     0.056 C 
ENDBRANCH  13  14
ENDBRANCH  11  13
ENDBRANCH   8  11
BRANCH   7  18
ATOM     18  N   UNL A   1      30.641  23.743  23.912  1.00  0.00    -0.343 N 
ATOM     19  H   UNL A   1      30.338  22.989  23.295  1.00  0.00     0.345 HD
ATOM     20  H   UNL A   1      31.068  24.485  23.358  1.00  0.00     0.345 HD
ATOM     21  H   UNL A   1      29.835  24.114  24.416  1.00  0.00     0.345 HD
ENDBRANCH   7  18
ENDBRANCH   5   7
ENDBRANCH   4   5
ENDBRANCH   3   4
ENDBRANCH   2   3
ENDBRANCH   1   2
BRANCH   1  22
ATOM     22  C   UNL A   1      37.119  20.266  24.807  1.00  0.00     0.202 C 
BRANCH  22  23
ATOM     23  C   UNL A   1      38.448  19.529  24.992  1.00  0.00     0.261 C 
BRANCH  23  24
ATOM     24  O   UNL A   1      39.027  19.776  26.284  1.00  0.00    -0.460 OA
BRANCH  24  25
ATOM     25  C   UNL A   1      40.338  20.111  26.256  1.00  0.00     0.338 C 
ATOM     26  O   UNL A   1      41.237  19.507  25.683  1.00  0.00    -0.246 OA
BRANCH  25  27
ATOM     27  C   UNL A   1      40.545  21.437  26.864  1.00  0.00     0.060 A 
ATOM     28  C   UNL A   1      39.967  22.533  26.213  1.00  0.00     0.016 A 
ATOM     29  C   UNL A   1      41.344  21.622  27.995  1.00  0.00     0.016 A 
ATOM     30  C   UNL A   1      40.241  23.827  26.646  1.00  0.00     0.010 A 
ATOM     31  C   UNL A   1      41.626  22.924  28.424  1.00  0.00     0.010 A 
ATOM     32  C   UNL A   1      41.114  24.031  27.722  1.00  0.00    -0.014 A 
BRANCH  32  33
ATOM     33  C   UNL A   1      41.622  25.399  27.987  1.00  0.00     0.031 A 
ATOM     34  C   UNL A   1      43.013  25.754  27.538  1.00  0.00     0.074 A 
ATOM     35  C   UNL A   1      40.847  26.320  28.586  1.00  0.00     0.049 A 
ATOM     36  N   UNL A   1      43.655  26.887  27.648  1.00  0.00    -0.248 NA
ATOM     37  C   UNL A   1      43.784  24.689  26.873  1.00  0.00     0.031 C 
ATOM     38  C   UNL A   1      39.481  26.098  29.056  1.00  0.00     0.029 A 
ATOM     39  N   UNL A   1      41.110  27.626  28.914  1.00  0.00    -0.354 N 
ATOM     40  C   UNL A   1      44.911  26.667  27.093  1.00  0.00     0.074 A 
ATOM     41  C   UNL A   1      44.947  25.288  26.659  1.00  0.00     0.031 C 
ATOM     42  C   UNL A   1      39.034  27.225  29.636  1.00  0.00     0.029 A 
ATOM     43  C   UNL A   1      40.085  28.239  29.593  1.00  0.00     0.049 A 
ATOM     44  H   UNL A   1      41.953  28.081  28.685  1.00  0.00     0.167 HD
ATOM     45  C   UNL A   1      45.935  27.538  26.939  1.00  0.00     0.034 A 
ATOM     46  C   UNL A   1      40.012  29.474  30.129  1.00  0.00     0.034 A 
ATOM     47  C   UNL A   1      45.889  28.916  27.348  1.00  0.00     0.049 A 
ATOM     48  C   UNL A   1      41.173  30.419  29.961  1.00  0.00     0.074 A 
ATOM     49  C   UNL A   1      46.859  29.891  27.197  1.00  0.00     0.029 A 
ATOM     50  N   UNL A   1      44.820  29.512  27.996  1.00  0.00    -0.354 N 
ATOM     51  N   UNL A   1      42.306  30.233  29.328  1.00  0.00    -0.248 NA
ATOM     52  C   UNL A   1      41.031  31.760  30.550  1.00  0.00     0.031 C 
ATOM     53  C   UNL A   1      46.384  31.072  27.775  1.00  0.00     0.029 A 
ATOM     54  C   UNL A   1      45.108  30.839  28.264  1.00  0.00     0.049 A 
ATOM     55  H   UNL A   1      43.979  29.058  28.234  1.00  0.00     0.167 HD
ATOM     56  C   UNL A   1      42.994  31.439  29.411  1.00  0.00     0.074 A 
ATOM     57  C   UNL A   1      42.142  32.356  30.139  1.00  0.00     0.031 C 
ATOM     58  C   UNL A   1      44.226  31.756  28.939  1.00  0.00     0.034 A 
BRANCH  45  59
ATOM     59  C   UNL A   1      47.186  27.033  26.272  1.00  0.00     0.023 A 
ATOM     60  C   UNL A   1      47.361  27.219  24.885  1.00  0.00     0.012 A 
ATOM     61  C   UNL A   1      48.208  26.416  27.021  1.00  0.00     0.148 A 
ATOM     62  C   UNL A   1      48.519  26.774  24.250  1.00  0.00     0.002 A 
ATOM     63  C   UNL A   1      49.376  26.012  26.386  1.00  0.00     0.091 A 
ATOM     64  F   UNL A   1      48.011  26.224  28.333  1.00  0.00    -0.205 F 
ATOM     65  C   UNL A   1      49.530  26.181  25.001  1.00  0.00     0.022 A 
BRANCH  63  66
ATOM     66  S   UNL A   1      50.764  25.304  27.281  1.00  0.00     0.127 S 
ATOM     67  O   UNL A   1      50.118  24.222  28.021  1.00  0.00    -0.237 OA
ATOM     68  O   UNL A   1      51.639  24.862  26.194  1.00  0.00    -0.237 OA
ATOM     69  O   UNL A   1      51.308  26.382  28.095  1.00  0.00    -0.744 OA
ENDBRANCH  63  66
ENDBRANCH  45  59
BRANCH  46  70
ATOM     70  C   UNL A   1      38.774  29.902  30.840  1.00  0.00     0.023 A 
ATOM     71  C   UNL A   1      38.583  29.536  32.187  1.00  0.00     0.012 A 
ATOM     72  C   UNL A   1      37.796  30.685  30.197  1.00  0.00     0.148 A 
ATOM     73  C   UNL A   1      37.429  29.918  32.871  1.00  0.00     0.002 A 
ATOM     74  C   UNL A   1      36.674  31.108  30.900  1.00  0.00     0.091 A 
ATOM     75  F   UNL A   1      37.986  31.007  28.909  1.00  0.00    -0.205 F 
ATOM     76  C   UNL A   1      36.480  30.713  32.232  1.00  0.00     0.022 A 
BRANCH  74  77
ATOM     77  S   UNL A   1      35.467  32.237  30.196  1.00  0.00     0.127 S 
ATOM     78  O   UNL A   1      36.287  33.410  29.908  1.00  0.00    -0.237 OA
ATOM     79  O   UNL A   1      35.013  31.496  29.018  1.00  0.00    -0.237 OA
ATOM     80  O   UNL A   1      34.448  32.412  31.223  1.00  0.00    -0.744 OA
ENDBRANCH  74  77
ENDBRANCH  46  70
BRANCH  58  81
ATOM     81  C   UNL A   1      44.721  33.163  29.157  1.00  0.00     0.023 A 
ATOM     82  C   UNL A   1      45.390  33.492  30.352  1.00  0.00     0.012 A 
ATOM     83  C   UNL A   1      44.596  34.134  28.144  1.00  0.00     0.148 A 
ATOM     84  C   UNL A   1      45.900  34.775  30.548  1.00  0.00     0.002 A 
ATOM     85  C   UNL A   1      45.148  35.397  28.327  1.00  0.00     0.091 A 
ATOM     86  F   UNL A   1      43.939  33.808  27.022  1.00  0.00    -0.205 F 
ATOM     87  C   UNL A   1      45.790  35.722  29.533  1.00  0.00     0.022 A 
BRANCH  85  88
ATOM     88  S   UNL A   1      45.138  36.646  27.036  1.00  0.00     0.127 S 
ATOM     89  O   UNL A   1      43.706  36.827  26.807  1.00  0.00    -0.237 OA
ATOM     90  O   UNL A   1      45.798  37.777  27.689  1.00  0.00    -0.237 OA
ATOM     91  O   UNL A   1      45.883  36.074  25.922  1.00  0.00    -0.744 OA
ENDBRANCH  85  88
ENDBRANCH  58  81
ENDBRANCH  32  33
ENDBRANCH  25  27
ENDBRANCH  24  25
ENDBRANCH  23  24
ENDBRANCH  22  23
ENDBRANCH   1  22
TORSDOF 21
ENDMDL
MODEL 2
REMARK VINA RESULT:     -10.0      1.914      7.988
REMARK SMILES CC(C)(C)OC(=O)[C@H]1CC[C@]1([NH3+])C(=O)OCCOCCOC(=O)c1ccc(-c2c3nc(c(-c4cccc(S(=O)(=O)[O-])c4F)c4ccc([nH]4)c(-c4cccc(S(=O)(=O)[O-])c4F)c4nc(c(-c5cccc(S(=O)(=O)[O-])c5F)c5ccc2[nH]5)C=C4)C=C3)cc1
REMARK SMILES IDX 18 1 17 2 16 3 15 4 13 5 14 6 11 7 8 8 9 9 10 10 6 11 7 12
REMARK SMILES IDX 5 13 2 14 1 15 3 16 4 17 12 18 19 22 20 23 21 24 22 25 23 26
REMARK SMILES IDX 24 27 25 28 86 29 26 30 85 31 27 32 28 33 29 34 79 35 30 36
REMARK SMILES IDX 84 37 78 38 80 39 31 40 83 41 77 42 76 43 32 45 64 46 44 47
REMARK SMILES IDX 63 48 45 49 48 50 62 51 81 52 46 53 47 54 61 56 82 57 49 58
REMARK SMILES IDX 33 59 34 60 42 61 35 62 37 63 43 64 36 65 38 66 39 67 40 68
REMARK SMILES IDX 41 69 65 70 66 71 74 72 67 73 69 74 75 75 68 76 70 77 71 78
REMARK SMILES IDX 72 79 73 80 50 81 51 82 59 83 52 84 54 85 60 86 53 87 55 88
REMARK SMILES IDX 56 89 57 90 58 91
REMARK H PARENT 12 19 12 20 12 21 80 44 48 55
REMARK Flexibility Score: inf
ROOT
ATOM      1  O   UNL A   1      34.581  20.808  25.590  1.00  0.00    -0.374 OA
ENDROOT
BRANCH   1   2
ATOM      2  C   UNL A   1      33.612  21.379  26.474  1.00  0.00     0.202 C 
BRANCH   2   3
ATOM      3  C   UNL A   1      32.695  22.449  25.874  1.00  0.00     0.261 C 
BRANCH   3   4
ATOM      4  O   UNL A   1      33.255  23.768  26.030  1.00  0.00    -0.459 OA
BRANCH   4   5
ATOM      5  C   UNL A   1      32.355  24.786  26.182  1.00  0.00     0.368 C 
ATOM      6  O   UNL A   1      31.384  24.717  26.939  1.00  0.00    -0.245 OA
BRANCH   5   7
ATOM      7  C   UNL A   1      32.679  26.060  25.301  1.00  0.00     0.206 C 
ATOM      8  C   UNL A   1      31.560  26.881  24.571  1.00  0.00     0.172 C 
ATOM      9  C   UNL A   1      31.840  25.981  23.325  1.00  0.00     0.030 C 
ATOM     10  C   UNL A   1      33.254  25.737  23.886  1.00  0.00     0.083 C 
BRANCH   8  11
ATOM     11  C   UNL A   1      31.782  28.399  24.292  1.00  0.00     0.316 C 
ATOM     12  O   UNL A   1      32.862  28.881  23.943  1.00  0.00    -0.252 OA
BRANCH  11  13
ATOM     13  O   UNL A   1      30.643  29.135  24.444  1.00  0.00    -0.460 OA
BRANCH  13  14
ATOM     14  C   UNL A   1      29.853  29.503  23.280  1.00  0.00     0.104 C 
ATOM     15  C   UNL A   1      28.796  28.397  23.138  1.00  0.00     0.056 C 
ATOM     16  C   UNL A   1      30.713  29.516  22.008  1.00  0.00     0.056 C 
ATOM     17  C   UNL A   1      29.127  30.838  23.495  1.00  0.00     0.056 C 
ENDBRANCH  13  14
ENDBRANCH  11  13
ENDBRANCH   8  11
BRANCH   7  18
ATOM     18  N   UNL A   1      33.615  26.982  25.979  1.00  0.00    -0.343 N 
ATOM     19  H   UNL A   1      34.566  26.795  25.663  1.00  0.00     0.345 HD
ATOM     20  H   UNL A   1      33.558  26.843  26.988  1.00  0.00     0.345 HD
ATOM     21  H   UNL A   1      33.365  27.946  25.754  1.00  0.00     0.345 HD
ENDBRANCH   7  18
ENDBRANCH   5   7
ENDBRANCH   4   5
ENDBRANCH   3   4
ENDBRANCH   2   3
ENDBRANCH   1   2
BRANCH   1  22
ATOM     22  C   UNL A   1      35.893  21.361  25.639  1.00  0.00     0.202 C 
BRANCH  22  23
ATOM     23  C   UNL A   1      37.035  20.479  25.123  1.00  0.00     0.261 C 
BRANCH  23  24
ATOM     24  O   UNL A   1      38.260  21.214  24.977  1.00  0.00    -0.460 OA
BRANCH  24  25
ATOM     25  C   UNL A   1      39.199  20.930  25.910  1.00  0.00     0.338 C 
ATOM     26  O   UNL A   1      39.720  19.842  26.119  1.00  0.00    -0.246 OA
BRANCH  25  27
ATOM     27  C   UNL A   1      39.678  22.168  26.552  1.00  0.00     0.060 A 
ATOM     28  C   UNL A   1      39.098  23.370  26.129  1.00  0.00     0.016 A 
ATOM     29  C   UNL A   1      40.717  22.169  27.486  1.00  0.00     0.016 A 
ATOM     30  C   UNL A   1      39.601  24.585  26.583  1.00  0.00     0.010 A 
ATOM     31  C   UNL A   1      41.227  23.393  27.935  1.00  0.00     0.010 A 
ATOM     32  C   UNL A   1      40.702  24.603  27.448  1.00  0.00    -0.014 A 
BRANCH  32  33
ATOM     33  C   UNL A   1      41.403  25.887  27.693  1.00  0.00     0.031 A 
ATOM     34  C   UNL A   1      40.675  26.982  28.425  1.00  0.00     0.074 A 
ATOM     35  C   UNL A   1      42.677  26.065  27.303  1.00  0.00     0.049 A 
ATOM     36  N   UNL A   1      41.093  28.173  28.762  1.00  0.00    -0.248 NA
ATOM     37  C   UNL A   1      39.288  26.694  28.832  1.00  0.00     0.031 C 
ATOM     38  C   UNL A   1      43.490  25.077  26.597  1.00  0.00     0.029 A 
ATOM     39  N   UNL A   1      43.505  27.152  27.434  1.00  0.00    -0.354 N 
ATOM     40  C   UNL A   1      40.018  28.786  29.396  1.00  0.00     0.074 A 
ATOM     41  C   UNL A   1      38.923  27.842  29.384  1.00  0.00     0.031 C 
ATOM     42  C   UNL A   1      44.694  25.613  26.334  1.00  0.00     0.029 A 
ATOM     43  C   UNL A   1      44.732  26.984  26.838  1.00  0.00     0.049 A 
ATOM     44  H   UNL A   1      43.245  27.973  27.911  1.00  0.00     0.167 HD
ATOM     45  C   UNL A   1      39.952  30.017  29.956  1.00  0.00     0.034 A 
ATOM     46  C   UNL A   1      45.759  27.846  26.704  1.00  0.00     0.034 A 
ATOM     47  C   UNL A   1      41.049  30.946  29.989  1.00  0.00     0.049 A 
ATOM     48  C   UNL A   1      45.655  29.217  27.319  1.00  0.00     0.074 A 
ATOM     49  C   UNL A   1      41.096  32.201  30.570  1.00  0.00     0.029 A 
ATOM     50  N   UNL A   1      42.288  30.727  29.410  1.00  0.00    -0.354 N 
ATOM     51  N   UNL A   1      44.676  29.737  28.019  1.00  0.00    -0.248 NA
ATOM     52  C   UNL A   1      46.814  30.109  27.158  1.00  0.00     0.031 C 
ATOM     53  C   UNL A   1      42.359  32.749  30.323  1.00  0.00     0.029 A 
ATOM     54  C   UNL A   1      43.106  31.826  29.608  1.00  0.00     0.049 A 
ATOM     55  H   UNL A   1      42.549  29.909  28.926  1.00  0.00     0.167 HD
ATOM     56  C   UNL A   1      45.112  30.998  28.411  1.00  0.00     0.074 A 
ATOM     57  C   UNL A   1      46.453  31.157  27.887  1.00  0.00     0.031 C 
ATOM     58  C   UNL A   1      44.459  31.946  29.130  1.00  0.00     0.034 A 
BRANCH  45  59
ATOM     59  C   UNL A   1      38.656  30.419  30.607  1.00  0.00     0.023 A 
ATOM     60  C   UNL A   1      38.427  30.100  31.961  1.00  0.00     0.012 A 
ATOM     61  C   UNL A   1      37.685  31.151  29.896  1.00  0.00     0.148 A 
ATOM     62  C   UNL A   1      37.241  30.477  32.588  1.00  0.00     0.002 A 
ATOM     63  C   UNL A   1      36.523  31.558  30.540  1.00  0.00     0.091 A 
ATOM     64  F   UNL A   1      37.909  31.422  28.602  1.00  0.00    -0.205 F 
ATOM     65  C   UNL A   1      36.295  31.214  31.882  1.00  0.00     0.022 A 
BRANCH  63  66
ATOM     66  S   UNL A   1      35.278  32.574  29.735  1.00  0.00     0.127 S 
ATOM     67  O   UNL A   1      34.789  31.671  28.695  1.00  0.00    -0.237 OA
ATOM     68  O   UNL A   1      34.331  32.821  30.822  1.00  0.00    -0.237 OA
ATOM     69  O   UNL A   1      35.976  33.759  29.258  1.00  0.00    -0.744 OA
ENDBRANCH  63  66
ENDBRANCH  45  59
BRANCH  46  70
ATOM     70  C   UNL A   1      46.996  27.421  25.989  1.00  0.00     0.023 A 
ATOM     71  C   UNL A   1      47.988  26.699  26.683  1.00  0.00     0.012 A 
ATOM     72  C   UNL A   1      47.186  27.709  24.624  1.00  0.00     0.148 A 
ATOM     73  C   UNL A   1      49.157  26.298  26.036  1.00  0.00     0.002 A 
ATOM     74  C   UNL A   1      48.328  27.260  23.973  1.00  0.00     0.091 A 
ATOM     75  F   UNL A   1      46.240  28.414  23.986  1.00  0.00    -0.205 F 
ATOM     76  C   UNL A   1      49.323  26.568  24.680  1.00  0.00     0.022 A 
BRANCH  74  77
ATOM     77  S   UNL A   1      48.564  27.451  22.202  1.00  0.00     0.127 S 
ATOM     78  O   UNL A   1      49.820  28.195  22.146  1.00  0.00    -0.237 OA
ATOM     79  O   UNL A   1      48.650  26.060  21.757  1.00  0.00    -0.237 OA
ATOM     80  O   UNL A   1      47.385  28.161  21.724  1.00  0.00    -0.744 OA
ENDBRANCH  74  77
ENDBRANCH  46  70
BRANCH  58  81
ATOM     81  C   UNL A   1      45.190  33.229  29.429  1.00  0.00     0.023 A 
ATOM     82  C   UNL A   1      45.994  33.325  30.582  1.00  0.00     0.012 A 
ATOM     83  C   UNL A   1      45.146  34.309  28.524  1.00  0.00     0.148 A 
ATOM     84  C   UNL A   1      46.718  34.487  30.845  1.00  0.00     0.002 A 
ATOM     85  C   UNL A   1      45.907  35.446  28.770  1.00  0.00     0.091 A 
ATOM     86  F   UNL A   1      44.360  34.206  27.443  1.00  0.00    -0.205 F 
ATOM     87  C   UNL A   1      46.685  35.541  29.935  1.00  0.00     0.022 A 
BRANCH  85  88
ATOM     88  S   UNL A   1      45.998  36.810  27.604  1.00  0.00     0.127 S 
ATOM     89  O   UNL A   1      46.772  37.795  28.358  1.00  0.00    -0.237 OA
ATOM     90  O   UNL A   1      46.711  36.210  26.476  1.00  0.00    -0.237 OA
ATOM     91  O   UNL A   1      44.620  37.182  27.317  1.00  0.00    -0.744 OA
ENDBRANCH  85  88
ENDBRANCH  58  81
ENDBRANCH  32  33
ENDBRANCH  25  27
ENDBRANCH  24  25
ENDBRANCH  23  24
ENDBRANCH  22  23
ENDBRANCH   1  22
TORSDOF 21
ENDMDL
MODEL 3
REMARK VINA RESULT:      -9.9      5.191      8.223
REMARK SMILES CC(C)(C)OC(=O)[C@H]1CC[C@]1([NH3+])C(=O)OCCOCCOC(=O)c1ccc(-c2c3nc(c(-c4cccc(S(=O)(=O)[O-])c4F)c4ccc([nH]4)c(-c4cccc(S(=O)(=O)[O-])c4F)c4nc(c(-c5cccc(S(=O)(=O)[O-])c5F)c5ccc2[nH]5)C=C4)C=C3)cc1
REMARK SMILES IDX 18 1 17 2 16 3 15 4 13 5 14 6 11 7 8 8 9 9 10 10 6 11 7 12
REMARK SMILES IDX 5 13 2 14 1 15 3 16 4 17 12 18 19 22 20 23 21 24 22 25 23 26
REMARK SMILES IDX 24 27 25 28 86 29 26 30 85 31 27 32 28 33 29 34 79 35 30 36
REMARK SMILES IDX 84 37 78 38 80 39 31 40 83 41 77 42 76 43 32 45 64 46 44 47
REMARK SMILES IDX 63 48 45 49 48 50 62 51 81 52 46 53 47 54 61 56 82 57 49 58
REMARK SMILES IDX 33 59 34 60 42 61 35 62 37 63 43 64 36 65 38 66 39 67 40 68
REMARK SMILES IDX 41 69 65 70 66 71 74 72 67 73 69 74 75 75 68 76 70 77 71 78
REMARK SMILES IDX 72 79 73 80 50 81 51 82 59 83 52 84 54 85 60 86 53 87 55 88
REMARK SMILES IDX 56 89 57 90 58 91
REMARK H PARENT 12 19 12 20 12 21 80 44 48 55
REMARK Flexibility Score: inf
ROOT
ATOM      1  O   UNL A   1      32.452  28.700  24.442  1.00  0.00    -0.374 OA
ENDROOT
BRANCH   1   2
ATOM      2  C   UNL A   1      32.444  27.289  24.673  1.00  0.00     0.202 C 
BRANCH   2   3
ATOM      3  C   UNL A   1      33.574  26.489  24.016  1.00  0.00     0.261 C 
BRANCH   3   4
ATOM      4  O   UNL A   1      33.057  25.380  23.254  1.00  0.00    -0.459 OA
BRANCH   4   5
ATOM      5  C   UNL A   1      33.762  24.212  23.345  1.00  0.00     0.368 C 
ATOM      6  O   UNL A   1      34.922  24.094  22.945  1.00  0.00    -0.245 OA
BRANCH   5   7
ATOM      7  C   UNL A   1      32.952  23.030  24.016  1.00  0.00     0.206 C 
ATOM      8  C   UNL A   1      33.085  21.543  23.535  1.00  0.00     0.172 C 
ATOM      9  C   UNL A   1      31.855  21.827  22.613  1.00  0.00     0.030 C 
ATOM     10  C   UNL A   1      31.453  22.950  23.588  1.00  0.00     0.083 C 
BRANCH   8  11
ATOM     11  C   UNL A   1      32.836  20.385  24.548  1.00  0.00     0.316 C 
ATOM     12  O   UNL A   1      31.834  20.303  25.263  1.00  0.00    -0.252 OA
BRANCH  11  13
ATOM     13  O   UNL A   1      33.831  19.451  24.536  1.00  0.00    -0.460 OA
BRANCH  13  14
ATOM     14  C   UNL A   1      33.510  18.047  24.334  1.00  0.00     0.104 C 
ATOM     15  C   UNL A   1      34.856  17.309  24.387  1.00  0.00     0.056 C 
ATOM     16  C   UNL A   1      32.884  17.814  22.952  1.00  0.00     0.056 C 
ATOM     17  C   UNL A   1      32.621  17.508  25.464  1.00  0.00     0.056 C 
ENDBRANCH  13  14
ENDBRANCH  11  13
ENDBRANCH   8  11
BRANCH   7  18
ATOM     18  N   UNL A   1      33.007  23.085  25.493  1.00  0.00    -0.343 N 
ATOM     19  H   UNL A   1      33.361  23.995  25.786  1.00  0.00     0.345 HD
ATOM     20  H   UNL A   1      33.627  22.351  25.837  1.00  0.00     0.345 HD
ATOM     21  H   UNL A   1      32.070  22.946  25.873  1.00  0.00     0.345 HD
ENDBRANCH   7  18
ENDBRANCH   5   7
ENDBRANCH   4   5
ENDBRANCH   3   4
ENDBRANCH   2   3
ENDBRANCH   1   2
BRANCH   1  22
ATOM     22  C   UNL A   1      31.393  29.449  25.031  1.00  0.00     0.202 C 
BRANCH  22  23
ATOM     23  C   UNL A   1      31.758  30.353  26.213  1.00  0.00     0.261 C 
BRANCH  23  24
ATOM     24  O   UNL A   1      33.125  30.791  26.154  1.00  0.00    -0.460 OA
BRANCH  24  25
ATOM     25  C   UNL A   1      33.482  31.648  27.139  1.00  0.00     0.338 C 
ATOM     26  O   UNL A   1      32.767  32.485  27.678  1.00  0.00    -0.246 OA
BRANCH  25  27
ATOM     27  C   UNL A   1      34.830  31.327  27.639  1.00  0.00     0.060 A 
ATOM     28  C   UNL A   1      35.133  29.972  27.828  1.00  0.00     0.016 A 
ATOM     29  C   UNL A   1      35.752  32.317  27.990  1.00  0.00     0.016 A 
ATOM     30  C   UNL A   1      36.330  29.603  28.434  1.00  0.00     0.010 A 
ATOM     31  C   UNL A   1      36.952  31.943  28.606  1.00  0.00     0.010 A 
ATOM     32  C   UNL A   1      37.222  30.589  28.873  1.00  0.00    -0.014 A 
BRANCH  32  33
ATOM     33  C   UNL A   1      38.342  30.200  29.765  1.00  0.00     0.031 A 
ATOM     34  C   UNL A   1      39.362  29.216  29.258  1.00  0.00     0.074 A 
ATOM     35  C   UNL A   1      38.470  30.737  30.990  1.00  0.00     0.049 A 
ATOM     36  N   UNL A   1      40.427  28.747  29.853  1.00  0.00    -0.248 NA
ATOM     37  C   UNL A   1      39.154  28.692  27.897  1.00  0.00     0.031 C 
ATOM     38  C   UNL A   1      37.553  31.707  31.586  1.00  0.00     0.029 A 
ATOM     39  N   UNL A   1      39.419  30.529  31.959  1.00  0.00    -0.354 N 
ATOM     40  C   UNL A   1      41.001  27.855  28.953  1.00  0.00     0.074 A 
ATOM     41  C   UNL A   1      40.159  27.836  27.778  1.00  0.00     0.031 C 
ATOM     42  C   UNL A   1      37.972  31.991  32.831  1.00  0.00     0.029 A 
ATOM     43  C   UNL A   1      39.174  31.213  33.125  1.00  0.00     0.049 A 
ATOM     44  H   UNL A   1      40.202  29.945  31.830  1.00  0.00     0.167 HD
ATOM     45  C   UNL A   1      42.138  27.132  29.085  1.00  0.00     0.034 A 
ATOM     46  C   UNL A   1      39.838  31.200  34.298  1.00  0.00     0.034 A 
ATOM     47  C   UNL A   1      42.987  27.169  30.245  1.00  0.00     0.049 A 
ATOM     48  C   UNL A   1      41.089  30.371  34.426  1.00  0.00     0.074 A 
ATOM     49  C   UNL A   1      44.182  26.506  30.457  1.00  0.00     0.029 A 
ATOM     50  N   UNL A   1      42.727  27.903  31.390  1.00  0.00    -0.354 N 
ATOM     51  N   UNL A   1      41.684  29.627  33.525  1.00  0.00    -0.248 NA
ATOM     52  C   UNL A   1      41.783  30.408  35.722  1.00  0.00     0.031 C 
ATOM     53  C   UNL A   1      44.634  26.822  31.742  1.00  0.00     0.029 A 
ATOM     54  C   UNL A   1      43.733  27.702  32.320  1.00  0.00     0.049 A 
ATOM     55  H   UNL A   1      41.942  28.482  31.524  1.00  0.00     0.167 HD
ATOM     56  C   UNL A   1      42.836  29.138  34.131  1.00  0.00     0.074 A 
ATOM     57  C   UNL A   1      42.867  29.686  35.471  1.00  0.00     0.031 C 
ATOM     58  C   UNL A   1      43.779  28.301  33.629  1.00  0.00     0.034 A 
BRANCH  45  59
ATOM     59  C   UNL A   1      42.544  26.256  27.930  1.00  0.00     0.023 A 
ATOM     60  C   UNL A   1      43.507  26.720  27.010  1.00  0.00     0.012 A 
ATOM     61  C   UNL A   1      42.012  24.961  27.780  1.00  0.00     0.148 A 
ATOM     62  C   UNL A   1      43.911  25.920  25.942  1.00  0.00     0.002 A 
ATOM     63  C   UNL A   1      42.450  24.155  26.736  1.00  0.00     0.091 A 
ATOM     64  F   UNL A   1      41.078  24.549  28.649  1.00  0.00    -0.205 F 
ATOM     65  C   UNL A   1      43.391  24.635  25.811  1.00  0.00     0.022 A 
BRANCH  63  66
ATOM     66  S   UNL A   1      41.893  22.459  26.527  1.00  0.00     0.127 S 
ATOM     67  O   UNL A   1      40.442  22.630  26.474  1.00  0.00    -0.237 OA
ATOM     68  O   UNL A   1      42.510  22.086  25.254  1.00  0.00    -0.237 OA
ATOM     69  O   UNL A   1      42.396  21.728  27.681  1.00  0.00    -0.744 OA
ENDBRANCH  63  66
ENDBRANCH  45  59
BRANCH  46  70
ATOM     70  C   UNL A   1      39.353  32.033  35.435  1.00  0.00     0.023 A 
ATOM     71  C   UNL A   1      39.599  33.420  35.436  1.00  0.00     0.012 A 
ATOM     72  C   UNL A   1      38.634  31.462  36.503  1.00  0.00     0.148 A 
ATOM     73  C   UNL A   1      39.161  34.218  36.494  1.00  0.00     0.002 A 
ATOM     74  C   UNL A   1      38.154  32.271  37.526  1.00  0.00     0.091 A 
ATOM     75  F   UNL A   1      38.427  30.137  36.493  1.00  0.00    -0.205 F 
ATOM     76  C   UNL A   1      38.430  33.646  37.532  1.00  0.00     0.022 A 
BRANCH  74  77
ATOM     77  S   UNL A   1      37.096  31.641  38.835  1.00  0.00     0.127 S 
ATOM     78  O   UNL A   1      37.950  31.797  40.010  1.00  0.00    -0.237 OA
ATOM     79  O   UNL A   1      35.959  32.559  38.772  1.00  0.00    -0.237 OA
ATOM     80  O   UNL A   1      36.781  30.269  38.458  1.00  0.00    -0.744 OA
ENDBRANCH  74  77
ENDBRANCH  46  70
BRANCH  58  81
ATOM     81  C   UNL A   1      44.948  27.949  34.513  1.00  0.00     0.023 A 
ATOM     82  C   UNL A   1      46.088  28.777  34.529  1.00  0.00     0.012 A 
ATOM     83  C   UNL A   1      44.882  26.846  35.387  1.00  0.00     0.148 A 
ATOM     84  C   UNL A   1      47.156  28.494  35.379  1.00  0.00     0.002 A 
ATOM     85  C   UNL A   1      45.931  26.598  36.265  1.00  0.00     0.091 A 
ATOM     86  F   UNL A   1      43.797  26.059  35.343  1.00  0.00    -0.205 F 
ATOM     87  C   UNL A   1      47.073  27.414  36.255  1.00  0.00     0.022 A 
BRANCH  85  88
ATOM     88  S   UNL A   1      45.866  25.287  37.492  1.00  0.00     0.127 S 
ATOM     89  O   UNL A   1      45.827  24.093  36.650  1.00  0.00    -0.237 OA
ATOM     90  O   UNL A   1      47.120  25.478  38.221  1.00  0.00    -0.237 OA
ATOM     91  O   UNL A   1      44.667  25.538  38.281  1.00  0.00    -0.744 OA
ENDBRANCH  85  88
ENDBRANCH  58  81
ENDBRANCH  32  33
ENDBRANCH  25  27
ENDBRANCH  24  25
ENDBRANCH  23  24
ENDBRANCH  22  23
ENDBRANCH   1  22
TORSDOF 21
ENDMDL
