MODEL 1
REMARK VINA RESULT:     -11.0      0.000      0.000
REMARK SMILES Cc1cccc(C(=O)OCCOCCOC(=O)c2ccc(-c3c4nc(c(-c5cccc(S(=O)(=O)[O-])c5F)c5ccc([nH]5)c(-c5cccc(S(=O)(=O)[O-])c5F)c5nc(c(-c6cccc(S(=O)(=O)[O-])c6F)c6ccc3[nH]6)C=C5)C=C4)cc2)c1NC(=O)Cc1ccccc1
REMARK SMILES IDX 12 1 11 2 10 3 9 4 7 5 8 6 6 7 1 8 2 9 3 10 81 11 4 12 5 13
REMARK SMILES IDX 82 14 83 15 84 17 85 18 86 19 87 20 91 21 88 22 90 23 89 24
REMARK SMILES IDX 13 25 14 26 15 27 16 28 17 29 18 30 19 31 80 32 20 33 79 34
REMARK SMILES IDX 21 35 22 36 23 37 73 38 24 39 78 40 72 41 74 42 25 43 77 44
REMARK SMILES IDX 71 45 70 46 26 48 58 49 38 50 57 51 39 52 42 53 56 54 75 55
REMARK SMILES IDX 40 56 41 57 55 59 76 60 43 61 27 62 28 63 36 64 29 65 31 66
REMARK SMILES IDX 37 67 30 68 32 69 33 70 34 71 35 72 59 73 60 74 68 75 61 76
REMARK SMILES IDX 63 77 69 78 62 79 64 80 65 81 66 82 67 83 44 84 45 85 53 86
REMARK SMILES IDX 46 87 48 88 54 89 47 90 49 91 50 92 51 93 52 94
REMARK H PARENT 82 16 74 47 42 58
REMARK Flexibility Score: inf
ROOT
ATOM      1  O   UNL A   1      32.773  29.645  25.045  1.00  0.00    -0.374 OA
ENDROOT
BRANCH   1   2
ATOM      2  C   UNL A   1      32.539  28.352  24.509  1.00  0.00     0.202 C 
BRANCH   2   3
ATOM      3  C   UNL A   1      33.608  27.829  23.537  1.00  0.00     0.261 C 
BRANCH   3   4
ATOM      4  O   UNL A   1      34.037  26.505  23.685  1.00  0.00    -0.460 OA
BRANCH   4   5
ATOM      5  C   UNL A   1      33.591  25.825  22.656  1.00  0.00     0.340 C 
ATOM      6  O   UNL A   1      33.732  26.094  21.465  1.00  0.00    -0.246 OA
BRANCH   5   7
ATOM      7  C   UNL A   1      32.869  24.685  23.240  1.00  0.00     0.083 A 
ATOM      8  C   UNL A   1      32.119  23.629  26.769  1.00  0.00     0.046 C 
ATOM      9  C   UNL A   1      32.099  23.837  25.276  1.00  0.00    -0.027 A 
ATOM     10  C   UNL A   1      30.769  23.905  24.743  1.00  0.00     0.005 A 
ATOM     11  C   UNL A   1      33.247  24.061  24.471  1.00  0.00     0.058 A 
ATOM     12  C   UNL A   1      30.507  24.242  23.429  1.00  0.00     0.001 A 
ATOM     13  C   UNL A   1      31.568  24.657  22.674  1.00  0.00     0.018 A 
BRANCH  11  14
ATOM     14  N   UNL A   1      34.564  23.829  25.103  1.00  0.00    -0.325 N 
ATOM     15  C   UNL A   1      35.638  23.033  25.484  1.00  0.00     0.228 C 
ATOM     16  H   UNL A   1      34.818  24.723  25.430  1.00  0.00     0.169 HD
ATOM     17  O   UNL A   1      36.552  23.758  25.942  1.00  0.00    -0.274 OA
BRANCH  15  18
ATOM     18  C   UNL A   1      35.853  21.491  25.746  1.00  0.00     0.135 C 
BRANCH  18  19
ATOM     19  C   UNL A   1      34.842  20.406  25.238  1.00  0.00    -0.039 A 
ATOM     20  C   UNL A   1      33.449  20.511  25.403  1.00  0.00     0.004 A 
ATOM     21  C   UNL A   1      35.265  19.175  24.700  1.00  0.00     0.004 A 
ATOM     22  C   UNL A   1      32.540  19.503  25.029  1.00  0.00     0.000 A 
ATOM     23  C   UNL A   1      34.352  18.146  24.347  1.00  0.00     0.000 A 
ATOM     24  C   UNL A   1      32.984  18.312  24.504  1.00  0.00     0.000 A 
ENDBRANCH  18  19
ENDBRANCH  15  18
ENDBRANCH  11  14
ENDBRANCH   5   7
ENDBRANCH   4   5
ENDBRANCH   3   4
ENDBRANCH   2   3
ENDBRANCH   1   2
BRANCH   1  25
ATOM     25  C   UNL A   1      32.367  29.775  26.411  1.00  0.00     0.202 C 
BRANCH  25  26
ATOM     26  C   UNL A   1      32.292  31.225  26.938  1.00  0.00     0.261 C 
BRANCH  26  27
ATOM     27  O   UNL A   1      33.590  31.602  27.456  1.00  0.00    -0.460 OA
BRANCH  27  28
ATOM     28  C   UNL A   1      33.705  32.844  28.003  1.00  0.00     0.338 C 
ATOM     29  O   UNL A   1      33.026  33.802  27.668  1.00  0.00    -0.246 OA
BRANCH  28  30
ATOM     30  C   UNL A   1      34.890  32.919  28.923  1.00  0.00     0.060 A 
ATOM     31  C   UNL A   1      36.190  32.849  28.402  1.00  0.00     0.016 A 
ATOM     32  C   UNL A   1      34.716  32.737  30.290  1.00  0.00     0.016 A 
ATOM     33  C   UNL A   1      37.243  32.328  29.178  1.00  0.00     0.010 A 
ATOM     34  C   UNL A   1      35.736  32.139  31.029  1.00  0.00     0.010 A 
ATOM     35  C   UNL A   1      36.984  31.824  30.442  1.00  0.00    -0.014 A 
BRANCH  35  36
ATOM     36  C   UNL A   1      38.000  31.108  31.267  1.00  0.00     0.031 A 
ATOM     37  C   UNL A   1      38.353  29.788  30.691  1.00  0.00     0.074 A 
ATOM     38  C   UNL A   1      38.996  31.742  31.966  1.00  0.00     0.049 A 
ATOM     39  N   UNL A   1      39.361  29.069  31.047  1.00  0.00    -0.248 NA
ATOM     40  C   UNL A   1      37.543  29.160  29.634  1.00  0.00     0.031 C 
ATOM     41  C   UNL A   1      40.416  31.661  31.613  1.00  0.00     0.029 A 
ATOM     42  N   UNL A   1      39.004  32.608  33.079  1.00  0.00    -0.354 N 
ATOM     43  C   UNL A   1      39.588  28.257  29.964  1.00  0.00     0.074 A 
ATOM     44  C   UNL A   1      38.326  28.136  29.290  1.00  0.00     0.031 C 
ATOM     45  C   UNL A   1      41.157  32.294  32.531  1.00  0.00     0.029 A 
ATOM     46  C   UNL A   1      40.304  32.687  33.634  1.00  0.00     0.049 A 
ATOM     47  H   UNL A   1      38.218  33.090  33.420  1.00  0.00     0.167 HD
ATOM     48  C   UNL A   1      40.866  28.024  29.569  1.00  0.00     0.034 A 
ATOM     49  C   UNL A   1      40.747  32.793  34.930  1.00  0.00     0.034 A 
ATOM     50  C   UNL A   1      41.859  28.487  30.549  1.00  0.00     0.049 A 
ATOM     51  C   UNL A   1      41.723  31.683  35.274  1.00  0.00     0.074 A 
ATOM     52  C   UNL A   1      42.898  29.400  30.509  1.00  0.00     0.029 A 
ATOM     53  N   UNL A   1      41.709  28.139  31.889  1.00  0.00    -0.354 N 
ATOM     54  N   UNL A   1      42.393  30.988  34.400  1.00  0.00    -0.248 NA
ATOM     55  C   UNL A   1      41.875  31.137  36.629  1.00  0.00     0.031 C 
ATOM     56  C   UNL A   1      43.334  29.628  31.848  1.00  0.00     0.029 A 
ATOM     57  C   UNL A   1      42.597  28.824  32.703  1.00  0.00     0.049 A 
ATOM     58  H   UNL A   1      41.052  27.484  32.219  1.00  0.00     0.167 HD
ATOM     59  C   UNL A   1      42.550  29.733  34.934  1.00  0.00     0.074 A 
ATOM     60  C   UNL A   1      42.425  29.941  36.364  1.00  0.00     0.031 C 
ATOM     61  C   UNL A   1      42.570  28.608  34.152  1.00  0.00     0.034 A 
BRANCH  48  62
ATOM     62  C   UNL A   1      41.230  27.498  28.198  1.00  0.00     0.023 A 
ATOM     63  C   UNL A   1      41.178  28.425  27.139  1.00  0.00     0.012 A 
ATOM     64  C   UNL A   1      41.579  26.163  27.859  1.00  0.00     0.148 A 
ATOM     65  C   UNL A   1      41.500  28.067  25.827  1.00  0.00     0.002 A 
ATOM     66  C   UNL A   1      41.996  25.831  26.569  1.00  0.00     0.091 A 
ATOM     67  F   UNL A   1      41.419  25.177  28.750  1.00  0.00    -0.205 F 
ATOM     68  C   UNL A   1      41.946  26.781  25.546  1.00  0.00     0.022 A 
BRANCH  66  69
ATOM     69  S   UNL A   1      42.685  24.216  26.152  1.00  0.00     0.127 S 
ATOM     70  O   UNL A   1      41.510  23.348  26.217  1.00  0.00    -0.237 OA
ATOM     71  O   UNL A   1      43.200  24.435  24.798  1.00  0.00    -0.237 OA
ATOM     72  O   UNL A   1      43.717  23.943  27.146  1.00  0.00    -0.744 OA
ENDBRANCH  66  69
ENDBRANCH  48  62
BRANCH  49  73
ATOM     73  C   UNL A   1      39.761  33.310  35.911  1.00  0.00     0.023 A 
ATOM     74  C   UNL A   1      38.782  32.414  36.376  1.00  0.00     0.012 A 
ATOM     75  C   UNL A   1      40.231  34.334  36.732  1.00  0.00     0.148 A 
ATOM     76  C   UNL A   1      38.516  32.362  37.740  1.00  0.00     0.002 A 
ATOM     77  C   UNL A   1      40.114  34.156  38.089  1.00  0.00     0.091 A 
ATOM     78  F   UNL A   1      41.000  35.290  36.199  1.00  0.00    -0.205 F 
ATOM     79  C   UNL A   1      39.265  33.165  38.598  1.00  0.00     0.022 A 
BRANCH  77  80
ATOM     80  S   UNL A   1      41.429  34.776  39.145  1.00  0.00     0.127 S 
ATOM     81  O   UNL A   1      41.070  34.235  40.453  1.00  0.00    -0.237 OA
ATOM     82  O   UNL A   1      42.588  34.156  38.505  1.00  0.00    -0.237 OA
ATOM     83  O   UNL A   1      41.355  36.225  39.044  1.00  0.00    -0.744 OA
ENDBRANCH  77  80
ENDBRANCH  49  73
BRANCH  61  84
ATOM     84  C   UNL A   1      42.537  27.195  34.709  1.00  0.00     0.023 A 
ATOM     85  C   UNL A   1      41.444  26.677  35.434  1.00  0.00     0.012 A 
ATOM     86  C   UNL A   1      43.613  26.305  34.465  1.00  0.00     0.148 A 
ATOM     87  C   UNL A   1      41.489  25.415  36.039  1.00  0.00     0.002 A 
ATOM     88  C   UNL A   1      43.598  25.006  34.961  1.00  0.00     0.091 A 
ATOM     89  F   UNL A   1      44.683  26.729  33.780  1.00  0.00    -0.205 F 
ATOM     90  C   UNL A   1      42.568  24.578  35.801  1.00  0.00     0.022 A 
BRANCH  88  91
ATOM     91  S   UNL A   1      44.839  23.804  34.470  1.00  0.00     0.127 S 
ATOM     92  O   UNL A   1      44.342  22.584  35.103  1.00  0.00    -0.237 OA
ATOM     93  O   UNL A   1      44.729  23.820  33.010  1.00  0.00    -0.237 OA
ATOM     94  O   UNL A   1      46.103  24.319  34.978  1.00  0.00    -0.744 OA
ENDBRANCH  88  91
ENDBRANCH  61  84
ENDBRANCH  35  36
ENDBRANCH  28  30
ENDBRANCH  27  28
ENDBRANCH  26  27
ENDBRANCH  25  26
ENDBRANCH   1  25
TORSDOF 20
ENDMDL
MODEL 2
REMARK VINA RESULT:     -11.0      4.975     10.403
REMARK SMILES Cc1cccc(C(=O)OCCOCCOC(=O)c2ccc(-c3c4nc(c(-c5cccc(S(=O)(=O)[O-])c5F)c5ccc([nH]5)c(-c5cccc(S(=O)(=O)[O-])c5F)c5nc(c(-c6cccc(S(=O)(=O)[O-])c6F)c6ccc3[nH]6)C=C5)C=C4)cc2)c1NC(=O)Cc1ccccc1
REMARK SMILES IDX 12 1 11 2 10 3 9 4 7 5 8 6 6 7 1 8 2 9 3 10 81 11 4 12 5 13
REMARK SMILES IDX 82 14 83 15 84 17 85 18 86 19 87 20 91 21 88 22 90 23 89 24
REMARK SMILES IDX 13 25 14 26 15 27 16 28 17 29 18 30 19 31 80 32 20 33 79 34
REMARK SMILES IDX 21 35 22 36 23 37 73 38 24 39 78 40 72 41 74 42 25 43 77 44
REMARK SMILES IDX 71 45 70 46 26 48 58 49 38 50 57 51 39 52 42 53 56 54 75 55
REMARK SMILES IDX 40 56 41 57 55 59 76 60 43 61 27 62 28 63 36 64 29 65 31 66
REMARK SMILES IDX 37 67 30 68 32 69 33 70 34 71 35 72 59 73 60 74 68 75 61 76
REMARK SMILES IDX 63 77 69 78 62 79 64 80 65 81 66 82 67 83 44 84 45 85 53 86
REMARK SMILES IDX 46 87 48 88 54 89 47 90 49 91 50 92 51 93 52 94
REMARK H PARENT 82 16 74 47 42 58
REMARK Flexibility Score: inf
ROOT
ATOM      1  O   UNL A   1      36.983  23.088  24.792  1.00  0.00    -0.374 OA
ENDROOT
BRANCH   1   2
ATOM      2  C   UNL A   1      35.959  23.834  25.432  1.00  0.00     0.202 C 
BRANCH   2   3
ATOM      3  C   UNL A   1      35.251  23.131  26.601  1.00  0.00     0.261 C 
BRANCH   3   4
ATOM      4  O   UNL A   1      33.854  23.182  26.647  1.00  0.00    -0.460 OA
BRANCH   4   5
ATOM      5  C   UNL A   1      33.408  21.952  26.547  1.00  0.00     0.340 C 
ATOM      6  O   UNL A   1      33.701  20.992  27.256  1.00  0.00    -0.246 OA
BRANCH   5   7
ATOM      7  C   UNL A   1      32.499  21.972  25.392  1.00  0.00     0.083 A 
ATOM      8  C   UNL A   1      31.928  24.409  22.588  1.00  0.00     0.046 C 
ATOM      9  C   UNL A   1      32.008  23.177  23.452  1.00  0.00    -0.027 A 
ATOM     10  C   UNL A   1      32.308  21.992  22.701  1.00  0.00     0.005 A 
ATOM     11  C   UNL A   1      31.916  23.169  24.869  1.00  0.00     0.058 A 
ATOM     12  C   UNL A   1      32.580  20.776  23.300  1.00  0.00     0.001 A 
ATOM     13  C   UNL A   1      32.697  20.771  24.662  1.00  0.00     0.018 A 
BRANCH  11  14
ATOM     14  N   UNL A   1      31.468  24.421  25.517  1.00  0.00    -0.325 N 
ATOM     15  C   UNL A   1      30.580  25.473  25.710  1.00  0.00     0.228 C 
ATOM     16  H   UNL A   1      32.187  24.612  26.162  1.00  0.00     0.169 HD
ATOM     17  O   UNL A   1      30.944  26.149  26.700  1.00  0.00    -0.274 OA
BRANCH  15  18
ATOM     18  C   UNL A   1      29.453  26.161  24.845  1.00  0.00     0.135 C 
BRANCH  18  19
ATOM     19  C   UNL A   1      29.733  27.417  23.949  1.00  0.00    -0.039 A 
ATOM     20  C   UNL A   1      28.729  28.090  23.228  1.00  0.00     0.004 A 
ATOM     21  C   UNL A   1      31.036  27.882  23.689  1.00  0.00     0.004 A 
ATOM     22  C   UNL A   1      28.982  29.163  22.353  1.00  0.00     0.000 A 
ATOM     23  C   UNL A   1      31.297  28.947  22.786  1.00  0.00     0.000 A 
ATOM     24  C   UNL A   1      30.267  29.596  22.121  1.00  0.00     0.000 A 
ENDBRANCH  18  19
ENDBRANCH  15  18
ENDBRANCH  11  14
ENDBRANCH   5   7
ENDBRANCH   4   5
ENDBRANCH   3   4
ENDBRANCH   2   3
ENDBRANCH   1   2
BRANCH   1  25
ATOM     25  C   UNL A   1      36.662  21.702  24.636  1.00  0.00     0.202 C 
BRANCH  25  26
ATOM     26  C   UNL A   1      37.715  20.718  25.192  1.00  0.00     0.261 C 
BRANCH  26  27
ATOM     27  O   UNL A   1      38.804  21.474  25.770  1.00  0.00    -0.460 OA
BRANCH  27  28
ATOM     28  C   UNL A   1      39.951  20.796  26.054  1.00  0.00     0.338 C 
ATOM     29  O   UNL A   1      40.043  19.579  26.043  1.00  0.00    -0.246 OA
BRANCH  28  30
ATOM     30  C   UNL A   1      41.015  21.727  26.563  1.00  0.00     0.060 A 
ATOM     31  C   UNL A   1      40.825  22.420  27.766  1.00  0.00     0.016 A 
ATOM     32  C   UNL A   1      42.027  22.150  25.709  1.00  0.00     0.016 A 
ATOM     33  C   UNL A   1      41.440  23.670  27.975  1.00  0.00     0.010 A 
ATOM     34  C   UNL A   1      42.564  23.426  25.875  1.00  0.00     0.010 A 
ATOM     35  C   UNL A   1      42.186  24.249  26.962  1.00  0.00    -0.014 A 
BRANCH  35  36
ATOM     36  C   UNL A   1      42.734  25.634  27.032  1.00  0.00     0.031 A 
ATOM     37  C   UNL A   1      41.669  26.644  27.247  1.00  0.00     0.074 A 
ATOM     38  C   UNL A   1      43.964  25.940  27.559  1.00  0.00     0.049 A 
ATOM     39  N   UNL A   1      41.867  27.871  27.586  1.00  0.00    -0.248 NA
ATOM     40  C   UNL A   1      40.244  26.318  27.073  1.00  0.00     0.031 C 
ATOM     41  C   UNL A   1      44.152  26.676  28.812  1.00  0.00     0.029 A 
ATOM     42  N   UNL A   1      45.288  25.657  27.167  1.00  0.00    -0.354 N 
ATOM     43  C   UNL A   1      40.678  28.254  28.153  1.00  0.00     0.074 A 
ATOM     44  C   UNL A   1      39.671  27.418  27.562  1.00  0.00     0.031 C 
ATOM     45  C   UNL A   1      45.452  26.913  29.019  1.00  0.00     0.029 A 
ATOM     46  C   UNL A   1      46.197  26.506  27.843  1.00  0.00     0.049 A 
ATOM     47  H   UNL A   1      45.545  24.966  26.516  1.00  0.00     0.167 HD
ATOM     48  C   UNL A   1      40.697  29.012  29.279  1.00  0.00     0.034 A 
ATOM     49  C   UNL A   1      47.368  27.103  27.448  1.00  0.00     0.034 A 
ATOM     50  C   UNL A   1      42.034  29.539  29.589  1.00  0.00     0.049 A 
ATOM     51  C   UNL A   1      47.320  28.607  27.654  1.00  0.00     0.074 A 
ATOM     52  C   UNL A   1      42.894  29.411  30.664  1.00  0.00     0.029 A 
ATOM     53  N   UNL A   1      42.769  30.167  28.586  1.00  0.00    -0.354 N 
ATOM     54  N   UNL A   1      46.507  29.217  28.467  1.00  0.00    -0.248 NA
ATOM     55  C   UNL A   1      48.057  29.558  26.811  1.00  0.00     0.031 C 
ATOM     56  C   UNL A   1      44.166  29.926  30.274  1.00  0.00     0.029 A 
ATOM     57  C   UNL A   1      44.075  30.411  28.980  1.00  0.00     0.049 A 
ATOM     58  H   UNL A   1      42.404  30.409  27.704  1.00  0.00     0.167 HD
ATOM     59  C   UNL A   1      46.230  30.437  27.902  1.00  0.00     0.074 A 
ATOM     60  C   UNL A   1      47.362  30.686  27.029  1.00  0.00     0.031 C 
ATOM     61  C   UNL A   1      45.009  31.043  28.044  1.00  0.00     0.034 A 
BRANCH  48  62
ATOM     62  C   UNL A   1      39.509  29.158  30.204  1.00  0.00     0.023 A 
ATOM     63  C   UNL A   1      39.311  28.122  31.137  1.00  0.00     0.012 A 
ATOM     64  C   UNL A   1      38.549  30.206  30.205  1.00  0.00     0.148 A 
ATOM     65  C   UNL A   1      38.255  28.143  32.052  1.00  0.00     0.002 A 
ATOM     66  C   UNL A   1      37.556  30.276  31.184  1.00  0.00     0.091 A 
ATOM     67  F   UNL A   1      38.522  31.096  29.206  1.00  0.00    -0.205 F 
ATOM     68  C   UNL A   1      37.399  29.236  32.103  1.00  0.00     0.022 A 
BRANCH  66  69
ATOM     69  S   UNL A   1      36.477  31.709  31.378  1.00  0.00     0.127 S 
ATOM     70  O   UNL A   1      35.627  31.312  32.500  1.00  0.00    -0.237 OA
ATOM     71  O   UNL A   1      37.429  32.778  31.688  1.00  0.00    -0.237 OA
ATOM     72  O   UNL A   1      35.787  31.876  30.104  1.00  0.00    -0.744 OA
ENDBRANCH  66  69
ENDBRANCH  48  62
BRANCH  49  73
ATOM     73  C   UNL A   1      48.047  26.488  26.281  1.00  0.00     0.023 A 
ATOM     74  C   UNL A   1      47.628  26.895  25.001  1.00  0.00     0.012 A 
ATOM     75  C   UNL A   1      49.369  26.106  26.505  1.00  0.00     0.148 A 
ATOM     76  C   UNL A   1      48.592  27.206  24.050  1.00  0.00     0.002 A 
ATOM     77  C   UNL A   1      50.319  26.591  25.640  1.00  0.00     0.091 A 
ATOM     78  F   UNL A   1      49.687  25.529  27.669  1.00  0.00    -0.205 F 
ATOM     79  C   UNL A   1      49.936  27.152  24.415  1.00  0.00     0.022 A 
BRANCH  77  80
ATOM     80  S   UNL A   1      51.934  27.017  26.304  1.00  0.00     0.127 S 
ATOM     81  O   UNL A   1      52.468  25.719  26.702  1.00  0.00    -0.237 OA
ATOM     82  O   UNL A   1      52.550  27.614  25.120  1.00  0.00    -0.237 OA
ATOM     83  O   UNL A   1      51.672  27.932  27.404  1.00  0.00    -0.744 OA
ENDBRANCH  77  80
ENDBRANCH  49  73
BRANCH  61  84
ATOM     84  C   UNL A   1      44.591  32.285  27.276  1.00  0.00     0.023 A 
ATOM     85  C   UNL A   1      44.326  32.282  25.891  1.00  0.00     0.012 A 
ATOM     86  C   UNL A   1      44.396  33.514  27.954  1.00  0.00     0.148 A 
ATOM     87  C   UNL A   1      44.061  33.462  25.186  1.00  0.00     0.002 A 
ATOM     88  C   UNL A   1      44.007  34.660  27.269  1.00  0.00     0.091 A 
ATOM     89  F   UNL A   1      44.626  33.589  29.272  1.00  0.00    -0.205 F 
ATOM     90  C   UNL A   1      43.901  34.654  25.877  1.00  0.00     0.022 A 
BRANCH  88  91
ATOM     91  S   UNL A   1      43.537  36.157  28.143  1.00  0.00     0.127 S 
ATOM     92  O   UNL A   1      44.773  36.495  28.846  1.00  0.00    -0.237 OA
ATOM     93  O   UNL A   1      43.194  37.065  27.046  1.00  0.00    -0.237 OA
ATOM     94  O   UNL A   1      42.407  35.781  28.981  1.00  0.00    -0.744 OA
ENDBRANCH  88  91
ENDBRANCH  61  84
ENDBRANCH  35  36
ENDBRANCH  28  30
ENDBRANCH  27  28
ENDBRANCH  26  27
ENDBRANCH  25  26
ENDBRANCH   1  25
TORSDOF 20
ENDMDL
MODEL 3
REMARK VINA RESULT:     -10.5     10.185     14.670
REMARK SMILES Cc1cccc(C(=O)OCCOCCOC(=O)c2ccc(-c3c4nc(c(-c5cccc(S(=O)(=O)[O-])c5F)c5ccc([nH]5)c(-c5cccc(S(=O)(=O)[O-])c5F)c5nc(c(-c6cccc(S(=O)(=O)[O-])c6F)c6ccc3[nH]6)C=C5)C=C4)cc2)c1NC(=O)Cc1ccccc1
REMARK SMILES IDX 12 1 11 2 10 3 9 4 7 5 8 6 6 7 1 8 2 9 3 10 81 11 4 12 5 13
REMARK SMILES IDX 82 14 83 15 84 17 85 18 86 19 87 20 91 21 88 22 90 23 89 24
REMARK SMILES IDX 13 25 14 26 15 27 16 28 17 29 18 30 19 31 80 32 20 33 79 34
REMARK SMILES IDX 21 35 22 36 23 37 73 38 24 39 78 40 72 41 74 42 25 43 77 44
REMARK SMILES IDX 71 45 70 46 26 48 58 49 38 50 57 51 39 52 42 53 56 54 75 55
REMARK SMILES IDX 40 56 41 57 55 59 76 60 43 61 27 62 28 63 36 64 29 65 31 66
REMARK SMILES IDX 37 67 30 68 32 69 33 70 34 71 35 72 59 73 60 74 68 75 61 76
REMARK SMILES IDX 63 77 69 78 62 79 64 80 65 81 66 82 67 83 44 84 45 85 53 86
REMARK SMILES IDX 46 87 48 88 54 89 47 90 49 91 50 92 51 93 52 94
REMARK H PARENT 82 16 74 47 42 58
REMARK Flexibility Score: inf
ROOT
ATOM      1  O   UNL A   1      46.831  43.856  26.425  1.00  0.00    -0.374 OA
ENDROOT
BRANCH   1   2
ATOM      2  C   UNL A   1      47.198  44.424  25.177  1.00  0.00     0.202 C 
BRANCH   2   3
ATOM      3  C   UNL A   1      46.049  44.644  24.181  1.00  0.00     0.261 C 
BRANCH   3   4
ATOM      4  O   UNL A   1      45.996  43.823  23.049  1.00  0.00    -0.460 OA
BRANCH   4   5
ATOM      5  C   UNL A   1      45.080  42.909  23.262  1.00  0.00     0.340 C 
ATOM      6  O   UNL A   1      45.216  41.838  23.849  1.00  0.00    -0.246 OA
BRANCH   5   7
ATOM      7  C   UNL A   1      43.864  43.437  22.627  1.00  0.00     0.083 A 
ATOM      8  C   UNL A   1      42.370  43.080  19.196  1.00  0.00     0.046 C 
ATOM      9  C   UNL A   1      42.595  43.297  20.671  1.00  0.00    -0.027 A 
ATOM     10  C   UNL A   1      41.502  42.830  21.474  1.00  0.00     0.005 A 
ATOM     11  C   UNL A   1      43.792  43.801  21.245  1.00  0.00     0.058 A 
ATOM     12  C   UNL A   1      41.554  42.786  22.854  1.00  0.00     0.001 A 
ATOM     13  C   UNL A   1      42.756  43.074  23.436  1.00  0.00     0.018 A 
BRANCH  11  14
ATOM     14  N   UNL A   1      44.789  44.379  20.317  1.00  0.00    -0.325 N 
ATOM     15  C   UNL A   1      45.387  45.429  19.631  1.00  0.00     0.228 C 
ATOM     16  H   UNL A   1      45.312  43.595  20.031  1.00  0.00     0.169 HD
ATOM     17  O   UNL A   1      46.421  45.016  19.056  1.00  0.00    -0.274 OA
BRANCH  15  18
ATOM     18  C   UNL A   1      44.937  46.873  19.178  1.00  0.00     0.135 C 
BRANCH  18  19
ATOM     19  C   UNL A   1      43.824  47.104  18.099  1.00  0.00    -0.039 A 
ATOM     20  C   UNL A   1      43.214  48.353  17.874  1.00  0.00     0.004 A 
ATOM     21  C   UNL A   1      43.251  46.046  17.369  1.00  0.00     0.004 A 
ATOM     22  C   UNL A   1      42.154  48.552  16.971  1.00  0.00     0.000 A 
ATOM     23  C   UNL A   1      42.162  46.240  16.476  1.00  0.00     0.000 A 
ATOM     24  C   UNL A   1      41.616  47.498  16.270  1.00  0.00     0.000 A 
ENDBRANCH  18  19
ENDBRANCH  15  18
ENDBRANCH  11  14
ENDBRANCH   5   7
ENDBRANCH   4   5
ENDBRANCH   3   4
ENDBRANCH   2   3
ENDBRANCH   1   2
BRANCH   1  25
ATOM     25  C   UNL A   1      45.454  44.057  26.759  1.00  0.00     0.202 C 
BRANCH  25  26
ATOM     26  C   UNL A   1      44.917  43.163  27.897  1.00  0.00     0.261 C 
BRANCH  26  27
ATOM     27  O   UNL A   1      44.300  41.988  27.318  1.00  0.00    -0.460 OA
BRANCH  27  28
ATOM     28  C   UNL A   1      43.728  41.099  28.178  1.00  0.00     0.338 C 
ATOM     29  O   UNL A   1      43.380  41.377  29.314  1.00  0.00    -0.246 OA
BRANCH  28  30
ATOM     30  C   UNL A   1      43.763  39.708  27.613  1.00  0.00     0.060 A 
ATOM     31  C   UNL A   1      42.674  39.221  26.876  1.00  0.00     0.016 A 
ATOM     32  C   UNL A   1      44.706  38.798  28.076  1.00  0.00     0.016 A 
ATOM     33  C   UNL A   1      42.388  37.842  26.849  1.00  0.00     0.010 A 
ATOM     34  C   UNL A   1      44.375  37.444  28.125  1.00  0.00     0.010 A 
ATOM     35  C   UNL A   1      43.149  36.966  27.606  1.00  0.00    -0.014 A 
BRANCH  35  36
ATOM     36  C   UNL A   1      42.821  35.520  27.768  1.00  0.00     0.031 A 
ATOM     37  C   UNL A   1      43.816  34.645  27.102  1.00  0.00     0.074 A 
ATOM     38  C   UNL A   1      42.216  34.998  28.883  1.00  0.00     0.049 A 
ATOM     39  N   UNL A   1      43.922  33.373  27.280  1.00  0.00    -0.248 NA
ATOM     40  C   UNL A   1      44.795  35.175  26.139  1.00  0.00     0.031 C 
ATOM     41  C   UNL A   1      42.891  34.114  29.837  1.00  0.00     0.029 A 
ATOM     42  N   UNL A   1      40.934  35.142  29.452  1.00  0.00    -0.354 N 
ATOM     43  C   UNL A   1      45.215  33.094  26.912  1.00  0.00     0.074 A 
ATOM     44  C   UNL A   1      45.588  34.116  25.975  1.00  0.00     0.031 C 
ATOM     45  C   UNL A   1      42.025  33.684  30.763  1.00  0.00     0.029 A 
ATOM     46  C   UNL A   1      40.691  34.112  30.392  1.00  0.00     0.049 A 
ATOM     47  H   UNL A   1      40.298  35.858  29.228  1.00  0.00     0.167 HD
ATOM     48  C   UNL A   1      45.941  32.225  27.660  1.00  0.00     0.034 A 
ATOM     49  C   UNL A   1      39.557  33.409  30.716  1.00  0.00     0.034 A 
ATOM     50  C   UNL A   1      45.123  31.493  28.639  1.00  0.00     0.049 A 
ATOM     51  C   UNL A   1      39.779  31.912  30.592  1.00  0.00     0.074 A 
ATOM     52  C   UNL A   1      45.135  31.389  30.018  1.00  0.00     0.029 A 
ATOM     53  N   UNL A   1      43.942  30.883  28.221  1.00  0.00    -0.354 N 
ATOM     54  N   UNL A   1      40.944  31.332  30.608  1.00  0.00    -0.248 NA
ATOM     55  C   UNL A   1      38.709  30.966  30.245  1.00  0.00     0.031 C 
ATOM     56  C   UNL A   1      43.924  30.754  30.422  1.00  0.00     0.029 A 
ATOM     57  C   UNL A   1      43.191  30.426  29.292  1.00  0.00     0.049 A 
ATOM     58  H   UNL A   1      43.674  30.788  27.279  1.00  0.00     0.167 HD
ATOM     59  C   UNL A   1      40.844  30.228  29.800  1.00  0.00     0.074 A 
ATOM     60  C   UNL A   1      39.425  29.925  29.791  1.00  0.00     0.031 C 
ATOM     61  C   UNL A   1      41.899  29.778  29.050  1.00  0.00     0.034 A 
BRANCH  48  62
ATOM     62  C   UNL A   1      47.450  32.141  27.607  1.00  0.00     0.023 A 
ATOM     63  C   UNL A   1      47.996  30.891  27.258  1.00  0.00     0.012 A 
ATOM     64  C   UNL A   1      48.376  33.176  27.909  1.00  0.00     0.148 A 
ATOM     65  C   UNL A   1      49.375  30.686  27.165  1.00  0.00     0.002 A 
ATOM     66  C   UNL A   1      49.747  32.999  27.718  1.00  0.00     0.091 A 
ATOM     67  F   UNL A   1      47.953  34.313  28.476  1.00  0.00    -0.205 F 
ATOM     68  C   UNL A   1      50.251  31.747  27.357  1.00  0.00     0.022 A 
BRANCH  66  69
ATOM     69  S   UNL A   1      50.933  34.352  27.846  1.00  0.00     0.127 S 
ATOM     70  O   UNL A   1      52.212  33.667  27.663  1.00  0.00    -0.237 OA
ATOM     71  O   UNL A   1      50.544  35.217  26.729  1.00  0.00    -0.237 OA
ATOM     72  O   UNL A   1      50.731  34.950  29.161  1.00  0.00    -0.744 OA
ENDBRANCH  66  69
ENDBRANCH  48  62
BRANCH  49  73
ATOM     73  C   UNL A   1      38.270  34.049  30.346  1.00  0.00     0.023 A 
ATOM     74  C   UNL A   1      37.789  33.827  29.043  1.00  0.00     0.012 A 
ATOM     75  C   UNL A   1      37.384  34.240  31.405  1.00  0.00     0.148 A 
ATOM     76  C   UNL A   1      36.450  33.496  28.872  1.00  0.00     0.002 A 
ATOM     77  C   UNL A   1      36.116  33.730  31.264  1.00  0.00     0.091 A 
ATOM     78  F   UNL A   1      37.863  34.654  32.583  1.00  0.00    -0.205 F 
ATOM     79  C   UNL A   1      35.648  33.347  30.001  1.00  0.00     0.022 A 
BRANCH  77  80
ATOM     80  S   UNL A   1      35.310  33.043  32.716  1.00  0.00     0.127 S 
ATOM     81  O   UNL A   1      35.215  34.197  33.605  1.00  0.00    -0.237 OA
ATOM     82  O   UNL A   1      34.050  32.598  32.125  1.00  0.00    -0.237 OA
ATOM     83  O   UNL A   1      36.192  31.985  33.185  1.00  0.00    -0.744 OA
ENDBRANCH  77  80
ENDBRANCH  49  73
BRANCH  61  84
ATOM     84  C   UNL A   1      41.780  28.693  27.994  1.00  0.00     0.023 A 
ATOM     85  C   UNL A   1      41.369  28.948  26.669  1.00  0.00     0.012 A 
ATOM     86  C   UNL A   1      42.140  27.357  28.298  1.00  0.00     0.148 A 
ATOM     87  C   UNL A   1      41.152  27.914  25.750  1.00  0.00     0.002 A 
ATOM     88  C   UNL A   1      42.043  26.350  27.343  1.00  0.00     0.091 A 
ATOM     89  F   UNL A   1      42.543  27.043  29.537  1.00  0.00    -0.205 F 
ATOM     90  C   UNL A   1      41.490  26.613  26.088  1.00  0.00     0.022 A 
BRANCH  88  91
ATOM     91  S   UNL A   1      42.708  24.709  27.644  1.00  0.00     0.127 S 
ATOM     92  O   UNL A   1      44.090  25.009  28.014  1.00  0.00    -0.237 OA
ATOM     93  O   UNL A   1      41.873  24.232  28.748  1.00  0.00    -0.237 OA
ATOM     94  O   UNL A   1      42.524  23.978  26.398  1.00  0.00    -0.744 OA
ENDBRANCH  88  91
ENDBRANCH  61  84
ENDBRANCH  35  36
ENDBRANCH  28  30
ENDBRANCH  27  28
ENDBRANCH  26  27
ENDBRANCH  25  26
ENDBRANCH   1  25
TORSDOF 20
ENDMDL
