MODEL 1
REMARK VINA RESULT:     -11.5      0.000      0.000
REMARK SMILES CN1C(=O)C[C@H](C(=O)OCCOCCOC(=O)c2ccc(-c3c4nc(c(-c5cccc(S(=O)(=O)[O-])c5F)c5ccc([nH]5)c(-c5cccc(S(=O)(=O)[O-])c5F)c5nc(c(-c6cccc(S(=O)(=O)[O-])c6F)c6ccc3[nH]6)C=C5)C=C4)cc2)c2cccc(Cl)c21
REMARK SMILES IDX 13 1 12 2 11 3 10 4 9 5 7 6 8 7 6 8 1 9 2 10 3 11 87 12 4 13
REMARK SMILES IDX 5 14 81 15 85 16 82 17 84 18 86 19 83 20 14 21 15 22 16 23
REMARK SMILES IDX 17 24 18 25 19 26 80 27 20 28 79 29 21 30 22 31 23 32 73 33
REMARK SMILES IDX 24 34 78 35 72 36 74 37 25 38 77 39 71 40 70 41 26 43 58 44
REMARK SMILES IDX 38 45 57 46 39 47 42 48 56 49 75 50 40 51 41 52 55 54 76 55
REMARK SMILES IDX 43 56 27 57 28 58 36 59 29 60 31 61 37 62 30 63 32 64 33 65
REMARK SMILES IDX 34 66 35 67 59 68 60 69 68 70 61 71 63 72 69 73 62 74 64 75
REMARK SMILES IDX 65 76 66 77 67 78 44 79 45 80 53 81 46 82 48 83 54 84 47 85
REMARK SMILES IDX 49 86 50 87 51 88 52 89
REMARK H PARENT 74 42 42 53
REMARK Flexibility Score: inf
ROOT
ATOM      1  C   UNL A   1      35.869  20.825  25.003  1.00  0.00     0.202 C 
ENDROOT
BRANCH   1   2
ATOM      2  O   UNL A   1      35.347  21.243  26.265  1.00  0.00    -0.374 OA
BRANCH   2   3
ATOM      3  C   UNL A   1      34.014  21.748  26.277  1.00  0.00     0.202 C 
BRANCH   3   4
ATOM      4  C   UNL A   1      33.501  22.336  24.960  1.00  0.00     0.261 C 
BRANCH   4   5
ATOM      5  O   UNL A   1      33.292  23.756  25.040  1.00  0.00    -0.463 OA
BRANCH   5   6
ATOM      6  C   UNL A   1      34.247  24.544  24.477  1.00  0.00     0.314 C 
ATOM      7  O   UNL A   1      35.456  24.389  24.615  1.00  0.00    -0.252 OA
BRANCH   6   8
ATOM      8  C   UNL A   1      33.648  25.698  23.682  1.00  0.00     0.140 C 
ATOM      9  C   UNL A   1      30.366  28.181  22.375  1.00  0.00     0.153 C 
ATOM     10  N   UNL A   1      31.464  27.382  22.891  1.00  0.00    -0.314 N 
ATOM     11  C   UNL A   1      31.829  26.300  22.098  1.00  0.00     0.227 C 
ATOM     12  C   UNL A   1      32.124  27.695  24.140  1.00  0.00     0.066 A 
ATOM     13  O   UNL A   1      31.502  26.164  20.916  1.00  0.00    -0.274 OA
ATOM     14  C   UNL A   1      32.545  25.186  22.788  1.00  0.00     0.120 C 
ATOM     15  C   UNL A   1      33.191  26.853  24.550  1.00  0.00    -0.008 A 
ATOM     16  C   UNL A   1      31.839  28.813  24.972  1.00  0.00     0.065 A 
ATOM     17  C   UNL A   1      33.923  27.133  25.727  1.00  0.00     0.007 A 
ATOM     18  C   UNL A   1      32.559  29.040  26.159  1.00  0.00     0.023 A 
ATOM     19  Cl  UNL A   1      30.683  30.064  24.647  1.00  0.00    -0.082 Cl
ATOM     20  C   UNL A   1      33.597  28.205  26.537  1.00  0.00     0.002 A 
ENDBRANCH   6   8
ENDBRANCH   5   6
ENDBRANCH   4   5
ENDBRANCH   3   4
ENDBRANCH   2   3
ENDBRANCH   1   2
BRANCH   1  21
ATOM     21  C   UNL A   1      37.295  20.265  25.000  1.00  0.00     0.261 C 
BRANCH  21  22
ATOM     22  O   UNL A   1      38.280  21.310  25.109  1.00  0.00    -0.460 OA
BRANCH  22  23
ATOM     23  C   UNL A   1      39.267  21.073  25.999  1.00  0.00     0.338 C 
ATOM     24  O   UNL A   1      39.911  20.036  26.132  1.00  0.00    -0.246 OA
BRANCH  23  25
ATOM     25  C   UNL A   1      39.629  22.312  26.703  1.00  0.00     0.060 A 
ATOM     26  C   UNL A   1      38.907  23.472  26.388  1.00  0.00     0.016 A 
ATOM     27  C   UNL A   1      40.727  22.367  27.566  1.00  0.00     0.016 A 
ATOM     28  C   UNL A   1      39.316  24.703  26.890  1.00  0.00     0.010 A 
ATOM     29  C   UNL A   1      41.147  23.610  28.053  1.00  0.00     0.010 A 
ATOM     30  C   UNL A   1      40.469  24.784  27.680  1.00  0.00    -0.014 A 
BRANCH  30  31
ATOM     31  C   UNL A   1      41.068  26.113  27.944  1.00  0.00     0.031 A 
ATOM     32  C   UNL A   1      42.467  26.381  27.459  1.00  0.00     0.074 A 
ATOM     33  C   UNL A   1      40.371  27.073  28.575  1.00  0.00     0.049 A 
ATOM     34  N   UNL A   1      43.183  27.467  27.570  1.00  0.00    -0.248 NA
ATOM     35  C   UNL A   1      43.143  25.283  26.746  1.00  0.00     0.031 C 
ATOM     36  C   UNL A   1      39.001  26.940  29.066  1.00  0.00     0.029 A 
ATOM     37  N   UNL A   1      40.731  28.352  28.919  1.00  0.00    -0.354 N 
ATOM     38  C   UNL A   1      44.396  27.183  26.954  1.00  0.00     0.074 A 
ATOM     39  C   UNL A   1      44.324  25.820  26.477  1.00  0.00     0.031 C 
ATOM     40  C   UNL A   1      38.640  28.089  29.665  1.00  0.00     0.029 A 
ATOM     41  C   UNL A   1      39.758  29.029  29.613  1.00  0.00     0.049 A 
ATOM     42  H   UNL A   1      41.603  28.746  28.688  1.00  0.00     0.167 HD
ATOM     43  C   UNL A   1      45.466  27.991  26.783  1.00  0.00     0.034 A 
ATOM     44  C   UNL A   1      39.774  30.264  30.152  1.00  0.00     0.034 A 
ATOM     45  C   UNL A   1      45.534  29.350  27.241  1.00  0.00     0.049 A 
ATOM     46  C   UNL A   1      40.997  31.127  29.993  1.00  0.00     0.074 A 
ATOM     47  C   UNL A   1      46.570  30.254  27.093  1.00  0.00     0.029 A 
ATOM     48  N   UNL A   1      44.529  29.998  27.940  1.00  0.00    -0.354 N 
ATOM     49  N   UNL A   1      42.103  30.873  29.339  1.00  0.00    -0.248 NA
ATOM     50  C   UNL A   1      40.968  32.455  30.628  1.00  0.00     0.031 C 
ATOM     51  C   UNL A   1      46.194  31.450  27.711  1.00  0.00     0.029 A 
ATOM     52  C   UNL A   1      44.922  31.290  28.236  1.00  0.00     0.049 A 
ATOM     53  H   UNL A   1      43.665  29.598  28.189  1.00  0.00     0.167 HD
ATOM     54  C   UNL A   1      42.890  32.013  29.460  1.00  0.00     0.074 A 
ATOM     55  C   UNL A   1      42.131  32.965  30.243  1.00  0.00     0.031 C 
ATOM     56  C   UNL A   1      44.134  32.243  28.974  1.00  0.00     0.034 A 
BRANCH  43  57
ATOM     57  C   UNL A   1      46.643  27.447  26.027  1.00  0.00     0.023 A 
ATOM     58  C   UNL A   1      46.707  27.634  24.632  1.00  0.00     0.012 A 
ATOM     59  C   UNL A   1      47.719  26.835  26.699  1.00  0.00     0.148 A 
ATOM     60  C   UNL A   1      47.823  27.214  23.913  1.00  0.00     0.002 A 
ATOM     61  C   UNL A   1      48.840  26.442  25.978  1.00  0.00     0.091 A 
ATOM     62  F   UNL A   1      47.624  26.655  28.023  1.00  0.00    -0.205 F 
ATOM     63  C   UNL A   1      48.892  26.627  24.586  1.00  0.00     0.022 A 
BRANCH  61  64
ATOM     64  S   UNL A   1      50.293  25.723  26.752  1.00  0.00     0.127 S 
ATOM     65  O   UNL A   1      49.764  24.454  27.249  1.00  0.00    -0.237 OA
ATOM     66  O   UNL A   1      51.213  25.601  25.622  1.00  0.00    -0.237 OA
ATOM     67  O   UNL A   1      50.709  26.664  27.782  1.00  0.00    -0.744 OA
ENDBRANCH  61  64
ENDBRANCH  43  57
BRANCH  44  68
ATOM     68  C   UNL A   1      38.565  30.773  30.853  1.00  0.00     0.023 A 
ATOM     69  C   UNL A   1      38.473  30.639  32.251  1.00  0.00     0.012 A 
ATOM     70  C   UNL A   1      37.536  31.430  30.151  1.00  0.00     0.148 A 
ATOM     71  C   UNL A   1      37.371  31.147  32.941  1.00  0.00     0.002 A 
ATOM     72  C   UNL A   1      36.460  31.967  30.848  1.00  0.00     0.091 A 
ATOM     73  F   UNL A   1      37.645  31.536  28.820  1.00  0.00    -0.205 F 
ATOM     74  C   UNL A   1      36.370  31.818  32.242  1.00  0.00     0.022 A 
BRANCH  72  75
ATOM     75  S   UNL A   1      35.170  32.932  30.053  1.00  0.00     0.127 S 
ATOM     76  O   UNL A   1      34.596  31.959  29.127  1.00  0.00    -0.237 OA
ATOM     77  O   UNL A   1      34.317  33.281  31.189  1.00  0.00    -0.237 OA
ATOM     78  O   UNL A   1      35.846  34.063  29.433  1.00  0.00    -0.744 OA
ENDBRANCH  72  75
ENDBRANCH  44  68
BRANCH  56  79
ATOM     79  C   UNL A   1      44.773  33.576  29.251  1.00  0.00     0.023 A 
ATOM     80  C   UNL A   1      45.568  33.731  30.403  1.00  0.00     0.012 A 
ATOM     81  C   UNL A   1      44.707  34.616  28.304  1.00  0.00     0.148 A 
ATOM     82  C   UNL A   1      46.287  34.906  30.610  1.00  0.00     0.002 A 
ATOM     83  C   UNL A   1      45.452  35.772  28.501  1.00  0.00     0.091 A 
ATOM     84  F   UNL A   1      43.937  34.442  27.220  1.00  0.00    -0.205 F 
ATOM     85  C   UNL A   1      46.239  35.920  29.655  1.00  0.00     0.022 A 
BRANCH  83  86
ATOM     86  S   UNL A   1      45.520  37.099  27.293  1.00  0.00     0.127 S 
ATOM     87  O   UNL A   1      46.374  38.075  27.970  1.00  0.00    -0.237 OA
ATOM     88  O   UNL A   1      46.141  36.439  26.144  1.00  0.00    -0.237 OA
ATOM     89  O   UNL A   1      44.143  37.524  27.079  1.00  0.00    -0.744 OA
ENDBRANCH  83  86
ENDBRANCH  56  79
ENDBRANCH  30  31
ENDBRANCH  23  25
ENDBRANCH  22  23
ENDBRANCH  21  22
ENDBRANCH   1  21
TORSDOF 17
ENDMDL
MODEL 2
REMARK VINA RESULT:     -11.5      1.417      7.743
REMARK SMILES CN1C(=O)C[C@H](C(=O)OCCOCCOC(=O)c2ccc(-c3c4nc(c(-c5cccc(S(=O)(=O)[O-])c5F)c5ccc([nH]5)c(-c5cccc(S(=O)(=O)[O-])c5F)c5nc(c(-c6cccc(S(=O)(=O)[O-])c6F)c6ccc3[nH]6)C=C5)C=C4)cc2)c2cccc(Cl)c21
REMARK SMILES IDX 13 1 12 2 11 3 10 4 9 5 7 6 8 7 6 8 1 9 2 10 3 11 87 12 4 13
REMARK SMILES IDX 5 14 81 15 85 16 82 17 84 18 86 19 83 20 14 21 15 22 16 23
REMARK SMILES IDX 17 24 18 25 19 26 80 27 20 28 79 29 21 30 22 31 23 32 73 33
REMARK SMILES IDX 24 34 78 35 72 36 74 37 25 38 77 39 71 40 70 41 26 43 58 44
REMARK SMILES IDX 38 45 57 46 39 47 42 48 56 49 75 50 40 51 41 52 55 54 76 55
REMARK SMILES IDX 43 56 27 57 28 58 36 59 29 60 31 61 37 62 30 63 32 64 33 65
REMARK SMILES IDX 34 66 35 67 59 68 60 69 68 70 61 71 63 72 69 73 62 74 64 75
REMARK SMILES IDX 65 76 66 77 67 78 44 79 45 80 53 81 46 82 48 83 54 84 47 85
REMARK SMILES IDX 49 86 50 87 51 88 52 89
REMARK H PARENT 74 42 42 53
REMARK Flexibility Score: inf
ROOT
ATOM      1  C   UNL A   1      35.297  21.257  25.345  1.00  0.00     0.202 C 
ENDROOT
BRANCH   1   2
ATOM      2  O   UNL A   1      35.264  22.051  26.531  1.00  0.00    -0.374 OA
BRANCH   2   3
ATOM      3  C   UNL A   1      34.074  22.797  26.777  1.00  0.00     0.202 C 
BRANCH   3   4
ATOM      4  C   UNL A   1      33.190  23.079  25.559  1.00  0.00     0.261 C 
BRANCH   4   5
ATOM      5  O   UNL A   1      32.965  24.486  25.363  1.00  0.00    -0.463 OA
BRANCH   5   6
ATOM      6  C   UNL A   1      33.840  25.133  24.547  1.00  0.00     0.314 C 
ATOM      7  O   UNL A   1      34.981  24.756  24.302  1.00  0.00    -0.252 OA
BRANCH   6   8
ATOM      8  C   UNL A   1      33.263  26.433  23.998  1.00  0.00     0.140 C 
ATOM      9  C   UNL A   1      30.198  29.459  23.685  1.00  0.00     0.153 C 
ATOM     10  N   UNL A   1      31.246  28.470  23.868  1.00  0.00    -0.314 N 
ATOM     11  C   UNL A   1      31.248  27.434  22.940  1.00  0.00     0.227 C 
ATOM     12  C   UNL A   1      32.213  28.561  24.941  1.00  0.00     0.066 A 
ATOM     13  O   UNL A   1      30.645  27.465  21.864  1.00  0.00    -0.274 OA
ATOM     14  C   UNL A   1      31.920  26.169  23.362  1.00  0.00     0.120 C 
ATOM     15  C   UNL A   1      33.200  27.545  25.026  1.00  0.00    -0.008 A 
ATOM     16  C   UNL A   1      32.301  29.617  25.890  1.00  0.00     0.065 A 
ATOM     17  C   UNL A   1      34.215  27.601  26.009  1.00  0.00     0.007 A 
ATOM     18  C   UNL A   1      33.299  29.621  26.882  1.00  0.00     0.023 A 
ATOM     19  Cl  UNL A   1      31.312  31.039  25.936  1.00  0.00    -0.082 Cl
ATOM     20  C   UNL A   1      34.252  28.619  26.944  1.00  0.00     0.002 A 
ENDBRANCH   6   8
ENDBRANCH   5   6
ENDBRANCH   4   5
ENDBRANCH   3   4
ENDBRANCH   2   3
ENDBRANCH   1   2
BRANCH   1  21
ATOM     21  C   UNL A   1      36.610  20.530  25.041  1.00  0.00     0.261 C 
BRANCH  21  22
ATOM     22  O   UNL A   1      37.725  21.441  24.980  1.00  0.00    -0.460 OA
BRANCH  22  23
ATOM     23  C   UNL A   1      38.772  21.114  25.767  1.00  0.00     0.338 C 
ATOM     24  O   UNL A   1      39.356  20.035  25.812  1.00  0.00    -0.246 OA
BRANCH  23  25
ATOM     25  C   UNL A   1      39.278  22.305  26.467  1.00  0.00     0.060 A 
ATOM     26  C   UNL A   1      38.680  23.537  26.165  1.00  0.00     0.016 A 
ATOM     27  C   UNL A   1      40.389  22.238  27.312  1.00  0.00     0.016 A 
ATOM     28  C   UNL A   1      39.228  24.714  26.662  1.00  0.00     0.010 A 
ATOM     29  C   UNL A   1      40.948  23.427  27.793  1.00  0.00     0.010 A 
ATOM     30  C   UNL A   1      40.396  24.668  27.433  1.00  0.00    -0.014 A 
BRANCH  30  31
ATOM     31  C   UNL A   1      41.139  25.923  27.688  1.00  0.00     0.031 A 
ATOM     32  C   UNL A   1      40.458  27.018  28.463  1.00  0.00     0.074 A 
ATOM     33  C   UNL A   1      42.407  26.076  27.268  1.00  0.00     0.049 A 
ATOM     34  N   UNL A   1      40.916  28.191  28.809  1.00  0.00    -0.248 NA
ATOM     35  C   UNL A   1      39.081  26.752  28.916  1.00  0.00     0.031 C 
ATOM     36  C   UNL A   1      43.179  25.076  26.533  1.00  0.00     0.029 A 
ATOM     37  N   UNL A   1      43.262  27.141  27.393  1.00  0.00    -0.354 N 
ATOM     38  C   UNL A   1      39.885  28.807  29.508  1.00  0.00     0.074 A 
ATOM     39  C   UNL A   1      38.773  27.884  29.532  1.00  0.00     0.031 C 
ATOM     40  C   UNL A   1      44.394  25.583  26.256  1.00  0.00     0.029 A 
ATOM     41  C   UNL A   1      44.476  26.945  26.780  1.00  0.00     0.049 A 
ATOM     42  H   UNL A   1      43.028  27.965  27.877  1.00  0.00     0.167 HD
ATOM     43  C   UNL A   1      39.873  30.025  30.096  1.00  0.00     0.034 A 
ATOM     44  C   UNL A   1      45.529  27.777  26.650  1.00  0.00     0.034 A 
ATOM     45  C   UNL A   1      40.982  30.937  30.088  1.00  0.00     0.049 A 
ATOM     46  C   UNL A   1      45.472  29.148  27.268  1.00  0.00     0.074 A 
ATOM     47  C   UNL A   1      41.069  32.186  30.676  1.00  0.00     0.029 A 
ATOM     48  N   UNL A   1      42.192  30.703  29.456  1.00  0.00    -0.354 N 
ATOM     49  N   UNL A   1      44.522  29.684  27.994  1.00  0.00    -0.248 NA
ATOM     50  C   UNL A   1      46.640  30.022  27.069  1.00  0.00     0.031 C 
ATOM     51  C   UNL A   1      42.332  32.711  30.393  1.00  0.00     0.029 A 
ATOM     52  C   UNL A   1      43.032  31.786  29.635  1.00  0.00     0.049 A 
ATOM     53  H   UNL A   1      42.419  29.887  28.954  1.00  0.00     0.167 HD
ATOM     54  C   UNL A   1      44.984  30.943  28.359  1.00  0.00     0.074 A 
ATOM     55  C   UNL A   1      46.303  31.090  27.782  1.00  0.00     0.031 C 
ATOM     56  C   UNL A   1      44.363  31.895  29.097  1.00  0.00     0.034 A 
BRANCH  43  57
ATOM     57  C   UNL A   1      38.636  30.432  30.841  1.00  0.00     0.023 A 
ATOM     58  C   UNL A   1      38.537  30.140  32.216  1.00  0.00     0.012 A 
ATOM     59  C   UNL A   1      37.619  31.175  30.211  1.00  0.00     0.148 A 
ATOM     60  C   UNL A   1      37.440  30.576  32.954  1.00  0.00     0.002 A 
ATOM     61  C   UNL A   1      36.540  31.629  30.961  1.00  0.00     0.091 A 
ATOM     62  F   UNL A   1      37.730  31.425  28.899  1.00  0.00    -0.205 F 
ATOM     63  C   UNL A   1      36.447  31.327  32.330  1.00  0.00     0.022 A 
BRANCH  61  64
ATOM     64  S   UNL A   1      35.232  32.646  30.267  1.00  0.00     0.127 S 
ATOM     65  O   UNL A   1      34.339  32.801  31.415  1.00  0.00    -0.237 OA
ATOM     66  O   UNL A   1      35.956  33.859  29.888  1.00  0.00    -0.237 OA
ATOM     67  O   UNL A   1      34.680  31.889  29.152  1.00  0.00    -0.744 OA
ENDBRANCH  61  64
ENDBRANCH  43  57
BRANCH  44  68
ATOM     68  C   UNL A   1      46.749  27.308  25.939  1.00  0.00     0.023 A 
ATOM     69  C   UNL A   1      47.626  26.420  26.591  1.00  0.00     0.012 A 
ATOM     70  C   UNL A   1      47.014  27.693  24.611  1.00  0.00     0.148 A 
ATOM     71  C   UNL A   1      48.754  25.929  25.933  1.00  0.00     0.002 A 
ATOM     72  C   UNL A   1      48.118  27.169  23.948  1.00  0.00     0.091 A 
ATOM     73  F   UNL A   1      46.167  28.544  24.017  1.00  0.00    -0.205 F 
ATOM     74  C   UNL A   1      48.995  26.295  24.611  1.00  0.00     0.022 A 
BRANCH  72  75
ATOM     75  S   UNL A   1      48.461  27.502  22.217  1.00  0.00     0.127 S 
ATOM     76  O   UNL A   1      48.653  26.155  21.685  1.00  0.00    -0.237 OA
ATOM     77  O   UNL A   1      47.227  28.164  21.792  1.00  0.00    -0.237 OA
ATOM     78  O   UNL A   1      49.642  28.355  22.204  1.00  0.00    -0.744 OA
ENDBRANCH  72  75
ENDBRANCH  44  68
BRANCH  56  79
ATOM     79  C   UNL A   1      45.088  33.189  29.348  1.00  0.00     0.023 A 
ATOM     80  C   UNL A   1      45.993  33.272  30.422  1.00  0.00     0.012 A 
ATOM     81  C   UNL A   1      44.982  34.261  28.440  1.00  0.00     0.148 A 
ATOM     82  C   UNL A   1      46.784  34.407  30.592  1.00  0.00     0.002 A 
ATOM     83  C   UNL A   1      45.796  35.375  28.596  1.00  0.00     0.091 A 
ATOM     84  F   UNL A   1      44.106  34.156  27.430  1.00  0.00    -0.205 F 
ATOM     85  C   UNL A   1      46.695  35.452  29.674  1.00  0.00     0.022 A 
BRANCH  83  86
ATOM     86  S   UNL A   1      45.813  36.736  27.424  1.00  0.00     0.127 S 
ATOM     87  O   UNL A   1      46.518  36.142  26.288  1.00  0.00    -0.237 OA
ATOM     88  O   UNL A   1      44.385  36.968  27.201  1.00  0.00    -0.237 OA
ATOM     89  O   UNL A   1      46.511  37.831  28.083  1.00  0.00    -0.744 OA
ENDBRANCH  83  86
ENDBRANCH  56  79
ENDBRANCH  30  31
ENDBRANCH  23  25
ENDBRANCH  22  23
ENDBRANCH  21  22
ENDBRANCH   1  21
TORSDOF 17
ENDMDL
MODEL 3
REMARK VINA RESULT:     -11.3      0.943      8.011
REMARK SMILES CN1C(=O)C[C@H](C(=O)OCCOCCOC(=O)c2ccc(-c3c4nc(c(-c5cccc(S(=O)(=O)[O-])c5F)c5ccc([nH]5)c(-c5cccc(S(=O)(=O)[O-])c5F)c5nc(c(-c6cccc(S(=O)(=O)[O-])c6F)c6ccc3[nH]6)C=C5)C=C4)cc2)c2cccc(Cl)c21
REMARK SMILES IDX 13 1 12 2 11 3 10 4 9 5 7 6 8 7 6 8 1 9 2 10 3 11 87 12 4 13
REMARK SMILES IDX 5 14 81 15 85 16 82 17 84 18 86 19 83 20 14 21 15 22 16 23
REMARK SMILES IDX 17 24 18 25 19 26 80 27 20 28 79 29 21 30 22 31 23 32 73 33
REMARK SMILES IDX 24 34 78 35 72 36 74 37 25 38 77 39 71 40 70 41 26 43 58 44
REMARK SMILES IDX 38 45 57 46 39 47 42 48 56 49 75 50 40 51 41 52 55 54 76 55
REMARK SMILES IDX 43 56 27 57 28 58 36 59 29 60 31 61 37 62 30 63 32 64 33 65
REMARK SMILES IDX 34 66 35 67 59 68 60 69 68 70 61 71 63 72 69 73 62 74 64 75
REMARK SMILES IDX 65 76 66 77 67 78 44 79 45 80 53 81 46 82 48 83 54 84 47 85
REMARK SMILES IDX 49 86 50 87 51 88 52 89
REMARK H PARENT 74 42 42 53
REMARK Flexibility Score: inf
ROOT
ATOM      1  C   UNL A   1      35.395  20.821  25.043  1.00  0.00     0.202 C 
ENDROOT
BRANCH   1   2
ATOM      2  O   UNL A   1      34.906  21.229  26.320  1.00  0.00    -0.374 OA
BRANCH   2   3
ATOM      3  C   UNL A   1      33.510  21.503  26.420  1.00  0.00     0.202 C 
BRANCH   3   4
ATOM      4  C   UNL A   1      33.026  22.794  25.755  1.00  0.00     0.261 C 
BRANCH   4   5
ATOM      5  O   UNL A   1      33.496  23.969  26.436  1.00  0.00    -0.463 OA
BRANCH   5   6
ATOM      6  C   UNL A   1      33.785  25.047  25.657  1.00  0.00     0.314 C 
ATOM      7  O   UNL A   1      34.633  25.067  24.772  1.00  0.00    -0.252 OA
BRANCH   6   8
ATOM      8  C   UNL A   1      32.966  26.273  26.043  1.00  0.00     0.140 C 
ATOM      9  C   UNL A   1      31.740  30.389  25.585  1.00  0.00     0.153 C 
ATOM     10  N   UNL A   1      32.111  28.987  25.668  1.00  0.00    -0.314 N 
ATOM     11  C   UNL A   1      33.126  28.697  26.573  1.00  0.00     0.227 C 
ATOM     12  C   UNL A   1      31.466  27.971  24.863  1.00  0.00     0.066 A 
ATOM     13  O   UNL A   1      33.495  29.461  27.468  1.00  0.00    -0.274 OA
ATOM     14  C   UNL A   1      33.886  27.434  26.333  1.00  0.00     0.120 C 
ATOM     15  C   UNL A   1      31.900  26.629  25.027  1.00  0.00    -0.008 A 
ATOM     16  C   UNL A   1      30.389  28.187  23.960  1.00  0.00     0.065 A 
ATOM     17  C   UNL A   1      31.274  25.575  24.321  1.00  0.00     0.007 A 
ATOM     18  C   UNL A   1      29.817  27.122  23.241  1.00  0.00     0.023 A 
ATOM     19  Cl  UNL A   1      29.585  29.695  23.667  1.00  0.00    -0.082 Cl
ATOM     20  C   UNL A   1      30.255  25.821  23.418  1.00  0.00     0.002 A 
ENDBRANCH   6   8
ENDBRANCH   5   6
ENDBRANCH   4   5
ENDBRANCH   3   4
ENDBRANCH   2   3
ENDBRANCH   1   2
BRANCH   1  21
ATOM     21  C   UNL A   1      36.821  20.262  24.999  1.00  0.00     0.261 C 
BRANCH  21  22
ATOM     22  O   UNL A   1      37.808  21.310  25.060  1.00  0.00    -0.460 OA
BRANCH  22  23
ATOM     23  C   UNL A   1      38.891  21.029  25.816  1.00  0.00     0.338 C 
ATOM     24  O   UNL A   1      39.524  19.978  25.841  1.00  0.00    -0.246 OA
BRANCH  23  25
ATOM     25  C   UNL A   1      39.362  22.241  26.504  1.00  0.00     0.060 A 
ATOM     26  C   UNL A   1      38.792  23.465  26.126  1.00  0.00     0.016 A 
ATOM     27  C   UNL A   1      40.422  22.198  27.414  1.00  0.00     0.016 A 
ATOM     28  C   UNL A   1      39.316  24.656  26.615  1.00  0.00     0.010 A 
ATOM     29  C   UNL A   1      40.960  23.400  27.887  1.00  0.00     0.010 A 
ATOM     30  C   UNL A   1      40.437  24.631  27.454  1.00  0.00    -0.014 A 
BRANCH  30  31
ATOM     31  C   UNL A   1      41.172  25.891  27.710  1.00  0.00     0.031 A 
ATOM     32  C   UNL A   1      40.481  26.984  28.479  1.00  0.00     0.074 A 
ATOM     33  C   UNL A   1      42.441  26.049  27.296  1.00  0.00     0.049 A 
ATOM     34  N   UNL A   1      40.931  28.160  28.825  1.00  0.00    -0.248 NA
ATOM     35  C   UNL A   1      39.103  26.711  28.926  1.00  0.00     0.031 C 
ATOM     36  C   UNL A   1      43.223  25.052  26.567  1.00  0.00     0.029 A 
ATOM     37  N   UNL A   1      43.290  27.119  27.423  1.00  0.00    -0.354 N 
ATOM     38  C   UNL A   1      39.893  28.771  29.518  1.00  0.00     0.074 A 
ATOM     39  C   UNL A   1      38.786  27.842  29.538  1.00  0.00     0.031 C 
ATOM     40  C   UNL A   1      44.436  25.566  26.295  1.00  0.00     0.029 A 
ATOM     41  C   UNL A   1      44.508  26.929  26.817  1.00  0.00     0.049 A 
ATOM     42  H   UNL A   1      43.049  27.943  27.904  1.00  0.00     0.167 HD
ATOM     43  C   UNL A   1      39.871  29.991  30.102  1.00  0.00     0.034 A 
ATOM     44  C   UNL A   1      45.557  27.766  26.690  1.00  0.00     0.034 A 
ATOM     45  C   UNL A   1      40.975  30.909  30.098  1.00  0.00     0.049 A 
ATOM     46  C   UNL A   1      45.489  29.139  27.305  1.00  0.00     0.074 A 
ATOM     47  C   UNL A   1      41.052  32.159  30.684  1.00  0.00     0.029 A 
ATOM     48  N   UNL A   1      42.190  30.680  29.473  1.00  0.00    -0.354 N 
ATOM     49  N   UNL A   1      44.533  29.670  28.025  1.00  0.00    -0.248 NA
ATOM     50  C   UNL A   1      46.653  30.019  27.109  1.00  0.00     0.031 C 
ATOM     51  C   UNL A   1      42.314  32.691  30.407  1.00  0.00     0.029 A 
ATOM     52  C   UNL A   1      43.023  31.767  29.654  1.00  0.00     0.049 A 
ATOM     53  H   UNL A   1      42.424  29.864  28.974  1.00  0.00     0.167 HD
ATOM     54  C   UNL A   1      44.985  30.934  28.389  1.00  0.00     0.074 A 
ATOM     55  C   UNL A   1      46.307  31.086  27.819  1.00  0.00     0.031 C 
ATOM     56  C   UNL A   1      44.355  31.883  29.122  1.00  0.00     0.034 A 
BRANCH  43  57
ATOM     57  C   UNL A   1      38.628  30.392  30.841  1.00  0.00     0.023 A 
ATOM     58  C   UNL A   1      38.499  30.050  32.202  1.00  0.00     0.012 A 
ATOM     59  C   UNL A   1      37.637  31.177  30.222  1.00  0.00     0.148 A 
ATOM     60  C   UNL A   1      37.397  30.478  32.937  1.00  0.00     0.002 A 
ATOM     61  C   UNL A   1      36.552  31.622  30.969  1.00  0.00     0.091 A 
ATOM     62  F   UNL A   1      37.777  31.474  28.923  1.00  0.00    -0.205 F 
ATOM     63  C   UNL A   1      36.429  31.271  32.324  1.00  0.00     0.022 A 
BRANCH  61  64
ATOM     64  S   UNL A   1      35.276  32.689  30.292  1.00  0.00     0.127 S 
ATOM     65  O   UNL A   1      34.788  31.890  29.169  1.00  0.00    -0.237 OA
ATOM     66  O   UNL A   1      34.343  32.801  31.413  1.00  0.00    -0.237 OA
ATOM     67  O   UNL A   1      35.941  33.931  29.923  1.00  0.00    -0.744 OA
ENDBRANCH  61  64
ENDBRANCH  43  57
BRANCH  44  68
ATOM     68  C   UNL A   1      46.783  27.302  25.986  1.00  0.00     0.023 A 
ATOM     69  C   UNL A   1      46.922  27.553  24.608  1.00  0.00     0.012 A 
ATOM     70  C   UNL A   1      47.828  26.665  26.683  1.00  0.00     0.148 A 
ATOM     71  C   UNL A   1      48.080  27.170  23.931  1.00  0.00     0.002 A 
ATOM     72  C   UNL A   1      48.994  26.320  26.011  1.00  0.00     0.091 A 
ATOM     73  F   UNL A   1      47.666  26.431  27.992  1.00  0.00    -0.205 F 
ATOM     74  C   UNL A   1      49.119  26.562  24.633  1.00  0.00     0.022 A 
BRANCH  72  75
ATOM     75  S   UNL A   1      50.426  25.623  26.843  1.00  0.00     0.127 S 
ATOM     76  O   UNL A   1      51.346  25.410  25.728  1.00  0.00    -0.237 OA
ATOM     77  O   UNL A   1      50.798  26.708  27.752  1.00  0.00    -0.237 OA
ATOM     78  O   UNL A   1      49.952  24.415  27.503  1.00  0.00    -0.744 OA
ENDBRANCH  72  75
ENDBRANCH  44  68
BRANCH  56  79
ATOM     79  C   UNL A   1      45.072  33.182  29.374  1.00  0.00     0.023 A 
ATOM     80  C   UNL A   1      45.908  33.298  30.500  1.00  0.00     0.012 A 
ATOM     81  C   UNL A   1      45.032  34.222  28.425  1.00  0.00     0.148 A 
ATOM     82  C   UNL A   1      46.694  34.434  30.680  1.00  0.00     0.002 A 
ATOM     83  C   UNL A   1      45.842  35.337  28.594  1.00  0.00     0.091 A 
ATOM     84  F   UNL A   1      44.221  34.085  27.365  1.00  0.00    -0.205 F 
ATOM     85  C   UNL A   1      46.671  35.447  29.723  1.00  0.00     0.022 A 
BRANCH  83  86
ATOM     86  S   UNL A   1      45.942  36.656  27.379  1.00  0.00     0.127 S 
ATOM     87  O   UNL A   1      44.667  37.344  27.581  1.00  0.00    -0.237 OA
ATOM     88  O   UNL A   1      47.116  37.403  27.830  1.00  0.00    -0.237 OA
ATOM     89  O   UNL A   1      46.095  36.005  26.085  1.00  0.00    -0.744 OA
ENDBRANCH  83  86
ENDBRANCH  56  79
ENDBRANCH  30  31
ENDBRANCH  23  25
ENDBRANCH  22  23
ENDBRANCH  21  22
ENDBRANCH   1  21
TORSDOF 17
ENDMDL
