MODEL 1
REMARK VINA RESULT:     -10.6      0.000      0.000
REMARK SMILES [NH3+][C@H](CC(F)(F)C(F)(F)C(F)(F)C(F)(F)Cl)C(=O)OCCOCCOC(=O)c1ccc(-c2c3nc(c(-c4cccc(S(=O)(=O)[O-])c4F)c4ccc([nH]4)c(-c4cccc(S(=O)(=O)[O-])c4F)c4nc(c(-c5cccc(S(=O)(=O)[O-])c5F)c5ccc2[nH]5)C=C4)C=C3)cc1
REMARK SMILES IDX 21 1 20 2 19 3 17 4 18 5 2 6 1 7 3 11 4 12 5 13 6 14 7 15
REMARK SMILES IDX 8 16 9 17 10 18 11 19 12 20 13 21 14 22 15 23 16 24 22 25
REMARK SMILES IDX 23 26 24 27 25 28 26 29 27 30 28 31 29 32 90 33 30 34 89 35
REMARK SMILES IDX 31 36 32 37 33 38 83 39 34 40 88 41 82 42 84 43 35 44 87 45
REMARK SMILES IDX 81 46 80 47 36 49 68 50 48 51 67 52 49 53 52 54 66 55 85 56
REMARK SMILES IDX 50 57 51 58 65 60 86 61 53 62 37 63 38 64 46 65 39 66 41 67
REMARK SMILES IDX 47 68 40 69 42 70 43 71 44 72 45 73 69 74 70 75 78 76 71 77
REMARK SMILES IDX 73 78 79 79 72 80 74 81 75 82 76 83 77 84 54 85 55 86 63 87
REMARK SMILES IDX 56 88 58 89 64 90 57 91 59 92 60 93 61 94 62 95
REMARK H PARENT 1 8 1 9 1 10 84 48 52 59
REMARK Flexibility Score: inf
ROOT
ATOM      1  C   UNL A   1      32.906  30.074  26.222  1.00  0.00     0.202 C 
ENDROOT
BRANCH   1   2
ATOM      2  C   UNL A   1      33.169  28.602  26.547  1.00  0.00     0.261 C 
BRANCH   2   3
ATOM      3  O   UNL A   1      32.364  27.682  25.794  1.00  0.00    -0.459 OA
BRANCH   3   4
ATOM      4  C   UNL A   1      32.784  27.500  24.511  1.00  0.00     0.365 C 
ATOM      5  O   UNL A   1      33.814  26.922  24.182  1.00  0.00    -0.245 OA
BRANCH   4   6
ATOM      6  C   UNL A   1      31.823  28.112  23.488  1.00  0.00     0.298 C 
BRANCH   6   7
ATOM      7  N   UNL A   1      32.468  29.246  22.805  1.00  0.00    -0.346 N 
ATOM      8  H   UNL A   1      33.119  29.701  23.444  1.00  0.00     0.345 HD
ATOM      9  H   UNL A   1      31.756  29.914  22.511  1.00  0.00     0.345 HD
ATOM     10  H   UNL A   1      32.975  28.906  21.988  1.00  0.00     0.345 HD
ENDBRANCH   6   7
BRANCH   6  11
ATOM     11  C   UNL A   1      30.449  28.496  24.048  1.00  0.00     0.161 C 
BRANCH  11  12
ATOM     12  C   UNL A   1      29.308  28.325  23.039  1.00  0.00     0.323 C 
ATOM     13  F   UNL A   1      29.863  27.977  21.844  1.00  0.00    -0.199 F 
ATOM     14  F   UNL A   1      28.579  27.242  23.430  1.00  0.00    -0.199 F 
BRANCH  12  15
ATOM     15  C   UNL A   1      28.396  29.538  22.861  1.00  0.00     0.379 C 
ATOM     16  F   UNL A   1      27.684  29.399  21.708  1.00  0.00    -0.192 F 
ATOM     17  F   UNL A   1      27.472  29.569  23.859  1.00  0.00    -0.192 F 
BRANCH  15  18
ATOM     18  C   UNL A   1      29.156  30.844  22.867  1.00  0.00     0.392 C 
ATOM     19  F   UNL A   1      29.866  30.982  24.025  1.00  0.00    -0.191 F 
ATOM     20  F   UNL A   1      30.071  30.879  21.861  1.00  0.00    -0.191 F 
BRANCH  18  21
ATOM     21  C   UNL A   1      28.156  31.991  22.737  1.00  0.00     0.390 C 
ATOM     22  F   UNL A   1      27.674  32.084  21.471  1.00  0.00    -0.181 F 
ATOM     23  F   UNL A   1      27.076  31.794  23.541  1.00  0.00    -0.181 F 
ATOM     24  Cl  UNL A   1      28.875  33.564  23.178  1.00  0.00    -0.041 Cl
ENDBRANCH  18  21
ENDBRANCH  15  18
ENDBRANCH  12  15
ENDBRANCH  11  12
ENDBRANCH   6  11
ENDBRANCH   4   6
ENDBRANCH   3   4
ENDBRANCH   2   3
ENDBRANCH   1   2
BRANCH   1  25
ATOM     25  O   UNL A   1      32.344  30.889  27.246  1.00  0.00    -0.374 OA
BRANCH  25  26
ATOM     26  C   UNL A   1      31.539  31.997  26.843  1.00  0.00     0.202 C 
BRANCH  26  27
ATOM     27  C   UNL A   1      32.204  33.378  26.843  1.00  0.00     0.261 C 
BRANCH  27  28
ATOM     28  O   UNL A   1      32.563  33.799  28.173  1.00  0.00    -0.460 OA
BRANCH  28  29
ATOM     29  C   UNL A   1      33.757  34.430  28.271  1.00  0.00     0.338 C 
ATOM     30  O   UNL A   1      33.956  35.638  28.268  1.00  0.00    -0.246 OA
BRANCH  29  31
ATOM     31  C   UNL A   1      34.812  33.455  28.595  1.00  0.00     0.060 A 
ATOM     32  C   UNL A   1      34.440  32.283  29.269  1.00  0.00     0.016 A 
ATOM     33  C   UNL A   1      36.153  33.724  28.319  1.00  0.00     0.016 A 
ATOM     34  C   UNL A   1      35.414  31.396  29.719  1.00  0.00     0.010 A 
ATOM     35  C   UNL A   1      37.129  32.840  28.783  1.00  0.00     0.010 A 
ATOM     36  C   UNL A   1      36.765  31.697  29.518  1.00  0.00    -0.014 A 
BRANCH  36  37
ATOM     37  C   UNL A   1      37.815  30.921  30.218  1.00  0.00     0.031 A 
ATOM     38  C   UNL A   1      38.147  31.285  31.638  1.00  0.00     0.074 A 
ATOM     39  C   UNL A   1      38.500  29.957  29.583  1.00  0.00     0.049 A 
ATOM     40  N   UNL A   1      39.118  30.856  32.398  1.00  0.00    -0.248 NA
ATOM     41  C   UNL A   1      37.269  32.277  32.280  1.00  0.00     0.031 C 
ATOM     42  C   UNL A   1      38.258  29.515  28.212  1.00  0.00     0.029 A 
ATOM     43  N   UNL A   1      39.576  29.211  29.999  1.00  0.00    -0.354 N 
ATOM     44  C   UNL A   1      39.003  31.561  33.589  1.00  0.00     0.074 A 
ATOM     45  C   UNL A   1      37.864  32.442  33.452  1.00  0.00     0.031 C 
ATOM     46  C   UNL A   1      39.197  28.614  27.877  1.00  0.00     0.029 A 
ATOM     47  C   UNL A   1      40.121  28.445  28.998  1.00  0.00     0.049 A 
ATOM     48  H   UNL A   1      39.921  29.225  30.921  1.00  0.00     0.167 HD
ATOM     49  C   UNL A   1      39.773  31.478  34.699  1.00  0.00     0.034 A 
ATOM     50  C   UNL A   1      41.261  27.725  28.974  1.00  0.00     0.034 A 
ATOM     51  C   UNL A   1      40.891  30.584  34.833  1.00  0.00     0.049 A 
ATOM     52  C   UNL A   1      42.112  27.652  30.214  1.00  0.00     0.074 A 
ATOM     53  C   UNL A   1      41.698  30.376  35.936  1.00  0.00     0.029 A 
ATOM     54  N   UNL A   1      41.369  29.762  33.824  1.00  0.00    -0.354 N 
ATOM     55  N   UNL A   1      41.930  28.235  31.374  1.00  0.00    -0.248 NA
ATOM     56  C   UNL A   1      43.308  26.800  30.153  1.00  0.00     0.031 C 
ATOM     57  C   UNL A   1      42.684  29.447  35.584  1.00  0.00     0.029 A 
ATOM     58  C   UNL A   1      42.470  29.054  34.273  1.00  0.00     0.049 A 
ATOM     59  H   UNL A   1      40.983  29.692  32.922  1.00  0.00     0.167 HD
ATOM     60  C   UNL A   1      42.963  27.792  32.193  1.00  0.00     0.074 A 
ATOM     61  C   UNL A   1      43.766  26.887  31.397  1.00  0.00     0.031 C 
ATOM     62  C   UNL A   1      43.226  28.113  33.484  1.00  0.00     0.034 A 
BRANCH  49  63
ATOM     63  C   UNL A   1      39.425  32.379  35.852  1.00  0.00     0.023 A 
ATOM     64  C   UNL A   1      39.979  33.673  35.926  1.00  0.00     0.012 A 
ATOM     65  C   UNL A   1      38.534  31.951  36.855  1.00  0.00     0.148 A 
ATOM     66  C   UNL A   1      39.685  34.511  37.002  1.00  0.00     0.002 A 
ATOM     67  C   UNL A   1      38.211  32.808  37.901  1.00  0.00     0.091 A 
ATOM     68  F   UNL A   1      38.039  30.707  36.786  1.00  0.00    -0.205 F 
ATOM     69  C   UNL A   1      38.796  34.082  37.983  1.00  0.00     0.022 A 
BRANCH  67  70
ATOM     70  S   UNL A   1      37.014  32.367  39.164  1.00  0.00     0.127 S 
ATOM     71  O   UNL A   1      37.386  33.270  40.252  1.00  0.00    -0.237 OA
ATOM     72  O   UNL A   1      35.742  32.686  38.515  1.00  0.00    -0.237 OA
ATOM     73  O   UNL A   1      37.217  30.948  39.424  1.00  0.00    -0.744 OA
ENDBRANCH  67  70
ENDBRANCH  49  63
BRANCH  50  74
ATOM     74  C   UNL A   1      41.641  27.008  27.727  1.00  0.00     0.023 A 
ATOM     75  C   UNL A   1      42.202  27.725  26.654  1.00  0.00     0.012 A 
ATOM     76  C   UNL A   1      41.516  25.607  27.630  1.00  0.00     0.148 A 
ATOM     77  C   UNL A   1      42.622  27.061  25.500  1.00  0.00     0.002 A 
ATOM     78  C   UNL A   1      41.986  24.947  26.503  1.00  0.00     0.091 A 
ATOM     79  F   UNL A   1      40.968  24.948  28.660  1.00  0.00    -0.205 F 
ATOM     80  C   UNL A   1      42.527  25.673  25.429  1.00  0.00     0.022 A 
BRANCH  78  81
ATOM     81  S   UNL A   1      42.034  23.155  26.381  1.00  0.00     0.127 S 
ATOM     82  O   UNL A   1      40.614  22.814  26.414  1.00  0.00    -0.237 OA
ATOM     83  O   UNL A   1      42.685  22.962  25.085  1.00  0.00    -0.237 OA
ATOM     84  O   UNL A   1      42.817  22.701  27.522  1.00  0.00    -0.744 OA
ENDBRANCH  78  81
ENDBRANCH  50  74
BRANCH  62  85
ATOM     85  C   UNL A   1      44.403  27.451  34.152  1.00  0.00     0.023 A 
ATOM     86  C   UNL A   1      45.667  28.071  34.129  1.00  0.00     0.012 A 
ATOM     87  C   UNL A   1      44.227  26.268  34.897  1.00  0.00     0.148 A 
ATOM     88  C   UNL A   1      46.742  27.515  34.823  1.00  0.00     0.002 A 
ATOM     89  C   UNL A   1      45.289  25.744  35.624  1.00  0.00     0.091 A 
ATOM     90  F   UNL A   1      43.019  25.683  34.891  1.00  0.00    -0.205 F 
ATOM     91  C   UNL A   1      46.549  26.361  35.580  1.00  0.00     0.022 A 
BRANCH  89  92
ATOM     92  S   UNL A   1      45.108  24.321  36.706  1.00  0.00     0.127 S 
ATOM     93  O   UNL A   1      44.546  23.326  35.795  1.00  0.00    -0.237 OA
ATOM     94  O   UNL A   1      46.489  24.064  37.115  1.00  0.00    -0.237 OA
ATOM     95  O   UNL A   1      44.227  24.746  37.786  1.00  0.00    -0.744 OA
ENDBRANCH  89  92
ENDBRANCH  62  85
ENDBRANCH  36  37
ENDBRANCH  29  31
ENDBRANCH  28  29
ENDBRANCH  27  28
ENDBRANCH  26  27
ENDBRANCH  25  26
ENDBRANCH   1  25
TORSDOF 23
ENDMDL
MODEL 2
REMARK VINA RESULT:     -10.0      3.403      8.840
REMARK SMILES [NH3+][C@H](CC(F)(F)C(F)(F)C(F)(F)C(F)(F)Cl)C(=O)OCCOCCOC(=O)c1ccc(-c2c3nc(c(-c4cccc(S(=O)(=O)[O-])c4F)c4ccc([nH]4)c(-c4cccc(S(=O)(=O)[O-])c4F)c4nc(c(-c5cccc(S(=O)(=O)[O-])c5F)c5ccc2[nH]5)C=C4)C=C3)cc1
REMARK SMILES IDX 21 1 20 2 19 3 17 4 18 5 2 6 1 7 3 11 4 12 5 13 6 14 7 15
REMARK SMILES IDX 8 16 9 17 10 18 11 19 12 20 13 21 14 22 15 23 16 24 22 25
REMARK SMILES IDX 23 26 24 27 25 28 26 29 27 30 28 31 29 32 90 33 30 34 89 35
REMARK SMILES IDX 31 36 32 37 33 38 83 39 34 40 88 41 82 42 84 43 35 44 87 45
REMARK SMILES IDX 81 46 80 47 36 49 68 50 48 51 67 52 49 53 52 54 66 55 85 56
REMARK SMILES IDX 50 57 51 58 65 60 86 61 53 62 37 63 38 64 46 65 39 66 41 67
REMARK SMILES IDX 47 68 40 69 42 70 43 71 44 72 45 73 69 74 70 75 78 76 71 77
REMARK SMILES IDX 73 78 79 79 72 80 74 81 75 82 76 83 77 84 54 85 55 86 63 87
REMARK SMILES IDX 56 88 58 89 64 90 57 91 59 92 60 93 61 94 62 95
REMARK H PARENT 1 8 1 9 1 10 84 48 52 59
REMARK Flexibility Score: inf
ROOT
ATOM      1  C   UNL A   1      30.225  27.230  23.098  1.00  0.00     0.202 C 
ENDROOT
BRANCH   1   2
ATOM      2  C   UNL A   1      29.927  25.956  23.893  1.00  0.00     0.261 C 
BRANCH   2   3
ATOM      3  O   UNL A   1      30.701  25.819  25.095  1.00  0.00    -0.459 OA
BRANCH   3   4
ATOM      4  C   UNL A   1      30.278  24.818  25.915  1.00  0.00     0.365 C 
ATOM      5  O   UNL A   1      29.520  24.961  26.869  1.00  0.00    -0.245 OA
BRANCH   4   6
ATOM      6  C   UNL A   1      30.862  23.457  25.527  1.00  0.00     0.298 C 
BRANCH   6   7
ATOM      7  N   UNL A   1      30.228  22.391  26.320  1.00  0.00    -0.346 N 
ATOM      8  H   UNL A   1      29.495  21.946  25.768  1.00  0.00     0.345 HD
ATOM      9  H   UNL A   1      29.820  22.794  27.164  1.00  0.00     0.345 HD
ATOM     10  H   UNL A   1      30.929  21.697  26.578  1.00  0.00     0.345 HD
ENDBRANCH   6   7
BRANCH   6  11
ATOM     11  C   UNL A   1      32.391  23.374  25.587  1.00  0.00     0.161 C 
BRANCH  11  12
ATOM     12  C   UNL A   1      33.047  23.183  24.215  1.00  0.00     0.323 C 
ATOM     13  F   UNL A   1      32.250  22.348  23.489  1.00  0.00    -0.199 F 
ATOM     14  F   UNL A   1      32.999  24.383  23.570  1.00  0.00    -0.199 F 
BRANCH  12  15
ATOM     15  C   UNL A   1      34.480  22.652  24.236  1.00  0.00     0.379 C 
ATOM     16  F   UNL A   1      34.475  21.361  24.669  1.00  0.00    -0.192 F 
ATOM     17  F   UNL A   1      34.972  22.610  22.968  1.00  0.00    -0.192 F 
BRANCH  15  18
ATOM     18  C   UNL A   1      35.403  23.498  25.083  1.00  0.00     0.392 C 
ATOM     19  F   UNL A   1      35.092  24.821  24.958  1.00  0.00    -0.191 F 
ATOM     20  F   UNL A   1      35.256  23.203  26.403  1.00  0.00    -0.191 F 
BRANCH  18  21
ATOM     21  C   UNL A   1      36.839  23.259  24.626  1.00  0.00     0.390 C 
ATOM     22  F   UNL A   1      37.023  23.664  23.343  1.00  0.00    -0.181 F 
ATOM     23  F   UNL A   1      37.719  23.973  25.378  1.00  0.00    -0.181 F 
ATOM     24  Cl  UNL A   1      37.306  21.540  24.741  1.00  0.00    -0.041 Cl
ENDBRANCH  18  21
ENDBRANCH  15  18
ENDBRANCH  12  15
ENDBRANCH  11  12
ENDBRANCH   6  11
ENDBRANCH   4   6
ENDBRANCH   3   4
ENDBRANCH   2   3
ENDBRANCH   1   2
BRANCH   1  25
ATOM     25  O   UNL A   1      30.605  28.392  23.827  1.00  0.00    -0.374 OA
BRANCH  25  26
ATOM     26  C   UNL A   1      31.992  28.727  23.860  1.00  0.00     0.202 C 
BRANCH  26  27
ATOM     27  C   UNL A   1      32.683  28.700  25.228  1.00  0.00     0.261 C 
BRANCH  27  28
ATOM     28  O   UNL A   1      33.597  29.801  25.388  1.00  0.00    -0.460 OA
BRANCH  28  29
ATOM     29  C   UNL A   1      33.308  30.641  26.411  1.00  0.00     0.338 C 
ATOM     30  O   UNL A   1      32.267  31.259  26.587  1.00  0.00    -0.246 OA
BRANCH  29  31
ATOM     31  C   UNL A   1      34.365  30.563  27.434  1.00  0.00     0.060 A 
ATOM     32  C   UNL A   1      35.173  31.692  27.632  1.00  0.00     0.016 A 
ATOM     33  C   UNL A   1      34.614  29.378  28.126  1.00  0.00     0.016 A 
ATOM     34  C   UNL A   1      36.270  31.625  28.486  1.00  0.00     0.010 A 
ATOM     35  C   UNL A   1      35.722  29.308  28.972  1.00  0.00     0.010 A 
ATOM     36  C   UNL A   1      36.575  30.418  29.123  1.00  0.00    -0.014 A 
BRANCH  36  37
ATOM     37  C   UNL A   1      37.875  30.243  29.811  1.00  0.00     0.031 A 
ATOM     38  C   UNL A   1      38.890  29.318  29.199  1.00  0.00     0.074 A 
ATOM     39  C   UNL A   1      38.122  30.847  30.984  1.00  0.00     0.049 A 
ATOM     40  N   UNL A   1      40.024  28.893  29.688  1.00  0.00    -0.248 NA
ATOM     41  C   UNL A   1      38.572  28.792  27.862  1.00  0.00     0.031 C 
ATOM     42  C   UNL A   1      37.217  31.770  31.663  1.00  0.00     0.029 A 
ATOM     43  N   UNL A   1      39.193  30.728  31.835  1.00  0.00    -0.354 N 
ATOM     44  C   UNL A   1      40.532  28.011  28.743  1.00  0.00     0.074 A 
ATOM     45  C   UNL A   1      39.584  27.965  27.651  1.00  0.00     0.031 C 
ATOM     46  C   UNL A   1      37.743  32.092  32.857  1.00  0.00     0.029 A 
ATOM     47  C   UNL A   1      39.003  31.370  33.035  1.00  0.00     0.049 A 
ATOM     48  H   UNL A   1      40.014  30.233  31.608  1.00  0.00     0.167 HD
ATOM     49  C   UNL A   1      41.687  27.306  28.780  1.00  0.00     0.034 A 
ATOM     50  C   UNL A   1      39.739  31.341  34.164  1.00  0.00     0.034 A 
ATOM     51  C   UNL A   1      42.633  27.374  29.861  1.00  0.00     0.049 A 
ATOM     52  C   UNL A   1      41.016  30.544  34.193  1.00  0.00     0.074 A 
ATOM     53  C   UNL A   1      43.862  26.750  29.968  1.00  0.00     0.029 A 
ATOM     54  N   UNL A   1      42.446  28.098  31.028  1.00  0.00    -0.354 N 
ATOM     55  N   UNL A   1      41.544  29.803  33.249  1.00  0.00    -0.248 NA
ATOM     56  C   UNL A   1      41.812  30.601  35.426  1.00  0.00     0.031 C 
ATOM     57  C   UNL A   1      44.406  27.075  31.215  1.00  0.00     0.029 A 
ATOM     58  C   UNL A   1      43.530  27.926  31.870  1.00  0.00     0.049 A 
ATOM     59  H   UNL A   1      41.658  28.652  31.229  1.00  0.00     0.167 HD
ATOM     60  C   UNL A   1      42.753  29.337  33.758  1.00  0.00     0.074 A 
ATOM     61  C   UNL A   1      42.879  29.884  35.093  1.00  0.00     0.031 C 
ATOM     62  C   UNL A   1      43.668  28.523  33.175  1.00  0.00     0.034 A 
BRANCH  49  63
ATOM     63  C   UNL A   1      41.986  26.405  27.613  1.00  0.00     0.023 A 
ATOM     64  C   UNL A   1      42.613  26.928  26.463  1.00  0.00     0.012 A 
ATOM     65  C   UNL A   1      41.665  25.035  27.661  1.00  0.00     0.148 A 
ATOM     66  C   UNL A   1      42.874  26.111  25.363  1.00  0.00     0.002 A 
ATOM     67  C   UNL A   1      41.968  24.218  26.579  1.00  0.00     0.091 A 
ATOM     68  F   UNL A   1      41.042  24.560  28.750  1.00  0.00    -0.205 F 
ATOM     69  C   UNL A   1      42.560  24.756  25.424  1.00  0.00     0.022 A 
BRANCH  67  70
ATOM     70  S   UNL A   1      41.671  22.447  26.604  1.00  0.00     0.127 S 
ATOM     71  O   UNL A   1      40.210  22.392  26.567  1.00  0.00    -0.237 OA
ATOM     72  O   UNL A   1      42.329  22.002  25.375  1.00  0.00    -0.237 OA
ATOM     73  O   UNL A   1      42.290  21.959  27.828  1.00  0.00    -0.744 OA
ENDBRANCH  67  70
ENDBRANCH  49  63
BRANCH  50  74
ATOM     74  C   UNL A   1      39.278  32.112  35.351  1.00  0.00     0.023 A 
ATOM     75  C   UNL A   1      38.455  31.492  36.308  1.00  0.00     0.012 A 
ATOM     76  C   UNL A   1      39.714  33.435  35.569  1.00  0.00     0.148 A 
ATOM     77  C   UNL A   1      38.063  32.179  37.459  1.00  0.00     0.002 A 
ATOM     78  C   UNL A   1      39.366  34.093  36.741  1.00  0.00     0.091 A 
ATOM     79  F   UNL A   1      40.488  34.008  34.637  1.00  0.00    -0.205 F 
ATOM     80  C   UNL A   1      38.528  33.472  37.682  1.00  0.00     0.022 A 
BRANCH  78  81
ATOM     81  S   UNL A   1      40.031  35.704  37.179  1.00  0.00     0.127 S 
ATOM     82  O   UNL A   1      39.654  36.509  36.020  1.00  0.00    -0.237 OA
ATOM     83  O   UNL A   1      39.295  36.006  38.407  1.00  0.00    -0.237 OA
ATOM     84  O   UNL A   1      41.462  35.505  37.368  1.00  0.00    -0.744 OA
ENDBRANCH  78  81
ENDBRANCH  50  74
BRANCH  62  85
ATOM     85  C   UNL A   1      44.922  28.203  33.946  1.00  0.00     0.023 A 
ATOM     86  C   UNL A   1      46.031  29.068  33.877  1.00  0.00     0.012 A 
ATOM     87  C   UNL A   1      44.956  27.102  34.825  1.00  0.00     0.148 A 
ATOM     88  C   UNL A   1      47.163  28.832  34.658  1.00  0.00     0.002 A 
ATOM     89  C   UNL A   1      46.067  26.899  35.635  1.00  0.00     0.091 A 
ATOM     90  F   UNL A   1      43.896  26.281  34.862  1.00  0.00    -0.205 F 
ATOM     91  C   UNL A   1      47.175  27.757  35.545  1.00  0.00     0.022 A 
BRANCH  89  92
ATOM     92  S   UNL A   1      46.130  25.603  36.878  1.00  0.00     0.127 S 
ATOM     93  O   UNL A   1      46.093  24.398  36.051  1.00  0.00    -0.237 OA
ATOM     94  O   UNL A   1      47.416  25.858  37.528  1.00  0.00    -0.237 OA
ATOM     95  O   UNL A   1      44.969  25.809  37.733  1.00  0.00    -0.744 OA
ENDBRANCH  89  92
ENDBRANCH  62  85
ENDBRANCH  36  37
ENDBRANCH  29  31
ENDBRANCH  28  29
ENDBRANCH  27  28
ENDBRANCH  26  27
ENDBRANCH  25  26
ENDBRANCH   1  25
TORSDOF 23
ENDMDL
MODEL 3
REMARK VINA RESULT:     -10.0      3.221      8.604
REMARK SMILES [NH3+][C@H](CC(F)(F)C(F)(F)C(F)(F)C(F)(F)Cl)C(=O)OCCOCCOC(=O)c1ccc(-c2c3nc(c(-c4cccc(S(=O)(=O)[O-])c4F)c4ccc([nH]4)c(-c4cccc(S(=O)(=O)[O-])c4F)c4nc(c(-c5cccc(S(=O)(=O)[O-])c5F)c5ccc2[nH]5)C=C4)C=C3)cc1
REMARK SMILES IDX 21 1 20 2 19 3 17 4 18 5 2 6 1 7 3 11 4 12 5 13 6 14 7 15
REMARK SMILES IDX 8 16 9 17 10 18 11 19 12 20 13 21 14 22 15 23 16 24 22 25
REMARK SMILES IDX 23 26 24 27 25 28 26 29 27 30 28 31 29 32 90 33 30 34 89 35
REMARK SMILES IDX 31 36 32 37 33 38 83 39 34 40 88 41 82 42 84 43 35 44 87 45
REMARK SMILES IDX 81 46 80 47 36 49 68 50 48 51 67 52 49 53 52 54 66 55 85 56
REMARK SMILES IDX 50 57 51 58 65 60 86 61 53 62 37 63 38 64 46 65 39 66 41 67
REMARK SMILES IDX 47 68 40 69 42 70 43 71 44 72 45 73 69 74 70 75 78 76 71 77
REMARK SMILES IDX 73 78 79 79 72 80 74 81 75 82 76 83 77 84 54 85 55 86 63 87
REMARK SMILES IDX 56 88 58 89 64 90 57 91 59 92 60 93 61 94 62 95
REMARK H PARENT 1 8 1 9 1 10 84 48 52 59
REMARK Flexibility Score: inf
ROOT
ATOM      1  C   UNL A   1      30.524  28.205  24.130  1.00  0.00     0.202 C 
ENDROOT
BRANCH   1   2
ATOM      2  C   UNL A   1      30.359  27.248  22.947  1.00  0.00     0.261 C 
BRANCH   2   3
ATOM      3  O   UNL A   1      31.264  27.495  21.861  1.00  0.00    -0.459 OA
BRANCH   3   4
ATOM      4  C   UNL A   1      32.539  27.078  22.097  1.00  0.00     0.365 C 
ATOM      5  O   UNL A   1      33.413  27.751  22.632  1.00  0.00    -0.245 OA
BRANCH   4   6
ATOM      6  C   UNL A   1      32.787  25.649  21.607  1.00  0.00     0.298 C 
BRANCH   6   7
ATOM      7  N   UNL A   1      32.149  25.449  20.294  1.00  0.00    -0.346 N 
ATOM      8  H   UNL A   1      32.242  26.298  19.738  1.00  0.00     0.345 HD
ATOM      9  H   UNL A   1      31.160  25.235  20.427  1.00  0.00     0.345 HD
ATOM     10  H   UNL A   1      32.603  24.674  19.811  1.00  0.00     0.345 HD
ENDBRANCH   6   7
BRANCH   6  11
ATOM     11  C   UNL A   1      32.392  24.552  22.601  1.00  0.00     0.161 C 
BRANCH  11  12
ATOM     12  C   UNL A   1      33.588  23.930  23.331  1.00  0.00     0.323 C 
ATOM     13  F   UNL A   1      34.379  23.335  22.393  1.00  0.00    -0.199 F 
ATOM     14  F   UNL A   1      34.333  24.953  23.837  1.00  0.00    -0.199 F 
BRANCH  12  15
ATOM     15  C   UNL A   1      33.242  22.932  24.435  1.00  0.00     0.379 C 
ATOM     16  F   UNL A   1      31.945  22.541  24.297  1.00  0.00    -0.192 F 
ATOM     17  F   UNL A   1      33.982  21.800  24.279  1.00  0.00    -0.192 F 
BRANCH  15  18
ATOM     18  C   UNL A   1      33.491  23.483  25.819  1.00  0.00     0.392 C 
ATOM     19  F   UNL A   1      33.689  24.833  25.770  1.00  0.00    -0.191 F 
ATOM     20  F   UNL A   1      32.408  23.293  26.620  1.00  0.00    -0.191 F 
BRANCH  18  21
ATOM     21  C   UNL A   1      34.728  22.802  26.400  1.00  0.00     0.390 C 
ATOM     22  F   UNL A   1      34.781  22.943  27.749  1.00  0.00    -0.181 F 
ATOM     23  F   UNL A   1      34.710  21.464  26.159  1.00  0.00    -0.181 F 
ATOM     24  Cl  UNL A   1      36.241  23.452  25.710  1.00  0.00    -0.041 Cl
ENDBRANCH  18  21
ENDBRANCH  15  18
ENDBRANCH  12  15
ENDBRANCH  11  12
ENDBRANCH   6  11
ENDBRANCH   4   6
ENDBRANCH   3   4
ENDBRANCH   2   3
ENDBRANCH   1   2
BRANCH   1  25
ATOM     25  O   UNL A   1      31.125  27.697  25.316  1.00  0.00    -0.374 OA
BRANCH  25  26
ATOM     26  C   UNL A   1      32.313  28.336  25.782  1.00  0.00     0.202 C 
BRANCH  26  27
ATOM     27  C   UNL A   1      32.300  29.868  25.845  1.00  0.00     0.261 C 
BRANCH  27  28
ATOM     28  O   UNL A   1      32.505  30.350  27.187  1.00  0.00    -0.460 OA
BRANCH  28  29
ATOM     29  C   UNL A   1      33.220  31.497  27.279  1.00  0.00     0.338 C 
ATOM     30  O   UNL A   1      32.794  32.642  27.198  1.00  0.00    -0.246 OA
BRANCH  29  31
ATOM     31  C   UNL A   1      34.596  31.194  27.707  1.00  0.00     0.060 A 
ATOM     32  C   UNL A   1      34.915  29.860  28.000  1.00  0.00     0.016 A 
ATOM     33  C   UNL A   1      35.533  32.209  27.898  1.00  0.00     0.016 A 
ATOM     34  C   UNL A   1      36.159  29.540  28.539  1.00  0.00     0.010 A 
ATOM     35  C   UNL A   1      36.775  31.889  28.451  1.00  0.00     0.010 A 
ATOM     36  C   UNL A   1      37.075  30.562  28.810  1.00  0.00    -0.014 A 
BRANCH  36  37
ATOM     37  C   UNL A   1      38.280  30.288  29.625  1.00  0.00     0.031 A 
ATOM     38  C   UNL A   1      39.290  29.306  29.102  1.00  0.00     0.074 A 
ATOM     39  C   UNL A   1      38.441  30.855  30.831  1.00  0.00     0.049 A 
ATOM     40  N   UNL A   1      40.336  28.797  29.696  1.00  0.00    -0.248 NA
ATOM     41  C   UNL A   1      39.081  28.824  27.727  1.00  0.00     0.031 C 
ATOM     42  C   UNL A   1      37.533  31.827  31.433  1.00  0.00     0.029 A 
ATOM     43  N   UNL A   1      39.406  30.650  31.787  1.00  0.00    -0.354 N 
ATOM     44  C   UNL A   1      40.882  27.897  28.790  1.00  0.00     0.074 A 
ATOM     45  C   UNL A   1      40.053  27.933  27.604  1.00  0.00     0.031 C 
ATOM     46  C   UNL A   1      37.951  32.093  32.682  1.00  0.00     0.029 A 
ATOM     47  C   UNL A   1      39.134  31.284  32.974  1.00  0.00     0.049 A 
ATOM     48  H   UNL A   1      40.212  30.104  31.635  1.00  0.00     0.167 HD
ATOM     49  C   UNL A   1      41.977  27.114  28.930  1.00  0.00     0.034 A 
ATOM     50  C   UNL A   1      39.743  31.187  34.173  1.00  0.00     0.034 A 
ATOM     51  C   UNL A   1      42.806  27.100  30.105  1.00  0.00     0.049 A 
ATOM     52  C   UNL A   1      40.954  30.304  34.316  1.00  0.00     0.074 A 
ATOM     53  C   UNL A   1      43.973  26.392  30.325  1.00  0.00     0.029 A 
ATOM     54  N   UNL A   1      42.545  27.816  31.263  1.00  0.00    -0.354 N 
ATOM     55  N   UNL A   1      41.529  29.543  33.416  1.00  0.00    -0.248 NA
ATOM     56  C   UNL A   1      41.618  30.287  35.627  1.00  0.00     0.031 C 
ATOM     57  C   UNL A   1      44.403  26.659  31.630  1.00  0.00     0.029 A 
ATOM     58  C   UNL A   1      43.521  27.557  32.209  1.00  0.00     0.049 A 
ATOM     59  H   UNL A   1      41.779  28.420  31.393  1.00  0.00     0.167 HD
ATOM     60  C   UNL A   1      42.644  28.988  34.038  1.00  0.00     0.074 A 
ATOM     61  C   UNL A   1      42.665  29.504  35.391  1.00  0.00     0.031 C 
ATOM     62  C   UNL A   1      43.559  28.123  33.535  1.00  0.00     0.034 A 
BRANCH  49  63
ATOM     63  C   UNL A   1      42.337  26.213  27.780  1.00  0.00     0.023 A 
ATOM     64  C   UNL A   1      43.111  26.712  26.712  1.00  0.00     0.012 A 
ATOM     65  C   UNL A   1      41.926  24.867  27.765  1.00  0.00     0.148 A 
ATOM     66  C   UNL A   1      43.431  25.896  25.627  1.00  0.00     0.002 A 
ATOM     67  C   UNL A   1      42.287  24.048  26.702  1.00  0.00     0.091 A 
ATOM     68  F   UNL A   1      41.166  24.416  28.775  1.00  0.00    -0.205 F 
ATOM     69  C   UNL A   1      43.028  24.563  25.626  1.00  0.00     0.022 A 
BRANCH  67  70
ATOM     70  S   UNL A   1      41.877  22.300  26.658  1.00  0.00     0.127 S 
ATOM     71  O   UNL A   1      42.645  21.788  27.792  1.00  0.00    -0.237 OA
ATOM     72  O   UNL A   1      40.428  22.313  26.860  1.00  0.00    -0.237 OA
ATOM     73  O   UNL A   1      42.297  21.828  25.346  1.00  0.00    -0.744 OA
ENDBRANCH  67  70
ENDBRANCH  49  63
BRANCH  50  74
ATOM     74  C   UNL A   1      39.212  31.969  35.323  1.00  0.00     0.023 A 
ATOM     75  C   UNL A   1      38.292  31.373  36.205  1.00  0.00     0.012 A 
ATOM     76  C   UNL A   1      39.673  33.276  35.584  1.00  0.00     0.148 A 
ATOM     77  C   UNL A   1      37.830  32.069  37.323  1.00  0.00     0.002 A 
ATOM     78  C   UNL A   1      39.251  33.940  36.728  1.00  0.00     0.091 A 
ATOM     79  F   UNL A   1      40.540  33.825  34.724  1.00  0.00    -0.205 F 
ATOM     80  C   UNL A   1      38.318  33.345  37.592  1.00  0.00     0.022 A 
BRANCH  78  81
ATOM     81  S   UNL A   1      39.931  35.526  37.230  1.00  0.00     0.127 S 
ATOM     82  O   UNL A   1      39.192  35.792  38.463  1.00  0.00    -0.237 OA
ATOM     83  O   UNL A   1      41.344  35.199  37.416  1.00  0.00    -0.237 OA
ATOM     84  O   UNL A   1      39.664  36.439  36.127  1.00  0.00    -0.744 OA
ENDBRANCH  78  81
ENDBRANCH  50  74
BRANCH  62  85
ATOM     85  C   UNL A   1      44.701  27.706  34.424  1.00  0.00     0.023 A 
ATOM     86  C   UNL A   1      45.851  28.513  34.520  1.00  0.00     0.012 A 
ATOM     87  C   UNL A   1      44.583  26.569  35.249  1.00  0.00     0.148 A 
ATOM     88  C   UNL A   1      46.874  28.186  35.410  1.00  0.00     0.002 A 
ATOM     89  C   UNL A   1      45.584  26.275  36.167  1.00  0.00     0.091 A 
ATOM     90  F   UNL A   1      43.488  25.804  35.129  1.00  0.00    -0.205 F 
ATOM     91  C   UNL A   1      46.734  27.076  36.242  1.00  0.00     0.022 A 
BRANCH  89  92
ATOM     92  S   UNL A   1      45.443  24.926  37.347  1.00  0.00     0.127 S 
ATOM     93  O   UNL A   1      44.218  25.284  38.060  1.00  0.00    -0.237 OA
ATOM     94  O   UNL A   1      45.320  23.761  36.471  1.00  0.00    -0.237 OA
ATOM     95  O   UNL A   1      46.662  24.959  38.143  1.00  0.00    -0.744 OA
ENDBRANCH  89  92
ENDBRANCH  62  85
ENDBRANCH  36  37
ENDBRANCH  29  31
ENDBRANCH  28  29
ENDBRANCH  27  28
ENDBRANCH  26  27
ENDBRANCH  25  26
ENDBRANCH   1  25
TORSDOF 23
ENDMDL
