MODEL 1
REMARK VINA RESULT:     -12.0      0.000      0.000
REMARK SMILES Cc1cc2c(c(C)c1Cl)C=C(C(=O)OCCOCCOC(=O)c1ccc(-c3c4nc(c(-c5cccc(S(=O)(=O)[O-])c5F)c5ccc([nH]5)c(-c5cccc(S(=O)(=O)[O-])c5F)c5nc(c(-c6cccc(S(=O)(=O)[O-])c6F)c6ccc3[nH]6)C=C5)C=C4)cc1)[C@@H](C(F)(F)F)O2
REMARK SMILES IDX 18 1 17 2 16 3 15 4 14 5 12 6 13 7 11 8 1 9 2 10 3 11 8 12
REMARK SMILES IDX 4 13 6 14 9 15 5 16 91 17 7 18 10 19 86 20 87 21 88 22 89 23
REMARK SMILES IDX 90 24 19 25 20 26 21 27 22 28 23 29 24 30 85 31 25 32 84 33
REMARK SMILES IDX 26 34 27 35 28 36 78 37 29 38 83 39 77 40 79 41 30 42 82 43
REMARK SMILES IDX 76 44 75 45 31 47 63 48 43 49 62 50 44 51 47 52 61 53 80 54
REMARK SMILES IDX 45 55 46 56 60 58 81 59 48 60 32 61 33 62 41 63 34 64 36 65
REMARK SMILES IDX 42 66 35 67 37 68 38 69 39 70 40 71 64 72 65 73 73 74 66 75
REMARK SMILES IDX 68 76 74 77 67 78 69 79 70 80 71 81 72 82 49 83 50 84 58 85
REMARK SMILES IDX 51 86 53 87 59 88 52 89 54 90 55 91 56 92 57 93
REMARK H PARENT 79 46 47 57
REMARK Flexibility Score: inf
ROOT
ATOM      1  C   UNL A   1      31.420  31.385  26.471  1.00  0.00     0.202 C 
ENDROOT
BRANCH   1   2
ATOM      2  O   UNL A   1      32.452  30.449  26.152  1.00  0.00    -0.374 OA
BRANCH   2   3
ATOM      3  C   UNL A   1      32.795  29.473  27.133  1.00  0.00     0.202 C 
BRANCH   3   4
ATOM      4  C   UNL A   1      32.865  28.013  26.673  1.00  0.00     0.261 C 
BRANCH   4   5
ATOM      5  O   UNL A   1      32.312  27.834  25.362  1.00  0.00    -0.460 OA
BRANCH   5   6
ATOM      6  C   UNL A   1      33.129  27.195  24.493  1.00  0.00     0.338 C 
ATOM      7  O   UNL A   1      33.916  27.707  23.711  1.00  0.00    -0.246 OA
BRANCH   6   8
ATOM      8  C   UNL A   1      33.055  25.739  24.716  1.00  0.00     0.087 C 
ATOM      9  C   UNL A   1      34.147  19.371  24.604  1.00  0.00     0.046 C 
ATOM     10  C   UNL A   1      34.228  20.863  24.775  1.00  0.00    -0.028 A 
ATOM     11  C   UNL A   1      33.035  21.598  24.809  1.00  0.00     0.052 A 
ATOM     12  C   UNL A   1      35.452  21.544  24.931  1.00  0.00     0.047 A 
ATOM     13  C   UNL A   1      33.055  22.988  24.893  1.00  0.00     0.128 A 
ATOM     14  C   UNL A   1      35.492  22.953  25.031  1.00  0.00    -0.021 A 
ATOM     15  Cl  UNL A   1      36.920  20.613  24.985  1.00  0.00    -0.084 Cl
ATOM     16  C   UNL A   1      34.272  23.673  24.960  1.00  0.00     0.022 A 
ATOM     17  O   UNL A   1      31.829  23.590  24.910  1.00  0.00    -0.475 OA
ATOM     18  C   UNL A   1      36.791  23.706  25.204  1.00  0.00     0.047 C 
ATOM     19  C   UNL A   1      34.236  25.129  24.883  1.00  0.00     0.027 C 
ATOM     20  C   UNL A   1      31.736  25.027  24.711  1.00  0.00     0.316 C 
BRANCH  20  21
ATOM     21  C   UNL A   1      30.924  25.287  23.434  1.00  0.00     0.430 C 
ATOM     22  F   UNL A   1      31.734  25.403  22.356  1.00  0.00    -0.167 F 
ATOM     23  F   UNL A   1      30.061  24.278  23.177  1.00  0.00    -0.167 F 
ATOM     24  F   UNL A   1      30.202  26.428  23.527  1.00  0.00    -0.167 F 
ENDBRANCH  20  21
ENDBRANCH   6   8
ENDBRANCH   5   6
ENDBRANCH   4   5
ENDBRANCH   3   4
ENDBRANCH   2   3
ENDBRANCH   1   2
BRANCH   1  25
ATOM     25  C   UNL A   1      31.824  32.848  26.687  1.00  0.00     0.261 C 
BRANCH  25  26
ATOM     26  O   UNL A   1      32.368  33.075  28.000  1.00  0.00    -0.460 OA
BRANCH  26  27
ATOM     27  C   UNL A   1      33.456  33.882  28.033  1.00  0.00     0.338 C 
ATOM     28  O   UNL A   1      33.470  35.106  27.995  1.00  0.00    -0.246 OA
BRANCH  27  29
ATOM     29  C   UNL A   1      34.660  33.088  28.327  1.00  0.00     0.060 A 
ATOM     30  C   UNL A   1      34.487  31.865  28.989  1.00  0.00     0.016 A 
ATOM     31  C   UNL A   1      35.938  33.571  28.043  1.00  0.00     0.016 A 
ATOM     32  C   UNL A   1      35.597  31.139  29.410  1.00  0.00     0.010 A 
ATOM     33  C   UNL A   1      37.052  32.846  28.479  1.00  0.00     0.010 A 
ATOM     34  C   UNL A   1      36.885  31.647  29.197  1.00  0.00    -0.014 A 
BRANCH  34  35
ATOM     35  C   UNL A   1      38.034  30.999  29.871  1.00  0.00     0.031 A 
ATOM     36  C   UNL A   1      38.313  31.331  31.312  1.00  0.00     0.074 A 
ATOM     37  C   UNL A   1      38.790  30.095  29.224  1.00  0.00     0.049 A 
ATOM     38  N   UNL A   1      39.233  30.848  32.106  1.00  0.00    -0.248 NA
ATOM     39  C   UNL A   1      37.440  32.335  31.943  1.00  0.00     0.031 C 
ATOM     40  C   UNL A   1      38.606  29.683  27.833  1.00  0.00     0.029 A 
ATOM     41  N   UNL A   1      39.870  29.364  29.652  1.00  0.00    -0.354 N 
ATOM     42  C   UNL A   1      39.055  31.493  33.325  1.00  0.00     0.074 A 
ATOM     43  C   UNL A   1      37.960  32.422  33.158  1.00  0.00     0.031 C 
ATOM     44  C   UNL A   1      39.547  28.777  27.520  1.00  0.00     0.029 A 
ATOM     45  C   UNL A   1      40.411  28.558  28.679  1.00  0.00     0.049 A 
ATOM     46  H   UNL A   1      40.223  29.411  30.571  1.00  0.00     0.167 HD
ATOM     47  C   UNL A   1      39.726  31.307  34.485  1.00  0.00     0.034 A 
ATOM     48  C   UNL A   1      41.485  27.742  28.719  1.00  0.00     0.034 A 
ATOM     49  C   UNL A   1      40.799  30.367  34.653  1.00  0.00     0.049 A 
ATOM     50  C   UNL A   1      42.251  27.597  30.009  1.00  0.00     0.074 A 
ATOM     51  C   UNL A   1      41.510  30.076  35.803  1.00  0.00     0.029 A 
ATOM     52  N   UNL A   1      41.324  29.576  33.644  1.00  0.00    -0.354 N 
ATOM     53  N   UNL A   1      41.994  28.119  31.184  1.00  0.00    -0.248 NA
ATOM     54  C   UNL A   1      43.440  26.732  29.987  1.00  0.00     0.031 C 
ATOM     55  C   UNL A   1      42.485  29.127  35.482  1.00  0.00     0.029 A 
ATOM     56  C   UNL A   1      42.367  28.812  34.138  1.00  0.00     0.049 A 
ATOM     57  H   UNL A   1      41.002  29.560  32.713  1.00  0.00     0.167 HD
ATOM     58  C   UNL A   1      42.973  27.630  32.044  1.00  0.00     0.074 A 
ATOM     59  C   UNL A   1      43.813  26.749  31.261  1.00  0.00     0.031 C 
ATOM     60  C   UNL A   1      43.168  27.903  33.359  1.00  0.00     0.034 A 
BRANCH  47  61
ATOM     61  C   UNL A   1      39.287  32.101  35.687  1.00  0.00     0.023 A 
ATOM     62  C   UNL A   1      39.614  33.470  35.766  1.00  0.00     0.012 A 
ATOM     63  C   UNL A   1      38.487  31.521  36.690  1.00  0.00     0.148 A 
ATOM     64  C   UNL A   1      39.168  34.245  36.835  1.00  0.00     0.002 A 
ATOM     65  C   UNL A   1      38.012  32.309  37.731  1.00  0.00     0.091 A 
ATOM     66  F   UNL A   1      38.206  30.212  36.606  1.00  0.00    -0.205 F 
ATOM     67  C   UNL A   1      38.360  33.668  37.810  1.00  0.00     0.022 A 
BRANCH  65  68
ATOM     68  S   UNL A   1      36.900  31.683  38.996  1.00  0.00     0.127 S 
ATOM     69  O   UNL A   1      37.766  31.683  40.175  1.00  0.00    -0.237 OA
ATOM     70  O   UNL A   1      35.850  32.701  39.011  1.00  0.00    -0.237 OA
ATOM     71  O   UNL A   1      36.471  30.369  38.539  1.00  0.00    -0.744 OA
ENDBRANCH  65  68
ENDBRANCH  47  61
BRANCH  48  72
ATOM     72  C   UNL A   1      41.866  26.961  27.508  1.00  0.00     0.023 A 
ATOM     73  C   UNL A   1      42.472  27.620  26.422  1.00  0.00     0.012 A 
ATOM     74  C   UNL A   1      41.669  25.567  27.441  1.00  0.00     0.148 A 
ATOM     75  C   UNL A   1      42.863  26.911  25.286  1.00  0.00     0.002 A 
ATOM     76  C   UNL A   1      42.110  24.857  26.330  1.00  0.00     0.091 A 
ATOM     77  F   UNL A   1      41.072  24.960  28.476  1.00  0.00    -0.205 F 
ATOM     78  C   UNL A   1      42.695  25.530  25.244  1.00  0.00     0.022 A 
BRANCH  76  79
ATOM     79  S   UNL A   1      42.054  23.064  26.242  1.00  0.00     0.127 S 
ATOM     80  O   UNL A   1      42.821  22.681  27.424  1.00  0.00    -0.237 OA
ATOM     81  O   UNL A   1      40.617  22.806  26.329  1.00  0.00    -0.237 OA
ATOM     82  O   UNL A   1      42.653  22.713  24.961  1.00  0.00    -0.744 OA
ENDBRANCH  76  79
ENDBRANCH  48  72
BRANCH  60  83
ATOM     83  C   UNL A   1      44.339  27.258  34.056  1.00  0.00     0.023 A 
ATOM     84  C   UNL A   1      45.559  27.958  34.143  1.00  0.00     0.012 A 
ATOM     85  C   UNL A   1      44.191  26.038  34.746  1.00  0.00     0.148 A 
ATOM     86  C   UNL A   1      46.616  27.449  34.896  1.00  0.00     0.002 A 
ATOM     87  C   UNL A   1      45.232  25.561  35.535  1.00  0.00     0.091 A 
ATOM     88  F   UNL A   1      43.024  25.384  34.642  1.00  0.00    -0.205 F 
ATOM     89  C   UNL A   1      46.448  26.261  35.604  1.00  0.00     0.022 A 
BRANCH  87  90
ATOM     90  S   UNL A   1      45.077  24.099  36.568  1.00  0.00     0.127 S 
ATOM     91  O   UNL A   1      46.478  23.791  36.858  1.00  0.00    -0.237 OA
ATOM     92  O   UNL A   1      44.316  24.608  37.710  1.00  0.00    -0.237 OA
ATOM     93  O   UNL A   1      44.378  23.106  35.764  1.00  0.00    -0.744 OA
ENDBRANCH  87  90
ENDBRANCH  60  83
ENDBRANCH  34  35
ENDBRANCH  27  29
ENDBRANCH  26  27
ENDBRANCH  25  26
ENDBRANCH   1  25
TORSDOF 18
ENDMDL
MODEL 2
REMARK VINA RESULT:     -11.8      5.138     10.515
REMARK SMILES Cc1cc2c(c(C)c1Cl)C=C(C(=O)OCCOCCOC(=O)c1ccc(-c3c4nc(c(-c5cccc(S(=O)(=O)[O-])c5F)c5ccc([nH]5)c(-c5cccc(S(=O)(=O)[O-])c5F)c5nc(c(-c6cccc(S(=O)(=O)[O-])c6F)c6ccc3[nH]6)C=C5)C=C4)cc1)[C@@H](C(F)(F)F)O2
REMARK SMILES IDX 18 1 17 2 16 3 15 4 14 5 12 6 13 7 11 8 1 9 2 10 3 11 8 12
REMARK SMILES IDX 4 13 6 14 9 15 5 16 91 17 7 18 10 19 86 20 87 21 88 22 89 23
REMARK SMILES IDX 90 24 19 25 20 26 21 27 22 28 23 29 24 30 85 31 25 32 84 33
REMARK SMILES IDX 26 34 27 35 28 36 78 37 29 38 83 39 77 40 79 41 30 42 82 43
REMARK SMILES IDX 76 44 75 45 31 47 63 48 43 49 62 50 44 51 47 52 61 53 80 54
REMARK SMILES IDX 45 55 46 56 60 58 81 59 48 60 32 61 33 62 41 63 34 64 36 65
REMARK SMILES IDX 42 66 35 67 37 68 38 69 39 70 40 71 64 72 65 73 73 74 66 75
REMARK SMILES IDX 68 76 74 77 67 78 69 79 70 80 71 81 72 82 49 83 50 84 58 85
REMARK SMILES IDX 51 86 53 87 59 88 52 89 54 90 55 91 56 92 57 93
REMARK H PARENT 79 46 47 57
REMARK Flexibility Score: inf
ROOT
ATOM      1  C   UNL A   1      36.648  20.680  24.897  1.00  0.00     0.202 C 
ENDROOT
BRANCH   1   2
ATOM      2  O   UNL A   1      35.414  19.967  25.001  1.00  0.00    -0.374 OA
BRANCH   2   3
ATOM      3  C   UNL A   1      34.242  20.706  25.340  1.00  0.00     0.202 C 
BRANCH   3   4
ATOM      4  C   UNL A   1      34.328  21.634  26.556  1.00  0.00     0.261 C 
BRANCH   4   5
ATOM      5  O   UNL A   1      34.164  23.013  26.195  1.00  0.00    -0.460 OA
BRANCH   5   6
ATOM      6  C   UNL A   1      32.996  23.562  26.601  1.00  0.00     0.338 C 
ATOM      7  O   UNL A   1      32.383  23.311  27.629  1.00  0.00    -0.246 OA
BRANCH   6   8
ATOM      8  C   UNL A   1      32.609  24.651  25.685  1.00  0.00     0.087 C 
ATOM      9  C   UNL A   1      30.081  30.021  23.130  1.00  0.00     0.046 C 
ATOM     10  C   UNL A   1      30.841  29.009  23.942  1.00  0.00    -0.028 A 
ATOM     11  C   UNL A   1      31.037  27.730  23.403  1.00  0.00     0.052 A 
ATOM     12  C   UNL A   1      31.386  29.306  25.207  1.00  0.00     0.047 A 
ATOM     13  C   UNL A   1      31.671  26.734  24.142  1.00  0.00     0.128 A 
ATOM     14  C   UNL A   1      32.045  28.311  25.966  1.00  0.00    -0.021 A 
ATOM     15  Cl  UNL A   1      31.221  30.923  25.824  1.00  0.00    -0.084 Cl
ATOM     16  C   UNL A   1      32.137  27.001  25.433  1.00  0.00     0.022 A 
ATOM     17  O   UNL A   1      31.796  25.529  23.510  1.00  0.00    -0.475 OA
ATOM     18  C   UNL A   1      32.642  28.606  27.323  1.00  0.00     0.047 C 
ATOM     19  C   UNL A   1      32.644  25.881  26.216  1.00  0.00     0.027 C 
ATOM     20  C   UNL A   1      32.179  24.356  24.280  1.00  0.00     0.316 C 
BRANCH  20  21
ATOM     21  C   UNL A   1      31.033  23.336  24.210  1.00  0.00     0.430 C 
ATOM     22  F   UNL A   1      31.509  22.072  24.123  1.00  0.00    -0.167 F 
ATOM     23  F   UNL A   1      30.248  23.392  25.309  1.00  0.00    -0.167 F 
ATOM     24  F   UNL A   1      30.243  23.550  23.132  1.00  0.00    -0.167 F 
ENDBRANCH  20  21
ENDBRANCH   6   8
ENDBRANCH   5   6
ENDBRANCH   4   5
ENDBRANCH   3   4
ENDBRANCH   2   3
ENDBRANCH   1   2
BRANCH   1  25
ATOM     25  C   UNL A   1      37.948  19.888  25.082  1.00  0.00     0.261 C 
BRANCH  25  26
ATOM     26  O   UNL A   1      39.098  20.746  25.189  1.00  0.00    -0.460 OA
BRANCH  26  27
ATOM     27  C   UNL A   1      39.839  20.567  26.309  1.00  0.00     0.338 C 
ATOM     28  O   UNL A   1      40.335  19.520  26.707  1.00  0.00    -0.246 OA
BRANCH  27  29
ATOM     29  C   UNL A   1      40.152  21.870  26.917  1.00  0.00     0.060 A 
ATOM     30  C   UNL A   1      39.540  23.006  26.371  1.00  0.00     0.016 A 
ATOM     31  C   UNL A   1      41.096  21.989  27.938  1.00  0.00     0.016 A 
ATOM     32  C   UNL A   1      39.903  24.274  26.817  1.00  0.00     0.010 A 
ATOM     33  C   UNL A   1      41.468  23.264  28.376  1.00  0.00     0.010 A 
ATOM     34  C   UNL A   1      40.901  24.412  27.790  1.00  0.00    -0.014 A 
BRANCH  34  35
ATOM     35  C   UNL A   1      41.454  25.758  28.067  1.00  0.00     0.031 A 
ATOM     36  C   UNL A   1      42.845  26.083  27.595  1.00  0.00     0.074 A 
ATOM     37  C   UNL A   1      40.712  26.692  28.688  1.00  0.00     0.049 A 
ATOM     38  N   UNL A   1      43.506  27.207  27.687  1.00  0.00    -0.248 NA
ATOM     39  C   UNL A   1      43.590  25.001  26.928  1.00  0.00     0.031 C 
ATOM     40  C   UNL A   1      39.349  26.497  29.176  1.00  0.00     0.029 A 
ATOM     41  N   UNL A   1      41.008  27.991  29.019  1.00  0.00    -0.354 N 
ATOM     42  C   UNL A   1      44.743  26.967  27.100  1.00  0.00     0.074 A 
ATOM     43  C   UNL A   1      44.753  25.584  26.680  1.00  0.00     0.031 C 
ATOM     44  C   UNL A   1      38.927  27.635  29.753  1.00  0.00     0.029 A 
ATOM     45  C   UNL A   1      39.995  28.632  29.692  1.00  0.00     0.049 A 
ATOM     46  H   UNL A   1      41.864  28.423  28.795  1.00  0.00     0.167 HD
ATOM     47  C   UNL A   1      45.767  27.830  26.902  1.00  0.00     0.034 A 
ATOM     48  C   UNL A   1      39.940  29.878  30.205  1.00  0.00     0.034 A 
ATOM     49  C   UNL A   1      45.744  29.210  27.301  1.00  0.00     0.049 A 
ATOM     50  C   UNL A   1      41.117  30.802  30.022  1.00  0.00     0.074 A 
ATOM     51  C   UNL A   1      46.717  30.174  27.105  1.00  0.00     0.029 A 
ATOM     52  N   UNL A   1      44.706  29.820  27.987  1.00  0.00    -0.354 N 
ATOM     53  N   UNL A   1      42.229  30.599  29.356  1.00  0.00    -0.248 NA
ATOM     54  C   UNL A   1      41.025  32.134  30.639  1.00  0.00     0.031 C 
ATOM     55  C   UNL A   1      46.278  31.361  27.696  1.00  0.00     0.029 A 
ATOM     56  C   UNL A   1      45.023  31.143  28.242  1.00  0.00     0.049 A 
ATOM     57  H   UNL A   1      43.868  29.378  28.252  1.00  0.00     0.167 HD
ATOM     58  C   UNL A   1      42.957  31.781  29.455  1.00  0.00     0.074 A 
ATOM     59  C   UNL A   1      42.149  32.705  30.224  1.00  0.00     0.031 C 
ATOM     60  C   UNL A   1      44.191  32.068  28.969  1.00  0.00     0.034 A 
BRANCH  47  61
ATOM     61  C   UNL A   1      46.985  27.323  26.177  1.00  0.00     0.023 A 
ATOM     62  C   UNL A   1      47.135  27.600  24.804  1.00  0.00     0.012 A 
ATOM     63  C   UNL A   1      48.012  26.649  26.864  1.00  0.00     0.148 A 
ATOM     64  C   UNL A   1      48.281  27.199  24.120  1.00  0.00     0.002 A 
ATOM     65  C   UNL A   1      49.170  26.288  26.186  1.00  0.00     0.091 A 
ATOM     66  F   UNL A   1      47.839  26.377  28.166  1.00  0.00    -0.205 F 
ATOM     67  C   UNL A   1      49.301  26.553  24.812  1.00  0.00     0.022 A 
BRANCH  65  68
ATOM     68  S   UNL A   1      50.577  25.523  27.000  1.00  0.00     0.127 S 
ATOM     69  O   UNL A   1      51.019  26.594  27.892  1.00  0.00    -0.237 OA
ATOM     70  O   UNL A   1      49.957  24.383  27.675  1.00  0.00    -0.237 OA
ATOM     71  O   UNL A   1      51.511  25.170  25.940  1.00  0.00    -0.744 OA
ENDBRANCH  65  68
ENDBRANCH  47  61
BRANCH  48  72
ATOM     72  C   UNL A   1      38.702  30.340  30.895  1.00  0.00     0.023 A 
ATOM     73  C   UNL A   1      38.573  30.149  32.285  1.00  0.00     0.012 A 
ATOM     74  C   UNL A   1      37.673  31.002  30.196  1.00  0.00     0.148 A 
ATOM     75  C   UNL A   1      37.438  30.594  32.962  1.00  0.00     0.002 A 
ATOM     76  C   UNL A   1      36.570  31.492  30.885  1.00  0.00     0.091 A 
ATOM     77  F   UNL A   1      37.805  31.157  28.871  1.00  0.00    -0.205 F 
ATOM     78  C   UNL A   1      36.443  31.276  32.267  1.00  0.00     0.022 A 
BRANCH  76  79
ATOM     79  S   UNL A   1      35.303  32.494  30.098  1.00  0.00     0.127 S 
ATOM     80  O   UNL A   1      34.362  32.704  31.196  1.00  0.00    -0.237 OA
ATOM     81  O   UNL A   1      36.063  33.679  29.702  1.00  0.00    -0.237 OA
ATOM     82  O   UNL A   1      34.805  31.696  28.986  1.00  0.00    -0.744 OA
ENDBRANCH  76  79
ENDBRANCH  48  72
BRANCH  60  83
ATOM     83  C   UNL A   1      44.771  33.430  29.250  1.00  0.00     0.023 A 
ATOM     84  C   UNL A   1      45.692  33.581  30.307  1.00  0.00     0.012 A 
ATOM     85  C   UNL A   1      44.523  34.517  28.388  1.00  0.00     0.148 A 
ATOM     86  C   UNL A   1      46.347  34.795  30.506  1.00  0.00     0.002 A 
ATOM     87  C   UNL A   1      45.217  35.708  28.563  1.00  0.00     0.091 A 
ATOM     88  F   UNL A   1      43.636  34.353  27.395  1.00  0.00    -0.205 F 
ATOM     89  C   UNL A   1      46.123  35.852  29.627  1.00  0.00     0.022 A 
BRANCH  87  90
ATOM     90  S   UNL A   1      45.080  37.090  27.422  1.00  0.00     0.127 S 
ATOM     91  O   UNL A   1      43.636  37.138  27.187  1.00  0.00    -0.237 OA
ATOM     92  O   UNL A   1      45.605  38.200  28.217  1.00  0.00    -0.237 OA
ATOM     93  O   UNL A   1      45.884  36.737  26.260  1.00  0.00    -0.744 OA
ENDBRANCH  87  90
ENDBRANCH  60  83
ENDBRANCH  34  35
ENDBRANCH  27  29
ENDBRANCH  26  27
ENDBRANCH  25  26
ENDBRANCH   1  25
TORSDOF 18
ENDMDL
MODEL 3
REMARK VINA RESULT:     -11.8      5.253      8.377
REMARK SMILES Cc1cc2c(c(C)c1Cl)C=C(C(=O)OCCOCCOC(=O)c1ccc(-c3c4nc(c(-c5cccc(S(=O)(=O)[O-])c5F)c5ccc([nH]5)c(-c5cccc(S(=O)(=O)[O-])c5F)c5nc(c(-c6cccc(S(=O)(=O)[O-])c6F)c6ccc3[nH]6)C=C5)C=C4)cc1)[C@@H](C(F)(F)F)O2
REMARK SMILES IDX 18 1 17 2 16 3 15 4 14 5 12 6 13 7 11 8 1 9 2 10 3 11 8 12
REMARK SMILES IDX 4 13 6 14 9 15 5 16 91 17 7 18 10 19 86 20 87 21 88 22 89 23
REMARK SMILES IDX 90 24 19 25 20 26 21 27 22 28 23 29 24 30 85 31 25 32 84 33
REMARK SMILES IDX 26 34 27 35 28 36 78 37 29 38 83 39 77 40 79 41 30 42 82 43
REMARK SMILES IDX 76 44 75 45 31 47 63 48 43 49 62 50 44 51 47 52 61 53 80 54
REMARK SMILES IDX 45 55 46 56 60 58 81 59 48 60 32 61 33 62 41 63 34 64 36 65
REMARK SMILES IDX 42 66 35 67 37 68 38 69 39 70 40 71 64 72 65 73 73 74 66 75
REMARK SMILES IDX 68 76 74 77 67 78 69 79 70 80 71 81 72 82 49 83 50 84 58 85
REMARK SMILES IDX 51 86 53 87 59 88 52 89 54 90 55 91 56 92 57 93
REMARK H PARENT 79 46 47 57
REMARK Flexibility Score: inf
ROOT
ATOM      1  C   UNL A   1      35.647  21.069  25.501  1.00  0.00     0.202 C 
ENDROOT
BRANCH   1   2
ATOM      2  O   UNL A   1      34.842  21.690  24.498  1.00  0.00    -0.374 OA
BRANCH   2   3
ATOM      3  C   UNL A   1      35.189  23.011  24.085  1.00  0.00     0.202 C 
BRANCH   3   4
ATOM      4  C   UNL A   1      35.364  24.064  25.184  1.00  0.00     0.261 C 
BRANCH   4   5
ATOM      5  O   UNL A   1      34.648  25.272  24.892  1.00  0.00    -0.460 OA
BRANCH   5   6
ATOM      6  C   UNL A   1      33.424  25.348  25.462  1.00  0.00     0.338 C 
ATOM      7  O   UNL A   1      33.112  24.982  26.586  1.00  0.00    -0.246 OA
BRANCH   6   8
ATOM      8  C   UNL A   1      32.504  26.088  24.578  1.00  0.00     0.087 C 
ATOM      9  C   UNL A   1      27.925  30.012  22.257  1.00  0.00     0.046 C 
ATOM     10  C   UNL A   1      29.137  29.412  22.915  1.00  0.00    -0.028 A 
ATOM     11  C   UNL A   1      29.548  28.133  22.518  1.00  0.00     0.052 A 
ATOM     12  C   UNL A   1      29.887  30.097  23.891  1.00  0.00     0.047 A 
ATOM     13  C   UNL A   1      30.620  27.501  23.145  1.00  0.00     0.128 A 
ATOM     14  C   UNL A   1      30.986  29.478  24.529  1.00  0.00    -0.021 A 
ATOM     15  Cl  UNL A   1      29.426  31.721  24.306  1.00  0.00    -0.084 Cl
ATOM     16  C   UNL A   1      31.313  28.145  24.175  1.00  0.00     0.022 A 
ATOM     17  O   UNL A   1      30.920  26.254  22.674  1.00  0.00    -0.475 OA
ATOM     18  C   UNL A   1      31.810  30.193  25.575  1.00  0.00     0.047 C 
ATOM     19  C   UNL A   1      32.317  27.375  24.900  1.00  0.00     0.027 C 
ATOM     20  C   UNL A   1      31.821  25.402  23.433  1.00  0.00     0.316 C 
BRANCH  20  21
ATOM     21  C   UNL A   1      31.049  24.146  23.867  1.00  0.00     0.430 C 
ATOM     22  F   UNL A   1      31.879  23.086  23.999  1.00  0.00    -0.167 F 
ATOM     23  F   UNL A   1      30.436  24.325  25.058  1.00  0.00    -0.167 F 
ATOM     24  F   UNL A   1      30.099  23.811  22.963  1.00  0.00    -0.167 F 
ENDBRANCH  20  21
ENDBRANCH   6   8
ENDBRANCH   5   6
ENDBRANCH   4   5
ENDBRANCH   3   4
ENDBRANCH   2   3
ENDBRANCH   1   2
BRANCH   1  25
ATOM     25  C   UNL A   1      36.931  20.362  25.050  1.00  0.00     0.261 C 
BRANCH  25  26
ATOM     26  O   UNL A   1      38.059  21.254  25.008  1.00  0.00    -0.460 OA
BRANCH  26  27
ATOM     27  C   UNL A   1      39.035  20.979  25.908  1.00  0.00     0.338 C 
ATOM     28  O   UNL A   1      39.568  19.896  26.111  1.00  0.00    -0.246 OA
BRANCH  27  29
ATOM     29  C   UNL A   1      39.535  22.229  26.503  1.00  0.00     0.060 A 
ATOM     30  C   UNL A   1      38.915  23.425  26.119  1.00  0.00     0.016 A 
ATOM     31  C   UNL A   1      40.645  22.240  27.347  1.00  0.00     0.016 A 
ATOM     32  C   UNL A   1      39.432  24.645  26.545  1.00  0.00     0.010 A 
ATOM     33  C   UNL A   1      41.171  23.468  27.763  1.00  0.00     0.010 A 
ATOM     34  C   UNL A   1      40.590  24.675  27.333  1.00  0.00    -0.014 A 
BRANCH  34  35
ATOM     35  C   UNL A   1      41.271  25.971  27.562  1.00  0.00     0.031 A 
ATOM     36  C   UNL A   1      40.556  27.038  28.344  1.00  0.00     0.074 A 
ATOM     37  C   UNL A   1      42.524  26.176  27.120  1.00  0.00     0.049 A 
ATOM     38  N   UNL A   1      40.979  28.223  28.701  1.00  0.00    -0.248 NA
ATOM     39  C   UNL A   1      39.185  26.732  28.787  1.00  0.00     0.031 C 
ATOM     40  C   UNL A   1      43.321  25.211  26.366  1.00  0.00     0.029 A 
ATOM     41  N   UNL A   1      43.344  27.271  27.239  1.00  0.00    -0.354 N 
ATOM     42  C   UNL A   1      39.928  28.805  29.400  1.00  0.00     0.074 A 
ATOM     43  C   UNL A   1      38.837  27.857  29.393  1.00  0.00     0.031 C 
ATOM     44  C   UNL A   1      44.514  25.760  26.081  1.00  0.00     0.029 A 
ATOM     45  C   UNL A   1      44.559  27.120  26.616  1.00  0.00     0.049 A 
ATOM     46  H   UNL A   1      43.085  28.087  27.726  1.00  0.00     0.167 HD
ATOM     47  C   UNL A   1      39.887  30.009  30.016  1.00  0.00     0.034 A 
ATOM     48  C   UNL A   1      45.588  27.983  26.488  1.00  0.00     0.034 A 
ATOM     49  C   UNL A   1      40.981  30.939  30.039  1.00  0.00     0.049 A 
ATOM     50  C   UNL A   1      45.494  29.342  27.135  1.00  0.00     0.074 A 
ATOM     51  C   UNL A   1      41.049  32.165  30.675  1.00  0.00     0.029 A 
ATOM     52  N   UNL A   1      42.192  30.755  29.390  1.00  0.00    -0.354 N 
ATOM     53  N   UNL A   1      44.543  29.828  27.897  1.00  0.00    -0.248 NA
ATOM     54  C   UNL A   1      46.621  30.262  26.926  1.00  0.00     0.031 C 
ATOM     55  C   UNL A   1      42.292  32.736  30.388  1.00  0.00     0.029 A 
ATOM     56  C   UNL A   1      43.007  31.855  29.592  1.00  0.00     0.049 A 
ATOM     57  H   UNL A   1      42.436  29.959  28.866  1.00  0.00     0.167 HD
ATOM     58  C   UNL A   1      44.966  31.099  28.275  1.00  0.00     0.074 A 
ATOM     59  C   UNL A   1      46.271  31.297  27.680  1.00  0.00     0.031 C 
ATOM     60  C   UNL A   1      44.323  32.023  29.032  1.00  0.00     0.034 A 
BRANCH  47  61
ATOM     61  C   UNL A   1      38.632  30.374  30.763  1.00  0.00     0.023 A 
ATOM     62  C   UNL A   1      38.511  30.023  32.122  1.00  0.00     0.012 A 
ATOM     63  C   UNL A   1      37.615  31.131  30.151  1.00  0.00     0.148 A 
ATOM     64  C   UNL A   1      37.389  30.402  32.857  1.00  0.00     0.002 A 
ATOM     65  C   UNL A   1      36.518  31.541  30.900  1.00  0.00     0.091 A 
ATOM     66  F   UNL A   1      37.739  31.436  28.851  1.00  0.00    -0.205 F 
ATOM     67  C   UNL A   1      36.399  31.169  32.249  1.00  0.00     0.022 A 
BRANCH  65  68
ATOM     68  S   UNL A   1      35.225  32.596  30.235  1.00  0.00     0.127 S 
ATOM     69  O   UNL A   1      34.308  32.689  31.370  1.00  0.00    -0.237 OA
ATOM     70  O   UNL A   1      35.957  33.828  29.940  1.00  0.00    -0.237 OA
ATOM     71  O   UNL A   1      34.701  31.903  29.067  1.00  0.00    -0.744 OA
ENDBRANCH  65  68
ENDBRANCH  47  61
BRANCH  48  72
ATOM     72  C   UNL A   1      46.818  27.565  25.756  1.00  0.00     0.023 A 
ATOM     73  C   UNL A   1      46.902  27.780  24.367  1.00  0.00     0.012 A 
ATOM     74  C   UNL A   1      47.917  26.998  26.431  1.00  0.00     0.148 A 
ATOM     75  C   UNL A   1      48.051  27.424  23.660  1.00  0.00     0.002 A 
ATOM     76  C   UNL A   1      49.079  26.695  25.730  1.00  0.00     0.091 A 
ATOM     77  F   UNL A   1      47.810  26.783  27.749  1.00  0.00    -0.205 F 
ATOM     78  C   UNL A   1      49.143  26.893  24.342  1.00  0.00     0.022 A 
BRANCH  76  79
ATOM     79  S   UNL A   1      50.579  26.131  26.542  1.00  0.00     0.127 S 
ATOM     80  O   UNL A   1      50.778  27.163  27.556  1.00  0.00    -0.237 OA
ATOM     81  O   UNL A   1      50.166  24.827  27.062  1.00  0.00    -0.237 OA
ATOM     82  O   UNL A   1      51.593  26.070  25.498  1.00  0.00    -0.744 OA
ENDBRANCH  76  79
ENDBRANCH  48  72
BRANCH  60  83
ATOM     83  C   UNL A   1      44.999  33.350  29.266  1.00  0.00     0.023 A 
ATOM     84  C   UNL A   1      45.805  33.519  30.409  1.00  0.00     0.012 A 
ATOM     85  C   UNL A   1      44.957  34.368  28.292  1.00  0.00     0.148 A 
ATOM     86  C   UNL A   1      46.550  34.685  30.585  1.00  0.00     0.002 A 
ATOM     87  C   UNL A   1      45.740  35.506  28.450  1.00  0.00     0.091 A 
ATOM     88  F   UNL A   1      44.175  34.190  27.217  1.00  0.00    -0.205 F 
ATOM     89  C   UNL A   1      46.530  35.669  29.600  1.00  0.00     0.022 A 
BRANCH  87  90
ATOM     90  S   UNL A   1      45.867  36.780  27.189  1.00  0.00     0.127 S 
ATOM     91  O   UNL A   1      44.478  37.229  27.080  1.00  0.00    -0.237 OA
ATOM     92  O   UNL A   1      46.771  37.745  27.816  1.00  0.00    -0.237 OA
ATOM     93  O   UNL A   1      46.400  36.125  26.003  1.00  0.00    -0.744 OA
ENDBRANCH  87  90
ENDBRANCH  60  83
ENDBRANCH  34  35
ENDBRANCH  27  29
ENDBRANCH  26  27
ENDBRANCH  25  26
ENDBRANCH   1  25
TORSDOF 18
ENDMDL
