MODEL 1
REMARK VINA RESULT:     -11.0      0.000      0.000
REMARK SMILES Cc1cc(C(=O)NC[C@@H]2CC[C@H](C(=O)OCCOCCOC(=O)c3ccc(-c4c5nc(c(-c6cccc(S(=O)(=O)[O-])c6F)c6ccc([nH]6)c(-c6cccc(S(=O)(=O)[O-])c6F)c6nc(c(-c7cccc(S(=O)(=O)[O-])c7F)c7ccc4[nH]7)C=C6)C=C5)cc3)O2)on1
REMARK SMILES IDX 18 1 17 2 16 3 15 4 13 5 14 6 12 7 9 8 10 9 87 10 11 11 8 12
REMARK SMILES IDX 7 13 5 14 6 15 4 17 1 18 2 19 3 20 89 21 88 22 19 23 20 24
REMARK SMILES IDX 21 25 22 26 23 27 24 28 25 29 86 30 26 31 85 32 27 33 28 34
REMARK SMILES IDX 29 35 79 36 30 37 84 38 78 39 80 40 31 41 83 42 77 43 76 44
REMARK SMILES IDX 32 46 64 47 44 48 63 49 45 50 48 51 62 52 81 53 46 54 47 55
REMARK SMILES IDX 61 57 82 58 49 59 33 60 34 61 42 62 35 63 37 64 43 65 36 66
REMARK SMILES IDX 38 67 39 68 40 69 41 70 65 71 66 72 74 73 67 74 69 75 75 76
REMARK SMILES IDX 68 77 70 78 71 79 72 80 73 81 50 82 51 83 59 84 52 85 54 86
REMARK SMILES IDX 60 87 53 88 55 89 56 90 57 91 58 92
REMARK H PARENT 7 16 80 45 48 56
REMARK Flexibility Score: inf
ROOT
ATOM      1  O   UNL A   1      35.268  22.554  25.027  1.00  0.00    -0.374 OA
ENDROOT
BRANCH   1   2
ATOM      2  C   UNL A   1      34.664  22.928  26.266  1.00  0.00     0.202 C 
BRANCH   2   3
ATOM      3  C   UNL A   1      33.361  23.726  26.179  1.00  0.00     0.261 C 
BRANCH   3   4
ATOM      4  O   UNL A   1      33.442  24.753  25.176  1.00  0.00    -0.461 OA
BRANCH   4   5
ATOM      5  C   UNL A   1      32.353  25.563  25.060  1.00  0.00     0.335 C 
ATOM      6  O   UNL A   1      31.273  25.218  24.592  1.00  0.00    -0.249 OA
BRANCH   5   7
ATOM      7  C   UNL A   1      32.624  26.986  25.577  1.00  0.00     0.228 C 
ATOM      8  C   UNL A   1      32.233  28.583  23.922  1.00  0.00     0.138 C 
ATOM      9  C   UNL A   1      33.731  28.304  23.933  1.00  0.00     0.037 C 
ATOM     10  O   UNL A   1      31.662  27.910  25.065  1.00  0.00    -0.361 OA
ATOM     11  C   UNL A   1      33.970  27.605  25.250  1.00  0.00     0.047 C 
BRANCH   8  12
ATOM     12  C   UNL A   1      31.548  28.066  22.647  1.00  0.00     0.148 C 
BRANCH  12  13
ATOM     13  N   UNL A   1      30.218  27.566  22.935  1.00  0.00    -0.347 N 
ATOM     14  C   UNL A   1      29.004  28.203  23.040  1.00  0.00     0.289 C 
ATOM     15  O   UNL A   1      28.074  27.488  23.426  1.00  0.00    -0.266 OA
ATOM     16  H   UNL A   1      30.177  26.594  23.081  1.00  0.00     0.164 HD
BRANCH  14  17
ATOM     17  C   UNL A   1      28.847  29.611  22.751  1.00  0.00     0.224 A 
ATOM     18  C   UNL A   1      28.626  33.272  22.724  1.00  0.00     0.070 C 
ATOM     19  C   UNL A   1      28.668  31.809  22.502  1.00  0.00     0.081 A 
ATOM     20  C   UNL A   1      28.761  30.784  23.469  1.00  0.00     0.083 A 
ATOM     21  N   UNL A   1      28.614  31.303  21.268  1.00  0.00    -0.084 NA
ATOM     22  O   UNL A   1      28.753  29.935  21.423  1.00  0.00    -0.351 OA
ENDBRANCH  14  17
ENDBRANCH  12  13
ENDBRANCH   8  12
ENDBRANCH   5   7
ENDBRANCH   4   5
ENDBRANCH   3   4
ENDBRANCH   2   3
ENDBRANCH   1   2
BRANCH   1  23
ATOM     23  C   UNL A   1      35.387  21.163  24.738  1.00  0.00     0.202 C 
BRANCH  23  24
ATOM     24  C   UNL A   1      36.775  20.526  24.907  1.00  0.00     0.261 C 
BRANCH  24  25
ATOM     25  O   UNL A   1      37.829  21.499  25.027  1.00  0.00    -0.460 OA
BRANCH  25  26
ATOM     26  C   UNL A   1      38.835  21.141  25.861  1.00  0.00     0.338 C 
ATOM     27  O   UNL A   1      39.353  20.034  25.958  1.00  0.00    -0.246 OA
BRANCH  26  28
ATOM     28  C   UNL A   1      39.383  22.323  26.549  1.00  0.00     0.060 A 
ATOM     29  C   UNL A   1      38.829  23.572  26.235  1.00  0.00     0.016 A 
ATOM     30  C   UNL A   1      40.477  22.228  27.410  1.00  0.00     0.016 A 
ATOM     31  C   UNL A   1      39.402  24.739  26.740  1.00  0.00     0.010 A 
ATOM     32  C   UNL A   1      41.055  23.401  27.907  1.00  0.00     0.010 A 
ATOM     33  C   UNL A   1      40.544  24.661  27.543  1.00  0.00    -0.014 A 
BRANCH  33  34
ATOM     34  C   UNL A   1      41.307  25.889  27.875  1.00  0.00     0.031 A 
ATOM     35  C   UNL A   1      40.619  26.983  28.646  1.00  0.00     0.074 A 
ATOM     36  C   UNL A   1      42.584  26.041  27.481  1.00  0.00     0.049 A 
ATOM     37  N   UNL A   1      41.050  28.179  28.949  1.00  0.00    -0.248 NA
ATOM     38  C   UNL A   1      39.260  26.690  29.134  1.00  0.00     0.031 C 
ATOM     39  C   UNL A   1      43.367  25.047  26.752  1.00  0.00     0.029 A 
ATOM     40  N   UNL A   1      43.432  27.112  27.612  1.00  0.00    -0.354 N 
ATOM     41  C   UNL A   1      40.005  28.796  29.627  1.00  0.00     0.074 A 
ATOM     42  C   UNL A   1      38.919  27.843  29.691  1.00  0.00     0.031 C 
ATOM     43  C   UNL A   1      44.570  25.570  26.461  1.00  0.00     0.029 A 
ATOM     44  C   UNL A   1      44.628  26.946  26.956  1.00  0.00     0.049 A 
ATOM     45  H   UNL A   1      43.206  27.921  28.126  1.00  0.00     0.167 HD
ATOM     46  C   UNL A   1      39.959  30.040  30.159  1.00  0.00     0.034 A 
ATOM     47  C   UNL A   1      45.638  27.814  26.746  1.00  0.00     0.034 A 
ATOM     48  C   UNL A   1      41.047  30.976  30.120  1.00  0.00     0.049 A 
ATOM     49  C   UNL A   1      45.549  29.206  27.317  1.00  0.00     0.074 A 
ATOM     50  C   UNL A   1      41.110  32.245  30.669  1.00  0.00     0.029 A 
ATOM     51  N   UNL A   1      42.262  30.751  29.491  1.00  0.00    -0.354 N 
ATOM     52  N   UNL A   1      44.596  29.741  28.038  1.00  0.00    -0.248 NA
ATOM     53  C   UNL A   1      46.687  30.104  27.068  1.00  0.00     0.031 C 
ATOM     54  C   UNL A   1      42.355  32.797  30.350  1.00  0.00     0.029 A 
ATOM     55  C   UNL A   1      43.077  31.860  29.628  1.00  0.00     0.049 A 
ATOM     56  H   UNL A   1      42.508  29.924  29.016  1.00  0.00     0.167 HD
ATOM     57  C   UNL A   1      45.035  31.019  28.367  1.00  0.00     0.074 A 
ATOM     58  C   UNL A   1      46.346  31.177  27.771  1.00  0.00     0.031 C 
ATOM     59  C   UNL A   1      44.407  31.979  29.089  1.00  0.00     0.034 A 
BRANCH  46  60
ATOM     60  C   UNL A   1      38.689  30.458  30.849  1.00  0.00     0.023 A 
ATOM     61  C   UNL A   1      38.523  30.198  32.224  1.00  0.00     0.012 A 
ATOM     62  C   UNL A   1      37.688  31.160  30.151  1.00  0.00     0.148 A 
ATOM     63  C   UNL A   1      37.366  30.607  32.888  1.00  0.00     0.002 A 
ATOM     64  C   UNL A   1      36.557  31.601  30.827  1.00  0.00     0.091 A 
ATOM     65  F   UNL A   1      37.855  31.375  28.838  1.00  0.00    -0.205 F 
ATOM     66  C   UNL A   1      36.390  31.317  32.193  1.00  0.00     0.022 A 
BRANCH  64  67
ATOM     67  S   UNL A   1      35.282  32.587  30.035  1.00  0.00     0.127 S 
ATOM     68  O   UNL A   1      36.030  33.786  29.657  1.00  0.00    -0.237 OA
ATOM     69  O   UNL A   1      34.887  31.735  28.913  1.00  0.00    -0.237 OA
ATOM     70  O   UNL A   1      34.247  32.786  31.040  1.00  0.00    -0.744 OA
ENDBRANCH  64  67
ENDBRANCH  46  60
BRANCH  47  71
ATOM     71  C   UNL A   1      46.828  27.391  25.959  1.00  0.00     0.023 A 
ATOM     72  C   UNL A   1      46.868  27.619  24.570  1.00  0.00     0.012 A 
ATOM     73  C   UNL A   1      47.929  26.780  26.588  1.00  0.00     0.148 A 
ATOM     74  C   UNL A   1      47.974  27.222  23.818  1.00  0.00     0.002 A 
ATOM     75  C   UNL A   1      49.051  26.441  25.844  1.00  0.00     0.091 A 
ATOM     76  F   UNL A   1      47.861  26.552  27.908  1.00  0.00    -0.205 F 
ATOM     77  C   UNL A   1      49.071  26.645  24.455  1.00  0.00     0.022 A 
BRANCH  75  78
ATOM     78  S   UNL A   1      50.554  25.828  26.612  1.00  0.00     0.127 S 
ATOM     79  O   UNL A   1      50.086  24.593  27.233  1.00  0.00    -0.237 OA
ATOM     80  O   UNL A   1      51.429  25.649  25.453  1.00  0.00    -0.237 OA
ATOM     81  O   UNL A   1      50.979  26.881  27.527  1.00  0.00    -0.744 OA
ENDBRANCH  75  78
ENDBRANCH  47  71
BRANCH  59  82
ATOM     82  C   UNL A   1      45.137  33.272  29.338  1.00  0.00     0.023 A 
ATOM     83  C   UNL A   1      45.943  33.417  30.483  1.00  0.00     0.012 A 
ATOM     84  C   UNL A   1      45.110  34.300  28.374  1.00  0.00     0.148 A 
ATOM     85  C   UNL A   1      46.697  34.575  30.675  1.00  0.00     0.002 A 
ATOM     86  C   UNL A   1      45.899  35.430  28.549  1.00  0.00     0.091 A 
ATOM     87  F   UNL A   1      44.321  34.147  27.300  1.00  0.00    -0.205 F 
ATOM     88  C   UNL A   1      46.686  35.573  29.703  1.00  0.00     0.022 A 
BRANCH  86  89
ATOM     89  S   UNL A   1      46.026  36.720  27.304  1.00  0.00     0.127 S 
ATOM     90  O   UNL A   1      44.643  37.188  27.220  1.00  0.00    -0.237 OA
ATOM     91  O   UNL A   1      46.953  37.663  27.930  1.00  0.00    -0.237 OA
ATOM     92  O   UNL A   1      46.539  36.073  26.104  1.00  0.00    -0.744 OA
ENDBRANCH  86  89
ENDBRANCH  59  82
ENDBRANCH  33  34
ENDBRANCH  26  28
ENDBRANCH  25  26
ENDBRANCH  24  25
ENDBRANCH  23  24
ENDBRANCH   1  23
TORSDOF 20
ENDMDL
MODEL 2
REMARK VINA RESULT:     -10.8      1.761      2.592
REMARK SMILES Cc1cc(C(=O)NC[C@@H]2CC[C@H](C(=O)OCCOCCOC(=O)c3ccc(-c4c5nc(c(-c6cccc(S(=O)(=O)[O-])c6F)c6ccc([nH]6)c(-c6cccc(S(=O)(=O)[O-])c6F)c6nc(c(-c7cccc(S(=O)(=O)[O-])c7F)c7ccc4[nH]7)C=C6)C=C5)cc3)O2)on1
REMARK SMILES IDX 18 1 17 2 16 3 15 4 13 5 14 6 12 7 9 8 10 9 87 10 11 11 8 12
REMARK SMILES IDX 7 13 5 14 6 15 4 17 1 18 2 19 3 20 89 21 88 22 19 23 20 24
REMARK SMILES IDX 21 25 22 26 23 27 24 28 25 29 86 30 26 31 85 32 27 33 28 34
REMARK SMILES IDX 29 35 79 36 30 37 84 38 78 39 80 40 31 41 83 42 77 43 76 44
REMARK SMILES IDX 32 46 64 47 44 48 63 49 45 50 48 51 62 52 81 53 46 54 47 55
REMARK SMILES IDX 61 57 82 58 49 59 33 60 34 61 42 62 35 63 37 64 43 65 36 66
REMARK SMILES IDX 38 67 39 68 40 69 41 70 65 71 66 72 74 73 67 74 69 75 75 76
REMARK SMILES IDX 68 77 70 78 71 79 72 80 73 81 50 82 51 83 59 84 52 85 54 86
REMARK SMILES IDX 60 87 53 88 55 89 56 90 57 91 58 92
REMARK H PARENT 7 16 80 45 48 56
REMARK Flexibility Score: inf
ROOT
ATOM      1  O   UNL A   1      35.104  18.813  24.570  1.00  0.00    -0.374 OA
ENDROOT
BRANCH   1   2
ATOM      2  C   UNL A   1      33.703  18.957  24.328  1.00  0.00     0.202 C 
BRANCH   2   3
ATOM      3  C   UNL A   1      32.852  19.437  25.506  1.00  0.00     0.261 C 
BRANCH   3   4
ATOM      4  O   UNL A   1      31.976  20.509  25.117  1.00  0.00    -0.461 OA
BRANCH   4   5
ATOM      5  C   UNL A   1      32.554  21.735  24.985  1.00  0.00     0.335 C 
ATOM      6  O   UNL A   1      32.745  22.305  23.916  1.00  0.00    -0.249 OA
BRANCH   5   7
ATOM      7  C   UNL A   1      32.960  22.340  26.339  1.00  0.00     0.228 C 
ATOM      8  C   UNL A   1      32.076  24.482  26.616  1.00  0.00     0.138 C 
ATOM      9  C   UNL A   1      33.508  24.646  26.123  1.00  0.00     0.037 C 
ATOM     10  O   UNL A   1      31.883  23.081  26.913  1.00  0.00    -0.361 OA
ATOM     11  C   UNL A   1      34.139  23.294  26.354  1.00  0.00     0.047 C 
BRANCH   8  12
ATOM     12  C   UNL A   1      31.040  24.915  25.566  1.00  0.00     0.148 C 
BRANCH  12  13
ATOM     13  N   UNL A   1      31.044  26.354  25.392  1.00  0.00    -0.347 N 
ATOM     14  C   UNL A   1      31.488  27.150  24.363  1.00  0.00     0.289 C 
ATOM     15  O   UNL A   1      31.457  28.363  24.592  1.00  0.00    -0.266 OA
ATOM     16  H   UNL A   1      30.658  26.852  26.148  1.00  0.00     0.164 HD
BRANCH  14  17
ATOM     17  C   UNL A   1      31.985  26.597  23.122  1.00  0.00     0.224 A 
ATOM     18  C   UNL A   1      32.583  25.378  19.715  1.00  0.00     0.070 C 
ATOM     19  C   UNL A   1      32.568  25.808  21.131  1.00  0.00     0.081 A 
ATOM     20  C   UNL A   1      31.462  26.229  21.901  1.00  0.00     0.083 A 
ATOM     21  N   UNL A   1      33.692  25.831  21.852  1.00  0.00    -0.084 NA
ATOM     22  O   UNL A   1      33.332  26.347  23.083  1.00  0.00    -0.351 OA
ENDBRANCH  14  17
ENDBRANCH  12  13
ENDBRANCH   8  12
ENDBRANCH   5   7
ENDBRANCH   4   5
ENDBRANCH   3   4
ENDBRANCH   2   3
ENDBRANCH   1   2
BRANCH   1  23
ATOM     23  C   UNL A   1      35.826  19.966  24.999  1.00  0.00     0.202 C 
BRANCH  23  24
ATOM     24  C   UNL A   1      37.343  19.973  24.763  1.00  0.00     0.261 C 
BRANCH  24  25
ATOM     25  O   UNL A   1      37.986  21.157  25.270  1.00  0.00    -0.460 OA
BRANCH  25  26
ATOM     26  C   UNL A   1      39.134  20.928  25.953  1.00  0.00     0.338 C 
ATOM     27  O   UNL A   1      39.805  19.902  25.942  1.00  0.00    -0.246 OA
BRANCH  26  28
ATOM     28  C   UNL A   1      39.603  22.162  26.607  1.00  0.00     0.060 A 
ATOM     29  C   UNL A   1      39.089  23.380  26.141  1.00  0.00     0.016 A 
ATOM     30  C   UNL A   1      40.594  22.140  27.589  1.00  0.00     0.016 A 
ATOM     31  C   UNL A   1      39.603  24.585  26.617  1.00  0.00     0.010 A 
ATOM     32  C   UNL A   1      41.115  23.350  28.058  1.00  0.00     0.010 A 
ATOM     33  C   UNL A   1      40.650  24.576  27.546  1.00  0.00    -0.014 A 
BRANCH  33  34
ATOM     34  C   UNL A   1      41.372  25.831  27.867  1.00  0.00     0.031 A 
ATOM     35  C   UNL A   1      40.650  26.907  28.631  1.00  0.00     0.074 A 
ATOM     36  C   UNL A   1      42.642  26.022  27.469  1.00  0.00     0.049 A 
ATOM     37  N   UNL A   1      41.041  28.119  28.924  1.00  0.00    -0.248 NA
ATOM     38  C   UNL A   1      39.302  26.574  29.124  1.00  0.00     0.031 C 
ATOM     39  C   UNL A   1      43.457  25.049  26.747  1.00  0.00     0.029 A 
ATOM     40  N   UNL A   1      43.456  27.121  27.591  1.00  0.00    -0.354 N 
ATOM     41  C   UNL A   1      39.978  28.707  29.600  1.00  0.00     0.074 A 
ATOM     42  C   UNL A   1      38.924  27.719  29.672  1.00  0.00     0.031 C 
ATOM     43  C   UNL A   1      44.642  25.609  26.450  1.00  0.00     0.029 A 
ATOM     44  C   UNL A   1      44.655  26.989  26.935  1.00  0.00     0.049 A 
ATOM     45  H   UNL A   1      43.204  27.926  28.099  1.00  0.00     0.167 HD
ATOM     46  C   UNL A   1      39.892  29.952  30.122  1.00  0.00     0.034 A 
ATOM     47  C   UNL A   1      45.635  27.888  26.716  1.00  0.00     0.034 A 
ATOM     48  C   UNL A   1      40.949  30.923  30.074  1.00  0.00     0.049 A 
ATOM     49  C   UNL A   1      45.502  29.281  27.277  1.00  0.00     0.074 A 
ATOM     50  C   UNL A   1      40.971  32.198  30.613  1.00  0.00     0.029 A 
ATOM     51  N   UNL A   1      42.170  30.734  29.445  1.00  0.00    -0.354 N 
ATOM     52  N   UNL A   1      44.533  29.790  27.996  1.00  0.00    -0.248 NA
ATOM     53  C   UNL A   1      46.609  30.214  27.019  1.00  0.00     0.031 C 
ATOM     54  C   UNL A   1      42.196  32.788  30.289  1.00  0.00     0.029 A 
ATOM     55  C   UNL A   1      42.948  31.870  29.573  1.00  0.00     0.049 A 
ATOM     56  H   UNL A   1      42.441  29.911  28.976  1.00  0.00     0.167 HD
ATOM     57  C   UNL A   1      44.931  31.084  28.314  1.00  0.00     0.074 A 
ATOM     58  C   UNL A   1      46.235  31.280  27.715  1.00  0.00     0.031 C 
ATOM     59  C   UNL A   1      44.272  32.028  29.030  1.00  0.00     0.034 A 
BRANCH  46  60
ATOM     60  C   UNL A   1      38.610  30.334  30.811  1.00  0.00     0.023 A 
ATOM     61  C   UNL A   1      38.406  29.973  32.158  1.00  0.00     0.012 A 
ATOM     62  C   UNL A   1      37.635  31.100  30.144  1.00  0.00     0.148 A 
ATOM     63  C   UNL A   1      37.238  30.345  32.823  1.00  0.00     0.002 A 
ATOM     64  C   UNL A   1      36.492  31.504  30.825  1.00  0.00     0.091 A 
ATOM     65  F   UNL A   1      37.837  31.412  28.856  1.00  0.00    -0.205 F 
ATOM     66  C   UNL A   1      36.288  31.119  32.160  1.00  0.00     0.022 A 
BRANCH  64  67
ATOM     67  S   UNL A   1      35.249  32.564  30.080  1.00  0.00     0.127 S 
ATOM     68  O   UNL A   1      34.768  31.727  28.982  1.00  0.00    -0.237 OA
ATOM     69  O   UNL A   1      34.296  32.739  31.177  1.00  0.00    -0.237 OA
ATOM     70  O   UNL A   1      35.946  33.779  29.682  1.00  0.00    -0.744 OA
ENDBRANCH  64  67
ENDBRANCH  46  60
BRANCH  47  71
ATOM     71  C   UNL A   1      46.838  27.498  25.931  1.00  0.00     0.023 A 
ATOM     72  C   UNL A   1      46.868  27.715  24.540  1.00  0.00     0.012 A 
ATOM     73  C   UNL A   1      47.960  26.931  26.563  1.00  0.00     0.148 A 
ATOM     74  C   UNL A   1      47.985  27.349  23.789  1.00  0.00     0.002 A 
ATOM     75  C   UNL A   1      49.092  26.623  25.819  1.00  0.00     0.091 A 
ATOM     76  F   UNL A   1      47.902  26.712  27.885  1.00  0.00    -0.205 F 
ATOM     77  C   UNL A   1      49.102  26.815  24.429  1.00  0.00     0.022 A 
BRANCH  75  78
ATOM     78  S   UNL A   1      50.616  26.068  26.590  1.00  0.00     0.127 S 
ATOM     79  O   UNL A   1      50.848  27.119  27.576  1.00  0.00    -0.237 OA
ATOM     80  O   UNL A   1      50.216  24.773  27.142  1.00  0.00    -0.237 OA
ATOM     81  O   UNL A   1      51.589  25.982  25.507  1.00  0.00    -0.744 OA
ENDBRANCH  75  78
ENDBRANCH  47  71
BRANCH  59  82
ATOM     82  C   UNL A   1      44.960  33.346  29.268  1.00  0.00     0.023 A 
ATOM     83  C   UNL A   1      45.998  33.439  30.214  1.00  0.00     0.012 A 
ATOM     84  C   UNL A   1      44.648  34.465  28.468  1.00  0.00     0.148 A 
ATOM     85  C   UNL A   1      46.704  34.631  30.375  1.00  0.00     0.002 A 
ATOM     86  C   UNL A   1      45.387  35.634  28.601  1.00  0.00     0.091 A 
ATOM     87  F   UNL A   1      43.644  34.358  27.586  1.00  0.00    -0.205 F 
ATOM     88  C   UNL A   1      46.408  35.722  29.561  1.00  0.00     0.022 A 
BRANCH  86  89
ATOM     89  S   UNL A   1      45.144  37.055  27.528  1.00  0.00     0.127 S 
ATOM     90  O   UNL A   1      45.073  38.148  28.495  1.00  0.00    -0.237 OA
ATOM     91  O   UNL A   1      46.360  37.038  26.714  1.00  0.00    -0.237 OA
ATOM     92  O   UNL A   1      43.917  36.796  26.788  1.00  0.00    -0.744 OA
ENDBRANCH  86  89
ENDBRANCH  59  82
ENDBRANCH  33  34
ENDBRANCH  26  28
ENDBRANCH  25  26
ENDBRANCH  24  25
ENDBRANCH  23  24
ENDBRANCH   1  23
TORSDOF 20
ENDMDL
MODEL 3
REMARK VINA RESULT:     -10.8      2.555      8.821
REMARK SMILES Cc1cc(C(=O)NC[C@@H]2CC[C@H](C(=O)OCCOCCOC(=O)c3ccc(-c4c5nc(c(-c6cccc(S(=O)(=O)[O-])c6F)c6ccc([nH]6)c(-c6cccc(S(=O)(=O)[O-])c6F)c6nc(c(-c7cccc(S(=O)(=O)[O-])c7F)c7ccc4[nH]7)C=C6)C=C5)cc3)O2)on1
REMARK SMILES IDX 18 1 17 2 16 3 15 4 13 5 14 6 12 7 9 8 10 9 87 10 11 11 8 12
REMARK SMILES IDX 7 13 5 14 6 15 4 17 1 18 2 19 3 20 89 21 88 22 19 23 20 24
REMARK SMILES IDX 21 25 22 26 23 27 24 28 25 29 86 30 26 31 85 32 27 33 28 34
REMARK SMILES IDX 29 35 79 36 30 37 84 38 78 39 80 40 31 41 83 42 77 43 76 44
REMARK SMILES IDX 32 46 64 47 44 48 63 49 45 50 48 51 62 52 81 53 46 54 47 55
REMARK SMILES IDX 61 57 82 58 49 59 33 60 34 61 42 62 35 63 37 64 43 65 36 66
REMARK SMILES IDX 38 67 39 68 40 69 41 70 65 71 66 72 74 73 67 74 69 75 75 76
REMARK SMILES IDX 68 77 70 78 71 79 72 80 73 81 50 82 51 83 59 84 52 85 54 86
REMARK SMILES IDX 60 87 53 88 55 89 56 90 57 91 58 92
REMARK H PARENT 7 16 80 45 48 56
REMARK Flexibility Score: inf
ROOT
ATOM      1  O   UNL A   1      37.054  21.850  25.699  1.00  0.00    -0.374 OA
ENDROOT
BRANCH   1   2
ATOM      2  C   UNL A   1      35.896  22.653  25.467  1.00  0.00     0.202 C 
BRANCH   2   3
ATOM      3  C   UNL A   1      35.591  23.009  24.010  1.00  0.00     0.261 C 
BRANCH   3   4
ATOM      4  O   UNL A   1      34.203  22.803  23.699  1.00  0.00    -0.461 OA
BRANCH   4   5
ATOM      5  C   UNL A   1      33.659  23.661  22.791  1.00  0.00     0.335 C 
ATOM      6  O   UNL A   1      33.839  23.600  21.580  1.00  0.00    -0.249 OA
BRANCH   5   7
ATOM      7  C   UNL A   1      32.790  24.742  23.454  1.00  0.00     0.228 C 
ATOM      8  C   UNL A   1      31.175  23.799  24.850  1.00  0.00     0.138 C 
ATOM      9  C   UNL A   1      30.501  24.090  23.514  1.00  0.00     0.037 C 
ATOM     10  O   UNL A   1      32.489  24.399  24.807  1.00  0.00    -0.361 OA
ATOM     11  C   UNL A   1      31.445  25.043  22.821  1.00  0.00     0.047 C 
BRANCH   8  12
ATOM     12  C   UNL A   1      31.324  22.293  25.117  1.00  0.00     0.148 C 
BRANCH  12  13
ATOM     13  N   UNL A   1      32.313  22.041  26.147  1.00  0.00    -0.347 N 
ATOM     14  C   UNL A   1      33.119  20.956  26.396  1.00  0.00     0.289 C 
ATOM     15  O   UNL A   1      33.768  21.019  27.445  1.00  0.00    -0.266 OA
ATOM     16  H   UNL A   1      32.428  22.783  26.785  1.00  0.00     0.164 HD
BRANCH  14  17
ATOM     17  C   UNL A   1      33.172  19.817  25.506  1.00  0.00     0.224 A 
ATOM     18  C   UNL A   1      34.030  17.037  23.274  1.00  0.00     0.070 C 
ATOM     19  C   UNL A   1      33.459  18.082  24.152  1.00  0.00     0.081 A 
ATOM     20  C   UNL A   1      34.111  19.207  24.703  1.00  0.00     0.083 A 
ATOM     21  N   UNL A   1      32.176  18.043  24.519  1.00  0.00    -0.084 NA
ATOM     22  O   UNL A   1      32.005  19.108  25.384  1.00  0.00    -0.351 OA
ENDBRANCH  14  17
ENDBRANCH  12  13
ENDBRANCH   8  12
ENDBRANCH   5   7
ENDBRANCH   4   5
ENDBRANCH   3   4
ENDBRANCH   2   3
ENDBRANCH   1   2
BRANCH   1  23
ATOM     23  C   UNL A   1      37.319  20.786  24.787  1.00  0.00     0.202 C 
BRANCH  23  24
ATOM     24  C   UNL A   1      38.522  19.882  25.091  1.00  0.00     0.261 C 
BRANCH  24  25
ATOM     25  O   UNL A   1      39.017  20.036  26.434  1.00  0.00    -0.460 OA
BRANCH  25  26
ATOM     26  C   UNL A   1      40.333  20.350  26.518  1.00  0.00     0.338 C 
ATOM     27  O   UNL A   1      41.278  19.670  26.137  1.00  0.00    -0.246 OA
BRANCH  26  28
ATOM     28  C   UNL A   1      40.505  21.738  26.981  1.00  0.00     0.060 A 
ATOM     29  C   UNL A   1      39.912  22.756  26.220  1.00  0.00     0.016 A 
ATOM     30  C   UNL A   1      41.307  22.050  28.079  1.00  0.00     0.016 A 
ATOM     31  C   UNL A   1      40.163  24.093  26.523  1.00  0.00     0.010 A 
ATOM     32  C   UNL A   1      41.565  23.392  28.375  1.00  0.00     0.010 A 
ATOM     33  C   UNL A   1      41.026  24.418  27.575  1.00  0.00    -0.014 A 
BRANCH  33  34
ATOM     34  C   UNL A   1      41.499  25.813  27.748  1.00  0.00     0.031 A 
ATOM     35  C   UNL A   1      42.881  26.174  27.275  1.00  0.00     0.074 A 
ATOM     36  C   UNL A   1      40.722  26.741  28.334  1.00  0.00     0.049 A 
ATOM     37  N   UNL A   1      43.540  27.292  27.422  1.00  0.00    -0.248 NA
ATOM     38  C   UNL A   1      43.621  25.129  26.546  1.00  0.00     0.031 C 
ATOM     39  C   UNL A   1      39.359  26.523  28.811  1.00  0.00     0.029 A 
ATOM     40  N   UNL A   1      40.990  28.048  28.658  1.00  0.00    -0.354 N 
ATOM     41  C   UNL A   1      44.784  27.077  26.840  1.00  0.00     0.074 A 
ATOM     42  C   UNL A   1      44.789  25.720  26.339  1.00  0.00     0.031 C 
ATOM     43  C   UNL A   1      38.922  27.646  29.407  1.00  0.00     0.029 A 
ATOM     44  C   UNL A   1      39.987  28.649  29.380  1.00  0.00     0.049 A 
ATOM     45  H   UNL A   1      41.820  28.510  28.399  1.00  0.00     0.167 HD
ATOM     46  C   UNL A   1      45.824  27.935  26.724  1.00  0.00     0.034 A 
ATOM     47  C   UNL A   1      39.946  29.854  29.982  1.00  0.00     0.034 A 
ATOM     48  C   UNL A   1      45.809  29.291  27.197  1.00  0.00     0.049 A 
ATOM     49  C   UNL A   1      41.130  30.779  29.870  1.00  0.00     0.074 A 
ATOM     50  C   UNL A   1      46.800  30.251  27.088  1.00  0.00     0.029 A 
ATOM     51  N   UNL A   1      44.755  29.880  27.878  1.00  0.00    -0.354 N 
ATOM     52  N   UNL A   1      42.261  30.598  29.234  1.00  0.00    -0.248 NA
ATOM     53  C   UNL A   1      41.022  32.087  30.535  1.00  0.00     0.031 C 
ATOM     54  C   UNL A   1      46.354  31.413  27.723  1.00  0.00     0.029 A 
ATOM     55  C   UNL A   1      45.074  31.186  28.203  1.00  0.00     0.049 A 
ATOM     56  H   UNL A   1      43.905  29.434  28.097  1.00  0.00     0.167 HD
ATOM     57  C   UNL A   1      42.979  31.779  29.384  1.00  0.00     0.074 A 
ATOM     58  C   UNL A   1      42.153  32.675  30.166  1.00  0.00     0.031 C 
ATOM     59  C   UNL A   1      44.215  32.091  28.922  1.00  0.00     0.034 A 
BRANCH  46  60
ATOM     60  C   UNL A   1      47.068  27.437  26.039  1.00  0.00     0.023 A 
ATOM     61  C   UNL A   1      47.250  27.675  24.662  1.00  0.00     0.012 A 
ATOM     62  C   UNL A   1      48.081  26.788  26.771  1.00  0.00     0.148 A 
ATOM     63  C   UNL A   1      48.411  27.249  24.017  1.00  0.00     0.002 A 
ATOM     64  C   UNL A   1      49.254  26.404  26.131  1.00  0.00     0.091 A 
ATOM     65  F   UNL A   1      47.877  26.550  28.074  1.00  0.00    -0.205 F 
ATOM     66  C   UNL A   1      49.415  26.624  24.753  1.00  0.00     0.022 A 
BRANCH  64  67
ATOM     67  S   UNL A   1      50.633  25.661  27.008  1.00  0.00     0.127 S 
ATOM     68  O   UNL A   1      51.586  25.435  25.922  1.00  0.00    -0.237 OA
ATOM     69  O   UNL A   1      51.012  26.723  27.941  1.00  0.00    -0.237 OA
ATOM     70  O   UNL A   1      50.106  24.460  27.639  1.00  0.00    -0.744 OA
ENDBRANCH  64  67
ENDBRANCH  46  60
BRANCH  47  71
ATOM     71  C   UNL A   1      38.735  30.261  30.745  1.00  0.00     0.023 A 
ATOM     72  C   UNL A   1      38.624  29.933  32.110  1.00  0.00     0.012 A 
ATOM     73  C   UNL A   1      37.702  30.988  30.126  1.00  0.00     0.148 A 
ATOM     74  C   UNL A   1      37.491  30.301  32.838  1.00  0.00     0.002 A 
ATOM     75  C   UNL A   1      36.605  31.403  30.870  1.00  0.00     0.091 A 
ATOM     76  F   UNL A   1      37.817  31.270  28.820  1.00  0.00    -0.205 F 
ATOM     77  C   UNL A   1      36.488  31.047  32.223  1.00  0.00     0.022 A 
BRANCH  75  78
ATOM     78  S   UNL A   1      35.345  32.484  30.187  1.00  0.00     0.127 S 
ATOM     79  O   UNL A   1      36.141  33.626  29.747  1.00  0.00    -0.237 OA
ATOM     80  O   UNL A   1      34.794  31.658  29.112  1.00  0.00    -0.237 OA
ATOM     81  O   UNL A   1      34.416  32.738  31.282  1.00  0.00    -0.744 OA
ENDBRANCH  75  78
ENDBRANCH  47  71
BRANCH  59  82
ATOM     82  C   UNL A   1      44.744  33.474  29.190  1.00  0.00     0.023 A 
ATOM     83  C   UNL A   1      45.381  33.762  30.412  1.00  0.00     0.012 A 
ATOM     84  C   UNL A   1      44.707  34.457  28.179  1.00  0.00     0.148 A 
ATOM     85  C   UNL A   1      45.956  35.014  30.632  1.00  0.00     0.002 A 
ATOM     86  C   UNL A   1      45.323  35.684  28.388  1.00  0.00     0.091 A 
ATOM     87  F   UNL A   1      44.080  34.167  27.029  1.00  0.00    -0.205 F 
ATOM     88  C   UNL A   1      45.940  35.968  29.617  1.00  0.00     0.022 A 
BRANCH  86  89
ATOM     89  S   UNL A   1      45.440  36.936  27.104  1.00  0.00     0.127 S 
ATOM     90  O   UNL A   1      46.502  37.796  27.623  1.00  0.00    -0.237 OA
ATOM     91  O   UNL A   1      45.814  36.143  25.933  1.00  0.00    -0.237 OA
ATOM     92  O   UNL A   1      44.123  37.553  27.022  1.00  0.00    -0.744 OA
ENDBRANCH  86  89
ENDBRANCH  59  82
ENDBRANCH  33  34
ENDBRANCH  26  28
ENDBRANCH  25  26
ENDBRANCH  24  25
ENDBRANCH  23  24
ENDBRANCH   1  23
TORSDOF 20
ENDMDL
