MODEL 1
REMARK VINA RESULT:     -11.4      0.000      0.000
REMARK SMILES O=C(OCCOCCOC(=O)c1ccc(-c2c3nc(c(-c4cccc(S(=O)(=O)[O-])c4F)c4ccc([nH]4)c(-c4cccc(S(=O)(=O)[O-])c4F)c4nc(c(-c5cccc(S(=O)(=O)[O-])c5F)c5ccc2[nH]5)C=C4)C=C3)cc1)/C(=C/c1ccccc1Cl)NC(=O)c1ccccc1
REMARK SMILES IDX 7 1 6 2 5 3 4 4 3 5 2 6 1 7 75 8 76 9 84 10 85 11 86 13
REMARK SMILES IDX 87 14 88 15 92 16 89 17 91 18 90 19 77 20 78 21 82 22 79 23
REMARK SMILES IDX 81 24 83 25 80 26 8 27 9 28 10 29 11 30 12 31 13 32 74 33
REMARK SMILES IDX 14 34 73 35 15 36 16 37 17 38 67 39 18 40 72 41 66 42 68 43
REMARK SMILES IDX 19 44 71 45 65 46 64 47 20 49 52 50 32 51 51 52 33 53 36 54
REMARK SMILES IDX 50 55 69 56 34 57 35 58 49 60 70 61 37 62 21 63 22 64 30 65
REMARK SMILES IDX 23 66 25 67 31 68 24 69 26 70 27 71 28 72 29 73 53 74 54 75
REMARK SMILES IDX 62 76 55 77 57 78 63 79 56 80 58 81 59 82 60 83 61 84 38 85
REMARK SMILES IDX 39 86 47 87 40 88 42 89 48 90 41 91 43 92 44 93 45 94 46 95
REMARK H PARENT 84 12 68 48 36 59
REMARK Flexibility Score: inf
ROOT
ATOM      1  C   UNL A   1      35.823  20.167  25.001  1.00  0.00     0.202 C 
ENDROOT
BRANCH   1   2
ATOM      2  O   UNL A   1      35.436  21.077  26.031  1.00  0.00    -0.374 OA
BRANCH   2   3
ATOM      3  C   UNL A   1      34.443  22.012  25.635  1.00  0.00     0.202 C 
BRANCH   3   4
ATOM      4  C   UNL A   1      34.173  22.027  24.128  1.00  0.00     0.261 C 
BRANCH   4   5
ATOM      5  O   UNL A   1      32.782  22.079  23.800  1.00  0.00    -0.459 OA
BRANCH   5   6
ATOM      6  C   UNL A   1      32.446  23.087  22.944  1.00  0.00     0.354 C 
ATOM      7  O   UNL A   1      32.877  23.180  21.805  1.00  0.00    -0.244 OA
BRANCH   6   8
ATOM      8  C   UNL A   1      31.850  24.244  23.680  1.00  0.00     0.128 C 
ATOM      9  C   UNL A   1      31.720  25.321  22.871  1.00  0.00     0.043 C 
BRANCH   8  10
ATOM     10  N   UNL A   1      31.410  24.176  24.984  1.00  0.00    -0.316 N 
ATOM     11  C   UNL A   1      31.560  24.930  26.137  1.00  0.00     0.255 C 
ATOM     12  H   UNL A   1      30.841  23.387  25.136  1.00  0.00     0.170 HD
ATOM     13  O   UNL A   1      31.141  24.447  27.192  1.00  0.00    -0.269 OA
BRANCH  11  14
ATOM     14  C   UNL A   1      32.102  26.307  26.218  1.00  0.00     0.040 A 
ATOM     15  C   UNL A   1      33.458  26.537  25.966  1.00  0.00     0.014 A 
ATOM     16  C   UNL A   1      31.372  27.318  26.851  1.00  0.00     0.014 A 
ATOM     17  C   UNL A   1      34.028  27.796  26.210  1.00  0.00     0.001 A 
ATOM     18  C   UNL A   1      31.919  28.598  27.031  1.00  0.00     0.001 A 
ATOM     19  C   UNL A   1      33.247  28.839  26.697  1.00  0.00     0.000 A 
ENDBRANCH  11  14
ENDBRANCH   8  10
BRANCH   9  20
ATOM     20  C   UNL A   1      31.194  26.701  23.008  1.00  0.00    -0.005 A 
ATOM     21  C   UNL A   1      32.150  27.720  22.794  1.00  0.00     0.010 A 
ATOM     22  C   UNL A   1      29.938  27.086  23.502  1.00  0.00     0.048 A 
ATOM     23  C   UNL A   1      31.873  29.064  23.063  1.00  0.00     0.001 A 
ATOM     24  C   UNL A   1      29.662  28.440  23.770  1.00  0.00     0.021 A 
ATOM     25  Cl  UNL A   1      28.690  25.957  23.874  1.00  0.00    -0.084 Cl
ATOM     26  C   UNL A   1      30.627  29.424  23.557  1.00  0.00     0.002 A 
ENDBRANCH   9  20
ENDBRANCH   6   8
ENDBRANCH   5   6
ENDBRANCH   4   5
ENDBRANCH   3   4
ENDBRANCH   2   3
ENDBRANCH   1   2
BRANCH   1  27
ATOM     27  C   UNL A   1      37.323  19.834  24.989  1.00  0.00     0.261 C 
BRANCH  27  28
ATOM     28  O   UNL A   1      38.148  21.000  25.223  1.00  0.00    -0.460 OA
BRANCH  28  29
ATOM     29  C   UNL A   1      39.249  20.819  26.001  1.00  0.00     0.338 C 
ATOM     30  O   UNL A   1      39.861  19.770  26.140  1.00  0.00    -0.246 OA
BRANCH  29  31
ATOM     31  C   UNL A   1      39.706  22.099  26.609  1.00  0.00     0.060 A 
ATOM     32  C   UNL A   1      39.096  23.294  26.189  1.00  0.00     0.016 A 
ATOM     33  C   UNL A   1      40.748  22.155  27.541  1.00  0.00     0.016 A 
ATOM     34  C   UNL A   1      39.565  24.535  26.641  1.00  0.00     0.010 A 
ATOM     35  C   UNL A   1      41.215  23.397  27.995  1.00  0.00     0.010 A 
ATOM     36  C   UNL A   1      40.660  24.597  27.511  1.00  0.00    -0.014 A 
BRANCH  36  37
ATOM     37  C   UNL A   1      41.384  25.879  27.730  1.00  0.00     0.031 A 
ATOM     38  C   UNL A   1      40.666  26.978  28.472  1.00  0.00     0.074 A 
ATOM     39  C   UNL A   1      42.625  26.103  27.260  1.00  0.00     0.049 A 
ATOM     40  N   UNL A   1      41.068  28.188  28.760  1.00  0.00    -0.248 NA
ATOM     41  C   UNL A   1      39.307  26.666  28.944  1.00  0.00     0.031 C 
ATOM     42  C   UNL A   1      43.442  25.137  26.536  1.00  0.00     0.029 A 
ATOM     43  N   UNL A   1      43.404  27.236  27.301  1.00  0.00    -0.354 N 
ATOM     44  C   UNL A   1      40.006  28.791  29.422  1.00  0.00     0.074 A 
ATOM     45  C   UNL A   1      38.932  27.822  29.469  1.00  0.00     0.031 C 
ATOM     46  C   UNL A   1      44.593  25.726  26.163  1.00  0.00     0.029 A 
ATOM     47  C   UNL A   1      44.595  27.115  26.623  1.00  0.00     0.049 A 
ATOM     48  H   UNL A   1      43.134  28.057  27.773  1.00  0.00     0.167 HD
ATOM     49  C   UNL A   1      39.930  30.028  29.966  1.00  0.00     0.034 A 
ATOM     50  C   UNL A   1      45.573  28.018  26.402  1.00  0.00     0.034 A 
ATOM     51  C   UNL A   1      40.994  30.991  29.937  1.00  0.00     0.049 A 
ATOM     52  C   UNL A   1      45.459  29.399  26.997  1.00  0.00     0.074 A 
ATOM     53  C   UNL A   1      41.030  32.251  30.510  1.00  0.00     0.029 A 
ATOM     54  N   UNL A   1      42.205  30.812  29.288  1.00  0.00    -0.354 N 
ATOM     55  N   UNL A   1      44.508  29.902  27.746  1.00  0.00    -0.248 NA
ATOM     56  C   UNL A   1      46.579  30.324  26.755  1.00  0.00     0.031 C 
ATOM     57  C   UNL A   1      42.254  32.845  30.182  1.00  0.00     0.029 A 
ATOM     58  C   UNL A   1      42.992  31.942  29.433  1.00  0.00     0.049 A 
ATOM     59  H   UNL A   1      42.467  30.002  28.796  1.00  0.00     0.167 HD
ATOM     60  C   UNL A   1      44.940  31.175  28.112  1.00  0.00     0.074 A 
ATOM     61  C   UNL A   1      46.240  31.366  27.504  1.00  0.00     0.031 C 
ATOM     62  C   UNL A   1      44.313  32.101  28.881  1.00  0.00     0.034 A 
BRANCH  49  63
ATOM     63  C   UNL A   1      38.645  30.392  30.659  1.00  0.00     0.023 A 
ATOM     64  C   UNL A   1      38.424  29.972  31.988  1.00  0.00     0.012 A 
ATOM     65  C   UNL A   1      37.660  31.153  30.002  1.00  0.00     0.148 A 
ATOM     66  C   UNL A   1      37.225  30.264  32.635  1.00  0.00     0.002 A 
ATOM     67  C   UNL A   1      36.486  31.479  30.670  1.00  0.00     0.091 A 
ATOM     68  F   UNL A   1      37.874  31.518  28.730  1.00  0.00    -0.205 F 
ATOM     69  C   UNL A   1      36.260  31.024  31.979  1.00  0.00     0.022 A 
BRANCH  67  70
ATOM     70  S   UNL A   1      35.219  32.516  29.932  1.00  0.00     0.127 S 
ATOM     71  O   UNL A   1      34.715  31.652  28.866  1.00  0.00    -0.237 OA
ATOM     72  O   UNL A   1      34.290  32.711  31.047  1.00  0.00    -0.237 OA
ATOM     73  O   UNL A   1      35.899  33.726  29.494  1.00  0.00    -0.744 OA
ENDBRANCH  67  70
ENDBRANCH  49  63
BRANCH  50  74
ATOM     74  C   UNL A   1      46.796  27.626  25.641  1.00  0.00     0.023 A 
ATOM     75  C   UNL A   1      46.833  27.829  24.247  1.00  0.00     0.012 A 
ATOM     76  C   UNL A   1      47.913  27.057  26.281  1.00  0.00     0.148 A 
ATOM     77  C   UNL A   1      47.947  27.445  23.500  1.00  0.00     0.002 A 
ATOM     78  C   UNL A   1      49.039  26.721  25.538  1.00  0.00     0.091 A 
ATOM     79  F   UNL A   1      47.853  26.861  27.607  1.00  0.00    -0.205 F 
ATOM     80  C   UNL A   1      49.053  26.898  24.145  1.00  0.00     0.022 A 
BRANCH  78  81
ATOM     81  S   UNL A   1      50.553  26.112  26.290  1.00  0.00     0.127 S 
ATOM     82  O   UNL A   1      50.908  27.213  27.182  1.00  0.00    -0.237 OA
ATOM     83  O   UNL A   1      50.085  24.900  26.963  1.00  0.00    -0.237 OA
ATOM     84  O   UNL A   1      51.475  25.873  25.189  1.00  0.00    -0.744 OA
ENDBRANCH  78  81
ENDBRANCH  50  74
BRANCH  62  85
ATOM     85  C   UNL A   1      45.038  33.392  29.172  1.00  0.00     0.023 A 
ATOM     86  C   UNL A   1      45.855  33.505  30.313  1.00  0.00     0.012 A 
ATOM     87  C   UNL A   1      44.974  34.465  28.260  1.00  0.00     0.148 A 
ATOM     88  C   UNL A   1      46.571  34.677  30.559  1.00  0.00     0.002 A 
ATOM     89  C   UNL A   1      45.730  35.611  28.485  1.00  0.00     0.091 A 
ATOM     90  F   UNL A   1      44.176  34.350  27.188  1.00  0.00    -0.205 F 
ATOM     91  C   UNL A   1      46.519  35.723  29.640  1.00  0.00     0.022 A 
BRANCH  89  92
ATOM     92  S   UNL A   1      45.801  36.960  27.301  1.00  0.00     0.127 S 
ATOM     93  O   UNL A   1      46.783  37.849  27.919  1.00  0.00    -0.237 OA
ATOM     94  O   UNL A   1      46.268  36.287  26.087  1.00  0.00    -0.237 OA
ATOM     95  O   UNL A   1      44.444  37.485  27.212  1.00  0.00    -0.744 OA
ENDBRANCH  89  92
ENDBRANCH  62  85
ENDBRANCH  36  37
ENDBRANCH  29  31
ENDBRANCH  28  29
ENDBRANCH  27  28
ENDBRANCH   1  27
TORSDOF 20
ENDMDL
MODEL 2
REMARK VINA RESULT:     -11.3      1.760      7.991
REMARK SMILES O=C(OCCOCCOC(=O)c1ccc(-c2c3nc(c(-c4cccc(S(=O)(=O)[O-])c4F)c4ccc([nH]4)c(-c4cccc(S(=O)(=O)[O-])c4F)c4nc(c(-c5cccc(S(=O)(=O)[O-])c5F)c5ccc2[nH]5)C=C4)C=C3)cc1)/C(=C/c1ccccc1Cl)NC(=O)c1ccccc1
REMARK SMILES IDX 7 1 6 2 5 3 4 4 3 5 2 6 1 7 75 8 76 9 84 10 85 11 86 13
REMARK SMILES IDX 87 14 88 15 92 16 89 17 91 18 90 19 77 20 78 21 82 22 79 23
REMARK SMILES IDX 81 24 83 25 80 26 8 27 9 28 10 29 11 30 12 31 13 32 74 33
REMARK SMILES IDX 14 34 73 35 15 36 16 37 17 38 67 39 18 40 72 41 66 42 68 43
REMARK SMILES IDX 19 44 71 45 65 46 64 47 20 49 52 50 32 51 51 52 33 53 36 54
REMARK SMILES IDX 50 55 69 56 34 57 35 58 49 60 70 61 37 62 21 63 22 64 30 65
REMARK SMILES IDX 23 66 25 67 31 68 24 69 26 70 27 71 28 72 29 73 53 74 54 75
REMARK SMILES IDX 62 76 55 77 57 78 63 79 56 80 58 81 59 82 60 83 61 84 38 85
REMARK SMILES IDX 39 86 47 87 40 88 42 89 48 90 41 91 43 92 44 93 45 94 46 95
REMARK H PARENT 84 12 68 48 36 59
REMARK Flexibility Score: inf
ROOT
ATOM      1  C   UNL A   1      35.777  21.422  25.658  1.00  0.00     0.202 C 
ENDROOT
BRANCH   1   2
ATOM      2  O   UNL A   1      34.633  21.308  24.812  1.00  0.00    -0.374 OA
BRANCH   2   3
ATOM      3  C   UNL A   1      33.494  20.746  25.450  1.00  0.00     0.202 C 
BRANCH   3   4
ATOM      4  C   UNL A   1      32.336  21.731  25.630  1.00  0.00     0.261 C 
BRANCH   4   5
ATOM      5  O   UNL A   1      32.249  22.269  26.952  1.00  0.00    -0.459 OA
BRANCH   5   6
ATOM      6  C   UNL A   1      31.384  23.318  27.073  1.00  0.00     0.354 C 
ATOM      7  O   UNL A   1      30.202  23.191  27.356  1.00  0.00    -0.244 OA
BRANCH   6   8
ATOM      8  C   UNL A   1      31.933  24.549  26.427  1.00  0.00     0.128 C 
ATOM      9  C   UNL A   1      30.943  25.410  26.098  1.00  0.00     0.043 C 
BRANCH   8  10
ATOM     10  N   UNL A   1      33.280  24.798  26.278  1.00  0.00    -0.316 N 
ATOM     11  C   UNL A   1      34.156  24.996  25.222  1.00  0.00     0.255 C 
ATOM     12  H   UNL A   1      33.740  24.849  27.148  1.00  0.00     0.170 HD
ATOM     13  O   UNL A   1      35.362  25.024  25.481  1.00  0.00    -0.269 OA
BRANCH  11  14
ATOM     14  C   UNL A   1      33.783  25.265  23.814  1.00  0.00     0.040 A 
ATOM     15  C   UNL A   1      33.832  26.573  23.320  1.00  0.00     0.014 A 
ATOM     16  C   UNL A   1      33.081  24.310  23.072  1.00  0.00     0.014 A 
ATOM     17  C   UNL A   1      33.316  26.878  22.051  1.00  0.00     0.001 A 
ATOM     18  C   UNL A   1      32.627  24.594  21.775  1.00  0.00     0.001 A 
ATOM     19  C   UNL A   1      32.757  25.879  21.260  1.00  0.00     0.000 A 
ENDBRANCH  11  14
ENDBRANCH   8  10
BRANCH   9  20
ATOM     20  C   UNL A   1      30.860  26.756  25.480  1.00  0.00    -0.005 A 
ATOM     21  C   UNL A   1      30.179  26.794  24.241  1.00  0.00     0.010 A 
ATOM     22  C   UNL A   1      31.532  27.919  25.884  1.00  0.00     0.048 A 
ATOM     23  C   UNL A   1      30.170  27.938  23.436  1.00  0.00     0.001 A 
ATOM     24  C   UNL A   1      31.519  29.069  25.073  1.00  0.00     0.021 A 
ATOM     25  Cl  UNL A   1      32.459  28.011  27.335  1.00  0.00    -0.084 Cl
ATOM     26  C   UNL A   1      30.846  29.076  23.851  1.00  0.00     0.002 A 
ENDBRANCH   9  20
ENDBRANCH   6   8
ENDBRANCH   5   6
ENDBRANCH   4   5
ENDBRANCH   3   4
ENDBRANCH   2   3
ENDBRANCH   1   2
BRANCH   1  27
ATOM     27  C   UNL A   1      37.001  20.634  25.166  1.00  0.00     0.261 C 
BRANCH  27  28
ATOM     28  O   UNL A   1      38.170  21.475  25.007  1.00  0.00    -0.460 OA
BRANCH  28  29
ATOM     29  C   UNL A   1      39.181  21.282  25.896  1.00  0.00     0.338 C 
ATOM     30  O   UNL A   1      39.799  20.241  26.061  1.00  0.00    -0.246 OA
BRANCH  29  31
ATOM     31  C   UNL A   1      39.536  22.545  26.603  1.00  0.00     0.060 A 
ATOM     32  C   UNL A   1      38.756  23.689  26.360  1.00  0.00     0.016 A 
ATOM     33  C   UNL A   1      40.642  22.640  27.454  1.00  0.00     0.016 A 
ATOM     34  C   UNL A   1      39.113  24.928  26.907  1.00  0.00     0.010 A 
ATOM     35  C   UNL A   1      40.997  23.880  28.003  1.00  0.00     0.010 A 
ATOM     36  C   UNL A   1      40.265  25.042  27.694  1.00  0.00    -0.014 A 
BRANCH  36  37
ATOM     37  C   UNL A   1      40.850  26.378  27.995  1.00  0.00     0.031 A 
ATOM     38  C   UNL A   1      42.252  26.659  27.521  1.00  0.00     0.074 A 
ATOM     39  C   UNL A   1      40.192  27.317  28.700  1.00  0.00     0.049 A 
ATOM     40  N   UNL A   1      42.988  27.727  27.684  1.00  0.00    -0.248 NA
ATOM     41  C   UNL A   1      42.915  25.580  26.769  1.00  0.00     0.031 C 
ATOM     42  C   UNL A   1      38.833  27.193  29.213  1.00  0.00     0.029 A 
ATOM     43  N   UNL A   1      40.599  28.558  29.130  1.00  0.00    -0.354 N 
ATOM     44  C   UNL A   1      44.206  27.442  27.079  1.00  0.00     0.074 A 
ATOM     45  C   UNL A   1      44.120  26.091  26.570  1.00  0.00     0.031 C 
ATOM     46  C   UNL A   1      38.528  28.293  29.924  1.00  0.00     0.029 A 
ATOM     47  C   UNL A   1      39.673  29.204  29.917  1.00  0.00     0.049 A 
ATOM     48  H   UNL A   1      41.473  28.948  28.896  1.00  0.00     0.167 HD
ATOM     49  C   UNL A   1      45.294  28.235  26.935  1.00  0.00     0.034 A 
ATOM     50  C   UNL A   1      39.741  30.391  30.555  1.00  0.00     0.034 A 
ATOM     51  C   UNL A   1      45.385  29.582  27.424  1.00  0.00     0.049 A 
ATOM     52  C   UNL A   1      40.972  31.250  30.401  1.00  0.00     0.074 A 
ATOM     53  C   UNL A   1      46.426  30.482  27.277  1.00  0.00     0.029 A 
ATOM     54  N   UNL A   1      44.407  30.219  28.170  1.00  0.00    -0.354 N 
ATOM     55  N   UNL A   1      42.058  31.023  29.702  1.00  0.00    -0.248 NA
ATOM     56  C   UNL A   1      40.967  32.553  31.088  1.00  0.00     0.031 C 
ATOM     57  C   UNL A   1      46.087  31.656  27.959  1.00  0.00     0.029 A 
ATOM     58  C   UNL A   1      44.822  31.497  28.503  1.00  0.00     0.049 A 
ATOM     59  H   UNL A   1      43.543  29.822  28.425  1.00  0.00     0.167 HD
ATOM     60  C   UNL A   1      42.836  32.173  29.815  1.00  0.00     0.074 A 
ATOM     61  C   UNL A   1      42.095  33.097  30.649  1.00  0.00     0.031 C 
ATOM     62  C   UNL A   1      44.053  32.437  29.278  1.00  0.00     0.034 A 
BRANCH  49  63
ATOM     63  C   UNL A   1      46.469  27.656  26.193  1.00  0.00     0.023 A 
ATOM     64  C   UNL A   1      46.554  27.807  24.793  1.00  0.00     0.012 A 
ATOM     65  C   UNL A   1      47.488  26.969  26.878  1.00  0.00     0.148 A 
ATOM     66  C   UNL A   1      47.612  27.244  24.082  1.00  0.00     0.002 A 
ATOM     67  C   UNL A   1      48.563  26.450  26.167  1.00  0.00     0.091 A 
ATOM     68  F   UNL A   1      47.375  26.809  28.205  1.00  0.00    -0.205 F 
ATOM     69  C   UNL A   1      48.620  26.573  24.769  1.00  0.00     0.022 A 
BRANCH  67  70
ATOM     70  S   UNL A   1      49.944  25.635  26.974  1.00  0.00     0.127 S 
ATOM     71  O   UNL A   1      50.289  26.601  28.017  1.00  0.00    -0.237 OA
ATOM     72  O   UNL A   1      49.331  24.401  27.467  1.00  0.00    -0.237 OA
ATOM     73  O   UNL A   1      50.950  25.438  25.940  1.00  0.00    -0.744 OA
ENDBRANCH  67  70
ENDBRANCH  49  63
BRANCH  50  74
ATOM     74  C   UNL A   1      38.574  30.886  31.343  1.00  0.00     0.023 A 
ATOM     75  C   UNL A   1      38.565  30.716  32.741  1.00  0.00     0.012 A 
ATOM     76  C   UNL A   1      37.479  31.518  30.722  1.00  0.00     0.148 A 
ATOM     77  C   UNL A   1      37.476  31.137  33.504  1.00  0.00     0.002 A 
ATOM     78  C   UNL A   1      36.418  31.978  31.494  1.00  0.00     0.091 A 
ATOM     79  F   UNL A   1      37.501  31.659  29.388  1.00  0.00    -0.205 F 
ATOM     80  C   UNL A   1      36.406  31.775  32.882  1.00  0.00     0.022 A 
BRANCH  78  81
ATOM     81  S   UNL A   1      35.046  32.908  30.800  1.00  0.00     0.127 S 
ATOM     82  O   UNL A   1      34.125  32.973  31.932  1.00  0.00    -0.237 OA
ATOM     83  O   UNL A   1      35.689  34.176  30.455  1.00  0.00    -0.237 OA
ATOM     84  O   UNL A   1      34.582  32.136  29.656  1.00  0.00    -0.744 OA
ENDBRANCH  78  81
ENDBRANCH  50  74
BRANCH  62  85
ATOM     85  C   UNL A   1      44.653  33.801  29.514  1.00  0.00     0.023 A 
ATOM     86  C   UNL A   1      44.386  34.857  28.623  1.00  0.00     0.012 A 
ATOM     87  C   UNL A   1      45.415  34.052  30.674  1.00  0.00     0.148 A 
ATOM     88  C   UNL A   1      44.893  36.135  28.864  1.00  0.00     0.002 A 
ATOM     89  C   UNL A   1      45.875  35.339  30.934  1.00  0.00     0.091 A 
ATOM     90  F   UNL A   1      45.678  33.031  31.503  1.00  0.00    -0.205 F 
ATOM     91  C   UNL A   1      45.626  36.378  30.024  1.00  0.00     0.022 A 
BRANCH  89  92
ATOM     92  S   UNL A   1      46.735  35.759  32.454  1.00  0.00     0.127 S 
ATOM     93  O   UNL A   1      47.954  34.962  32.339  1.00  0.00    -0.237 OA
ATOM     94  O   UNL A   1      46.935  37.203  32.312  1.00  0.00    -0.237 OA
ATOM     95  O   UNL A   1      45.836  35.382  33.538  1.00  0.00    -0.744 OA
ENDBRANCH  89  92
ENDBRANCH  62  85
ENDBRANCH  36  37
ENDBRANCH  29  31
ENDBRANCH  28  29
ENDBRANCH  27  28
ENDBRANCH   1  27
TORSDOF 20
ENDMDL
MODEL 3
REMARK VINA RESULT:     -11.3      1.069      7.707
REMARK SMILES O=C(OCCOCCOC(=O)c1ccc(-c2c3nc(c(-c4cccc(S(=O)(=O)[O-])c4F)c4ccc([nH]4)c(-c4cccc(S(=O)(=O)[O-])c4F)c4nc(c(-c5cccc(S(=O)(=O)[O-])c5F)c5ccc2[nH]5)C=C4)C=C3)cc1)/C(=C/c1ccccc1Cl)NC(=O)c1ccccc1
REMARK SMILES IDX 7 1 6 2 5 3 4 4 3 5 2 6 1 7 75 8 76 9 84 10 85 11 86 13
REMARK SMILES IDX 87 14 88 15 92 16 89 17 91 18 90 19 77 20 78 21 82 22 79 23
REMARK SMILES IDX 81 24 83 25 80 26 8 27 9 28 10 29 11 30 12 31 13 32 74 33
REMARK SMILES IDX 14 34 73 35 15 36 16 37 17 38 67 39 18 40 72 41 66 42 68 43
REMARK SMILES IDX 19 44 71 45 65 46 64 47 20 49 52 50 32 51 51 52 33 53 36 54
REMARK SMILES IDX 50 55 69 56 34 57 35 58 49 60 70 61 37 62 21 63 22 64 30 65
REMARK SMILES IDX 23 66 25 67 31 68 24 69 26 70 27 71 28 72 29 73 53 74 54 75
REMARK SMILES IDX 62 76 55 77 57 78 63 79 56 80 58 81 59 82 60 83 61 84 38 85
REMARK SMILES IDX 39 86 47 87 40 88 42 89 48 90 41 91 43 92 44 93 45 94 46 95
REMARK H PARENT 84 12 68 48 36 59
REMARK Flexibility Score: inf
ROOT
ATOM      1  C   UNL A   1      37.014  19.966  24.939  1.00  0.00     0.202 C 
ENDROOT
BRANCH   1   2
ATOM      2  O   UNL A   1      36.732  21.294  25.381  1.00  0.00    -0.374 OA
BRANCH   2   3
ATOM      3  C   UNL A   1      37.036  22.300  24.425  1.00  0.00     0.202 C 
BRANCH   3   4
ATOM      4  C   UNL A   1      35.881  22.613  23.470  1.00  0.00     0.261 C 
BRANCH   4   5
ATOM      5  O   UNL A   1      34.862  23.427  24.058  1.00  0.00    -0.459 OA
BRANCH   5   6
ATOM      6  C   UNL A   1      33.804  23.682  23.234  1.00  0.00     0.354 C 
ATOM      7  O   UNL A   1      33.810  23.450  22.035  1.00  0.00    -0.244 OA
BRANCH   6   8
ATOM      8  C   UNL A   1      32.841  24.632  23.870  1.00  0.00     0.128 C 
ATOM      9  C   UNL A   1      32.601  25.693  23.066  1.00  0.00     0.043 C 
BRANCH   8  10
ATOM     10  N   UNL A   1      32.218  24.396  25.076  1.00  0.00    -0.316 N 
ATOM     11  C   UNL A   1      32.079  25.062  26.283  1.00  0.00     0.255 C 
ATOM     12  H   UNL A   1      31.750  23.529  25.081  1.00  0.00     0.170 HD
ATOM     13  O   UNL A   1      31.573  24.439  27.221  1.00  0.00    -0.269 OA
BRANCH  11  14
ATOM     14  C   UNL A   1      32.399  26.485  26.541  1.00  0.00     0.040 A 
ATOM     15  C   UNL A   1      31.368  27.395  26.795  1.00  0.00     0.014 A 
ATOM     16  C   UNL A   1      33.660  26.997  26.217  1.00  0.00     0.014 A 
ATOM     17  C   UNL A   1      31.629  28.773  26.863  1.00  0.00     0.001 A 
ATOM     18  C   UNL A   1      33.941  28.365  26.354  1.00  0.00     0.001 A 
ATOM     19  C   UNL A   1      32.924  29.252  26.690  1.00  0.00     0.000 A 
ENDBRANCH  11  14
ENDBRANCH   8  10
BRANCH   9  20
ATOM     20  C   UNL A   1      31.753  26.909  23.127  1.00  0.00    -0.005 A 
ATOM     21  C   UNL A   1      30.370  26.656  23.272  1.00  0.00     0.010 A 
ATOM     22  C   UNL A   1      32.145  28.231  22.870  1.00  0.00     0.048 A 
ATOM     23  C   UNL A   1      29.415  27.672  23.160  1.00  0.00     0.001 A 
ATOM     24  C   UNL A   1      31.182  29.252  22.761  1.00  0.00     0.021 A 
ATOM     25  Cl  UNL A   1      33.786  28.689  22.607  1.00  0.00    -0.084 Cl
ATOM     26  C   UNL A   1      29.822  28.972  22.900  1.00  0.00     0.002 A 
ENDBRANCH   9  20
ENDBRANCH   6   8
ENDBRANCH   5   6
ENDBRANCH   4   5
ENDBRANCH   3   4
ENDBRANCH   2   3
ENDBRANCH   1   2
BRANCH   1  27
ATOM     27  C   UNL A   1      38.512  19.634  24.862  1.00  0.00     0.261 C 
BRANCH  27  28
ATOM     28  O   UNL A   1      39.165  19.737  26.150  1.00  0.00    -0.460 OA
BRANCH  28  29
ATOM     29  C   UNL A   1      40.468  20.129  26.139  1.00  0.00     0.338 C 
ATOM     30  O   UNL A   1      41.395  19.518  25.629  1.00  0.00    -0.246 OA
BRANCH  29  31
ATOM     31  C   UNL A   1      40.638  21.477  26.750  1.00  0.00     0.060 A 
ATOM     32  C   UNL A   1      39.922  22.555  26.200  1.00  0.00     0.016 A 
ATOM     33  C   UNL A   1      41.516  21.712  27.812  1.00  0.00     0.016 A 
ATOM     34  C   UNL A   1      40.131  23.863  26.658  1.00  0.00     0.010 A 
ATOM     35  C   UNL A   1      41.724  23.020  28.272  1.00  0.00     0.010 A 
ATOM     36  C   UNL A   1      41.070  24.110  27.667  1.00  0.00    -0.014 A 
BRANCH  36  37
ATOM     37  C   UNL A   1      41.556  25.493  27.928  1.00  0.00     0.031 A 
ATOM     38  C   UNL A   1      42.961  25.840  27.506  1.00  0.00     0.074 A 
ATOM     39  C   UNL A   1      40.808  26.420  28.555  1.00  0.00     0.049 A 
ATOM     40  N   UNL A   1      43.620  26.959  27.650  1.00  0.00    -0.248 NA
ATOM     41  C   UNL A   1      43.725  24.772  26.839  1.00  0.00     0.031 C 
ATOM     42  C   UNL A   1      39.436  26.233  29.011  1.00  0.00     0.029 A 
ATOM     43  N   UNL A   1      41.117  27.703  28.942  1.00  0.00    -0.354 N 
ATOM     44  C   UNL A   1      44.882  26.725  27.117  1.00  0.00     0.074 A 
ATOM     45  C   UNL A   1      44.904  25.349  26.672  1.00  0.00     0.031 C 
ATOM     46  C   UNL A   1      39.030  27.343  29.652  1.00  0.00     0.029 A 
ATOM     47  C   UNL A   1      40.116  28.324  29.653  1.00  0.00     0.049 A 
ATOM     48  H   UNL A   1      41.975  28.137  28.730  1.00  0.00     0.167 HD
ATOM     49  C   UNL A   1      45.925  27.578  26.984  1.00  0.00     0.034 A 
ATOM     50  C   UNL A   1      40.079  29.541  30.234  1.00  0.00     0.034 A 
ATOM     51  C   UNL A   1      45.909  28.949  27.410  1.00  0.00     0.049 A 
ATOM     52  C   UNL A   1      41.261  30.469  30.095  1.00  0.00     0.074 A 
ATOM     53  C   UNL A   1      46.898  29.906  27.267  1.00  0.00     0.029 A 
ATOM     54  N   UNL A   1      44.858  29.557  28.077  1.00  0.00    -0.354 N 
ATOM     55  N   UNL A   1      42.391  30.279  29.458  1.00  0.00    -0.248 NA
ATOM     56  C   UNL A   1      41.142  31.799  30.715  1.00  0.00     0.031 C 
ATOM     57  C   UNL A   1      46.455  31.087  27.874  1.00  0.00     0.029 A 
ATOM     58  C   UNL A   1      45.177  30.873  28.366  1.00  0.00     0.049 A 
ATOM     59  H   UNL A   1      44.009  29.118  28.312  1.00  0.00     0.167 HD
ATOM     60  C   UNL A   1      43.091  31.481  29.550  1.00  0.00     0.074 A 
ATOM     61  C   UNL A   1      42.255  32.393  30.303  1.00  0.00     0.031 C 
ATOM     62  C   UNL A   1      44.314  31.796  29.057  1.00  0.00     0.034 A 
BRANCH  49  63
ATOM     63  C   UNL A   1      47.168  27.041  26.327  1.00  0.00     0.023 A 
ATOM     64  C   UNL A   1      47.301  27.110  24.924  1.00  0.00     0.012 A 
ATOM     65  C   UNL A   1      48.204  26.476  27.093  1.00  0.00     0.148 A 
ATOM     66  C   UNL A   1      48.425  26.582  24.291  1.00  0.00     0.002 A 
ATOM     67  C   UNL A   1      49.342  25.994  26.458  1.00  0.00     0.091 A 
ATOM     68  F   UNL A   1      48.047  26.393  28.422  1.00  0.00    -0.205 F 
ATOM     69  C   UNL A   1      49.449  26.032  25.058  1.00  0.00     0.022 A 
BRANCH  67  70
ATOM     70  S   UNL A   1      50.743  25.336  27.369  1.00  0.00     0.127 S 
ATOM     71  O   UNL A   1      51.124  26.482  28.193  1.00  0.00    -0.237 OA
ATOM     72  O   UNL A   1      50.138  24.228  28.110  1.00  0.00    -0.237 OA
ATOM     73  O   UNL A   1      51.716  24.931  26.364  1.00  0.00    -0.744 OA
ENDBRANCH  67  70
ENDBRANCH  49  63
BRANCH  50  74
ATOM     74  C   UNL A   1      38.846  29.997  30.942  1.00  0.00     0.023 A 
ATOM     75  C   UNL A   1      38.678  29.679  32.304  1.00  0.00     0.012 A 
ATOM     76  C   UNL A   1      37.846  30.736  30.281  1.00  0.00     0.148 A 
ATOM     77  C   UNL A   1      37.523  30.060  32.987  1.00  0.00     0.002 A 
ATOM     78  C   UNL A   1      36.720  31.154  30.980  1.00  0.00     0.091 A 
ATOM     79  F   UNL A   1      38.021  31.018  28.981  1.00  0.00    -0.205 F 
ATOM     80  C   UNL A   1      36.548  30.804  32.329  1.00  0.00     0.022 A 
BRANCH  78  81
ATOM     81  S   UNL A   1      35.461  32.208  30.251  1.00  0.00     0.127 S 
ATOM     82  O   UNL A   1      36.223  33.415  29.941  1.00  0.00    -0.237 OA
ATOM     83  O   UNL A   1      35.051  31.422  29.087  1.00  0.00    -0.237 OA
ATOM     84  O   UNL A   1      34.431  32.360  31.270  1.00  0.00    -0.744 OA
ENDBRANCH  78  81
ENDBRANCH  50  74
BRANCH  62  85
ATOM     85  C   UNL A   1      44.818  33.205  29.253  1.00  0.00     0.023 A 
ATOM     86  C   UNL A   1      45.501  33.555  30.433  1.00  0.00     0.012 A 
ATOM     87  C   UNL A   1      44.685  34.159  28.224  1.00  0.00     0.148 A 
ATOM     88  C   UNL A   1      46.018  34.842  30.598  1.00  0.00     0.002 A 
ATOM     89  C   UNL A   1      45.245  35.423  28.375  1.00  0.00     0.091 A 
ATOM     90  F   UNL A   1      44.013  33.816  27.114  1.00  0.00    -0.205 F 
ATOM     91  C   UNL A   1      45.901  35.770  29.566  1.00  0.00     0.022 A 
BRANCH  89  92
ATOM     92  S   UNL A   1      45.231  36.641  27.054  1.00  0.00     0.127 S 
ATOM     93  O   UNL A   1      45.931  37.764  27.675  1.00  0.00    -0.237 OA
ATOM     94  O   UNL A   1      45.984  35.964  25.996  1.00  0.00    -0.237 OA
ATOM     95  O   UNL A   1      43.827  36.871  26.738  1.00  0.00    -0.744 OA
ENDBRANCH  89  92
ENDBRANCH  62  85
ENDBRANCH  36  37
ENDBRANCH  29  31
ENDBRANCH  28  29
ENDBRANCH  27  28
ENDBRANCH   1  27
TORSDOF 20
ENDMDL
