MODEL 1
REMARK VINA RESULT:     -10.8      0.000      0.000
REMARK SMILES O=C(C[NH2+][C@H]1CCCC[C@H]1[N@H+](Cc1ccccc1)C1CC1)OCCOCCOC(=O)c1ccc(-c2c3nc(c(-c4cccc(S(=O)(=O)[O-])c4F)c4ccc([nH]4)c(-c4cccc(S(=O)(=O)[O-])c4F)c4nc(c(-c5cccc(S(=O)(=O)[O-])c5F)c5ccc2[nH]5)C=C4)C=C3)cc1
REMARK SMILES IDX 24 1 23 2 22 3 2 4 1 5 3 6 4 7 5 10 6 11 10 12 7 13 9 14
REMARK SMILES IDX 8 15 11 16 12 18 13 19 14 20 18 21 15 22 17 23 16 24 19 25
REMARK SMILES IDX 20 26 21 27 25 28 26 29 27 30 28 31 29 32 30 33 31 34 32 35
REMARK SMILES IDX 93 36 33 37 92 38 34 39 35 40 36 41 86 42 37 43 91 44 85 45
REMARK SMILES IDX 87 46 38 47 90 48 84 49 83 50 39 52 71 53 51 54 70 55 52 56
REMARK SMILES IDX 55 57 69 58 88 59 53 60 54 61 68 63 89 64 56 65 40 66 41 67
REMARK SMILES IDX 49 68 42 69 44 70 50 71 43 72 45 73 46 74 47 75 48 76 72 77
REMARK SMILES IDX 73 78 81 79 74 80 76 81 82 82 75 83 77 84 78 85 79 86 80 87
REMARK SMILES IDX 57 88 58 89 66 90 59 91 61 92 67 93 60 94 62 95 63 96 64 97
REMARK SMILES IDX 65 98
REMARK H PARENT 4 8 4 9 11 17 87 51 55 62
REMARK Flexibility Score: inf
ROOT
ATOM      1  C   UNL A   1      32.779  28.325  25.751  1.00  0.00     0.202 C 
ENDROOT
BRANCH   1   2
ATOM      2  C   UNL A   1      31.752  27.263  25.376  1.00  0.00     0.261 C 
BRANCH   2   3
ATOM      3  O   UNL A   1      31.859  26.892  23.990  1.00  0.00    -0.459 OA
BRANCH   3   4
ATOM      4  C   UNL A   1      32.980  26.321  23.489  1.00  0.00     0.361 C 
ATOM      5  O   UNL A   1      33.622  26.858  22.588  1.00  0.00    -0.245 OA
BRANCH   4   6
ATOM      6  C   UNL A   1      33.305  24.921  23.946  1.00  0.00     0.385 C 
BRANCH   6   7
ATOM      7  N   UNL A   1      34.682  24.522  23.847  1.00  0.00    -0.330 N 
ATOM      8  H   UNL A   1      35.149  24.708  24.735  1.00  0.00     0.347 HD
ATOM      9  H   UNL A   1      35.122  25.053  23.096  1.00  0.00     0.347 HD
BRANCH   7  10
ATOM     10  C   UNL A   1      34.793  23.085  23.535  1.00  0.00     0.241 C 
ATOM     11  C   UNL A   1      36.342  22.968  23.347  1.00  0.00     0.071 C 
ATOM     12  C   UNL A   1      34.276  21.851  24.481  1.00  0.00     0.243 C 
ATOM     13  C   UNL A   1      37.084  23.134  24.674  1.00  0.00     0.007 C 
ATOM     14  C   UNL A   1      35.333  21.547  25.581  1.00  0.00     0.071 C 
ATOM     15  C   UNL A   1      36.796  21.942  25.533  1.00  0.00     0.007 C 
BRANCH  12  16
ATOM     16  N   UNL A   1      32.944  21.392  25.106  1.00  0.00    -0.321 N 
ATOM     17  H   UNL A   1      33.596  21.371  25.891  1.00  0.00     0.349 HD
BRANCH  16  18
ATOM     18  C   UNL A   1      32.214  20.385  24.232  1.00  0.00     0.299 C 
BRANCH  18  19
ATOM     19  C   UNL A   1      32.675  18.926  24.333  1.00  0.00     0.006 A 
ATOM     20  C   UNL A   1      32.714  18.233  25.557  1.00  0.00     0.009 A 
ATOM     21  C   UNL A   1      33.104  18.218  23.199  1.00  0.00     0.009 A 
ATOM     22  C   UNL A   1      33.035  16.878  25.644  1.00  0.00     0.001 A 
ATOM     23  C   UNL A   1      33.486  16.869  23.291  1.00  0.00     0.001 A 
ATOM     24  C   UNL A   1      33.425  16.193  24.507  1.00  0.00     0.000 A 
ENDBRANCH  18  19
ENDBRANCH  16  18
BRANCH  16  25
ATOM     25  C   UNL A   1      31.983  21.948  26.103  1.00  0.00     0.185 C 
ATOM     26  C   UNL A   1      32.031  23.276  26.805  1.00  0.00     0.071 C 
ATOM     27  C   UNL A   1      30.879  22.927  25.902  1.00  0.00     0.071 C 
ENDBRANCH  16  25
ENDBRANCH  12  16
ENDBRANCH   7  10
ENDBRANCH   6   7
ENDBRANCH   4   6
ENDBRANCH   3   4
ENDBRANCH   2   3
ENDBRANCH   1   2
BRANCH   1  28
ATOM     28  O   UNL A   1      32.265  29.329  26.621  1.00  0.00    -0.374 OA
BRANCH  28  29
ATOM     29  C   UNL A   1      31.860  30.547  25.996  1.00  0.00     0.202 C 
BRANCH  29  30
ATOM     30  C   UNL A   1      31.839  31.837  26.814  1.00  0.00     0.261 C 
BRANCH  30  31
ATOM     31  O   UNL A   1      32.970  31.924  27.673  1.00  0.00    -0.460 OA
BRANCH  31  32
ATOM     32  C   UNL A   1      33.326  33.181  28.017  1.00  0.00     0.338 C 
ATOM     33  O   UNL A   1      32.712  34.220  27.818  1.00  0.00    -0.246 OA
BRANCH  32  34
ATOM     34  C   UNL A   1      34.498  33.067  28.898  1.00  0.00     0.060 A 
ATOM     35  C   UNL A   1      35.641  33.821  28.590  1.00  0.00     0.016 A 
ATOM     36  C   UNL A   1      34.439  32.271  30.043  1.00  0.00     0.016 A 
ATOM     37  C   UNL A   1      36.756  33.746  29.409  1.00  0.00     0.010 A 
ATOM     38  C   UNL A   1      35.555  32.185  30.856  1.00  0.00     0.010 A 
ATOM     39  C   UNL A   1      36.725  32.879  30.504  1.00  0.00    -0.014 A 
BRANCH  39  40
ATOM     40  C   UNL A   1      37.975  32.445  31.140  1.00  0.00     0.031 A 
ATOM     41  C   UNL A   1      38.691  31.299  30.494  1.00  0.00     0.074 A 
ATOM     42  C   UNL A   1      38.359  32.976  32.307  1.00  0.00     0.049 A 
ATOM     43  N   UNL A   1      39.662  30.566  30.955  1.00  0.00    -0.248 NA
ATOM     44  C   UNL A   1      38.207  30.898  29.158  1.00  0.00     0.031 C 
ATOM     45  C   UNL A   1      37.693  34.083  32.992  1.00  0.00     0.029 A 
ATOM     46  N   UNL A   1      39.365  32.599  33.153  1.00  0.00    -0.354 N 
ATOM     47  C   UNL A   1      39.864  29.579  29.997  1.00  0.00     0.074 A 
ATOM     48  C   UNL A   1      38.910  29.800  28.937  1.00  0.00     0.031 C 
ATOM     49  C   UNL A   1      38.276  34.261  34.189  1.00  0.00     0.029 A 
ATOM     50  C   UNL A   1      39.320  33.254  34.359  1.00  0.00     0.049 A 
ATOM     51  H   UNL A   1      40.049  31.931  32.921  1.00  0.00     0.167 HD
ATOM     52  C   UNL A   1      40.771  28.577  30.013  1.00  0.00     0.034 A 
ATOM     53  C   UNL A   1      40.015  33.017  35.486  1.00  0.00     0.034 A 
ATOM     54  C   UNL A   1      41.702  28.391  31.088  1.00  0.00     0.049 A 
ATOM     55  C   UNL A   1      41.029  31.906  35.482  1.00  0.00     0.074 A 
ATOM     56  C   UNL A   1      42.720  27.467  31.198  1.00  0.00     0.029 A 
ATOM     57  N   UNL A   1      41.707  29.143  32.256  1.00  0.00    -0.354 N 
ATOM     58  N   UNL A   1      41.302  31.044  34.530  1.00  0.00    -0.248 NA
ATOM     59  C   UNL A   1      41.853  31.754  36.685  1.00  0.00     0.031 C 
ATOM     60  C   UNL A   1      43.315  27.631  32.453  1.00  0.00     0.029 A 
ATOM     61  C   UNL A   1      42.703  28.695  33.101  1.00  0.00     0.049 A 
ATOM     62  H   UNL A   1      41.091  29.887  32.452  1.00  0.00     0.167 HD
ATOM     63  C   UNL A   1      42.361  30.277  34.999  1.00  0.00     0.074 A 
ATOM     64  C   UNL A   1      42.676  30.778  36.323  1.00  0.00     0.031 C 
ATOM     65  C   UNL A   1      43.015  29.254  34.395  1.00  0.00     0.034 A 
BRANCH  52  66
ATOM     66  C   UNL A   1      40.772  27.621  28.849  1.00  0.00     0.023 A 
ATOM     67  C   UNL A   1      39.821  26.581  28.784  1.00  0.00     0.012 A 
ATOM     68  C   UNL A   1      41.722  27.748  27.819  1.00  0.00     0.148 A 
ATOM     69  C   UNL A   1      39.849  25.654  27.743  1.00  0.00     0.002 A 
ATOM     70  C   UNL A   1      41.710  26.854  26.755  1.00  0.00     0.091 A 
ATOM     71  F   UNL A   1      42.640  28.721  27.910  1.00  0.00    -0.205 F 
ATOM     72  C   UNL A   1      40.786  25.796  26.724  1.00  0.00     0.022 A 
BRANCH  70  73
ATOM     73  S   UNL A   1      42.821  27.005  25.353  1.00  0.00     0.127 S 
ATOM     74  O   UNL A   1      42.280  28.179  24.672  1.00  0.00    -0.237 OA
ATOM     75  O   UNL A   1      44.112  27.221  26.008  1.00  0.00    -0.237 OA
ATOM     76  O   UNL A   1      42.717  25.752  24.620  1.00  0.00    -0.744 OA
ENDBRANCH  70  73
ENDBRANCH  52  66
BRANCH  53  77
ATOM     77  C   UNL A   1      39.784  33.876  36.678  1.00  0.00     0.023 A 
ATOM     78  C   UNL A   1      40.109  35.244  36.614  1.00  0.00     0.012 A 
ATOM     79  C   UNL A   1      39.162  33.366  37.834  1.00  0.00     0.148 A 
ATOM     80  C   UNL A   1      39.833  36.088  37.691  1.00  0.00     0.002 A 
ATOM     81  C   UNL A   1      38.845  34.221  38.882  1.00  0.00     0.091 A 
ATOM     82  F   UNL A   1      38.860  32.060  37.868  1.00  0.00    -0.205 F 
ATOM     83  C   UNL A   1      39.191  35.580  38.817  1.00  0.00     0.022 A 
BRANCH  81  84
ATOM     84  S   UNL A   1      37.909  33.689  40.319  1.00  0.00     0.127 S 
ATOM     85  O   UNL A   1      36.699  33.149  39.704  1.00  0.00    -0.237 OA
ATOM     86  O   UNL A   1      38.803  32.688  40.903  1.00  0.00    -0.237 OA
ATOM     87  O   UNL A   1      37.718  34.881  41.133  1.00  0.00    -0.744 OA
ENDBRANCH  81  84
ENDBRANCH  53  77
BRANCH  65  88
ATOM     88  C   UNL A   1      44.186  28.649  35.120  1.00  0.00     0.023 A 
ATOM     89  C   UNL A   1      45.481  29.171  34.939  1.00  0.00     0.012 A 
ATOM     90  C   UNL A   1      43.969  27.634  36.071  1.00  0.00     0.148 A 
ATOM     91  C   UNL A   1      46.550  28.669  35.681  1.00  0.00     0.002 A 
ATOM     92  C   UNL A   1      45.026  27.180  36.847  1.00  0.00     0.091 A 
ATOM     93  F   UNL A   1      42.728  27.145  36.212  1.00  0.00    -0.205 F 
ATOM     94  C   UNL A   1      46.320  27.688  36.644  1.00  0.00     0.022 A 
BRANCH  92  95
ATOM     95  S   UNL A   1      44.802  26.003  38.184  1.00  0.00     0.127 S 
ATOM     96  O   UNL A   1      44.071  24.928  37.514  1.00  0.00    -0.237 OA
ATOM     97  O   UNL A   1      46.183  25.675  38.538  1.00  0.00    -0.237 OA
ATOM     98  O   UNL A   1      44.060  26.705  39.221  1.00  0.00    -0.744 OA
ENDBRANCH  92  95
ENDBRANCH  65  88
ENDBRANCH  39  40
ENDBRANCH  32  34
ENDBRANCH  31  32
ENDBRANCH  30  31
ENDBRANCH  29  30
ENDBRANCH  28  29
ENDBRANCH   1  28
TORSDOF 23
ENDMDL
MODEL 2
REMARK VINA RESULT:      -9.9      2.377      8.810
REMARK SMILES O=C(C[NH2+][C@H]1CCCC[C@H]1[N@H+](Cc1ccccc1)C1CC1)OCCOCCOC(=O)c1ccc(-c2c3nc(c(-c4cccc(S(=O)(=O)[O-])c4F)c4ccc([nH]4)c(-c4cccc(S(=O)(=O)[O-])c4F)c4nc(c(-c5cccc(S(=O)(=O)[O-])c5F)c5ccc2[nH]5)C=C4)C=C3)cc1
REMARK SMILES IDX 24 1 23 2 22 3 2 4 1 5 3 6 4 7 5 10 6 11 10 12 7 13 9 14
REMARK SMILES IDX 8 15 11 16 12 18 13 19 14 20 18 21 15 22 17 23 16 24 19 25
REMARK SMILES IDX 20 26 21 27 25 28 26 29 27 30 28 31 29 32 30 33 31 34 32 35
REMARK SMILES IDX 93 36 33 37 92 38 34 39 35 40 36 41 86 42 37 43 91 44 85 45
REMARK SMILES IDX 87 46 38 47 90 48 84 49 83 50 39 52 71 53 51 54 70 55 52 56
REMARK SMILES IDX 55 57 69 58 88 59 53 60 54 61 68 63 89 64 56 65 40 66 41 67
REMARK SMILES IDX 49 68 42 69 44 70 50 71 43 72 45 73 46 74 47 75 48 76 72 77
REMARK SMILES IDX 73 78 81 79 74 80 76 81 82 82 75 83 77 84 78 85 79 86 80 87
REMARK SMILES IDX 57 88 58 89 66 90 59 91 61 92 67 93 60 94 62 95 63 96 64 97
REMARK SMILES IDX 65 98
REMARK H PARENT 4 8 4 9 11 17 87 51 55 62
REMARK Flexibility Score: inf
ROOT
ATOM      1  C   UNL A   1      33.614  28.660  27.071  1.00  0.00     0.202 C 
ENDROOT
BRANCH   1   2
ATOM      2  C   UNL A   1      34.086  27.665  26.017  1.00  0.00     0.261 C 
BRANCH   2   3
ATOM      3  O   UNL A   1      33.636  26.330  26.312  1.00  0.00    -0.459 OA
BRANCH   3   4
ATOM      4  C   UNL A   1      34.017  25.268  25.564  1.00  0.00     0.361 C 
ATOM      5  O   UNL A   1      34.683  24.354  26.045  1.00  0.00    -0.245 OA
BRANCH   4   6
ATOM      6  C   UNL A   1      33.753  25.340  24.081  1.00  0.00     0.385 C 
BRANCH   6   7
ATOM      7  N   UNL A   1      32.744  24.454  23.569  1.00  0.00    -0.330 N 
ATOM      8  H   UNL A   1      32.522  23.755  24.278  1.00  0.00     0.347 HD
ATOM      9  H   UNL A   1      33.102  24.004  22.726  1.00  0.00     0.347 HD
BRANCH   7  10
ATOM     10  C   UNL A   1      31.518  25.197  23.222  1.00  0.00     0.241 C 
ATOM     11  C   UNL A   1      30.437  24.205  23.767  1.00  0.00     0.071 C 
ATOM     12  C   UNL A   1      31.142  26.715  23.709  1.00  0.00     0.243 C 
ATOM     13  C   UNL A   1      30.439  24.155  25.295  1.00  0.00     0.007 C 
ATOM     14  C   UNL A   1      30.541  26.680  25.143  1.00  0.00     0.071 C 
ATOM     15  C   UNL A   1      29.933  25.464  25.816  1.00  0.00     0.007 C 
BRANCH  12  16
ATOM     16  N   UNL A   1      31.766  28.120  23.600  1.00  0.00    -0.321 N 
ATOM     17  H   UNL A   1      32.564  27.520  23.809  1.00  0.00     0.349 HD
BRANCH  16  18
ATOM     18  C   UNL A   1      30.942  29.174  24.322  1.00  0.00     0.299 C 
BRANCH  18  19
ATOM     19  C   UNL A   1      29.916  29.942  23.479  1.00  0.00     0.006 A 
ATOM     20  C   UNL A   1      29.209  31.051  23.980  1.00  0.00     0.009 A 
ATOM     21  C   UNL A   1      29.618  29.553  22.163  1.00  0.00     0.009 A 
ATOM     22  C   UNL A   1      28.350  31.814  23.190  1.00  0.00     0.001 A 
ATOM     23  C   UNL A   1      28.708  30.284  21.381  1.00  0.00     0.001 A 
ATOM     24  C   UNL A   1      28.096  31.429  21.885  1.00  0.00     0.000 A 
ENDBRANCH  18  19
ENDBRANCH  16  18
BRANCH  16  25
ATOM     25  C   UNL A   1      32.705  28.804  22.664  1.00  0.00     0.185 C 
ATOM     26  C   UNL A   1      34.088  29.321  22.943  1.00  0.00     0.071 C 
ATOM     27  C   UNL A   1      33.865  28.242  21.917  1.00  0.00     0.071 C 
ENDBRANCH  16  25
ENDBRANCH  12  16
ENDBRANCH   7  10
ENDBRANCH   6   7
ENDBRANCH   4   6
ENDBRANCH   3   4
ENDBRANCH   2   3
ENDBRANCH   1   2
BRANCH   1  28
ATOM     28  O   UNL A   1      33.765  30.020  26.675  1.00  0.00    -0.374 OA
BRANCH  28  29
ATOM     29  C   UNL A   1      33.224  30.992  27.571  1.00  0.00     0.202 C 
BRANCH  29  30
ATOM     30  C   UNL A   1      33.573  32.467  27.373  1.00  0.00     0.261 C 
BRANCH  30  31
ATOM     31  O   UNL A   1      32.722  33.308  28.143  1.00  0.00    -0.460 OA
BRANCH  31  32
ATOM     32  C   UNL A   1      33.328  34.387  28.684  1.00  0.00     0.338 C 
ATOM     33  O   UNL A   1      32.987  35.559  28.611  1.00  0.00    -0.246 OA
BRANCH  32  34
ATOM     34  C   UNL A   1      34.369  33.881  29.591  1.00  0.00     0.060 A 
ATOM     35  C   UNL A   1      35.699  34.268  29.363  1.00  0.00     0.016 A 
ATOM     36  C   UNL A   1      34.020  33.087  30.685  1.00  0.00     0.016 A 
ATOM     37  C   UNL A   1      36.701  33.820  30.210  1.00  0.00     0.010 A 
ATOM     38  C   UNL A   1      35.018  32.629  31.525  1.00  0.00     0.010 A 
ATOM     39  C   UNL A   1      36.358  32.952  31.250  1.00  0.00    -0.014 A 
BRANCH  39  40
ATOM     40  C   UNL A   1      37.389  32.130  31.897  1.00  0.00     0.031 A 
ATOM     41  C   UNL A   1      37.889  32.608  33.225  1.00  0.00     0.074 A 
ATOM     42  C   UNL A   1      37.929  31.091  31.249  1.00  0.00     0.049 A 
ATOM     43  N   UNL A   1      38.936  32.232  33.899  1.00  0.00    -0.248 NA
ATOM     44  C   UNL A   1      37.121  33.700  33.857  1.00  0.00     0.031 C 
ATOM     45  C   UNL A   1      37.494  30.587  29.947  1.00  0.00     0.029 A 
ATOM     46  N   UNL A   1      39.009  30.319  31.577  1.00  0.00    -0.354 N 
ATOM     47  C   UNL A   1      38.991  33.078  35.000  1.00  0.00     0.074 A 
ATOM     48  C   UNL A   1      37.879  33.994  34.899  1.00  0.00     0.031 C 
ATOM     49  C   UNL A   1      38.341  29.622  29.555  1.00  0.00     0.029 A 
ATOM     50  C   UNL A   1      39.391  29.478  30.561  1.00  0.00     0.049 A 
ATOM     51  H   UNL A   1      39.463  30.361  32.449  1.00  0.00     0.167 HD
ATOM     52  C   UNL A   1      39.896  33.084  36.002  1.00  0.00     0.034 A 
ATOM     53  C   UNL A   1      40.498  28.723  30.447  1.00  0.00     0.034 A 
ATOM     54  C   UNL A   1      40.989  32.156  36.065  1.00  0.00     0.049 A 
ATOM     55  C   UNL A   1      41.489  28.731  31.578  1.00  0.00     0.074 A 
ATOM     56  C   UNL A   1      41.933  32.001  37.058  1.00  0.00     0.029 A 
ATOM     57  N   UNL A   1      41.289  31.235  35.070  1.00  0.00    -0.354 N 
ATOM     58  N   UNL A   1      41.479  29.449  32.677  1.00  0.00    -0.248 NA
ATOM     59  C   UNL A   1      42.622  27.805  31.475  1.00  0.00     0.031 C 
ATOM     60  C   UNL A   1      42.833  31.014  36.644  1.00  0.00     0.029 A 
ATOM     61  C   UNL A   1      42.415  30.515  35.417  1.00  0.00     0.049 A 
ATOM     62  H   UNL A   1      40.774  31.113  34.239  1.00  0.00     0.167 HD
ATOM     63  C   UNL A   1      42.576  29.031  33.420  1.00  0.00     0.074 A 
ATOM     64  C   UNL A   1      43.228  27.996  32.640  1.00  0.00     0.031 C 
ATOM     65  C   UNL A   1      43.006  29.458  34.633  1.00  0.00     0.034 A 
BRANCH  52  66
ATOM     66  C   UNL A   1      39.739  34.127  37.077  1.00  0.00     0.023 A 
ATOM     67  C   UNL A   1      40.112  35.465  36.828  1.00  0.00     0.012 A 
ATOM     68  C   UNL A   1      39.226  33.781  38.341  1.00  0.00     0.148 A 
ATOM     69  C   UNL A   1      40.027  36.427  37.834  1.00  0.00     0.002 A 
ATOM     70  C   UNL A   1      39.092  34.757  39.321  1.00  0.00     0.091 A 
ATOM     71  F   UNL A   1      38.906  32.500  38.574  1.00  0.00    -0.205 F 
ATOM     72  C   UNL A   1      39.508  36.076  39.076  1.00  0.00     0.022 A 
BRANCH  70  73
ATOM     73  S   UNL A   1      38.355  34.421  40.924  1.00  0.00     0.127 S 
ATOM     74  O   UNL A   1      39.373  33.577  41.546  1.00  0.00    -0.237 OA
ATOM     75  O   UNL A   1      38.242  35.763  41.496  1.00  0.00    -0.237 OA
ATOM     76  O   UNL A   1      37.082  33.770  40.652  1.00  0.00    -0.744 OA
ENDBRANCH  70  73
ENDBRANCH  52  66
BRANCH  53  77
ATOM     77  C   UNL A   1      40.686  27.886  29.232  1.00  0.00     0.023 A 
ATOM     78  C   UNL A   1      39.940  26.701  29.089  1.00  0.00     0.012 A 
ATOM     79  C   UNL A   1      41.528  28.304  28.183  1.00  0.00     0.148 A 
ATOM     80  C   UNL A   1      40.041  25.936  27.927  1.00  0.00     0.002 A 
ATOM     81  C   UNL A   1      41.586  27.565  27.008  1.00  0.00     0.091 A 
ATOM     82  F   UNL A   1      42.225  29.437  28.343  1.00  0.00    -0.205 F 
ATOM     83  C   UNL A   1      40.853  26.374  26.883  1.00  0.00     0.022 A 
BRANCH  81  84
ATOM     84  S   UNL A   1      42.503  28.109  25.564  1.00  0.00     0.127 S 
ATOM     85  O   UNL A   1      41.759  29.302  25.170  1.00  0.00    -0.237 OA
ATOM     86  O   UNL A   1      43.827  28.368  26.132  1.00  0.00    -0.237 OA
ATOM     87  O   UNL A   1      42.453  27.001  24.620  1.00  0.00    -0.744 OA
ENDBRANCH  81  84
ENDBRANCH  53  77
BRANCH  65  88
ATOM     88  C   UNL A   1      44.197  28.763  35.235  1.00  0.00     0.023 A 
ATOM     89  C   UNL A   1      45.489  29.299  35.076  1.00  0.00     0.012 A 
ATOM     90  C   UNL A   1      44.005  27.637  36.058  1.00  0.00     0.148 A 
ATOM     91  C   UNL A   1      46.579  28.705  35.712  1.00  0.00     0.002 A 
ATOM     92  C   UNL A   1      45.084  27.086  36.733  1.00  0.00     0.091 A 
ATOM     93  F   UNL A   1      42.766  27.138  36.179  1.00  0.00    -0.205 F 
ATOM     94  C   UNL A   1      46.374  27.611  36.552  1.00  0.00     0.022 A 
BRANCH  92  95
ATOM     95  S   UNL A   1      44.897  25.751  37.919  1.00  0.00     0.127 S 
ATOM     96  O   UNL A   1      44.934  26.475  39.190  1.00  0.00    -0.237 OA
ATOM     97  O   UNL A   1      43.587  25.207  37.564  1.00  0.00    -0.237 OA
ATOM     98  O   UNL A   1      46.013  24.845  37.688  1.00  0.00    -0.744 OA
ENDBRANCH  92  95
ENDBRANCH  65  88
ENDBRANCH  39  40
ENDBRANCH  32  34
ENDBRANCH  31  32
ENDBRANCH  30  31
ENDBRANCH  29  30
ENDBRANCH  28  29
ENDBRANCH   1  28
TORSDOF 23
ENDMDL
MODEL 3
REMARK VINA RESULT:      -9.8      1.294      7.612
REMARK SMILES O=C(C[NH2+][C@H]1CCCC[C@H]1[N@H+](Cc1ccccc1)C1CC1)OCCOCCOC(=O)c1ccc(-c2c3nc(c(-c4cccc(S(=O)(=O)[O-])c4F)c4ccc([nH]4)c(-c4cccc(S(=O)(=O)[O-])c4F)c4nc(c(-c5cccc(S(=O)(=O)[O-])c5F)c5ccc2[nH]5)C=C4)C=C3)cc1
REMARK SMILES IDX 24 1 23 2 22 3 2 4 1 5 3 6 4 7 5 10 6 11 10 12 7 13 9 14
REMARK SMILES IDX 8 15 11 16 12 18 13 19 14 20 18 21 15 22 17 23 16 24 19 25
REMARK SMILES IDX 20 26 21 27 25 28 26 29 27 30 28 31 29 32 30 33 31 34 32 35
REMARK SMILES IDX 93 36 33 37 92 38 34 39 35 40 36 41 86 42 37 43 91 44 85 45
REMARK SMILES IDX 87 46 38 47 90 48 84 49 83 50 39 52 71 53 51 54 70 55 52 56
REMARK SMILES IDX 55 57 69 58 88 59 53 60 54 61 68 63 89 64 56 65 40 66 41 67
REMARK SMILES IDX 49 68 42 69 44 70 50 71 43 72 45 73 46 74 47 75 48 76 72 77
REMARK SMILES IDX 73 78 81 79 74 80 76 81 82 82 75 83 77 84 78 85 79 86 80 87
REMARK SMILES IDX 57 88 58 89 66 90 59 91 61 92 67 93 60 94 62 95 63 96 64 97
REMARK SMILES IDX 65 98
REMARK H PARENT 4 8 4 9 11 17 87 51 55 62
REMARK Flexibility Score: inf
ROOT
ATOM      1  C   UNL A   1      33.427  28.835  27.197  1.00  0.00     0.202 C 
ENDROOT
BRANCH   1   2
ATOM      2  C   UNL A   1      33.920  27.790  26.204  1.00  0.00     0.261 C 
BRANCH   2   3
ATOM      3  O   UNL A   1      33.015  26.675  26.116  1.00  0.00    -0.459 OA
BRANCH   3   4
ATOM      4  C   UNL A   1      33.438  25.439  25.762  1.00  0.00     0.361 C 
ATOM      5  O   UNL A   1      33.656  24.572  26.607  1.00  0.00    -0.245 OA
BRANCH   4   6
ATOM      6  C   UNL A   1      33.810  25.225  24.316  1.00  0.00     0.385 C 
BRANCH   6   7
ATOM      7  N   UNL A   1      35.102  24.645  24.070  1.00  0.00    -0.330 N 
ATOM      8  H   UNL A   1      35.630  24.622  24.942  1.00  0.00     0.347 HD
ATOM      9  H   UNL A   1      35.587  25.213  23.376  1.00  0.00     0.347 HD
BRANCH   7  10
ATOM     10  C   UNL A   1      34.972  23.272  23.547  1.00  0.00     0.241 C 
ATOM     11  C   UNL A   1      36.471  22.967  23.214  1.00  0.00     0.071 C 
ATOM     12  C   UNL A   1      34.332  21.993  24.346  1.00  0.00     0.243 C 
ATOM     13  C   UNL A   1      37.310  22.819  24.484  1.00  0.00     0.007 C 
ATOM     14  C   UNL A   1      35.396  21.376  25.298  1.00  0.00     0.071 C 
ATOM     15  C   UNL A   1      36.896  21.561  25.184  1.00  0.00     0.007 C 
BRANCH  12  16
ATOM     16  N   UNL A   1      32.987  21.638  25.009  1.00  0.00    -0.321 N 
ATOM     17  H   UNL A   1      33.173  22.584  25.341  1.00  0.00     0.349 HD
BRANCH  16  18
ATOM     18  C   UNL A   1      32.983  20.232  25.587  1.00  0.00     0.299 C 
BRANCH  18  19
ATOM     19  C   UNL A   1      33.213  19.081  24.599  1.00  0.00     0.006 A 
ATOM     20  C   UNL A   1      34.185  18.087  24.815  1.00  0.00     0.009 A 
ATOM     21  C   UNL A   1      32.472  18.983  23.411  1.00  0.00     0.009 A 
ATOM     22  C   UNL A   1      34.333  16.984  23.974  1.00  0.00     0.001 A 
ATOM     23  C   UNL A   1      32.658  17.905  22.529  1.00  0.00     0.001 A 
ATOM     24  C   UNL A   1      33.568  16.893  22.825  1.00  0.00     0.000 A 
ENDBRANCH  18  19
ENDBRANCH  16  18
BRANCH  16  25
ATOM     25  C   UNL A   1      31.577  22.110  24.887  1.00  0.00     0.185 C 
ATOM     26  C   UNL A   1      30.542  22.246  25.969  1.00  0.00     0.071 C 
ATOM     27  C   UNL A   1      31.003  23.450  25.192  1.00  0.00     0.071 C 
ENDBRANCH  16  25
ENDBRANCH  12  16
ENDBRANCH   7  10
ENDBRANCH   6   7
ENDBRANCH   4   6
ENDBRANCH   3   4
ENDBRANCH   2   3
ENDBRANCH   1   2
BRANCH   1  28
ATOM     28  O   UNL A   1      33.662  30.175  26.775  1.00  0.00    -0.374 OA
BRANCH  28  29
ATOM     29  C   UNL A   1      33.029  31.192  27.553  1.00  0.00     0.202 C 
BRANCH  29  30
ATOM     30  C   UNL A   1      33.575  32.619  27.506  1.00  0.00     0.261 C 
BRANCH  30  31
ATOM     31  O   UNL A   1      32.648  33.547  28.056  1.00  0.00    -0.460 OA
BRANCH  31  32
ATOM     32  C   UNL A   1      33.209  34.610  28.674  1.00  0.00     0.338 C 
ATOM     33  O   UNL A   1      32.805  35.764  28.703  1.00  0.00    -0.246 OA
BRANCH  32  34
ATOM     34  C   UNL A   1      34.292  34.089  29.520  1.00  0.00     0.060 A 
ATOM     35  C   UNL A   1      35.614  34.436  29.201  1.00  0.00     0.016 A 
ATOM     36  C   UNL A   1      33.994  33.320  30.647  1.00  0.00     0.016 A 
ATOM     37  C   UNL A   1      36.657  33.973  29.989  1.00  0.00     0.010 A 
ATOM     38  C   UNL A   1      35.033  32.847  31.428  1.00  0.00     0.010 A 
ATOM     39  C   UNL A   1      36.360  33.130  31.063  1.00  0.00    -0.014 A 
BRANCH  39  40
ATOM     40  C   UNL A   1      37.408  32.290  31.654  1.00  0.00     0.031 A 
ATOM     41  C   UNL A   1      37.845  32.645  33.042  1.00  0.00     0.074 A 
ATOM     42  C   UNL A   1      38.016  31.350  30.920  1.00  0.00     0.049 A 
ATOM     43  N   UNL A   1      38.889  32.245  33.709  1.00  0.00    -0.248 NA
ATOM     44  C   UNL A   1      37.008  33.628  33.759  1.00  0.00     0.031 C 
ATOM     45  C   UNL A   1      37.645  30.970  29.558  1.00  0.00     0.029 A 
ATOM     46  N   UNL A   1      39.121  30.595  31.202  1.00  0.00    -0.354 N 
ATOM     47  C   UNL A   1      38.870  32.970  34.894  1.00  0.00     0.074 A 
ATOM     48  C   UNL A   1      37.720  33.842  34.851  1.00  0.00     0.031 C 
ATOM     49  C   UNL A   1      38.548  30.090  29.096  1.00  0.00     0.029 A 
ATOM     50  C   UNL A   1      39.573  29.886  30.117  1.00  0.00     0.049 A 
ATOM     51  H   UNL A   1      39.547  30.565  32.089  1.00  0.00     0.167 HD
ATOM     52  C   UNL A   1      39.745  32.909  35.922  1.00  0.00     0.034 A 
ATOM     53  C   UNL A   1      40.717  29.196  29.963  1.00  0.00     0.034 A 
ATOM     54  C   UNL A   1      40.877  32.028  35.925  1.00  0.00     0.049 A 
ATOM     55  C   UNL A   1      41.672  29.127  31.122  1.00  0.00     0.074 A 
ATOM     56  C   UNL A   1      41.798  31.809  36.928  1.00  0.00     0.029 A 
ATOM     57  N   UNL A   1      41.250  31.232  34.849  1.00  0.00    -0.354 N 
ATOM     58  N   UNL A   1      41.596  29.723  32.290  1.00  0.00    -0.248 NA
ATOM     59  C   UNL A   1      42.850  28.268  30.962  1.00  0.00     0.031 C 
ATOM     60  C   UNL A   1      42.755  30.913  36.443  1.00  0.00     0.029 A 
ATOM     61  C   UNL A   1      42.398  30.529  35.158  1.00  0.00     0.049 A 
ATOM     62  H   UNL A   1      40.767  31.177  33.992  1.00  0.00     0.167 HD
ATOM     63  C   UNL A   1      42.688  29.276  33.022  1.00  0.00     0.074 A 
ATOM     64  C   UNL A   1      43.412  28.360  32.160  1.00  0.00     0.031 C 
ATOM     65  C   UNL A   1      43.062  29.589  34.287  1.00  0.00     0.034 A 
BRANCH  52  66
ATOM     66  C   UNL A   1      39.506  33.823  37.095  1.00  0.00     0.023 A 
ATOM     67  C   UNL A   1      39.949  35.162  37.053  1.00  0.00     0.012 A 
ATOM     68  C   UNL A   1      38.846  33.354  38.246  1.00  0.00     0.148 A 
ATOM     69  C   UNL A   1      39.788  36.001  38.154  1.00  0.00     0.002 A 
ATOM     70  C   UNL A   1      38.639  34.213  39.319  1.00  0.00     0.091 A 
ATOM     71  F   UNL A   1      38.459  32.071  38.285  1.00  0.00    -0.205 F 
ATOM     72  C   UNL A   1      39.125  35.530  39.283  1.00  0.00     0.022 A 
BRANCH  70  73
ATOM     73  S   UNL A   1      37.720  33.724  40.782  1.00  0.00     0.127 S 
ATOM     74  O   UNL A   1      36.532  33.110  40.194  1.00  0.00    -0.237 OA
ATOM     75  O   UNL A   1      38.640  32.782  41.421  1.00  0.00    -0.237 OA
ATOM     76  O   UNL A   1      37.485  34.946  41.537  1.00  0.00    -0.744 OA
ENDBRANCH  70  73
ENDBRANCH  52  66
BRANCH  53  77
ATOM     77  C   UNL A   1      40.981  28.503  28.674  1.00  0.00     0.023 A 
ATOM     78  C   UNL A   1      41.680  29.180  27.658  1.00  0.00     0.012 A 
ATOM     79  C   UNL A   1      40.626  27.153  28.487  1.00  0.00     0.148 A 
ATOM     80  C   UNL A   1      42.007  28.530  26.467  1.00  0.00     0.002 A 
ATOM     81  C   UNL A   1      40.998  26.496  27.321  1.00  0.00     0.091 A 
ATOM     82  F   UNL A   1      39.963  26.530  29.472  1.00  0.00    -0.205 F 
ATOM     83  C   UNL A   1      41.677  27.186  26.305  1.00  0.00     0.022 A 
BRANCH  81  84
ATOM     84  S   UNL A   1      40.729  24.738  27.069  1.00  0.00     0.127 S 
ATOM     85  O   UNL A   1      39.295  24.693  26.794  1.00  0.00    -0.237 OA
ATOM     86  O   UNL A   1      41.587  24.468  25.915  1.00  0.00    -0.237 OA
ATOM     87  O   UNL A   1      41.150  24.091  28.304  1.00  0.00    -0.744 OA
ENDBRANCH  81  84
ENDBRANCH  53  77
BRANCH  65  88
ATOM     88  C   UNL A   1      44.265  28.888  34.854  1.00  0.00     0.023 A 
ATOM     89  C   UNL A   1      45.537  29.486  34.782  1.00  0.00     0.012 A 
ATOM     90  C   UNL A   1      44.100  27.681  35.562  1.00  0.00     0.148 A 
ATOM     91  C   UNL A   1      46.636  28.877  35.389  1.00  0.00     0.002 A 
ATOM     92  C   UNL A   1      45.185  27.111  36.211  1.00  0.00     0.091 A 
ATOM     93  F   UNL A   1      42.881  27.125  35.601  1.00  0.00    -0.205 F 
ATOM     94  C   UNL A   1      46.457  27.701  36.116  1.00  0.00     0.022 A 
BRANCH  92  95
ATOM     95  S   UNL A   1      45.026  25.662  37.260  1.00  0.00     0.127 S 
ATOM     96  O   UNL A   1      45.340  24.583  36.325  1.00  0.00    -0.237 OA
ATOM     97  O   UNL A   1      46.048  25.907  38.278  1.00  0.00    -0.237 OA
ATOM     98  O   UNL A   1      43.658  25.673  37.760  1.00  0.00    -0.744 OA
ENDBRANCH  92  95
ENDBRANCH  65  88
ENDBRANCH  39  40
ENDBRANCH  32  34
ENDBRANCH  31  32
ENDBRANCH  30  31
ENDBRANCH  29  30
ENDBRANCH  28  29
ENDBRANCH   1  28
TORSDOF 23
ENDMDL
