MODEL 1
REMARK VINA RESULT:      -9.6      0.000      0.000
REMARK SMILES CCCCCCNC(=O)Nc1cccc(-c2ccc([C@@H](C)C(=O)OCCOCCOC(=O)c3ccc(-c4c5nc(c(-c6cccc(S(=O)(=O)[O-])c6F)c6ccc([nH]6)c(-c6cccc(S(=O)(=O)[O-])c6F)c6nc(c(-c7cccc(S(=O)(=O)[O-])c7F)c7ccc4[nH]7)C=C6)C=C5)cc3)cc2F)c1
REMARK SMILES IDX 25 1 24 2 22 3 23 4 20 5 21 6 19 7 16 8 17 9 97 10 18 11
REMARK SMILES IDX 96 12 98 13 15 14 11 15 12 16 99 17 13 18 14 19 10 20 7 21
REMARK SMILES IDX 8 22 9 24 6 26 5 27 4 28 3 29 2 30 1 31 26 32 27 33 28 34
REMARK SMILES IDX 29 35 30 36 31 37 32 38 33 39 34 40 95 41 35 42 94 43 36 44
REMARK SMILES IDX 37 45 38 46 88 47 39 48 93 49 87 50 89 51 40 52 92 53 86 54
REMARK SMILES IDX 85 55 41 57 73 58 53 59 72 60 54 61 57 62 71 63 90 64 55 65
REMARK SMILES IDX 56 66 70 68 91 69 58 70 42 71 43 72 51 73 44 74 46 75 52 76
REMARK SMILES IDX 45 77 47 78 48 79 49 80 50 81 74 82 75 83 83 84 76 85 78 86
REMARK SMILES IDX 84 87 77 88 79 89 80 90 81 91 82 92 59 93 60 94 68 95 61 96
REMARK SMILES IDX 63 97 69 98 62 99 64 100 65 101 66 102 67 103
REMARK H PARENT 7 23 10 25 89 56 57 67
REMARK Flexibility Score: inf
ROOT
ATOM      1  C   UNL A   1      33.142  35.311  31.115  1.00  0.00     0.261 C 
ENDROOT
BRANCH   1   2
ATOM      2  O   UNL A   1      32.930  35.446  29.702  1.00  0.00    -0.463 OA
BRANCH   2   3
ATOM      3  C   UNL A   1      34.045  35.282  28.944  1.00  0.00     0.313 C 
ATOM      4  O   UNL A   1      34.440  36.091  28.107  1.00  0.00    -0.252 OA
BRANCH   3   5
ATOM      5  C   UNL A   1      34.767  33.965  29.168  1.00  0.00     0.126 C 
ATOM      6  C   UNL A   1      36.273  34.230  29.159  1.00  0.00     0.025 C 
BRANCH   5   7
ATOM      7  C   UNL A   1      34.398  32.758  28.308  1.00  0.00    -0.031 A 
ATOM      8  C   UNL A   1      33.433  30.380  27.032  1.00  0.00     0.018 A 
ATOM      9  C   UNL A   1      34.718  30.441  27.601  1.00  0.00     0.012 A 
ATOM     10  C   UNL A   1      32.682  31.561  27.046  1.00  0.00     0.131 A 
ATOM     11  C   UNL A   1      35.195  31.609  28.226  1.00  0.00     0.005 A 
ATOM     12  C   UNL A   1      33.148  32.727  27.666  1.00  0.00     0.044 A 
ATOM     13  F   UNL A   1      31.447  31.585  26.521  1.00  0.00    -0.206 F 
BRANCH   8  14
ATOM     14  C   UNL A   1      32.863  29.104  26.546  1.00  0.00    -0.013 A 
ATOM     15  C   UNL A   1      32.541  27.403  24.811  1.00  0.00     0.043 A 
ATOM     16  C   UNL A   1      31.626  26.733  25.623  1.00  0.00     0.026 A 
ATOM     17  C   UNL A   1      33.126  28.601  25.257  1.00  0.00     0.035 A 
ATOM     18  C   UNL A   1      31.375  27.196  26.912  1.00  0.00     0.003 A 
ATOM     19  C   UNL A   1      31.993  28.364  27.367  1.00  0.00     0.009 A 
BRANCH  15  20
ATOM     20  N   UNL A   1      32.854  26.818  23.571  1.00  0.00    -0.308 N 
ATOM     21  N   UNL A   1      31.342  27.815  22.061  1.00  0.00    -0.338 N 
ATOM     22  C   UNL A   1      32.148  26.782  22.409  1.00  0.00     0.319 C 
ATOM     23  H   UNL A   1      30.763  27.669  21.279  1.00  0.00     0.165 HD
ATOM     24  O   UNL A   1      32.338  25.874  21.599  1.00  0.00    -0.249 OA
ATOM     25  H   UNL A   1      33.726  26.362  23.537  1.00  0.00     0.171 HD
BRANCH  21  26
ATOM     26  C   UNL A   1      31.233  29.105  22.702  1.00  0.00     0.117 C 
BRANCH  26  27
ATOM     27  C   UNL A   1      29.971  29.313  23.525  1.00  0.00     0.021 C 
BRANCH  27  28
ATOM     28  C   UNL A   1      28.672  28.796  22.910  1.00  0.00     0.002 C 
BRANCH  28  29
ATOM     29  C   UNL A   1      27.520  29.802  22.806  1.00  0.00    -0.000 C 
BRANCH  29  30
ATOM     30  C   UNL A   1      27.692  31.114  23.572  1.00  0.00    -0.003 C 
ATOM     31  C   UNL A   1      28.415  32.182  22.791  1.00  0.00     0.004 C 
ENDBRANCH  29  30
ENDBRANCH  28  29
ENDBRANCH  27  28
ENDBRANCH  26  27
ENDBRANCH  21  26
ENDBRANCH  15  20
ENDBRANCH   8  14
ENDBRANCH   5   7
ENDBRANCH   3   5
ENDBRANCH   2   3
ENDBRANCH   1   2
BRANCH   1  32
ATOM     32  C   UNL A   1      33.639  36.572  31.841  1.00  0.00     0.202 C 
BRANCH  32  33
ATOM     33  O   UNL A   1      34.749  36.496  32.723  1.00  0.00    -0.374 OA
BRANCH  33  34
ATOM     34  C   UNL A   1      34.959  35.318  33.490  1.00  0.00     0.202 C 
BRANCH  34  35
ATOM     35  C   UNL A   1      36.091  34.348  33.133  1.00  0.00     0.261 C 
BRANCH  35  36
ATOM     36  O   UNL A   1      35.849  32.974  33.473  1.00  0.00    -0.460 OA
BRANCH  36  37
ATOM     37  C   UNL A   1      35.667  32.164  32.395  1.00  0.00     0.338 C 
ATOM     38  O   UNL A   1      34.625  32.041  31.770  1.00  0.00    -0.246 OA
BRANCH  37  39
ATOM     39  C   UNL A   1      36.887  31.398  32.036  1.00  0.00     0.060 A 
ATOM     40  C   UNL A   1      37.049  30.156  32.664  1.00  0.00     0.016 A 
ATOM     41  C   UNL A   1      37.920  31.915  31.246  1.00  0.00     0.016 A 
ATOM     42  C   UNL A   1      38.269  29.490  32.608  1.00  0.00     0.010 A 
ATOM     43  C   UNL A   1      39.157  31.254  31.210  1.00  0.00     0.010 A 
ATOM     44  C   UNL A   1      39.350  30.067  31.937  1.00  0.00    -0.014 A 
BRANCH  44  45
ATOM     45  C   UNL A   1      40.671  29.399  32.021  1.00  0.00     0.031 A 
ATOM     46  C   UNL A   1      41.125  28.429  30.962  1.00  0.00     0.074 A 
ATOM     47  C   UNL A   1      41.477  29.700  33.050  1.00  0.00     0.049 A 
ATOM     48  N   UNL A   1      42.282  27.841  30.806  1.00  0.00    -0.248 NA
ATOM     49  C   UNL A   1      40.134  28.046  29.950  1.00  0.00     0.031 C 
ATOM     50  C   UNL A   1      41.132  30.598  34.152  1.00  0.00     0.029 A 
ATOM     51  N   UNL A   1      42.751  29.292  33.326  1.00  0.00    -0.354 N 
ATOM     52  C   UNL A   1      42.143  26.998  29.705  1.00  0.00     0.074 A 
ATOM     53  C   UNL A   1      40.774  27.114  29.261  1.00  0.00     0.031 C 
ATOM     54  C   UNL A   1      42.173  30.667  34.994  1.00  0.00     0.029 A 
ATOM     55  C   UNL A   1      43.262  29.846  34.472  1.00  0.00     0.049 A 
ATOM     56  H   UNL A   1      43.254  28.663  32.759  1.00  0.00     0.167 HD
ATOM     57  C   UNL A   1      43.085  26.243  29.089  1.00  0.00     0.034 A 
ATOM     58  C   UNL A   1      44.489  29.741  35.013  1.00  0.00     0.034 A 
ATOM     59  C   UNL A   1      44.468  26.228  29.489  1.00  0.00     0.049 A 
ATOM     60  C   UNL A   1      45.551  28.997  34.258  1.00  0.00     0.074 A 
ATOM     61  C   UNL A   1      45.542  25.615  28.869  1.00  0.00     0.029 A 
ATOM     62  N   UNL A   1      44.967  26.872  30.610  1.00  0.00    -0.354 N 
ATOM     63  N   UNL A   1      45.452  28.345  33.124  1.00  0.00    -0.248 NA
ATOM     64  C   UNL A   1      46.907  29.035  34.817  1.00  0.00     0.031 C 
ATOM     65  C   UNL A   1      46.691  25.885  29.623  1.00  0.00     0.029 A 
ATOM     66  C   UNL A   1      46.333  26.676  30.704  1.00  0.00     0.049 A 
ATOM     67  H   UNL A   1      44.428  27.394  31.248  1.00  0.00     0.167 HD
ATOM     68  C   UNL A   1      46.741  27.931  32.808  1.00  0.00     0.074 A 
ATOM     69  C   UNL A   1      47.602  28.420  33.869  1.00  0.00     0.031 C 
ATOM     70  C   UNL A   1      47.174  27.207  31.746  1.00  0.00     0.034 A 
BRANCH  57  71
ATOM     71  C   UNL A   1      42.681  25.442  27.872  1.00  0.00     0.023 A 
ATOM     72  C   UNL A   1      42.804  26.013  26.589  1.00  0.00     0.012 A 
ATOM     73  C   UNL A   1      42.249  24.105  27.986  1.00  0.00     0.148 A 
ATOM     74  C   UNL A   1      42.469  25.285  25.445  1.00  0.00     0.002 A 
ATOM     75  C   UNL A   1      41.961  23.370  26.839  1.00  0.00     0.091 A 
ATOM     76  F   UNL A   1      42.114  23.576  29.211  1.00  0.00    -0.205 F 
ATOM     77  C   UNL A   1      42.059  23.961  25.570  1.00  0.00     0.022 A 
BRANCH  75  78
ATOM     78  S   UNL A   1      41.516  21.628  26.904  1.00  0.00     0.127 S 
ATOM     79  O   UNL A   1      42.411  21.132  27.947  1.00  0.00    -0.237 OA
ATOM     80  O   UNL A   1      40.104  21.678  27.289  1.00  0.00    -0.237 OA
ATOM     81  O   UNL A   1      41.755  21.113  25.564  1.00  0.00    -0.744 OA
ENDBRANCH  75  78
ENDBRANCH  57  71
BRANCH  58  82
ATOM     82  C   UNL A   1      44.782  30.509  36.251  1.00  0.00     0.023 A 
ATOM     83  C   UNL A   1      44.639  29.877  37.501  1.00  0.00     0.012 A 
ATOM     84  C   UNL A   1      45.328  31.805  36.188  1.00  0.00     0.148 A 
ATOM     85  C   UNL A   1      45.030  30.527  38.671  1.00  0.00     0.002 A 
ATOM     86  C   UNL A   1      45.763  32.425  37.352  1.00  0.00     0.091 A 
ATOM     87  F   UNL A   1      45.450  32.384  34.986  1.00  0.00    -0.205 F 
ATOM     88  C   UNL A   1      45.605  31.794  38.596  1.00  0.00     0.022 A 
BRANCH  86  89
ATOM     89  S   UNL A   1      46.657  33.984  37.328  1.00  0.00     0.127 S 
ATOM     90  O   UNL A   1      47.800  33.659  36.479  1.00  0.00    -0.237 OA
ATOM     91  O   UNL A   1      45.676  34.887  36.724  1.00  0.00    -0.237 OA
ATOM     92  O   UNL A   1      46.962  34.282  38.720  1.00  0.00    -0.744 OA
ENDBRANCH  86  89
ENDBRANCH  58  82
BRANCH  70  93
ATOM     93  C   UNL A   1      48.648  26.913  31.673  1.00  0.00     0.023 A 
ATOM     94  C   UNL A   1      49.496  27.789  30.968  1.00  0.00     0.012 A 
ATOM     95  C   UNL A   1      49.196  25.797  32.334  1.00  0.00     0.148 A 
ATOM     96  C   UNL A   1      50.864  27.536  30.886  1.00  0.00     0.002 A 
ATOM     97  C   UNL A   1      50.568  25.575  32.283  1.00  0.00     0.091 A 
ATOM     98  F   UNL A   1      48.372  24.962  32.982  1.00  0.00    -0.205 F 
ATOM     99  C   UNL A   1      51.401  26.436  31.550  1.00  0.00     0.022 A 
BRANCH  97 100
ATOM    100  S   UNL A   1      51.338  24.228  33.186  1.00  0.00     0.127 S 
ATOM    101  O   UNL A   1      50.844  23.059  32.462  1.00  0.00    -0.237 OA
ATOM    102  O   UNL A   1      52.766  24.497  33.005  1.00  0.00    -0.237 OA
ATOM    103  O   UNL A   1      50.876  24.368  34.561  1.00  0.00    -0.744 OA
ENDBRANCH  97 100
ENDBRANCH  70  93
ENDBRANCH  44  45
ENDBRANCH  37  39
ENDBRANCH  36  37
ENDBRANCH  35  36
ENDBRANCH  34  35
ENDBRANCH  33  34
ENDBRANCH  32  33
ENDBRANCH   1  32
TORSDOF 25
ENDMDL
MODEL 2
REMARK VINA RESULT:      -9.5      5.625      9.229
REMARK SMILES CCCCCCNC(=O)Nc1cccc(-c2ccc([C@@H](C)C(=O)OCCOCCOC(=O)c3ccc(-c4c5nc(c(-c6cccc(S(=O)(=O)[O-])c6F)c6ccc([nH]6)c(-c6cccc(S(=O)(=O)[O-])c6F)c6nc(c(-c7cccc(S(=O)(=O)[O-])c7F)c7ccc4[nH]7)C=C6)C=C5)cc3)cc2F)c1
REMARK SMILES IDX 25 1 24 2 22 3 23 4 20 5 21 6 19 7 16 8 17 9 97 10 18 11
REMARK SMILES IDX 96 12 98 13 15 14 11 15 12 16 99 17 13 18 14 19 10 20 7 21
REMARK SMILES IDX 8 22 9 24 6 26 5 27 4 28 3 29 2 30 1 31 26 32 27 33 28 34
REMARK SMILES IDX 29 35 30 36 31 37 32 38 33 39 34 40 95 41 35 42 94 43 36 44
REMARK SMILES IDX 37 45 38 46 88 47 39 48 93 49 87 50 89 51 40 52 92 53 86 54
REMARK SMILES IDX 85 55 41 57 73 58 53 59 72 60 54 61 57 62 71 63 90 64 55 65
REMARK SMILES IDX 56 66 70 68 91 69 58 70 42 71 43 72 51 73 44 74 46 75 52 76
REMARK SMILES IDX 45 77 47 78 48 79 49 80 50 81 74 82 75 83 83 84 76 85 78 86
REMARK SMILES IDX 84 87 77 88 79 89 80 90 81 91 82 92 59 93 60 94 68 95 61 96
REMARK SMILES IDX 63 97 69 98 62 99 64 100 65 101 66 102 67 103
REMARK H PARENT 7 23 10 25 89 56 57 67
REMARK Flexibility Score: inf
ROOT
ATOM      1  C   UNL A   1      34.780  32.413  30.632  1.00  0.00     0.261 C 
ENDROOT
BRANCH   1   2
ATOM      2  O   UNL A   1      34.256  32.616  29.312  1.00  0.00    -0.463 OA
BRANCH   2   3
ATOM      3  C   UNL A   1      35.103  32.268  28.307  1.00  0.00     0.313 C 
ATOM      4  O   UNL A   1      35.587  33.061  27.503  1.00  0.00    -0.252 OA
BRANCH   3   5
ATOM      5  C   UNL A   1      35.377  30.778  28.208  1.00  0.00     0.126 C 
ATOM      6  C   UNL A   1      36.750  30.580  27.565  1.00  0.00     0.025 C 
BRANCH   5   7
ATOM      7  C   UNL A   1      34.322  29.866  27.586  1.00  0.00    -0.031 A 
ATOM      8  C   UNL A   1      32.554  28.232  26.030  1.00  0.00     0.018 A 
ATOM      9  C   UNL A   1      32.165  29.501  26.497  1.00  0.00     0.012 A 
ATOM     10  C   UNL A   1      33.814  27.774  26.433  1.00  0.00     0.131 A 
ATOM     11  C   UNL A   1      33.031  30.305  27.264  1.00  0.00     0.005 A 
ATOM     12  C   UNL A   1      34.682  28.566  27.194  1.00  0.00     0.044 A 
ATOM     13  F   UNL A   1      34.257  26.572  26.031  1.00  0.00    -0.206 F 
BRANCH   8  14
ATOM     14  C   UNL A   1      31.720  27.473  25.073  1.00  0.00    -0.013 A 
ATOM     15  C   UNL A   1      31.244  26.620  22.825  1.00  0.00     0.043 A 
ATOM     16  C   UNL A   1      30.012  26.133  23.259  1.00  0.00     0.026 A 
ATOM     17  C   UNL A   1      32.075  27.318  23.719  1.00  0.00     0.035 A 
ATOM     18  C   UNL A   1      29.655  26.248  24.600  1.00  0.00     0.003 A 
ATOM     19  C   UNL A   1      30.504  26.905  25.495  1.00  0.00     0.009 A 
BRANCH  15  20
ATOM     20  N   UNL A   1      31.608  26.361  21.492  1.00  0.00    -0.308 N 
ATOM     21  N   UNL A   1      32.946  24.423  21.620  1.00  0.00    -0.338 N 
ATOM     22  C   UNL A   1      32.586  25.565  20.982  1.00  0.00     0.319 C 
ATOM     23  H   UNL A   1      33.744  23.964  21.271  1.00  0.00     0.165 HD
ATOM     24  O   UNL A   1      33.057  25.801  19.869  1.00  0.00    -0.249 OA
ATOM     25  H   UNL A   1      31.068  26.833  20.817  1.00  0.00     0.171 HD
BRANCH  21  26
ATOM     26  C   UNL A   1      32.296  23.802  22.750  1.00  0.00     0.117 C 
BRANCH  26  27
ATOM     27  C   UNL A   1      32.766  22.391  23.070  1.00  0.00     0.021 C 
BRANCH  27  28
ATOM     28  C   UNL A   1      32.677  21.966  24.535  1.00  0.00     0.002 C 
BRANCH  28  29
ATOM     29  C   UNL A   1      33.315  22.911  25.559  1.00  0.00    -0.000 C 
BRANCH  29  30
ATOM     30  C   UNL A   1      32.356  23.635  26.505  1.00  0.00    -0.003 C 
ATOM     31  C   UNL A   1      30.916  23.217  26.346  1.00  0.00     0.004 C 
ENDBRANCH  29  30
ENDBRANCH  28  29
ENDBRANCH  27  28
ENDBRANCH  26  27
ENDBRANCH  21  26
ENDBRANCH  15  20
ENDBRANCH   8  14
ENDBRANCH   5   7
ENDBRANCH   3   5
ENDBRANCH   2   3
ENDBRANCH   1   2
BRANCH   1  32
ATOM     32  C   UNL A   1      35.702  33.523  31.165  1.00  0.00     0.202 C 
BRANCH  32  33
ATOM     33  O   UNL A   1      36.570  33.264  32.259  1.00  0.00    -0.374 OA
BRANCH  33  34
ATOM     34  C   UNL A   1      36.275  32.201  33.154  1.00  0.00     0.202 C 
BRANCH  34  35
ATOM     35  C   UNL A   1      37.363  31.636  34.076  1.00  0.00     0.261 C 
BRANCH  35  36
ATOM     36  O   UNL A   1      37.539  30.212  34.013  1.00  0.00    -0.460 OA
BRANCH  36  37
ATOM     37  C   UNL A   1      37.910  29.758  32.786  1.00  0.00     0.338 C 
ATOM     38  O   UNL A   1      37.442  28.782  32.221  1.00  0.00    -0.246 OA
BRANCH  37  39
ATOM     39  C   UNL A   1      38.987  30.573  32.170  1.00  0.00     0.060 A 
ATOM     40  C   UNL A   1      38.854  30.846  30.802  1.00  0.00     0.016 A 
ATOM     41  C   UNL A   1      40.164  30.932  32.837  1.00  0.00     0.016 A 
ATOM     42  C   UNL A   1      39.925  31.359  30.077  1.00  0.00     0.010 A 
ATOM     43  C   UNL A   1      41.250  31.428  32.100  1.00  0.00     0.010 A 
ATOM     44  C   UNL A   1      41.150  31.590  30.708  1.00  0.00    -0.014 A 
BRANCH  44  45
ATOM     45  C   UNL A   1      42.306  32.000  29.876  1.00  0.00     0.031 A 
ATOM     46  C   UNL A   1      42.529  33.443  29.503  1.00  0.00     0.074 A 
ATOM     47  C   UNL A   1      43.178  31.059  29.484  1.00  0.00     0.049 A 
ATOM     48  N   UNL A   1      43.537  34.001  28.887  1.00  0.00    -0.248 NA
ATOM     49  C   UNL A   1      41.460  34.385  29.849  1.00  0.00     0.031 C 
ATOM     50  C   UNL A   1      43.049  29.628  29.756  1.00  0.00     0.029 A 
ATOM     51  N   UNL A   1      44.347  31.171  28.785  1.00  0.00    -0.354 N 
ATOM     52  C   UNL A   1      43.205  35.346  28.742  1.00  0.00     0.074 A 
ATOM     53  C   UNL A   1      41.880  35.512  29.292  1.00  0.00     0.031 C 
ATOM     54  C   UNL A   1      44.099  28.990  29.220  1.00  0.00     0.029 A 
ATOM     55  C   UNL A   1      44.985  29.971  28.599  1.00  0.00     0.049 A 
ATOM     56  H   UNL A   1      44.698  32.028  28.448  1.00  0.00     0.167 HD
ATOM     57  C   UNL A   1      43.958  36.360  28.249  1.00  0.00     0.034 A 
ATOM     58  C   UNL A   1      46.175  29.701  28.033  1.00  0.00     0.034 A 
ATOM     59  C   UNL A   1      45.317  36.187  27.805  1.00  0.00     0.049 A 
ATOM     60  C   UNL A   1      47.045  30.844  27.599  1.00  0.00     0.074 A 
ATOM     61  C   UNL A   1      46.229  37.150  27.412  1.00  0.00     0.029 A 
ATOM     62  N   UNL A   1      45.961  34.963  27.709  1.00  0.00    -0.354 N 
ATOM     63  N   UNL A   1      46.791  32.130  27.627  1.00  0.00    -0.248 NA
ATOM     64  C   UNL A   1      48.391  30.503  27.124  1.00  0.00     0.031 C 
ATOM     65  C   UNL A   1      47.424  36.504  27.073  1.00  0.00     0.029 A 
ATOM     66  C   UNL A   1      47.259  35.141  27.266  1.00  0.00     0.049 A 
ATOM     67  H   UNL A   1      45.554  34.093  27.925  1.00  0.00     0.167 HD
ATOM     68  C   UNL A   1      47.960  32.759  27.216  1.00  0.00     0.074 A 
ATOM     69  C   UNL A   1      48.925  31.706  26.958  1.00  0.00     0.031 C 
ATOM     70  C   UNL A   1      48.213  34.082  27.057  1.00  0.00     0.034 A 
BRANCH  57  71
ATOM     71  C   UNL A   1      43.373  37.753  28.243  1.00  0.00     0.023 A 
ATOM     72  C   UNL A   1      42.631  38.193  27.127  1.00  0.00     0.012 A 
ATOM     73  C   UNL A   1      43.492  38.603  29.362  1.00  0.00     0.148 A 
ATOM     74  C   UNL A   1      42.051  39.464  27.108  1.00  0.00     0.002 A 
ATOM     75  C   UNL A   1      42.874  39.850  29.353  1.00  0.00     0.091 A 
ATOM     76  F   UNL A   1      44.219  38.187  30.409  1.00  0.00    -0.205 F 
ATOM     77  C   UNL A   1      42.163  40.287  28.224  1.00  0.00     0.022 A 
BRANCH  75  78
ATOM     78  S   UNL A   1      42.889  40.937  30.787  1.00  0.00     0.127 S 
ATOM     79  O   UNL A   1      41.723  41.780  30.532  1.00  0.00    -0.237 OA
ATOM     80  O   UNL A   1      42.727  39.996  31.897  1.00  0.00    -0.237 OA
ATOM     81  O   UNL A   1      44.180  41.609  30.754  1.00  0.00    -0.744 OA
ENDBRANCH  75  78
ENDBRANCH  57  71
BRANCH  58  82
ATOM     82  C   UNL A   1      46.645  28.291  28.020  1.00  0.00     0.023 A 
ATOM     83  C   UNL A   1      47.286  27.770  29.159  1.00  0.00     0.012 A 
ATOM     84  C   UNL A   1      46.339  27.435  26.945  1.00  0.00     0.148 A 
ATOM     85  C   UNL A   1      47.621  26.418  29.226  1.00  0.00     0.002 A 
ATOM     86  C   UNL A   1      46.628  26.080  27.041  1.00  0.00     0.091 A 
ATOM     87  F   UNL A   1      45.731  27.958  25.871  1.00  0.00    -0.205 F 
ATOM     88  C   UNL A   1      47.280  25.571  28.175  1.00  0.00     0.022 A 
BRANCH  86  89
ATOM     89  S   UNL A   1      46.081  24.896  25.804  1.00  0.00     0.127 S 
ATOM     90  O   UNL A   1      46.509  25.539  24.565  1.00  0.00    -0.237 OA
ATOM     91  O   UNL A   1      46.839  23.700  26.172  1.00  0.00    -0.237 OA
ATOM     92  O   UNL A   1      44.642  24.771  25.992  1.00  0.00    -0.744 OA
ENDBRANCH  86  89
ENDBRANCH  58  82
BRANCH  70  93
ATOM     93  C   UNL A   1      49.593  34.465  26.596  1.00  0.00     0.023 A 
ATOM     94  C   UNL A   1      49.844  34.630  25.221  1.00  0.00     0.012 A 
ATOM     95  C   UNL A   1      50.626  34.701  27.524  1.00  0.00     0.148 A 
ATOM     96  C   UNL A   1      51.116  34.983  24.771  1.00  0.00     0.002 A 
ATOM     97  C   UNL A   1      51.879  35.095  27.071  1.00  0.00     0.091 A 
ATOM     98  F   UNL A   1      50.375  34.519  28.828  1.00  0.00    -0.205 F 
ATOM     99  C   UNL A   1      52.130  35.224  25.694  1.00  0.00     0.022 A 
BRANCH  97 100
ATOM    100  S   UNL A   1      53.207  35.506  28.207  1.00  0.00     0.127 S 
ATOM    101  O   UNL A   1      52.660  36.672  28.898  1.00  0.00    -0.237 OA
ATOM    102  O   UNL A   1      53.306  34.301  29.033  1.00  0.00    -0.237 OA
ATOM    103  O   UNL A   1      54.373  35.752  27.369  1.00  0.00    -0.744 OA
ENDBRANCH  97 100
ENDBRANCH  70  93
ENDBRANCH  44  45
ENDBRANCH  37  39
ENDBRANCH  36  37
ENDBRANCH  35  36
ENDBRANCH  34  35
ENDBRANCH  33  34
ENDBRANCH  32  33
ENDBRANCH   1  32
TORSDOF 25
ENDMDL
MODEL 3
REMARK VINA RESULT:      -9.2      6.135      9.691
REMARK SMILES CCCCCCNC(=O)Nc1cccc(-c2ccc([C@@H](C)C(=O)OCCOCCOC(=O)c3ccc(-c4c5nc(c(-c6cccc(S(=O)(=O)[O-])c6F)c6ccc([nH]6)c(-c6cccc(S(=O)(=O)[O-])c6F)c6nc(c(-c7cccc(S(=O)(=O)[O-])c7F)c7ccc4[nH]7)C=C6)C=C5)cc3)cc2F)c1
REMARK SMILES IDX 25 1 24 2 22 3 23 4 20 5 21 6 19 7 16 8 17 9 97 10 18 11
REMARK SMILES IDX 96 12 98 13 15 14 11 15 12 16 99 17 13 18 14 19 10 20 7 21
REMARK SMILES IDX 8 22 9 24 6 26 5 27 4 28 3 29 2 30 1 31 26 32 27 33 28 34
REMARK SMILES IDX 29 35 30 36 31 37 32 38 33 39 34 40 95 41 35 42 94 43 36 44
REMARK SMILES IDX 37 45 38 46 88 47 39 48 93 49 87 50 89 51 40 52 92 53 86 54
REMARK SMILES IDX 85 55 41 57 73 58 53 59 72 60 54 61 57 62 71 63 90 64 55 65
REMARK SMILES IDX 56 66 70 68 91 69 58 70 42 71 43 72 51 73 44 74 46 75 52 76
REMARK SMILES IDX 45 77 47 78 48 79 49 80 50 81 74 82 75 83 83 84 76 85 78 86
REMARK SMILES IDX 84 87 77 88 79 89 80 90 81 91 82 92 59 93 60 94 68 95 61 96
REMARK SMILES IDX 63 97 69 98 62 99 64 100 65 101 66 102 67 103
REMARK H PARENT 7 23 10 25 89 56 57 67
REMARK Flexibility Score: inf
ROOT
ATOM      1  C   UNL A   1      35.213  32.278  31.800  1.00  0.00     0.261 C 
ENDROOT
BRANCH   1   2
ATOM      2  O   UNL A   1      34.340  32.886  30.838  1.00  0.00    -0.463 OA
BRANCH   2   3
ATOM      3  C   UNL A   1      34.886  33.052  29.604  1.00  0.00     0.313 C 
ATOM      4  O   UNL A   1      34.833  34.096  28.958  1.00  0.00    -0.252 OA
BRANCH   3   5
ATOM      5  C   UNL A   1      35.540  31.805  29.035  1.00  0.00     0.126 C 
ATOM      6  C   UNL A   1      36.915  32.187  28.485  1.00  0.00     0.025 C 
BRANCH   5   7
ATOM      7  C   UNL A   1      34.758  30.935  28.054  1.00  0.00    -0.031 A 
ATOM      8  C   UNL A   1      33.044  29.183  26.567  1.00  0.00     0.018 A 
ATOM      9  C   UNL A   1      34.364  28.821  26.892  1.00  0.00     0.012 A 
ATOM     10  C   UNL A   1      32.638  30.472  26.933  1.00  0.00     0.131 A 
ATOM     11  C   UNL A   1      35.209  29.681  27.621  1.00  0.00     0.005 A 
ATOM     12  C   UNL A   1      33.470  31.334  27.657  1.00  0.00     0.044 A 
ATOM     13  F   UNL A   1      31.393  30.893  26.656  1.00  0.00    -0.206 F 
BRANCH   8  14
ATOM     14  C   UNL A   1      32.101  28.211  25.971  1.00  0.00    -0.013 A 
ATOM     15  C   UNL A   1      30.891  26.081  25.996  1.00  0.00     0.043 A 
ATOM     16  C   UNL A   1      30.406  26.329  24.712  1.00  0.00     0.026 A 
ATOM     17  C   UNL A   1      31.763  27.000  26.605  1.00  0.00     0.035 A 
ATOM     18  C   UNL A   1      30.703  27.533  24.081  1.00  0.00     0.003 A 
ATOM     19  C   UNL A   1      31.536  28.465  24.708  1.00  0.00     0.009 A 
BRANCH  15  20
ATOM     20  N   UNL A   1      30.454  24.908  26.637  1.00  0.00    -0.308 N 
ATOM     21  N   UNL A   1      32.068  23.291  26.054  1.00  0.00    -0.338 N 
ATOM     22  C   UNL A   1      30.807  23.609  26.440  1.00  0.00     0.319 C 
ATOM     23  H   UNL A   1      32.221  22.351  25.804  1.00  0.00     0.165 HD
ATOM     24  O   UNL A   1      30.028  22.704  26.740  1.00  0.00    -0.249 OA
ATOM     25  H   UNL A   1      29.783  25.048  27.344  1.00  0.00     0.171 HD
BRANCH  21  26
ATOM     26  C   UNL A   1      33.213  24.167  25.969  1.00  0.00     0.117 C 
BRANCH  26  27
ATOM     27  C   UNL A   1      33.837  24.284  24.588  1.00  0.00     0.021 C 
BRANCH  27  28
ATOM     28  C   UNL A   1      34.286  22.976  23.937  1.00  0.00     0.002 C 
BRANCH  28  29
ATOM     29  C   UNL A   1      35.695  22.963  23.337  1.00  0.00    -0.000 C 
BRANCH  29  30
ATOM     30  C   UNL A   1      36.856  22.879  24.329  1.00  0.00    -0.003 C 
ATOM     31  C   UNL A   1      37.355  21.474  24.561  1.00  0.00     0.004 C 
ENDBRANCH  29  30
ENDBRANCH  28  29
ENDBRANCH  27  28
ENDBRANCH  26  27
ENDBRANCH  21  26
ENDBRANCH  15  20
ENDBRANCH   8  14
ENDBRANCH   5   7
ENDBRANCH   3   5
ENDBRANCH   2   3
ENDBRANCH   1   2
BRANCH   1  32
ATOM     32  C   UNL A   1      36.278  33.201  32.416  1.00  0.00     0.202 C 
BRANCH  32  33
ATOM     33  O   UNL A   1      37.304  32.659  33.235  1.00  0.00    -0.374 OA
BRANCH  33  34
ATOM     34  C   UNL A   1      37.177  31.335  33.736  1.00  0.00     0.202 C 
BRANCH  34  35
ATOM     35  C   UNL A   1      38.274  30.729  34.621  1.00  0.00     0.261 C 
BRANCH  35  36
ATOM     36  O   UNL A   1      38.862  29.518  34.121  1.00  0.00    -0.460 OA
BRANCH  36  37
ATOM     37  C   UNL A   1      38.868  29.428  32.764  1.00  0.00     0.338 C 
ATOM     38  O   UNL A   1      38.178  28.669  32.101  1.00  0.00    -0.246 OA
BRANCH  37  39
ATOM     39  C   UNL A   1      39.836  30.357  32.128  1.00  0.00     0.060 A 
ATOM     40  C   UNL A   1      39.605  30.667  30.781  1.00  0.00     0.016 A 
ATOM     41  C   UNL A   1      41.011  30.795  32.749  1.00  0.00     0.016 A 
ATOM     42  C   UNL A   1      40.587  31.300  30.025  1.00  0.00     0.010 A 
ATOM     43  C   UNL A   1      42.008  31.412  31.980  1.00  0.00     0.010 A 
ATOM     44  C   UNL A   1      41.819  31.616  30.602  1.00  0.00    -0.014 A 
BRANCH  44  45
ATOM     45  C   UNL A   1      42.889  32.157  29.730  1.00  0.00     0.031 A 
ATOM     46  C   UNL A   1      42.930  33.616  29.357  1.00  0.00     0.074 A 
ATOM     47  C   UNL A   1      43.848  31.323  29.301  1.00  0.00     0.049 A 
ATOM     48  N   UNL A   1      43.844  34.287  28.706  1.00  0.00    -0.248 NA
ATOM     49  C   UNL A   1      41.773  34.428  29.747  1.00  0.00     0.031 C 
ATOM     50  C   UNL A   1      43.895  29.887  29.570  1.00  0.00     0.029 A 
ATOM     51  N   UNL A   1      44.970  31.570  28.560  1.00  0.00    -0.354 N 
ATOM     52  C   UNL A   1      43.353  35.586  28.582  1.00  0.00     0.074 A 
ATOM     53  C   UNL A   1      42.039  35.596  29.181  1.00  0.00     0.031 C 
ATOM     54  C   UNL A   1      44.991  29.374  28.992  1.00  0.00     0.029 A 
ATOM     55  C   UNL A   1      45.734  30.452  28.344  1.00  0.00     0.049 A 
ATOM     56  H   UNL A   1      45.206  32.462  28.215  1.00  0.00     0.167 HD
ATOM     57  C   UNL A   1      43.966  36.679  28.066  1.00  0.00     0.034 A 
ATOM     58  C   UNL A   1      46.925  30.320  27.734  1.00  0.00     0.034 A 
ATOM     59  C   UNL A   1      45.318  36.665  27.571  1.00  0.00     0.049 A 
ATOM     60  C   UNL A   1      47.641  31.557  27.273  1.00  0.00     0.074 A 
ATOM     61  C   UNL A   1      46.098  37.727  27.150  1.00  0.00     0.029 A 
ATOM     62  N   UNL A   1      46.095  35.524  27.445  1.00  0.00    -0.354 N 
ATOM     63  N   UNL A   1      47.242  32.805  27.318  1.00  0.00    -0.248 NA
ATOM     64  C   UNL A   1      48.999  31.374  26.748  1.00  0.00     0.031 C 
ATOM     65  C   UNL A   1      47.346  37.224  26.763  1.00  0.00     0.029 A 
ATOM     66  C   UNL A   1      47.346  35.851  26.955  1.00  0.00     0.049 A 
ATOM     67  H   UNL A   1      45.799  34.612  27.672  1.00  0.00     0.167 HD
ATOM     68  C   UNL A   1      48.314  33.565  26.867  1.00  0.00     0.074 A 
ATOM     69  C   UNL A   1      49.384  32.631  26.568  1.00  0.00     0.031 C 
ATOM     70  C   UNL A   1      48.407  34.909  26.706  1.00  0.00     0.034 A 
BRANCH  57  71
ATOM     71  C   UNL A   1      43.224  37.996  28.089  1.00  0.00     0.023 A 
ATOM     72  C   UNL A   1      42.404  38.354  26.998  1.00  0.00     0.012 A 
ATOM     73  C   UNL A   1      43.277  38.848  29.211  1.00  0.00     0.148 A 
ATOM     74  C   UNL A   1      41.682  39.549  27.006  1.00  0.00     0.002 A 
ATOM     75  C   UNL A   1      42.519  40.015  29.232  1.00  0.00     0.091 A 
ATOM     76  F   UNL A   1      44.076  38.512  30.234  1.00  0.00    -0.205 F 
ATOM     77  C   UNL A   1      41.731  40.373  28.127  1.00  0.00     0.022 A 
BRANCH  75  78
ATOM     78  S   UNL A   1      42.450  41.088  30.674  1.00  0.00     0.127 S 
ATOM     79  O   UNL A   1      42.972  40.211  31.720  1.00  0.00    -0.237 OA
ATOM     80  O   UNL A   1      43.346  42.182  30.296  1.00  0.00    -0.237 OA
ATOM     81  O   UNL A   1      41.053  41.475  30.807  1.00  0.00    -0.744 OA
ENDBRANCH  75  78
ENDBRANCH  57  71
BRANCH  58  82
ATOM     82  C   UNL A   1      47.554  28.975  27.695  1.00  0.00     0.023 A 
ATOM     83  C   UNL A   1      48.196  28.484  28.848  1.00  0.00     0.012 A 
ATOM     84  C   UNL A   1      47.399  28.134  26.577  1.00  0.00     0.148 A 
ATOM     85  C   UNL A   1      48.680  27.176  28.885  1.00  0.00     0.002 A 
ATOM     86  C   UNL A   1      47.837  26.817  26.641  1.00  0.00     0.091 A 
ATOM     87  F   UNL A   1      46.786  28.628  25.492  1.00  0.00    -0.205 F 
ATOM     88  C   UNL A   1      48.488  26.340  27.788  1.00  0.00     0.022 A 
BRANCH  86  89
ATOM     89  S   UNL A   1      47.488  25.630  25.337  1.00  0.00     0.127 S 
ATOM     90  O   UNL A   1      46.254  26.165  24.768  1.00  0.00    -0.237 OA
ATOM     91  O   UNL A   1      48.669  25.760  24.483  1.00  0.00    -0.237 OA
ATOM     92  O   UNL A   1      47.374  24.340  26.004  1.00  0.00    -0.744 OA
ENDBRANCH  86  89
ENDBRANCH  58  82
BRANCH  70  93
ATOM     93  C   UNL A   1      49.716  35.449  26.196  1.00  0.00     0.023 A 
ATOM     94  C   UNL A   1      49.897  35.638  24.813  1.00  0.00     0.012 A 
ATOM     95  C   UNL A   1      50.746  35.806  27.087  1.00  0.00     0.148 A 
ATOM     96  C   UNL A   1      51.101  36.136  24.319  1.00  0.00     0.002 A 
ATOM     97  C   UNL A   1      51.929  36.342  26.589  1.00  0.00     0.091 A 
ATOM     98  F   UNL A   1      50.566  35.599  28.399  1.00  0.00    -0.205 F 
ATOM     99  C   UNL A   1      52.113  36.496  25.205  1.00  0.00     0.022 A 
BRANCH  97 100
ATOM    100  S   UNL A   1      53.239  36.908  27.678  1.00  0.00     0.127 S 
ATOM    101  O   UNL A   1      52.550  37.921  28.476  1.00  0.00    -0.237 OA
ATOM    102  O   UNL A   1      53.592  35.692  28.413  1.00  0.00    -0.237 OA
ATOM    103  O   UNL A   1      54.291  37.399  26.797  1.00  0.00    -0.744 OA
ENDBRANCH  97 100
ENDBRANCH  70  93
ENDBRANCH  44  45
ENDBRANCH  37  39
ENDBRANCH  36  37
ENDBRANCH  35  36
ENDBRANCH  34  35
ENDBRANCH  33  34
ENDBRANCH  32  33
ENDBRANCH   1  32
TORSDOF 25
ENDMDL
