MODEL 1
REMARK VINA RESULT:     -11.2      0.000      0.000
REMARK SMILES CCC(CC)(NC(=O)Nc1cc(Cl)cc(Cl)c1)C(=O)OCCOCCOC(=O)c1ccc(-c2c3nc(c(-c4cccc(S(=O)(=O)[O-])c4F)c4ccc([nH]4)c(-c4cccc(S(=O)(=O)[O-])c4F)c4nc(c(-c5cccc(S(=O)(=O)[O-])c5F)c5ccc2[nH]5)C=C4)C=C3)cc1
REMARK SMILES IDX 24 1 23 2 22 3 21 4 20 5 18 6 19 7 3 8 2 9 1 10 4 11 5 12
REMARK SMILES IDX 6 13 7 14 8 16 9 17 10 19 11 20 17 21 12 22 15 23 13 24
REMARK SMILES IDX 14 25 16 26 25 27 26 28 27 29 28 30 29 31 30 32 91 33 31 34
REMARK SMILES IDX 90 35 32 36 33 37 34 38 84 39 35 40 89 41 83 42 85 43 36 44
REMARK SMILES IDX 88 45 82 46 81 47 37 49 69 50 49 51 68 52 50 53 53 54 67 55
REMARK SMILES IDX 86 56 51 57 52 58 66 60 87 61 54 62 38 63 39 64 47 65 40 66
REMARK SMILES IDX 42 67 48 68 41 69 43 70 44 71 45 72 46 73 70 74 71 75 79 76
REMARK SMILES IDX 72 77 74 78 80 79 73 80 75 81 76 82 77 83 78 84 55 85 56 86
REMARK SMILES IDX 64 87 57 88 59 89 65 90 58 91 60 92 61 93 62 94 63 95
REMARK H PARENT 6 15 9 18 85 48 53 59
REMARK Flexibility Score: inf
ROOT
ATOM      1  C   UNL A   1      31.502  30.041  25.523  1.00  0.00     0.202 C 
ENDROOT
BRANCH   1   2
ATOM      2  O   UNL A   1      31.391  28.778  26.182  1.00  0.00    -0.374 OA
BRANCH   2   3
ATOM      3  C   UNL A   1      31.827  27.587  25.542  1.00  0.00     0.202 C 
BRANCH   3   4
ATOM      4  C   UNL A   1      30.997  26.289  25.896  1.00  0.00     0.261 C 
BRANCH   4   5
ATOM      5  O   UNL A   1      31.808  25.169  26.335  1.00  0.00    -0.461 OA
BRANCH   5   6
ATOM      6  C   UNL A   1      31.566  23.845  26.001  1.00  0.00     0.331 C 
ATOM      7  O   UNL A   1      30.485  23.294  26.186  1.00  0.00    -0.249 OA
BRANCH   6   8
ATOM      8  C   UNL A   1      32.849  23.116  25.270  1.00  0.00     0.139 C 
BRANCH   8   9
ATOM      9  C   UNL A   1      33.125  21.665  24.692  1.00  0.00     0.037 C 
ATOM     10  C   UNL A   1      32.157  20.516  24.646  1.00  0.00     0.007 C 
ENDBRANCH   8   9
BRANCH   8  11
ATOM     11  C   UNL A   1      34.010  23.439  26.266  1.00  0.00     0.037 C 
ATOM     12  C   UNL A   1      34.047  22.756  27.630  1.00  0.00     0.007 C 
ENDBRANCH   8  11
BRANCH   8  13
ATOM     13  N   UNL A   1      32.805  23.855  24.032  1.00  0.00    -0.322 N 
ATOM     14  C   UNL A   1      33.911  24.234  23.346  1.00  0.00     0.320 C 
ATOM     15  H   UNL A   1      31.924  24.097  23.666  1.00  0.00     0.166 HD
ATOM     16  O   UNL A   1      33.717  24.955  22.360  1.00  0.00    -0.248 OA
ATOM     17  N   UNL A   1      35.213  23.966  23.687  1.00  0.00    -0.308 N 
ATOM     18  H   UNL A   1      35.751  24.648  23.224  1.00  0.00     0.171 HD
BRANCH  17  19
ATOM     19  C   UNL A   1      36.170  23.146  24.411  1.00  0.00     0.045 A 
ATOM     20  C   UNL A   1      36.536  21.799  24.296  1.00  0.00     0.046 A 
ATOM     21  C   UNL A   1      36.956  23.861  25.330  1.00  0.00     0.046 A 
ATOM     22  C   UNL A   1      37.598  21.204  25.009  1.00  0.00     0.044 A 
ATOM     23  C   UNL A   1      38.004  23.272  26.064  1.00  0.00     0.044 A 
ATOM     24  Cl  UNL A   1      37.989  19.541  24.752  1.00  0.00    -0.084 Cl
ATOM     25  C   UNL A   1      38.334  21.936  25.910  1.00  0.00     0.041 A 
ATOM     26  Cl  UNL A   1      38.911  24.233  27.164  1.00  0.00    -0.084 Cl
ENDBRANCH  17  19
ENDBRANCH   8  13
ENDBRANCH   6   8
ENDBRANCH   5   6
ENDBRANCH   4   5
ENDBRANCH   3   4
ENDBRANCH   2   3
ENDBRANCH   1   2
BRANCH   1  27
ATOM     27  C   UNL A   1      31.821  31.145  26.546  1.00  0.00     0.261 C 
BRANCH  27  28
ATOM     28  O   UNL A   1      32.981  30.793  27.299  1.00  0.00    -0.460 OA
BRANCH  28  29
ATOM     29  C   UNL A   1      33.708  31.883  27.651  1.00  0.00     0.338 C 
ATOM     30  O   UNL A   1      33.284  32.975  27.938  1.00  0.00    -0.246 OA
BRANCH  29  31
ATOM     31  C   UNL A   1      35.074  31.414  27.951  1.00  0.00     0.060 A 
ATOM     32  C   UNL A   1      35.265  30.025  27.960  1.00  0.00     0.016 A 
ATOM     33  C   UNL A   1      36.149  32.294  28.115  1.00  0.00     0.016 A 
ATOM     34  C   UNL A   1      36.520  29.508  28.232  1.00  0.00     0.010 A 
ATOM     35  C   UNL A   1      37.406  31.776  28.407  1.00  0.00     0.010 A 
ATOM     36  C   UNL A   1      37.569  30.387  28.531  1.00  0.00    -0.014 A 
BRANCH  36  37
ATOM     37  C   UNL A   1      38.710  29.849  29.292  1.00  0.00     0.031 A 
ATOM     38  C   UNL A   1      38.807  30.241  30.739  1.00  0.00     0.074 A 
ATOM     39  C   UNL A   1      39.583  28.998  28.733  1.00  0.00     0.049 A 
ATOM     40  N   UNL A   1      39.682  29.878  31.636  1.00  0.00    -0.248 NA
ATOM     41  C   UNL A   1      37.772  31.163  31.247  1.00  0.00     0.031 C 
ATOM     42  C   UNL A   1      39.555  28.538  27.347  1.00  0.00     0.029 A 
ATOM     43  N   UNL A   1      40.677  28.380  29.277  1.00  0.00    -0.354 N 
ATOM     44  C   UNL A   1      39.316  30.540  32.801  1.00  0.00     0.074 A 
ATOM     45  C   UNL A   1      38.151  31.337  32.502  1.00  0.00     0.031 C 
ATOM     46  C   UNL A   1      40.609  27.729  27.139  1.00  0.00     0.029 A 
ATOM     47  C   UNL A   1      41.389  27.634  28.371  1.00  0.00     0.049 A 
ATOM     48  H   UNL A   1      40.928  28.463  30.225  1.00  0.00     0.167 HD
ATOM     49  C   UNL A   1      39.895  30.477  34.020  1.00  0.00     0.034 A 
ATOM     50  C   UNL A   1      42.553  26.975  28.528  1.00  0.00     0.034 A 
ATOM     51  C   UNL A   1      41.051  29.680  34.309  1.00  0.00     0.049 A 
ATOM     52  C   UNL A   1      43.206  26.963  29.888  1.00  0.00     0.074 A 
ATOM     53  C   UNL A   1      41.704  29.521  35.517  1.00  0.00     0.029 A 
ATOM     54  N   UNL A   1      41.739  28.925  33.372  1.00  0.00    -0.354 N 
ATOM     55  N   UNL A   1      42.790  27.501  31.011  1.00  0.00    -0.248 NA
ATOM     56  C   UNL A   1      44.470  26.224  30.010  1.00  0.00     0.031 C 
ATOM     57  C   UNL A   1      42.812  28.699  35.301  1.00  0.00     0.029 A 
ATOM     58  C   UNL A   1      42.823  28.310  33.971  1.00  0.00     0.049 A 
ATOM     59  H   UNL A   1      41.493  28.839  32.424  1.00  0.00     0.167 HD
ATOM     60  C   UNL A   1      43.718  27.131  31.978  1.00  0.00     0.074 A 
ATOM     61  C   UNL A   1      44.707  26.308  31.312  1.00  0.00     0.031 C 
ATOM     62  C   UNL A   1      43.760  27.450  33.296  1.00  0.00     0.034 A 
BRANCH  49  63
ATOM     63  C   UNL A   1      39.285  31.293  35.125  1.00  0.00     0.023 A 
ATOM     64  C   UNL A   1      38.336  30.710  35.989  1.00  0.00     0.012 A 
ATOM     65  C   UNL A   1      39.689  32.624  35.333  1.00  0.00     0.148 A 
ATOM     66  C   UNL A   1      37.782  31.449  37.033  1.00  0.00     0.002 A 
ATOM     67  C   UNL A   1      39.169  33.339  36.404  1.00  0.00     0.091 A 
ATOM     68  F   UNL A   1      40.567  33.167  34.478  1.00  0.00    -0.205 F 
ATOM     69  C   UNL A   1      38.209  32.758  37.248  1.00  0.00     0.022 A 
BRANCH  67  70
ATOM     70  S   UNL A   1      39.712  35.001  36.812  1.00  0.00     0.127 S 
ATOM     71  O   UNL A   1      38.965  35.261  38.043  1.00  0.00    -0.237 OA
ATOM     72  O   UNL A   1      41.151  34.814  36.999  1.00  0.00    -0.237 OA
ATOM     73  O   UNL A   1      39.346  35.836  35.676  1.00  0.00    -0.744 OA
ENDBRANCH  67  70
ENDBRANCH  49  63
BRANCH  50  74
ATOM     74  C   UNL A   1      43.174  26.264  27.377  1.00  0.00     0.023 A 
ATOM     75  C   UNL A   1      44.124  26.924  26.574  1.00  0.00     0.012 A 
ATOM     76  C   UNL A   1      42.817  24.937  27.067  1.00  0.00     0.148 A 
ATOM     77  C   UNL A   1      44.674  26.292  25.458  1.00  0.00     0.002 A 
ATOM     78  C   UNL A   1      43.410  24.294  25.988  1.00  0.00     0.091 A 
ATOM     79  F   UNL A   1      41.899  24.332  27.835  1.00  0.00    -0.205 F 
ATOM     80  C   UNL A   1      44.324  24.975  25.171  1.00  0.00     0.022 A 
BRANCH  78  81
ATOM     81  S   UNL A   1      43.106  22.564  25.616  1.00  0.00     0.127 S 
ATOM     82  O   UNL A   1      41.669  22.456  25.854  1.00  0.00    -0.237 OA
ATOM     83  O   UNL A   1      43.506  22.484  24.212  1.00  0.00    -0.237 OA
ATOM     84  O   UNL A   1      43.956  21.809  26.528  1.00  0.00    -0.744 OA
ENDBRANCH  78  81
ENDBRANCH  50  74
BRANCH  62  85
ATOM     85  C   UNL A   1      44.878  26.871  34.123  1.00  0.00     0.023 A 
ATOM     86  C   UNL A   1      46.118  27.534  34.199  1.00  0.00     0.012 A 
ATOM     87  C   UNL A   1      44.663  25.710  34.894  1.00  0.00     0.148 A 
ATOM     88  C   UNL A   1      47.139  27.031  35.003  1.00  0.00     0.002 A 
ATOM     89  C   UNL A   1      45.667  25.247  35.735  1.00  0.00     0.091 A 
ATOM     90  F   UNL A   1      43.480  25.087  34.797  1.00  0.00    -0.205 F 
ATOM     91  C   UNL A   1      46.911  25.897  35.779  1.00  0.00     0.022 A 
BRANCH  89  92
ATOM     92  S   UNL A   1      45.427  23.857  36.846  1.00  0.00     0.127 S 
ATOM     93  O   UNL A   1      44.602  24.454  37.895  1.00  0.00    -0.237 OA
ATOM     94  O   UNL A   1      44.728  22.896  35.993  1.00  0.00    -0.237 OA
ATOM     95  O   UNL A   1      46.759  23.439  37.263  1.00  0.00    -0.744 OA
ENDBRANCH  89  92
ENDBRANCH  62  85
ENDBRANCH  36  37
ENDBRANCH  29  31
ENDBRANCH  28  29
ENDBRANCH  27  28
ENDBRANCH   1  27
TORSDOF 21
ENDMDL
MODEL 2
REMARK VINA RESULT:     -11.1      1.625      2.586
REMARK SMILES CCC(CC)(NC(=O)Nc1cc(Cl)cc(Cl)c1)C(=O)OCCOCCOC(=O)c1ccc(-c2c3nc(c(-c4cccc(S(=O)(=O)[O-])c4F)c4ccc([nH]4)c(-c4cccc(S(=O)(=O)[O-])c4F)c4nc(c(-c5cccc(S(=O)(=O)[O-])c5F)c5ccc2[nH]5)C=C4)C=C3)cc1
REMARK SMILES IDX 24 1 23 2 22 3 21 4 20 5 18 6 19 7 3 8 2 9 1 10 4 11 5 12
REMARK SMILES IDX 6 13 7 14 8 16 9 17 10 19 11 20 17 21 12 22 15 23 13 24
REMARK SMILES IDX 14 25 16 26 25 27 26 28 27 29 28 30 29 31 30 32 91 33 31 34
REMARK SMILES IDX 90 35 32 36 33 37 34 38 84 39 35 40 89 41 83 42 85 43 36 44
REMARK SMILES IDX 88 45 82 46 81 47 37 49 69 50 49 51 68 52 50 53 53 54 67 55
REMARK SMILES IDX 86 56 51 57 52 58 66 60 87 61 54 62 38 63 39 64 47 65 40 66
REMARK SMILES IDX 42 67 48 68 41 69 43 70 44 71 45 72 46 73 70 74 71 75 79 76
REMARK SMILES IDX 72 77 74 78 80 79 73 80 75 81 76 82 77 83 78 84 55 85 56 86
REMARK SMILES IDX 64 87 57 88 59 89 65 90 58 91 60 92 61 93 62 94 63 95
REMARK H PARENT 6 15 9 18 85 48 53 59
REMARK Flexibility Score: inf
ROOT
ATOM      1  C   UNL A   1      31.345  31.160  26.215  1.00  0.00     0.202 C 
ENDROOT
BRANCH   1   2
ATOM      2  O   UNL A   1      32.570  30.444  26.043  1.00  0.00    -0.374 OA
BRANCH   2   3
ATOM      3  C   UNL A   1      32.622  29.288  25.219  1.00  0.00     0.202 C 
BRANCH   3   4
ATOM      4  C   UNL A   1      31.218  28.665  24.843  1.00  0.00     0.261 C 
BRANCH   4   5
ATOM      5  O   UNL A   1      31.300  27.368  24.197  1.00  0.00    -0.461 OA
BRANCH   5   6
ATOM      6  C   UNL A   1      30.553  26.259  24.565  1.00  0.00     0.331 C 
ATOM      7  O   UNL A   1      29.353  26.151  24.328  1.00  0.00    -0.249 OA
BRANCH   6   8
ATOM      8  C   UNL A   1      31.453  25.081  25.282  1.00  0.00     0.139 C 
BRANCH   8   9
ATOM      9  C   UNL A   1      32.788  25.065  26.137  1.00  0.00     0.037 C 
ATOM     10  C   UNL A   1      34.113  25.661  25.748  1.00  0.00     0.007 C 
ENDBRANCH   8   9
BRANCH   8  11
ATOM     11  C   UNL A   1      31.653  24.071  24.105  1.00  0.00     0.037 C 
ATOM     12  C   UNL A   1      31.463  24.540  22.666  1.00  0.00     0.007 C 
ENDBRANCH   8  11
BRANCH   8  13
ATOM     13  N   UNL A   1      30.511  24.727  26.315  1.00  0.00    -0.322 N 
ATOM     14  C   UNL A   1      30.366  23.468  26.797  1.00  0.00     0.320 C 
ATOM     15  H   UNL A   1      29.942  25.438  26.689  1.00  0.00     0.166 HD
ATOM     16  O   UNL A   1      29.444  23.299  27.603  1.00  0.00    -0.248 OA
ATOM     17  N   UNL A   1      31.084  22.362  26.416  1.00  0.00    -0.308 N 
ATOM     18  H   UNL A   1      30.526  21.590  26.661  1.00  0.00     0.171 HD
BRANCH  17  19
ATOM     19  C   UNL A   1      32.284  21.797  25.822  1.00  0.00     0.045 A 
ATOM     20  C   UNL A   1      33.647  22.032  26.042  1.00  0.00     0.046 A 
ATOM     21  C   UNL A   1      32.037  20.737  24.933  1.00  0.00     0.046 A 
ATOM     22  C   UNL A   1      34.685  21.279  25.454  1.00  0.00     0.044 A 
ATOM     23  C   UNL A   1      33.066  19.992  24.324  1.00  0.00     0.044 A 
ATOM     24  Cl  UNL A   1      36.333  21.631  25.835  1.00  0.00    -0.084 Cl
ATOM     25  C   UNL A   1      34.400  20.257  24.579  1.00  0.00     0.041 A 
ATOM     26  Cl  UNL A   1      32.661  18.711  23.251  1.00  0.00    -0.084 Cl
ENDBRANCH  17  19
ENDBRANCH   8  13
ENDBRANCH   6   8
ENDBRANCH   5   6
ENDBRANCH   4   5
ENDBRANCH   3   4
ENDBRANCH   2   3
ENDBRANCH   1   2
BRANCH   1  27
ATOM     27  C   UNL A   1      31.605  32.481  26.962  1.00  0.00     0.261 C 
BRANCH  27  28
ATOM     28  O   UNL A   1      32.977  32.850  26.836  1.00  0.00    -0.460 OA
BRANCH  28  29
ATOM     29  C   UNL A   1      33.468  33.377  27.985  1.00  0.00     0.338 C 
ATOM     30  O   UNL A   1      32.862  34.025  28.802  1.00  0.00    -0.246 OA
BRANCH  29  31
ATOM     31  C   UNL A   1      34.775  32.738  28.232  1.00  0.00     0.060 A 
ATOM     32  C   UNL A   1      34.760  31.347  28.411  1.00  0.00     0.016 A 
ATOM     33  C   UNL A   1      35.977  33.450  28.187  1.00  0.00     0.016 A 
ATOM     34  C   UNL A   1      35.947  30.675  28.646  1.00  0.00     0.010 A 
ATOM     35  C   UNL A   1      37.169  32.779  28.441  1.00  0.00     0.010 A 
ATOM     36  C   UNL A   1      37.138  31.406  28.737  1.00  0.00    -0.014 A 
BRANCH  36  37
ATOM     37  C   UNL A   1      38.260  30.790  29.466  1.00  0.00     0.031 A 
ATOM     38  C   UNL A   1      38.461  31.218  30.892  1.00  0.00     0.074 A 
ATOM     39  C   UNL A   1      39.025  29.844  28.901  1.00  0.00     0.049 A 
ATOM     40  N   UNL A   1      39.339  30.805  31.763  1.00  0.00    -0.248 NA
ATOM     41  C   UNL A   1      37.538  32.248  31.411  1.00  0.00     0.031 C 
ATOM     42  C   UNL A   1      38.890  29.344  27.536  1.00  0.00     0.029 A 
ATOM     43  N   UNL A   1      40.082  29.146  29.419  1.00  0.00    -0.354 N 
ATOM     44  C   UNL A   1      39.091  31.536  32.917  1.00  0.00     0.074 A 
ATOM     45  C   UNL A   1      37.990  32.427  32.641  1.00  0.00     0.031 C 
ATOM     46  C   UNL A   1      39.855  28.435  27.312  1.00  0.00     0.029 A 
ATOM     47  C   UNL A   1      40.681  28.308  28.511  1.00  0.00     0.049 A 
ATOM     48  H   UNL A   1      40.384  29.235  30.352  1.00  0.00     0.167 HD
ATOM     49  C   UNL A   1      39.718  31.459  34.112  1.00  0.00     0.034 A 
ATOM     50  C   UNL A   1      41.785  27.550  28.641  1.00  0.00     0.034 A 
ATOM     51  C   UNL A   1      40.809  30.568  34.379  1.00  0.00     0.049 A 
ATOM     52  C   UNL A   1      42.497  27.521  29.970  1.00  0.00     0.074 A 
ATOM     53  C   UNL A   1      41.500  30.388  35.562  1.00  0.00     0.029 A 
ATOM     54  N   UNL A   1      41.381  29.722  33.442  1.00  0.00    -0.354 N 
ATOM     55  N   UNL A   1      42.185  28.131  31.090  1.00  0.00    -0.248 NA
ATOM     56  C   UNL A   1      43.694  26.672  30.064  1.00  0.00     0.031 C 
ATOM     57  C   UNL A   1      42.518  29.460  35.328  1.00  0.00     0.029 A 
ATOM     58  C   UNL A   1      42.430  29.029  34.014  1.00  0.00     0.049 A 
ATOM     59  H   UNL A   1      41.083  29.629  32.508  1.00  0.00     0.167 HD
ATOM     60  C   UNL A   1      43.121  27.708  32.029  1.00  0.00     0.074 A 
ATOM     61  C   UNL A   1      43.997  26.776  31.350  1.00  0.00     0.031 C 
ATOM     62  C   UNL A   1      43.253  28.064  33.331  1.00  0.00     0.034 A 
BRANCH  49  63
ATOM     63  C   UNL A   1      39.238  32.363  35.211  1.00  0.00     0.023 A 
ATOM     64  C   UNL A   1      38.246  31.915  36.109  1.00  0.00     0.012 A 
ATOM     65  C   UNL A   1      39.804  33.640  35.382  1.00  0.00     0.148 A 
ATOM     66  C   UNL A   1      37.811  32.735  37.149  1.00  0.00     0.002 A 
ATOM     67  C   UNL A   1      39.399  34.432  36.448  1.00  0.00     0.091 A 
ATOM     68  F   UNL A   1      40.718  34.056  34.496  1.00  0.00    -0.205 F 
ATOM     69  C   UNL A   1      38.397  33.987  37.326  1.00  0.00     0.022 A 
BRANCH  67  70
ATOM     70  S   UNL A   1      40.147  36.024  36.808  1.00  0.00     0.127 S 
ATOM     71  O   UNL A   1      41.546  35.652  37.015  1.00  0.00    -0.237 OA
ATOM     72  O   UNL A   1      39.888  36.767  35.574  1.00  0.00    -0.237 OA
ATOM     73  O   UNL A   1      39.460  36.537  37.985  1.00  0.00    -0.744 OA
ENDBRANCH  67  70
ENDBRANCH  49  63
BRANCH  50  74
ATOM     74  C   UNL A   1      42.284  26.747  27.490  1.00  0.00     0.023 A 
ATOM     75  C   UNL A   1      43.063  27.362  26.492  1.00  0.00     0.012 A 
ATOM     76  C   UNL A   1      41.979  25.376  27.377  1.00  0.00     0.148 A 
ATOM     77  C   UNL A   1      43.492  26.637  25.378  1.00  0.00     0.002 A 
ATOM     78  C   UNL A   1      42.456  24.648  26.295  1.00  0.00     0.091 A 
ATOM     79  F   UNL A   1      41.223  24.814  28.331  1.00  0.00    -0.205 F 
ATOM     80  C   UNL A   1      43.196  25.280  25.285  1.00  0.00     0.022 A 
BRANCH  78  81
ATOM     81  S   UNL A   1      42.222  22.873  26.154  1.00  0.00     0.127 S 
ATOM     82  O   UNL A   1      42.837  22.593  24.858  1.00  0.00    -0.237 OA
ATOM     83  O   UNL A   1      42.970  22.378  27.310  1.00  0.00    -0.237 OA
ATOM     84  O   UNL A   1      40.784  22.658  26.230  1.00  0.00    -0.744 OA
ENDBRANCH  78  81
ENDBRANCH  50  74
BRANCH  62  85
ATOM     85  C   UNL A   1      44.351  27.411  34.129  1.00  0.00     0.023 A 
ATOM     86  C   UNL A   1      45.635  27.987  34.167  1.00  0.00     0.012 A 
ATOM     87  C   UNL A   1      44.078  26.271  34.911  1.00  0.00     0.148 A 
ATOM     88  C   UNL A   1      46.642  27.416  34.944  1.00  0.00     0.002 A 
ATOM     89  C   UNL A   1      45.071  25.741  35.725  1.00  0.00     0.091 A 
ATOM     90  F   UNL A   1      42.852  25.731  34.851  1.00  0.00    -0.205 F 
ATOM     91  C   UNL A   1      46.358  26.303  35.731  1.00  0.00     0.022 A 
BRANCH  89  92
ATOM     92  S   UNL A   1      44.767  24.375  36.850  1.00  0.00     0.127 S 
ATOM     93  O   UNL A   1      46.022  24.319  37.598  1.00  0.00    -0.237 OA
ATOM     94  O   UNL A   1      43.619  24.857  37.619  1.00  0.00    -0.237 OA
ATOM     95  O   UNL A   1      44.489  23.216  36.011  1.00  0.00    -0.744 OA
ENDBRANCH  89  92
ENDBRANCH  62  85
ENDBRANCH  36  37
ENDBRANCH  29  31
ENDBRANCH  28  29
ENDBRANCH  27  28
ENDBRANCH   1  27
TORSDOF 21
ENDMDL
MODEL 3
REMARK VINA RESULT:     -11.0      5.072     10.322
REMARK SMILES CCC(CC)(NC(=O)Nc1cc(Cl)cc(Cl)c1)C(=O)OCCOCCOC(=O)c1ccc(-c2c3nc(c(-c4cccc(S(=O)(=O)[O-])c4F)c4ccc([nH]4)c(-c4cccc(S(=O)(=O)[O-])c4F)c4nc(c(-c5cccc(S(=O)(=O)[O-])c5F)c5ccc2[nH]5)C=C4)C=C3)cc1
REMARK SMILES IDX 24 1 23 2 22 3 21 4 20 5 18 6 19 7 3 8 2 9 1 10 4 11 5 12
REMARK SMILES IDX 6 13 7 14 8 16 9 17 10 19 11 20 17 21 12 22 15 23 13 24
REMARK SMILES IDX 14 25 16 26 25 27 26 28 27 29 28 30 29 31 30 32 91 33 31 34
REMARK SMILES IDX 90 35 32 36 33 37 34 38 84 39 35 40 89 41 83 42 85 43 36 44
REMARK SMILES IDX 88 45 82 46 81 47 37 49 69 50 49 51 68 52 50 53 53 54 67 55
REMARK SMILES IDX 86 56 51 57 52 58 66 60 87 61 54 62 38 63 39 64 47 65 40 66
REMARK SMILES IDX 42 67 48 68 41 69 43 70 44 71 45 72 46 73 70 74 71 75 79 76
REMARK SMILES IDX 72 77 74 78 80 79 73 80 75 81 76 82 77 83 78 84 55 85 56 86
REMARK SMILES IDX 64 87 57 88 59 89 65 90 58 91 60 92 61 93 62 94 63 95
REMARK H PARENT 6 15 9 18 85 48 53 59
REMARK Flexibility Score: inf
ROOT
ATOM      1  C   UNL A   1      36.506  20.166  25.045  1.00  0.00     0.202 C 
ENDROOT
BRANCH   1   2
ATOM      2  O   UNL A   1      36.058  21.521  25.124  1.00  0.00    -0.374 OA
BRANCH   2   3
ATOM      3  C   UNL A   1      34.765  21.828  25.624  1.00  0.00     0.202 C 
BRANCH   3   4
ATOM      4  C   UNL A   1      33.564  21.161  24.841  1.00  0.00     0.261 C 
BRANCH   4   5
ATOM      5  O   UNL A   1      32.523  22.092  24.448  1.00  0.00    -0.461 OA
BRANCH   5   6
ATOM      6  C   UNL A   1      32.367  22.601  23.167  1.00  0.00     0.331 C 
ATOM      7  O   UNL A   1      32.099  21.900  22.196  1.00  0.00    -0.249 OA
BRANCH   6   8
ATOM      8  C   UNL A   1      32.506  24.241  23.101  1.00  0.00     0.139 C 
BRANCH   8   9
ATOM      9  C   UNL A   1      33.499  25.300  23.739  1.00  0.00     0.037 C 
ATOM     10  C   UNL A   1      34.248  25.165  25.035  1.00  0.00     0.007 C 
ENDBRANCH   8   9
BRANCH   8  11
ATOM     11  C   UNL A   1      31.055  24.699  23.463  1.00  0.00     0.037 C 
ATOM     12  C   UNL A   1      30.674  24.918  24.923  1.00  0.00     0.007 C 
ENDBRANCH   8  11
BRANCH   8  13
ATOM     13  N   UNL A   1      32.915  24.339  21.721  1.00  0.00    -0.322 N 
ATOM     14  C   UNL A   1      32.700  25.435  20.953  1.00  0.00     0.320 C 
ATOM     15  H   UNL A   1      33.374  23.569  21.316  1.00  0.00     0.166 HD
ATOM     16  O   UNL A   1      33.010  25.331  19.761  1.00  0.00    -0.248 OA
ATOM     17  N   UNL A   1      32.102  26.605  21.352  1.00  0.00    -0.308 N 
ATOM     18  H   UNL A   1      31.782  27.031  20.524  1.00  0.00     0.171 HD
BRANCH  17  19
ATOM     19  C   UNL A   1      31.721  27.510  22.423  1.00  0.00     0.045 A 
ATOM     20  C   UNL A   1      32.456  28.128  23.442  1.00  0.00     0.046 A 
ATOM     21  C   UNL A   1      30.382  27.932  22.365  1.00  0.00     0.046 A 
ATOM     22  C   UNL A   1      31.928  29.096  24.323  1.00  0.00     0.044 A 
ATOM     23  C   UNL A   1      29.840  28.882  23.254  1.00  0.00     0.044 A 
ATOM     24  Cl  UNL A   1      32.943  29.825  25.516  1.00  0.00    -0.084 Cl
ATOM     25  C   UNL A   1      30.609  29.472  24.242  1.00  0.00     0.041 A 
ATOM     26  Cl  UNL A   1      28.188  29.336  23.100  1.00  0.00    -0.084 Cl
ENDBRANCH  17  19
ENDBRANCH   8  13
ENDBRANCH   6   8
ENDBRANCH   5   6
ENDBRANCH   4   5
ENDBRANCH   3   4
ENDBRANCH   2   3
ENDBRANCH   1   2
BRANCH   1  27
ATOM     27  C   UNL A   1      38.041  20.121  24.947  1.00  0.00     0.261 C 
BRANCH  27  28
ATOM     28  O   UNL A   1      38.598  21.332  25.455  1.00  0.00    -0.460 OA
BRANCH  28  29
ATOM     29  C   UNL A   1      39.755  21.114  26.131  1.00  0.00     0.338 C 
ATOM     30  O   UNL A   1      40.522  20.196  25.976  1.00  0.00    -0.246 OA
BRANCH  29  31
ATOM     31  C   UNL A   1      40.083  22.363  26.844  1.00  0.00     0.060 A 
ATOM     32  C   UNL A   1      39.310  23.486  26.513  1.00  0.00     0.016 A 
ATOM     33  C   UNL A   1      41.034  22.413  27.867  1.00  0.00     0.016 A 
ATOM     34  C   UNL A   1      39.558  24.695  27.142  1.00  0.00     0.010 A 
ATOM     35  C   UNL A   1      41.296  23.631  28.486  1.00  0.00     0.010 A 
ATOM     36  C   UNL A   1      40.602  24.780  28.070  1.00  0.00    -0.014 A 
BRANCH  36  37
ATOM     37  C   UNL A   1      41.171  26.113  28.333  1.00  0.00     0.031 A 
ATOM     38  C   UNL A   1      42.562  26.371  27.826  1.00  0.00     0.074 A 
ATOM     39  C   UNL A   1      40.455  27.071  28.939  1.00  0.00     0.049 A 
ATOM     40  N   UNL A   1      43.275  27.461  27.887  1.00  0.00    -0.248 NA
ATOM     41  C   UNL A   1      43.240  25.246  27.151  1.00  0.00     0.031 C 
ATOM     42  C   UNL A   1      39.091  26.925  29.440  1.00  0.00     0.029 A 
ATOM     43  N   UNL A   1      40.796  28.361  29.245  1.00  0.00    -0.354 N 
ATOM     44  C   UNL A   1      44.485  27.148  27.282  1.00  0.00     0.074 A 
ATOM     45  C   UNL A   1      44.423  25.767  26.869  1.00  0.00     0.031 C 
ATOM     46  C   UNL A   1      38.719  28.079  30.022  1.00  0.00     0.029 A 
ATOM     47  C   UNL A   1      39.825  29.030  29.948  1.00  0.00     0.049 A 
ATOM     48  H   UNL A   1      41.653  28.769  28.985  1.00  0.00     0.167 HD
ATOM     49  C   UNL A   1      45.553  27.950  27.074  1.00  0.00     0.034 A 
ATOM     50  C   UNL A   1      39.853  30.264  30.487  1.00  0.00     0.034 A 
ATOM     51  C   UNL A   1      45.605  29.323  27.485  1.00  0.00     0.049 A 
ATOM     52  C   UNL A   1      41.077  31.120  30.285  1.00  0.00     0.074 A 
ATOM     53  C   UNL A   1      46.627  30.236  27.301  1.00  0.00     0.029 A 
ATOM     54  N   UNL A   1      44.600  29.974  28.182  1.00  0.00    -0.354 N 
ATOM     55  N   UNL A   1      42.173  30.854  29.612  1.00  0.00    -0.248 NA
ATOM     56  C   UNL A   1      41.056  32.461  30.886  1.00  0.00     0.031 C 
ATOM     57  C   UNL A   1      46.253  31.430  27.923  1.00  0.00     0.029 A 
ATOM     58  C   UNL A   1      44.982  31.274  28.452  1.00  0.00     0.049 A 
ATOM     59  H   UNL A   1      43.741  29.571  28.444  1.00  0.00     0.167 HD
ATOM     60  C   UNL A   1      42.950  32.006  29.675  1.00  0.00     0.074 A 
ATOM     61  C   UNL A   1      42.191  32.977  30.436  1.00  0.00     0.031 C 
ATOM     62  C   UNL A   1      44.184  32.239  29.163  1.00  0.00     0.034 A 
BRANCH  49  63
ATOM     63  C   UNL A   1      46.744  27.360  26.375  1.00  0.00     0.023 A 
ATOM     64  C   UNL A   1      47.539  26.398  27.031  1.00  0.00     0.012 A 
ATOM     65  C   UNL A   1      47.047  27.725  25.051  1.00  0.00     0.148 A 
ATOM     66  C   UNL A   1      48.632  25.823  26.384  1.00  0.00     0.002 A 
ATOM     67  C   UNL A   1      48.108  27.114  24.397  1.00  0.00     0.091 A 
ATOM     68  F   UNL A   1      46.297  28.667  24.461  1.00  0.00    -0.205 F 
ATOM     69  C   UNL A   1      48.907  26.172  25.063  1.00  0.00     0.022 A 
BRANCH  67  70
ATOM     70  S   UNL A   1      48.495  27.436  22.673  1.00  0.00     0.127 S 
ATOM     71  O   UNL A   1      47.341  28.232  22.256  1.00  0.00    -0.237 OA
ATOM     72  O   UNL A   1      49.748  28.184  22.777  1.00  0.00    -0.237 OA
ATOM     73  O   UNL A   1      48.613  26.132  22.034  1.00  0.00    -0.744 OA
ENDBRANCH  67  70
ENDBRANCH  49  63
BRANCH  50  74
ATOM     74  C   UNL A   1      38.685  30.771  31.261  1.00  0.00     0.023 A 
ATOM     75  C   UNL A   1      38.654  30.622  32.660  1.00  0.00     0.012 A 
ATOM     76  C   UNL A   1      37.600  31.390  30.610  1.00  0.00     0.148 A 
ATOM     77  C   UNL A   1      37.543  31.042  33.394  1.00  0.00     0.002 A 
ATOM     78  C   UNL A   1      36.522  31.856  31.353  1.00  0.00     0.091 A 
ATOM     79  F   UNL A   1      37.644  31.507  29.276  1.00  0.00    -0.205 F 
ATOM     80  C   UNL A   1      36.483  31.665  32.742  1.00  0.00     0.022 A 
BRANCH  78  81
ATOM     81  S   UNL A   1      35.170  32.774  30.610  1.00  0.00     0.127 S 
ATOM     82  O   UNL A   1      34.227  32.867  31.723  1.00  0.00    -0.237 OA
ATOM     83  O   UNL A   1      35.823  34.032  30.249  1.00  0.00    -0.237 OA
ATOM     84  O   UNL A   1      34.729  31.977  29.474  1.00  0.00    -0.744 OA
ENDBRANCH  78  81
ENDBRANCH  50  74
BRANCH  62  85
ATOM     85  C   UNL A   1      44.777  33.610  29.358  1.00  0.00     0.023 A 
ATOM     86  C   UNL A   1      45.495  33.910  30.531  1.00  0.00     0.012 A 
ATOM     87  C   UNL A   1      44.691  34.573  28.332  1.00  0.00     0.148 A 
ATOM     88  C   UNL A   1      46.090  35.159  30.695  1.00  0.00     0.002 A 
ATOM     89  C   UNL A   1      45.333  35.796  28.480  1.00  0.00     0.091 A 
ATOM     90  F   UNL A   1      43.992  34.273  27.228  1.00  0.00    -0.205 F 
ATOM     91  C   UNL A   1      46.020  36.097  29.668  1.00  0.00     0.022 A 
BRANCH  89  92
ATOM     92  S   UNL A   1      45.385  37.022  27.169  1.00  0.00     0.127 S 
ATOM     93  O   UNL A   1      43.962  37.265  26.933  1.00  0.00    -0.237 OA
ATOM     94  O   UNL A   1      46.095  38.129  27.809  1.00  0.00    -0.237 OA
ATOM     95  O   UNL A   1      46.102  36.400  26.063  1.00  0.00    -0.744 OA
ENDBRANCH  89  92
ENDBRANCH  62  85
ENDBRANCH  36  37
ENDBRANCH  29  31
ENDBRANCH  28  29
ENDBRANCH  27  28
ENDBRANCH   1  27
TORSDOF 21
ENDMDL
