MODEL 1
REMARK VINA RESULT:     -11.8      0.000      0.000
REMARK SMILES O=C(OCCOCCOC(=O)c1ccc(F)cc1-c1ccc(F)c(Cl)c1)c1ccc(-c2c3nc(c(-c4cccc(S(=O)(=O)[O-])c4F)c4ccc([nH]4)c(-c4cccc(S(=O)(=O)[O-])c4F)c4nc(c(-c5cccc(S(=O)(=O)[O-])c5F)c5ccc2[nH]5)C=C4)C=C3)cc1
REMARK SMILES IDX 5 1 4 2 3 3 2 4 1 5 27 6 28 7 89 8 29 9 88 10 30 11 31 12
REMARK SMILES IDX 32 13 82 14 33 15 87 16 81 17 83 18 34 19 86 20 80 21 79 22
REMARK SMILES IDX 35 24 67 25 47 26 66 27 48 28 51 29 65 30 84 31 49 32 50 33
REMARK SMILES IDX 64 35 85 36 52 37 36 38 37 39 45 40 38 41 40 42 46 43 39 44
REMARK SMILES IDX 41 45 42 46 43 47 44 48 68 49 69 50 77 51 70 52 72 53 78 54
REMARK SMILES IDX 71 55 73 56 74 57 75 58 76 59 53 60 54 61 62 62 55 63 57 64
REMARK SMILES IDX 63 65 56 66 58 67 59 68 60 69 61 70 6 71 7 72 8 73 9 74
REMARK SMILES IDX 10 75 11 76 12 77 13 78 18 79 14 80 17 81 15 82 16 83 19 84
REMARK SMILES IDX 20 85 26 86 21 87 24 88 22 89 25 90 23 91
REMARK H PARENT 83 23 51 34
REMARK Flexibility Score: inf
ROOT
ATOM      1  C   UNL A   1      37.993  19.974  24.777  1.00  0.00     0.202 C 
ENDROOT
BRANCH   1   2
ATOM      2  C   UNL A   1      38.863  19.081  25.657  1.00  0.00     0.261 C 
BRANCH   2   3
ATOM      3  O   UNL A   1      40.212  19.569  25.747  1.00  0.00    -0.460 OA
BRANCH   3   4
ATOM      4  C   UNL A   1      40.793  20.010  26.897  1.00  0.00     0.338 C 
ATOM      5  O   UNL A   1      41.190  19.205  27.732  1.00  0.00    -0.246 OA
BRANCH   4   6
ATOM      6  C   UNL A   1      40.964  21.467  27.143  1.00  0.00     0.060 A 
ATOM      7  C   UNL A   1      41.931  21.940  28.018  1.00  0.00     0.016 A 
ATOM      8  C   UNL A   1      40.226  22.402  26.422  1.00  0.00     0.016 A 
ATOM      9  C   UNL A   1      42.081  23.265  28.333  1.00  0.00     0.010 A 
ATOM     10  C   UNL A   1      40.503  23.766  26.583  1.00  0.00     0.010 A 
ATOM     11  C   UNL A   1      41.448  24.191  27.532  1.00  0.00    -0.014 A 
BRANCH  11  12
ATOM     12  C   UNL A   1      41.865  25.588  27.700  1.00  0.00     0.031 A 
ATOM     13  C   UNL A   1      43.151  26.020  27.095  1.00  0.00     0.074 A 
ATOM     14  C   UNL A   1      41.030  26.450  28.315  1.00  0.00     0.049 A 
ATOM     15  N   UNL A   1      43.777  27.151  27.233  1.00  0.00    -0.248 NA
ATOM     16  C   UNL A   1      43.827  25.045  26.221  1.00  0.00     0.031 C 
ATOM     17  C   UNL A   1      39.688  26.121  28.818  1.00  0.00     0.029 A 
ATOM     18  N   UNL A   1      41.165  27.779  28.607  1.00  0.00    -0.354 N 
ATOM     19  C   UNL A   1      44.960  27.001  26.530  1.00  0.00     0.074 A 
ATOM     20  C   UNL A   1      44.959  25.677  25.951  1.00  0.00     0.031 C 
ATOM     21  C   UNL A   1      39.117  27.222  29.324  1.00  0.00     0.029 A 
ATOM     22  C   UNL A   1      40.090  28.302  29.289  1.00  0.00     0.049 A 
ATOM     23  H   UNL A   1      41.954  28.311  28.353  1.00  0.00     0.167 HD
ATOM     24  C   UNL A   1      45.958  27.902  26.401  1.00  0.00     0.034 A 
ATOM     25  C   UNL A   1      39.935  29.504  29.870  1.00  0.00     0.034 A 
ATOM     26  C   UNL A   1      45.899  29.209  26.989  1.00  0.00     0.049 A 
ATOM     27  C   UNL A   1      41.084  30.463  29.772  1.00  0.00     0.074 A 
ATOM     28  C   UNL A   1      46.858  30.202  26.983  1.00  0.00     0.029 A 
ATOM     29  N   UNL A   1      44.809  29.703  27.700  1.00  0.00    -0.354 N 
ATOM     30  N   UNL A   1      42.228  30.306  29.147  1.00  0.00    -0.248 NA
ATOM     31  C   UNL A   1      40.934  31.756  30.446  1.00  0.00     0.031 C 
ATOM     32  C   UNL A   1      46.362  31.281  27.720  1.00  0.00     0.029 A 
ATOM     33  C   UNL A   1      45.072  30.985  28.142  1.00  0.00     0.049 A 
ATOM     34  H   UNL A   1      43.973  29.210  27.863  1.00  0.00     0.167 HD
ATOM     35  C   UNL A   1      42.927  31.490  29.324  1.00  0.00     0.074 A 
ATOM     36  C   UNL A   1      42.068  32.359  30.110  1.00  0.00     0.031 C 
ATOM     37  C   UNL A   1      44.165  31.827  28.886  1.00  0.00     0.034 A 
BRANCH  24  38
ATOM     38  C   UNL A   1      47.182  27.460  25.652  1.00  0.00     0.023 A 
ATOM     39  C   UNL A   1      48.231  26.802  26.325  1.00  0.00     0.012 A 
ATOM     40  C   UNL A   1      47.307  27.735  24.277  1.00  0.00     0.148 A 
ATOM     41  C   UNL A   1      49.406  26.469  25.651  1.00  0.00     0.002 A 
ATOM     42  C   UNL A   1      48.457  27.351  23.600  1.00  0.00     0.091 A 
ATOM     43  F   UNL A   1      46.315  28.397  23.664  1.00  0.00    -0.205 F 
ATOM     44  C   UNL A   1      49.515  26.734  24.288  1.00  0.00     0.022 A 
BRANCH  42  45
ATOM     45  S   UNL A   1      48.660  27.583  21.833  1.00  0.00     0.127 S 
ATOM     46  O   UNL A   1      49.045  26.240  21.399  1.00  0.00    -0.237 OA
ATOM     47  O   UNL A   1      47.317  27.995  21.423  1.00  0.00    -0.237 OA
ATOM     48  O   UNL A   1      49.685  28.605  21.674  1.00  0.00    -0.744 OA
ENDBRANCH  42  45
ENDBRANCH  24  38
BRANCH  25  49
ATOM     49  C   UNL A   1      38.659  29.836  30.569  1.00  0.00     0.023 A 
ATOM     50  C   UNL A   1      38.462  29.403  31.893  1.00  0.00     0.012 A 
ATOM     51  C   UNL A   1      37.682  30.658  29.966  1.00  0.00     0.148 A 
ATOM     52  C   UNL A   1      37.317  29.773  32.601  1.00  0.00     0.002 A 
ATOM     53  C   UNL A   1      36.571  31.069  30.695  1.00  0.00     0.091 A 
ATOM     54  F   UNL A   1      37.883  31.059  28.703  1.00  0.00    -0.205 F 
ATOM     55  C   UNL A   1      36.380  30.615  32.009  1.00  0.00     0.022 A 
BRANCH  53  56
ATOM     56  S   UNL A   1      35.378  32.258  30.067  1.00  0.00     0.127 S 
ATOM     57  O   UNL A   1      34.486  32.422  31.214  1.00  0.00    -0.237 OA
ATOM     58  O   UNL A   1      36.229  33.413  29.780  1.00  0.00    -0.237 OA
ATOM     59  O   UNL A   1      34.778  31.640  28.893  1.00  0.00    -0.744 OA
ENDBRANCH  53  56
ENDBRANCH  25  49
BRANCH  37  60
ATOM     60  C   UNL A   1      44.656  33.212  29.200  1.00  0.00     0.023 A 
ATOM     61  C   UNL A   1      45.319  33.464  30.415  1.00  0.00     0.012 A 
ATOM     62  C   UNL A   1      44.581  34.219  28.218  1.00  0.00     0.148 A 
ATOM     63  C   UNL A   1      45.893  34.712  30.653  1.00  0.00     0.002 A 
ATOM     64  C   UNL A   1      45.207  35.435  28.437  1.00  0.00     0.091 A 
ATOM     65  F   UNL A   1      43.924  33.953  27.079  1.00  0.00    -0.205 F 
ATOM     66  C   UNL A   1      45.854  35.688  29.659  1.00  0.00     0.022 A 
BRANCH  64  67
ATOM     67  S   UNL A   1      45.319  36.699  27.168  1.00  0.00     0.127 S 
ATOM     68  O   UNL A   1      43.912  37.040  26.964  1.00  0.00    -0.237 OA
ATOM     69  O   UNL A   1      46.109  37.735  27.834  1.00  0.00    -0.237 OA
ATOM     70  O   UNL A   1      45.979  36.073  26.030  1.00  0.00    -0.744 OA
ENDBRANCH  64  67
ENDBRANCH  37  60
ENDBRANCH  11  12
ENDBRANCH   4   6
ENDBRANCH   3   4
ENDBRANCH   2   3
ENDBRANCH   1   2
BRANCH   1  71
ATOM     71  O   UNL A   1      37.106  20.842  25.445  1.00  0.00    -0.374 OA
BRANCH  71  72
ATOM     72  C   UNL A   1      36.899  22.133  24.906  1.00  0.00     0.202 C 
BRANCH  72  73
ATOM     73  C   UNL A   1      35.747  22.734  25.699  1.00  0.00     0.261 C 
BRANCH  73  74
ATOM     74  O   UNL A   1      35.136  23.753  24.882  1.00  0.00    -0.460 OA
BRANCH  74  75
ATOM     75  C   UNL A   1      34.121  23.384  24.044  1.00  0.00     0.338 C 
ATOM     76  O   UNL A   1      34.184  23.135  22.860  1.00  0.00    -0.246 OA
BRANCH  75  77
ATOM     77  C   UNL A   1      32.887  23.290  24.874  1.00  0.00     0.068 A 
ATOM     78  C   UNL A   1      32.485  24.486  25.512  1.00  0.00     0.019 A 
ATOM     79  C   UNL A   1      32.149  22.094  25.072  1.00  0.00    -0.001 A 
ATOM     80  C   UNL A   1      31.370  24.517  26.341  1.00  0.00     0.040 A 
ATOM     81  C   UNL A   1      31.002  22.174  25.892  1.00  0.00     0.048 A 
ATOM     82  C   UNL A   1      30.632  23.361  26.512  1.00  0.00     0.123 A 
ATOM     83  F   UNL A   1      29.552  23.381  27.303  1.00  0.00    -0.207 F 
BRANCH  79  84
ATOM     84  C   UNL A   1      32.497  20.740  24.586  1.00  0.00    -0.016 A 
ATOM     85  C   UNL A   1      32.992  19.776  25.497  1.00  0.00     0.012 A 
ATOM     86  C   UNL A   1      32.245  20.322  23.271  1.00  0.00     0.032 A 
ATOM     87  C   UNL A   1      33.301  18.473  25.093  1.00  0.00     0.041 A 
ATOM     88  C   UNL A   1      32.506  19.002  22.877  1.00  0.00     0.077 A 
ATOM     89  C   UNL A   1      33.052  18.093  23.782  1.00  0.00     0.141 A 
ATOM     90  Cl  UNL A   1      32.100  18.494  21.281  1.00  0.00    -0.081 Cl
ATOM     91  F   UNL A   1      33.327  16.831  23.418  1.00  0.00    -0.205 F 
ENDBRANCH  79  84
ENDBRANCH  75  77
ENDBRANCH  74  75
ENDBRANCH  73  74
ENDBRANCH  72  73
ENDBRANCH  71  72
ENDBRANCH   1  71
TORSDOF 18
ENDMDL
MODEL 2
REMARK VINA RESULT:     -11.8      5.452     10.951
REMARK SMILES O=C(OCCOCCOC(=O)c1ccc(F)cc1-c1ccc(F)c(Cl)c1)c1ccc(-c2c3nc(c(-c4cccc(S(=O)(=O)[O-])c4F)c4ccc([nH]4)c(-c4cccc(S(=O)(=O)[O-])c4F)c4nc(c(-c5cccc(S(=O)(=O)[O-])c5F)c5ccc2[nH]5)C=C4)C=C3)cc1
REMARK SMILES IDX 5 1 4 2 3 3 2 4 1 5 27 6 28 7 89 8 29 9 88 10 30 11 31 12
REMARK SMILES IDX 32 13 82 14 33 15 87 16 81 17 83 18 34 19 86 20 80 21 79 22
REMARK SMILES IDX 35 24 67 25 47 26 66 27 48 28 51 29 65 30 84 31 49 32 50 33
REMARK SMILES IDX 64 35 85 36 52 37 36 38 37 39 45 40 38 41 40 42 46 43 39 44
REMARK SMILES IDX 41 45 42 46 43 47 44 48 68 49 69 50 77 51 70 52 72 53 78 54
REMARK SMILES IDX 71 55 73 56 74 57 75 58 76 59 53 60 54 61 62 62 55 63 57 64
REMARK SMILES IDX 63 65 56 66 58 67 59 68 60 69 61 70 6 71 7 72 8 73 9 74
REMARK SMILES IDX 10 75 11 76 12 77 13 78 18 79 14 80 17 81 15 82 16 83 19 84
REMARK SMILES IDX 20 85 26 86 21 87 24 88 22 89 25 90 23 91
REMARK H PARENT 83 23 51 34
REMARK Flexibility Score: inf
ROOT
ATOM      1  C   UNL A   1      31.438  31.882  26.793  1.00  0.00     0.202 C 
ENDROOT
BRANCH   1   2
ATOM      2  C   UNL A   1      31.867  33.346  26.727  1.00  0.00     0.261 C 
BRANCH   2   3
ATOM      3  O   UNL A   1      32.603  33.740  27.897  1.00  0.00    -0.460 OA
BRANCH   3   4
ATOM      4  C   UNL A   1      33.907  34.133  27.885  1.00  0.00     0.338 C 
ATOM      5  O   UNL A   1      34.210  35.243  27.465  1.00  0.00    -0.246 OA
BRANCH   4   6
ATOM      6  C   UNL A   1      34.970  33.226  28.394  1.00  0.00     0.060 A 
ATOM      7  C   UNL A   1      36.275  33.668  28.561  1.00  0.00     0.016 A 
ATOM      8  C   UNL A   1      34.662  31.935  28.817  1.00  0.00     0.016 A 
ATOM      9  C   UNL A   1      37.303  32.854  28.958  1.00  0.00     0.010 A 
ATOM     10  C   UNL A   1      35.660  31.152  29.413  1.00  0.00     0.010 A 
ATOM     11  C   UNL A   1      36.980  31.627  29.496  1.00  0.00    -0.014 A 
BRANCH  11  12
ATOM     12  C   UNL A   1      38.063  30.914  30.185  1.00  0.00     0.031 A 
ATOM     13  C   UNL A   1      38.291  31.196  31.624  1.00  0.00     0.074 A 
ATOM     14  C   UNL A   1      38.750  29.967  29.515  1.00  0.00     0.049 A 
ATOM     15  N   UNL A   1      39.264  30.795  32.388  1.00  0.00    -0.248 NA
ATOM     16  C   UNL A   1      37.294  32.049  32.294  1.00  0.00     0.031 C 
ATOM     17  C   UNL A   1      38.488  29.544  28.131  1.00  0.00     0.029 A 
ATOM     18  N   UNL A   1      39.792  29.170  29.902  1.00  0.00    -0.354 N 
ATOM     19  C   UNL A   1      39.044  31.409  33.610  1.00  0.00     0.074 A 
ATOM     20  C   UNL A   1      37.837  32.195  33.492  1.00  0.00     0.031 C 
ATOM     21  C   UNL A   1      39.322  28.549  27.801  1.00  0.00     0.029 A 
ATOM     22  C   UNL A   1      40.251  28.344  28.901  1.00  0.00     0.049 A 
ATOM     23  H   UNL A   1      40.176  29.184  30.809  1.00  0.00     0.167 HD
ATOM     24  C   UNL A   1      39.805  31.321  34.721  1.00  0.00     0.034 A 
ATOM     25  C   UNL A   1      41.337  27.552  28.862  1.00  0.00     0.034 A 
ATOM     26  C   UNL A   1      40.990  30.514  34.784  1.00  0.00     0.049 A 
ATOM     27  C   UNL A   1      42.205  27.524  30.084  1.00  0.00     0.074 A 
ATOM     28  C   UNL A   1      41.884  30.373  35.827  1.00  0.00     0.029 A 
ATOM     29  N   UNL A   1      41.448  29.709  33.745  1.00  0.00    -0.354 N 
ATOM     30  N   UNL A   1      42.027  28.142  31.229  1.00  0.00    -0.248 NA
ATOM     31  C   UNL A   1      43.415  26.698  30.025  1.00  0.00     0.031 C 
ATOM     32  C   UNL A   1      42.901  29.511  35.405  1.00  0.00     0.029 A 
ATOM     33  C   UNL A   1      42.615  29.071  34.118  1.00  0.00     0.049 A 
ATOM     34  H   UNL A   1      41.005  29.609  32.872  1.00  0.00     0.167 HD
ATOM     35  C   UNL A   1      43.082  27.760  32.041  1.00  0.00     0.074 A 
ATOM     36  C   UNL A   1      43.893  26.846  31.255  1.00  0.00     0.031 C 
ATOM     37  C   UNL A   1      43.363  28.133  33.313  1.00  0.00     0.034 A 
BRANCH  24  38
ATOM     38  C   UNL A   1      39.394  32.158  35.898  1.00  0.00     0.023 A 
ATOM     39  C   UNL A   1      39.924  33.452  36.074  1.00  0.00     0.012 A 
ATOM     40  C   UNL A   1      38.503  31.640  36.856  1.00  0.00     0.148 A 
ATOM     41  C   UNL A   1      39.611  34.197  37.210  1.00  0.00     0.002 A 
ATOM     42  C   UNL A   1      38.152  32.410  37.958  1.00  0.00     0.091 A 
ATOM     43  F   UNL A   1      38.039  30.392  36.692  1.00  0.00    -0.205 F 
ATOM     44  C   UNL A   1      38.719  33.681  38.146  1.00  0.00     0.022 A 
BRANCH  42  45
ATOM     45  S   UNL A   1      36.957  31.862  39.178  1.00  0.00     0.127 S 
ATOM     46  O   UNL A   1      37.091  30.408  39.093  1.00  0.00    -0.237 OA
ATOM     47  O   UNL A   1      37.485  32.453  40.408  1.00  0.00    -0.237 OA
ATOM     48  O   UNL A   1      35.670  32.394  38.751  1.00  0.00    -0.744 OA
ENDBRANCH  42  45
ENDBRANCH  24  38
BRANCH  25  49
ATOM     49  C   UNL A   1      41.630  26.748  27.640  1.00  0.00     0.023 A 
ATOM     50  C   UNL A   1      42.224  27.372  26.527  1.00  0.00     0.012 A 
ATOM     51  C   UNL A   1      41.414  25.353  27.607  1.00  0.00     0.148 A 
ATOM     52  C   UNL A   1      42.590  26.627  25.404  1.00  0.00     0.002 A 
ATOM     53  C   UNL A   1      41.831  24.609  26.509  1.00  0.00     0.091 A 
ATOM     54  F   UNL A   1      40.843  24.775  28.673  1.00  0.00    -0.205 F 
ATOM     55  C   UNL A   1      42.406  25.248  25.399  1.00  0.00     0.022 A 
BRANCH  53  56
ATOM     56  S   UNL A   1      41.761  22.814  26.464  1.00  0.00     0.127 S 
ATOM     57  O   UNL A   1      42.439  22.519  25.203  1.00  0.00    -0.237 OA
ATOM     58  O   UNL A   1      42.513  22.454  27.666  1.00  0.00    -0.237 OA
ATOM     59  O   UNL A   1      40.346  22.468  26.507  1.00  0.00    -0.744 OA
ENDBRANCH  53  56
ENDBRANCH  25  49
BRANCH  37  60
ATOM     60  C   UNL A   1      44.570  27.520  33.963  1.00  0.00     0.023 A 
ATOM     61  C   UNL A   1      45.814  28.176  33.898  1.00  0.00     0.012 A 
ATOM     62  C   UNL A   1      44.426  26.367  34.759  1.00  0.00     0.148 A 
ATOM     63  C   UNL A   1      46.904  27.681  34.610  1.00  0.00     0.002 A 
ATOM     64  C   UNL A   1      45.498  25.917  35.512  1.00  0.00     0.091 A 
ATOM     65  F   UNL A   1      43.233  25.753  34.783  1.00  0.00    -0.205 F 
ATOM     66  C   UNL A   1      46.742  26.566  35.430  1.00  0.00     0.022 A 
BRANCH  64  67
ATOM     67  S   UNL A   1      45.345  24.571  36.690  1.00  0.00     0.127 S 
ATOM     68  O   UNL A   1      45.297  23.408  35.806  1.00  0.00    -0.237 OA
ATOM     69  O   UNL A   1      46.579  24.700  37.465  1.00  0.00    -0.237 OA
ATOM     70  O   UNL A   1      44.127  24.831  37.444  1.00  0.00    -0.744 OA
ENDBRANCH  64  67
ENDBRANCH  37  60
ENDBRANCH  11  12
ENDBRANCH   4   6
ENDBRANCH   3   4
ENDBRANCH   2   3
ENDBRANCH   1   2
BRANCH   1  71
ATOM     71  O   UNL A   1      32.401  30.928  26.406  1.00  0.00    -0.374 OA
BRANCH  71  72
ATOM     72  C   UNL A   1      32.361  29.652  27.016  1.00  0.00     0.202 C 
BRANCH  72  73
ATOM     73  C   UNL A   1      32.634  28.652  25.901  1.00  0.00     0.261 C 
BRANCH  73  74
ATOM     74  O   UNL A   1      32.175  29.237  24.665  1.00  0.00    -0.460 OA
BRANCH  74  75
ATOM     75  C   UNL A   1      31.915  28.401  23.615  1.00  0.00     0.338 C 
ATOM     76  O   UNL A   1      32.708  27.800  22.925  1.00  0.00    -0.246 OA
BRANCH  75  77
ATOM     77  C   UNL A   1      30.432  28.313  23.489  1.00  0.00     0.068 A 
ATOM     78  C   UNL A   1      29.779  29.504  23.097  1.00  0.00     0.019 A 
ATOM     79  C   UNL A   1      29.676  27.145  23.769  1.00  0.00    -0.001 A 
ATOM     80  C   UNL A   1      28.395  29.558  22.978  1.00  0.00     0.040 A 
ATOM     81  C   UNL A   1      28.276  27.230  23.603  1.00  0.00     0.048 A 
ATOM     82  C   UNL A   1      27.658  28.415  23.221  1.00  0.00     0.123 A 
ATOM     83  F   UNL A   1      26.326  28.453  23.103  1.00  0.00    -0.207 F 
BRANCH  79  84
ATOM     84  C   UNL A   1      30.182  25.863  24.307  1.00  0.00    -0.016 A 
ATOM     85  C   UNL A   1      30.053  25.585  25.689  1.00  0.00     0.012 A 
ATOM     86  C   UNL A   1      30.682  24.843  23.483  1.00  0.00     0.032 A 
ATOM     87  C   UNL A   1      30.484  24.373  26.238  1.00  0.00     0.041 A 
ATOM     88  C   UNL A   1      31.066  23.608  24.025  1.00  0.00     0.077 A 
ATOM     89  C   UNL A   1      30.985  23.388  25.399  1.00  0.00     0.141 A 
ATOM     90  Cl  UNL A   1      31.589  22.346  22.976  1.00  0.00    -0.081 Cl
ATOM     91  F   UNL A   1      31.367  22.220  25.939  1.00  0.00    -0.205 F 
ENDBRANCH  79  84
ENDBRANCH  75  77
ENDBRANCH  74  75
ENDBRANCH  73  74
ENDBRANCH  72  73
ENDBRANCH  71  72
ENDBRANCH   1  71
TORSDOF 18
ENDMDL
MODEL 3
REMARK VINA RESULT:     -11.6      1.672      2.780
REMARK SMILES O=C(OCCOCCOC(=O)c1ccc(F)cc1-c1ccc(F)c(Cl)c1)c1ccc(-c2c3nc(c(-c4cccc(S(=O)(=O)[O-])c4F)c4ccc([nH]4)c(-c4cccc(S(=O)(=O)[O-])c4F)c4nc(c(-c5cccc(S(=O)(=O)[O-])c5F)c5ccc2[nH]5)C=C4)C=C3)cc1
REMARK SMILES IDX 5 1 4 2 3 3 2 4 1 5 27 6 28 7 89 8 29 9 88 10 30 11 31 12
REMARK SMILES IDX 32 13 82 14 33 15 87 16 81 17 83 18 34 19 86 20 80 21 79 22
REMARK SMILES IDX 35 24 67 25 47 26 66 27 48 28 51 29 65 30 84 31 49 32 50 33
REMARK SMILES IDX 64 35 85 36 52 37 36 38 37 39 45 40 38 41 40 42 46 43 39 44
REMARK SMILES IDX 41 45 42 46 43 47 44 48 68 49 69 50 77 51 70 52 72 53 78 54
REMARK SMILES IDX 71 55 73 56 74 57 75 58 76 59 53 60 54 61 62 62 55 63 57 64
REMARK SMILES IDX 63 65 56 66 58 67 59 68 60 69 61 70 6 71 7 72 8 73 9 74
REMARK SMILES IDX 10 75 11 76 12 77 13 78 18 79 14 80 17 81 15 82 16 83 19 84
REMARK SMILES IDX 20 85 26 86 21 87 24 88 22 89 25 90 23 91
REMARK H PARENT 83 23 51 34
REMARK Flexibility Score: inf
ROOT
ATOM      1  C   UNL A   1      37.785  20.085  24.807  1.00  0.00     0.202 C 
ENDROOT
BRANCH   1   2
ATOM      2  C   UNL A   1      38.933  20.443  25.747  1.00  0.00     0.261 C 
BRANCH   2   3
ATOM      3  O   UNL A   1      39.878  19.368  25.870  1.00  0.00    -0.460 OA
BRANCH   3   4
ATOM      4  C   UNL A   1      41.205  19.539  26.126  1.00  0.00     0.338 C 
ATOM      5  O   UNL A   1      41.963  18.576  26.111  1.00  0.00    -0.246 OA
BRANCH   4   6
ATOM      6  C   UNL A   1      41.748  20.894  26.411  1.00  0.00     0.060 A 
ATOM      7  C   UNL A   1      41.792  21.873  25.429  1.00  0.00     0.016 A 
ATOM      8  C   UNL A   1      42.130  21.251  27.703  1.00  0.00     0.016 A 
ATOM      9  C   UNL A   1      42.347  23.111  25.621  1.00  0.00     0.010 A 
ATOM     10  C   UNL A   1      42.512  22.574  27.964  1.00  0.00     0.010 A 
ATOM     11  C   UNL A   1      42.602  23.507  26.917  1.00  0.00    -0.014 A 
BRANCH  11  12
ATOM     12  C   UNL A   1      42.903  24.929  27.115  1.00  0.00     0.031 A 
ATOM     13  C   UNL A   1      44.177  25.465  26.572  1.00  0.00     0.074 A 
ATOM     14  C   UNL A   1      41.977  25.717  27.699  1.00  0.00     0.049 A 
ATOM     15  N   UNL A   1      44.707  26.640  26.748  1.00  0.00    -0.248 NA
ATOM     16  C   UNL A   1      44.964  24.556  25.722  1.00  0.00     0.031 C 
ATOM     17  C   UNL A   1      40.643  25.280  28.139  1.00  0.00     0.029 A 
ATOM     18  N   UNL A   1      41.996  27.049  28.009  1.00  0.00    -0.354 N 
ATOM     19  C   UNL A   1      45.928  26.589  26.098  1.00  0.00     0.074 A 
ATOM     20  C   UNL A   1      46.054  25.275  25.508  1.00  0.00     0.031 C 
ATOM     21  C   UNL A   1      39.967  26.328  28.627  1.00  0.00     0.029 A 
ATOM     22  C   UNL A   1      40.855  27.480  28.646  1.00  0.00     0.049 A 
ATOM     23  H   UNL A   1      42.752  27.643  27.795  1.00  0.00     0.167 HD
ATOM     24  C   UNL A   1      46.858  27.565  26.021  1.00  0.00     0.034 A 
ATOM     25  C   UNL A   1      40.582  28.659  29.230  1.00  0.00     0.034 A 
ATOM     26  C   UNL A   1      46.673  28.857  26.618  1.00  0.00     0.049 A 
ATOM     27  C   UNL A   1      41.658  29.704  29.192  1.00  0.00     0.074 A 
ATOM     28  C   UNL A   1      47.552  29.920  26.663  1.00  0.00     0.029 A 
ATOM     29  N   UNL A   1      45.518  29.257  27.283  1.00  0.00    -0.354 N 
ATOM     30  N   UNL A   1      42.837  29.644  28.618  1.00  0.00    -0.248 NA
ATOM     31  C   UNL A   1      41.378  30.974  29.870  1.00  0.00     0.031 C 
ATOM     32  C   UNL A   1      46.942  30.949  27.386  1.00  0.00     0.029 A 
ATOM     33  C   UNL A   1      45.661  30.550  27.747  1.00  0.00     0.049 A 
ATOM     34  H   UNL A   1      44.716  28.699  27.404  1.00  0.00     0.167 HD
ATOM     35  C   UNL A   1      43.433  30.875  28.836  1.00  0.00     0.074 A 
ATOM     36  C   UNL A   1      42.477  31.666  29.590  1.00  0.00     0.031 C 
ATOM     37  C   UNL A   1      44.660  31.311  28.457  1.00  0.00     0.034 A 
BRANCH  24  38
ATOM     38  C   UNL A   1      48.144  27.227  25.325  1.00  0.00     0.023 A 
ATOM     39  C   UNL A   1      49.249  26.747  26.058  1.00  0.00     0.012 A 
ATOM     40  C   UNL A   1      48.270  27.425  23.937  1.00  0.00     0.148 A 
ATOM     41  C   UNL A   1      50.471  26.516  25.427  1.00  0.00     0.002 A 
ATOM     42  C   UNL A   1      49.474  27.139  23.306  1.00  0.00     0.091 A 
ATOM     43  F   UNL A   1      47.220  27.919  23.263  1.00  0.00    -0.205 F 
ATOM     44  C   UNL A   1      50.581  26.703  24.052  1.00  0.00     0.022 A 
BRANCH  42  45
ATOM     45  S   UNL A   1      49.691  27.278  21.531  1.00  0.00     0.127 S 
ATOM     46  O   UNL A   1      48.654  26.374  21.033  1.00  0.00    -0.237 OA
ATOM     47  O   UNL A   1      49.423  28.699  21.302  1.00  0.00    -0.237 OA
ATOM     48  O   UNL A   1      51.060  26.865  21.257  1.00  0.00    -0.744 OA
ENDBRANCH  42  45
ENDBRANCH  24  38
BRANCH  25  49
ATOM     49  C   UNL A   1      39.255  28.884  29.873  1.00  0.00     0.023 A 
ATOM     50  C   UNL A   1      39.000  28.337  31.144  1.00  0.00     0.012 A 
ATOM     51  C   UNL A   1      38.280  29.715  29.279  1.00  0.00     0.148 A 
ATOM     52  C   UNL A   1      37.801  28.603  31.808  1.00  0.00     0.002 A 
ATOM     53  C   UNL A   1      37.112  30.022  29.969  1.00  0.00     0.091 A 
ATOM     54  F   UNL A   1      38.536  30.225  28.067  1.00  0.00    -0.205 F 
ATOM     55  C   UNL A   1      36.865  29.455  31.228  1.00  0.00     0.022 A 
BRANCH  53  56
ATOM     56  S   UNL A   1      35.908  31.213  29.366  1.00  0.00     0.127 S 
ATOM     57  O   UNL A   1      35.200  31.571  30.594  1.00  0.00    -0.237 OA
ATOM     58  O   UNL A   1      36.770  32.263  28.824  1.00  0.00    -0.237 OA
ATOM     59  O   UNL A   1      35.113  30.507  28.370  1.00  0.00    -0.744 OA
ENDBRANCH  53  56
ENDBRANCH  25  49
BRANCH  37  60
ATOM     60  C   UNL A   1      45.028  32.725  28.805  1.00  0.00     0.023 A 
ATOM     61  C   UNL A   1      45.707  33.000  30.006  1.00  0.00     0.012 A 
ATOM     62  C   UNL A   1      44.824  33.752  27.863  1.00  0.00     0.148 A 
ATOM     63  C   UNL A   1      46.168  34.288  30.271  1.00  0.00     0.002 A 
ATOM     64  C   UNL A   1      45.339  35.015  28.106  1.00  0.00     0.091 A 
ATOM     65  F   UNL A   1      44.155  33.463  26.736  1.00  0.00    -0.205 F 
ATOM     66  C   UNL A   1      46.003  35.288  29.314  1.00  0.00     0.022 A 
BRANCH  64  67
ATOM     67  S   UNL A   1      45.286  36.325  26.879  1.00  0.00     0.127 S 
ATOM     68  O   UNL A   1      45.995  35.710  25.758  1.00  0.00    -0.237 OA
ATOM     69  O   UNL A   1      43.847  36.495  26.674  1.00  0.00    -0.237 OA
ATOM     70  O   UNL A   1      45.951  37.472  27.482  1.00  0.00    -0.744 OA
ENDBRANCH  64  67
ENDBRANCH  37  60
ENDBRANCH  11  12
ENDBRANCH   4   6
ENDBRANCH   3   4
ENDBRANCH   2   3
ENDBRANCH   1   2
BRANCH   1  71
ATOM     71  O   UNL A   1      36.535  20.672  25.091  1.00  0.00    -0.374 OA
BRANCH  71  72
ATOM     72  C   UNL A   1      36.369  22.052  24.827  1.00  0.00     0.202 C 
BRANCH  72  73
ATOM     73  C   UNL A   1      35.444  22.574  25.918  1.00  0.00     0.261 C 
BRANCH  73  74
ATOM     74  O   UNL A   1      34.646  21.465  26.383  1.00  0.00    -0.460 OA
BRANCH  74  75
ATOM     75  C   UNL A   1      33.289  21.547  26.247  1.00  0.00     0.338 C 
ATOM     76  O   UNL A   1      32.514  22.225  26.885  1.00  0.00    -0.246 OA
BRANCH  75  77
ATOM     77  C   UNL A   1      32.915  20.665  25.105  1.00  0.00     0.068 A 
ATOM     78  C   UNL A   1      33.065  19.277  25.328  1.00  0.00     0.019 A 
ATOM     79  C   UNL A   1      32.468  21.139  23.844  1.00  0.00    -0.001 A 
ATOM     80  C   UNL A   1      32.783  18.355  24.329  1.00  0.00     0.040 A 
ATOM     81  C   UNL A   1      32.157  20.170  22.866  1.00  0.00     0.048 A 
ATOM     82  C   UNL A   1      32.318  18.811  23.110  1.00  0.00     0.123 A 
ATOM     83  F   UNL A   1      32.036  17.931  22.141  1.00  0.00    -0.207 F 
BRANCH  79  84
ATOM     84  C   UNL A   1      32.376  22.549  23.403  1.00  0.00    -0.016 A 
ATOM     85  C   UNL A   1      33.317  23.054  22.475  1.00  0.00     0.012 A 
ATOM     86  C   UNL A   1      31.313  23.387  23.774  1.00  0.00     0.032 A 
ATOM     87  C   UNL A   1      33.249  24.368  22.001  1.00  0.00     0.041 A 
ATOM     88  C   UNL A   1      31.217  24.689  23.260  1.00  0.00     0.077 A 
ATOM     89  C   UNL A   1      32.194  25.178  22.395  1.00  0.00     0.141 A 
ATOM     90  Cl  UNL A   1      29.852  25.662  23.662  1.00  0.00    -0.081 Cl
ATOM     91  F   UNL A   1      32.129  26.427  21.909  1.00  0.00    -0.205 F 
ENDBRANCH  79  84
ENDBRANCH  75  77
ENDBRANCH  74  75
ENDBRANCH  73  74
ENDBRANCH  72  73
ENDBRANCH  71  72
ENDBRANCH   1  71
TORSDOF 18
ENDMDL
