MODEL 1
REMARK VINA RESULT:     -10.6      0.000      0.000
REMARK SMILES COc1ccc(-c2ccc(CCC(=O)OCCOCCOC(=O)c3ccc(-c4c5nc(c(-c6cccc(S(=O)(=O)[O-])c6F)c6ccc([nH]6)c(-c6cccc(S(=O)(=O)[O-])c6F)c6nc(c(-c7cccc(S(=O)(=O)[O-])c7F)c7ccc4[nH]7)C=C6)C=C5)cc3)n2-c2ccc(C(C)=O)cc2)cc1
REMARK SMILES IDX 17 1 16 2 15 3 13 4 14 5 12 6 11 7 10 8 7 9 8 10 87 11 9 12
REMARK SMILES IDX 6 13 3 14 4 15 98 16 5 17 97 18 2 19 1 20 88 21 89 22 96 23
REMARK SMILES IDX 90 24 95 25 91 26 92 27 93 28 94 29 18 30 19 31 20 32 21 33
REMARK SMILES IDX 22 34 23 35 24 36 25 37 86 38 26 39 85 40 27 41 28 42 29 43
REMARK SMILES IDX 79 44 30 45 84 46 78 47 80 48 31 49 83 50 77 51 76 52 32 54
REMARK SMILES IDX 64 55 44 56 63 57 45 58 48 59 62 60 81 61 46 62 47 63 61 65
REMARK SMILES IDX 82 66 49 67 33 68 34 69 42 70 35 71 37 72 43 73 36 74 38 75
REMARK SMILES IDX 39 76 40 77 41 78 65 79 66 80 74 81 67 82 69 83 75 84 68 85
REMARK SMILES IDX 70 86 71 87 72 88 73 89 50 90 51 91 59 92 52 93 54 94 60 95
REMARK SMILES IDX 53 96 55 97 56 98 57 99 58 100
REMARK H PARENT 80 53 48 64
REMARK Flexibility Score: inf
ROOT
ATOM      1  C   UNL A   1      42.571  40.905  26.206  1.00  0.00     0.202 C 
ENDROOT
BRANCH   1   2
ATOM      2  C   UNL A   1      43.304  41.720  25.132  1.00  0.00     0.261 C 
BRANCH   2   3
ATOM      3  O   UNL A   1      42.601  41.695  23.874  1.00  0.00    -0.463 OA
BRANCH   3   4
ATOM      4  C   UNL A   1      42.466  42.858  23.197  1.00  0.00     0.306 C 
ATOM      5  O   UNL A   1      42.935  43.932  23.552  1.00  0.00    -0.252 OA
BRANCH   4   6
ATOM      6  C   UNL A   1      41.644  42.697  21.933  1.00  0.00     0.129 C 
BRANCH   6   7
ATOM      7  C   UNL A   1      42.392  42.451  20.617  1.00  0.00     0.066 C 
BRANCH   7   8
ATOM      8  C   UNL A   1      42.177  43.502  19.560  1.00  0.00     0.024 A 
ATOM      9  C   UNL A   1      42.490  45.400  18.361  1.00  0.00     0.053 A 
ATOM     10  C   UNL A   1      41.260  44.879  18.013  1.00  0.00     0.029 A 
ATOM     11  N   UNL A   1      43.085  44.512  19.254  1.00  0.00    -0.314 N 
ATOM     12  C   UNL A   1      41.094  43.677  18.719  1.00  0.00     0.024 A 
BRANCH   9  13
ATOM     13  C   UNL A   1      43.136  46.576  17.787  1.00  0.00    -0.001 A 
ATOM     14  C   UNL A   1      44.370  48.866  16.747  1.00  0.00     0.118 A 
ATOM     15  C   UNL A   1      45.111  47.703  16.966  1.00  0.00     0.047 A 
ATOM     16  C   UNL A   1      42.996  48.861  16.988  1.00  0.00     0.047 A 
ATOM     17  C   UNL A   1      44.501  46.564  17.486  1.00  0.00     0.014 A 
ATOM     18  C   UNL A   1      42.380  47.718  17.504  1.00  0.00     0.014 A 
BRANCH  14  19
ATOM     19  O   UNL A   1      45.094  49.922  16.277  1.00  0.00    -0.497 OA
ATOM     20  C   UNL A   1      46.391  50.101  16.818  1.00  0.00     0.278 C 
ENDBRANCH  14  19
ENDBRANCH   9  13
BRANCH  11  21
ATOM     21  C   UNL A   1      44.399  44.615  19.765  1.00  0.00     0.046 A 
ATOM     22  C   UNL A   1      44.631  45.401  20.897  1.00  0.00     0.027 A 
ATOM     23  C   UNL A   1      45.437  43.905  19.163  1.00  0.00     0.027 A 
ATOM     24  C   UNL A   1      45.922  45.497  21.422  1.00  0.00     0.014 A 
ATOM     25  C   UNL A   1      46.728  44.025  19.678  1.00  0.00     0.014 A 
ATOM     26  C   UNL A   1      46.984  44.822  20.807  1.00  0.00     0.017 A 
BRANCH  26  27
ATOM     27  C   UNL A   1      48.401  44.916  21.278  1.00  0.00     0.159 C 
ATOM     28  C   UNL A   1      49.195  43.682  21.615  1.00  0.00     0.093 C 
ATOM     29  O   UNL A   1      48.924  46.027  21.395  1.00  0.00    -0.295 OA
ENDBRANCH  26  27
ENDBRANCH  11  21
ENDBRANCH   7   8
ENDBRANCH   6   7
ENDBRANCH   4   6
ENDBRANCH   3   4
ENDBRANCH   2   3
ENDBRANCH   1   2
BRANCH   1  30
ATOM     30  O   UNL A   1      43.086  39.587  26.416  1.00  0.00    -0.374 OA
BRANCH  30  31
ATOM     31  C   UNL A   1      43.489  39.271  27.744  1.00  0.00     0.202 C 
BRANCH  31  32
ATOM     32  C   UNL A   1      44.938  38.853  27.942  1.00  0.00     0.261 C 
BRANCH  32  33
ATOM     33  O   UNL A   1      45.069  37.723  28.802  1.00  0.00    -0.460 OA
BRANCH  33  34
ATOM     34  C   UNL A   1      45.850  36.741  28.295  1.00  0.00     0.338 C 
ATOM     35  O   UNL A   1      46.848  36.880  27.618  1.00  0.00    -0.246 OA
BRANCH  34  36
ATOM     36  C   UNL A   1      45.204  35.441  28.508  1.00  0.00     0.060 A 
ATOM     37  C   UNL A   1      44.255  35.065  27.555  1.00  0.00     0.016 A 
ATOM     38  C   UNL A   1      45.333  34.764  29.727  1.00  0.00     0.016 A 
ATOM     39  C   UNL A   1      43.332  34.095  27.882  1.00  0.00     0.010 A 
ATOM     40  C   UNL A   1      44.381  33.825  30.072  1.00  0.00     0.010 A 
ATOM     41  C   UNL A   1      43.373  33.515  29.157  1.00  0.00    -0.014 A 
BRANCH  41  42
ATOM     42  C   UNL A   1      42.478  32.374  29.395  1.00  0.00     0.031 A 
ATOM     43  C   UNL A   1      43.109  31.130  28.681  1.00  0.00     0.074 A 
ATOM     44  C   UNL A   1      41.300  32.669  30.053  1.00  0.00     0.049 A 
ATOM     45  N   UNL A   1      42.540  30.176  28.013  1.00  0.00    -0.248 NA
ATOM     46  C   UNL A   1      44.600  31.003  28.553  1.00  0.00     0.031 C 
ATOM     47  C   UNL A   1      40.982  33.956  30.733  1.00  0.00     0.029 A 
ATOM     48  N   UNL A   1      40.130  31.976  30.312  1.00  0.00    -0.354 N 
ATOM     49  C   UNL A   1      43.542  29.218  27.690  1.00  0.00     0.074 A 
ATOM     50  C   UNL A   1      44.795  29.870  27.871  1.00  0.00     0.031 C 
ATOM     51  C   UNL A   1      39.708  33.978  31.205  1.00  0.00     0.029 A 
ATOM     52  C   UNL A   1      39.057  32.712  30.915  1.00  0.00     0.049 A 
ATOM     53  H   UNL A   1      40.040  31.021  30.092  1.00  0.00     0.167 HD
ATOM     54  C   UNL A   1      43.252  27.894  27.506  1.00  0.00     0.034 A 
ATOM     55  C   UNL A   1      37.747  32.319  31.114  1.00  0.00     0.034 A 
ATOM     56  C   UNL A   1      41.849  27.729  27.694  1.00  0.00     0.049 A 
ATOM     57  C   UNL A   1      37.771  30.891  30.789  1.00  0.00     0.074 A 
ATOM     58  C   UNL A   1      40.778  28.106  26.928  1.00  0.00     0.029 A 
ATOM     59  N   UNL A   1      41.464  27.536  29.001  1.00  0.00    -0.354 N 
ATOM     60  N   UNL A   1      38.316  29.979  31.538  1.00  0.00    -0.248 NA
ATOM     61  C   UNL A   1      37.302  30.471  29.464  1.00  0.00     0.031 C 
ATOM     62  C   UNL A   1      39.914  28.644  27.897  1.00  0.00     0.029 A 
ATOM     63  C   UNL A   1      40.306  28.233  29.180  1.00  0.00     0.049 A 
ATOM     64  H   UNL A   1      41.936  26.998  29.678  1.00  0.00     0.167 HD
ATOM     65  C   UNL A   1      38.603  29.009  30.614  1.00  0.00     0.074 A 
ATOM     66  C   UNL A   1      37.670  29.194  29.519  1.00  0.00     0.031 C 
ATOM     67  C   UNL A   1      39.872  28.526  30.519  1.00  0.00     0.034 A 
BRANCH  54  68
ATOM     68  C   UNL A   1      44.036  26.602  27.472  1.00  0.00     0.023 A 
ATOM     69  C   UNL A   1      44.742  26.308  28.680  1.00  0.00     0.012 A 
ATOM     70  C   UNL A   1      44.416  25.897  26.321  1.00  0.00     0.148 A 
ATOM     71  C   UNL A   1      45.884  25.517  28.709  1.00  0.00     0.002 A 
ATOM     72  C   UNL A   1      45.527  25.045  26.371  1.00  0.00     0.091 A 
ATOM     73  F   UNL A   1      43.758  26.106  25.177  1.00  0.00    -0.205 F 
ATOM     74  C   UNL A   1      46.289  24.901  27.543  1.00  0.00     0.022 A 
BRANCH  72  75
ATOM     75  S   UNL A   1      46.103  24.082  24.969  1.00  0.00     0.127 S 
ATOM     76  O   UNL A   1      46.690  22.914  25.623  1.00  0.00    -0.237 OA
ATOM     77  O   UNL A   1      44.849  23.813  24.263  1.00  0.00    -0.237 OA
ATOM     78  O   UNL A   1      47.025  24.946  24.249  1.00  0.00    -0.744 OA
ENDBRANCH  72  75
ENDBRANCH  54  68
BRANCH  55  79
ATOM     79  C   UNL A   1      36.360  32.873  31.462  1.00  0.00     0.023 A 
ATOM     80  C   UNL A   1      35.801  32.917  32.745  1.00  0.00     0.012 A 
ATOM     81  C   UNL A   1      35.550  33.477  30.433  1.00  0.00     0.148 A 
ATOM     82  C   UNL A   1      34.579  33.602  32.992  1.00  0.00     0.002 A 
ATOM     83  C   UNL A   1      34.432  34.266  30.697  1.00  0.00     0.091 A 
ATOM     84  F   UNL A   1      35.818  33.238  29.146  1.00  0.00    -0.205 F 
ATOM     85  C   UNL A   1      33.927  34.321  31.986  1.00  0.00     0.022 A 
BRANCH  83  86
ATOM     86  S   UNL A   1      33.699  35.344  29.438  1.00  0.00     0.127 S 
ATOM     87  O   UNL A   1      32.534  34.576  29.002  1.00  0.00    -0.237 OA
ATOM     88  O   UNL A   1      33.386  36.537  30.224  1.00  0.00    -0.237 OA
ATOM     89  O   UNL A   1      34.722  35.544  28.420  1.00  0.00    -0.744 OA
ENDBRANCH  83  86
ENDBRANCH  55  79
BRANCH  67  90
ATOM     90  C   UNL A   1      40.725  28.613  31.791  1.00  0.00     0.023 A 
ATOM     91  C   UNL A   1      40.162  28.051  32.955  1.00  0.00     0.012 A 
ATOM     92  C   UNL A   1      41.971  29.276  31.943  1.00  0.00     0.148 A 
ATOM     93  C   UNL A   1      40.782  28.147  34.205  1.00  0.00     0.002 A 
ATOM     94  C   UNL A   1      42.580  29.401  33.204  1.00  0.00     0.091 A 
ATOM     95  F   UNL A   1      42.570  29.777  30.864  1.00  0.00    -0.205 F 
ATOM     96  C   UNL A   1      41.987  28.826  34.332  1.00  0.00     0.022 A 
BRANCH  94  97
ATOM     97  S   UNL A   1      44.092  30.346  33.520  1.00  0.00     0.127 S 
ATOM     98  O   UNL A   1      43.810  31.626  32.864  1.00  0.00    -0.237 OA
ATOM     99  O   UNL A   1      44.118  30.422  34.978  1.00  0.00    -0.237 OA
ATOM    100  O   UNL A   1      45.185  29.597  32.912  1.00  0.00    -0.744 OA
ENDBRANCH  94  97
ENDBRANCH  67  90
ENDBRANCH  41  42
ENDBRANCH  34  36
ENDBRANCH  33  34
ENDBRANCH  32  33
ENDBRANCH  31  32
ENDBRANCH  30  31
ENDBRANCH   1  30
TORSDOF 23
ENDMDL
MODEL 2
REMARK VINA RESULT:      -9.9      9.164     19.922
REMARK SMILES COc1ccc(-c2ccc(CCC(=O)OCCOCCOC(=O)c3ccc(-c4c5nc(c(-c6cccc(S(=O)(=O)[O-])c6F)c6ccc([nH]6)c(-c6cccc(S(=O)(=O)[O-])c6F)c6nc(c(-c7cccc(S(=O)(=O)[O-])c7F)c7ccc4[nH]7)C=C6)C=C5)cc3)n2-c2ccc(C(C)=O)cc2)cc1
REMARK SMILES IDX 17 1 16 2 15 3 13 4 14 5 12 6 11 7 10 8 7 9 8 10 87 11 9 12
REMARK SMILES IDX 6 13 3 14 4 15 98 16 5 17 97 18 2 19 1 20 88 21 89 22 96 23
REMARK SMILES IDX 90 24 95 25 91 26 92 27 93 28 94 29 18 30 19 31 20 32 21 33
REMARK SMILES IDX 22 34 23 35 24 36 25 37 86 38 26 39 85 40 27 41 28 42 29 43
REMARK SMILES IDX 79 44 30 45 84 46 78 47 80 48 31 49 83 50 77 51 76 52 32 54
REMARK SMILES IDX 64 55 44 56 63 57 45 58 48 59 62 60 81 61 46 62 47 63 61 65
REMARK SMILES IDX 82 66 49 67 33 68 34 69 42 70 35 71 37 72 43 73 36 74 38 75
REMARK SMILES IDX 39 76 40 77 41 78 65 79 66 80 74 81 67 82 69 83 75 84 68 85
REMARK SMILES IDX 70 86 71 87 72 88 73 89 50 90 51 91 59 92 52 93 54 94 60 95
REMARK SMILES IDX 53 96 55 97 56 98 57 99 58 100
REMARK H PARENT 80 53 48 64
REMARK Flexibility Score: inf
ROOT
ATOM      1  C   UNL A   1      49.353  26.783  39.132  1.00  0.00     0.202 C 
ENDROOT
BRANCH   1   2
ATOM      2  C   UNL A   1      50.445  25.775  39.515  1.00  0.00     0.261 C 
BRANCH   2   3
ATOM      3  O   UNL A   1      49.881  24.528  39.968  1.00  0.00    -0.463 OA
BRANCH   3   4
ATOM      4  C   UNL A   1      50.515  23.382  39.628  1.00  0.00     0.306 C 
ATOM      5  O   UNL A   1      51.392  23.295  38.777  1.00  0.00    -0.252 OA
BRANCH   4   6
ATOM      6  C   UNL A   1      50.008  22.188  40.412  1.00  0.00     0.129 C 
BRANCH   6   7
ATOM      7  C   UNL A   1      50.324  20.788  39.869  1.00  0.00     0.066 C 
BRANCH   7   8
ATOM      8  C   UNL A   1      49.429  19.692  40.385  1.00  0.00     0.024 A 
ATOM      9  C   UNL A   1      47.547  18.480  40.737  1.00  0.00     0.053 A 
ATOM     10  C   UNL A   1      48.504  18.040  41.629  1.00  0.00     0.029 A 
ATOM     11  N   UNL A   1      48.140  19.441  39.923  1.00  0.00    -0.314 N 
ATOM     12  C   UNL A   1      49.683  18.757  41.372  1.00  0.00     0.024 A 
BRANCH   9  13
ATOM     13  C   UNL A   1      46.205  17.936  40.556  1.00  0.00    -0.001 A 
ATOM     14  C   UNL A   1      43.653  16.828  40.221  1.00  0.00     0.118 A 
ATOM     15  C   UNL A   1      43.957  17.564  41.366  1.00  0.00     0.047 A 
ATOM     16  C   UNL A   1      44.609  16.702  39.212  1.00  0.00     0.047 A 
ATOM     17  C   UNL A   1      45.226  18.114  41.538  1.00  0.00     0.014 A 
ATOM     18  C   UNL A   1      45.880  17.257  39.378  1.00  0.00     0.014 A 
BRANCH  14  19
ATOM     19  O   UNL A   1      42.393  16.308  40.195  1.00  0.00    -0.497 OA
ATOM     20  C   UNL A   1      42.257  14.942  40.548  1.00  0.00     0.278 C 
ENDBRANCH  14  19
ENDBRANCH   9  13
BRANCH  11  21
ATOM     21  C   UNL A   1      47.536  20.060  38.804  1.00  0.00     0.046 A 
ATOM     22  C   UNL A   1      47.824  19.582  37.523  1.00  0.00     0.027 A 
ATOM     23  C   UNL A   1      46.636  21.108  38.992  1.00  0.00     0.027 A 
ATOM     24  C   UNL A   1      47.220  20.175  36.411  1.00  0.00     0.014 A 
ATOM     25  C   UNL A   1      46.056  21.711  37.875  1.00  0.00     0.014 A 
ATOM     26  C   UNL A   1      46.343  21.255  36.577  1.00  0.00     0.017 A 
BRANCH  26  27
ATOM     27  C   UNL A   1      45.700  21.974  35.434  1.00  0.00     0.159 C 
ATOM     28  C   UNL A   1      44.479  22.833  35.641  1.00  0.00     0.093 C 
ATOM     29  O   UNL A   1      46.176  21.857  34.303  1.00  0.00    -0.295 OA
ENDBRANCH  26  27
ENDBRANCH  11  21
ENDBRANCH   7   8
ENDBRANCH   6   7
ENDBRANCH   4   6
ENDBRANCH   3   4
ENDBRANCH   2   3
ENDBRANCH   1   2
BRANCH   1  30
ATOM     30  O   UNL A   1      48.993  26.781  37.748  1.00  0.00    -0.374 OA
BRANCH  30  31
ATOM     31  C   UNL A   1      47.922  25.921  37.376  1.00  0.00     0.202 C 
BRANCH  31  32
ATOM     32  C   UNL A   1      46.597  26.123  38.095  1.00  0.00     0.261 C 
BRANCH  32  33
ATOM     33  O   UNL A   1      45.485  25.652  37.337  1.00  0.00    -0.460 OA
BRANCH  33  34
ATOM     34  C   UNL A   1      44.324  26.287  37.620  1.00  0.00     0.338 C 
ATOM     35  O   UNL A   1      43.724  26.270  38.676  1.00  0.00    -0.246 OA
BRANCH  34  36
ATOM     36  C   UNL A   1      43.762  26.854  36.390  1.00  0.00     0.060 A 
ATOM     37  C   UNL A   1      42.602  26.243  35.908  1.00  0.00     0.016 A 
ATOM     38  C   UNL A   1      44.496  27.760  35.613  1.00  0.00     0.016 A 
ATOM     39  C   UNL A   1      42.251  26.429  34.588  1.00  0.00     0.010 A 
ATOM     40  C   UNL A   1      44.170  27.909  34.279  1.00  0.00     0.010 A 
ATOM     41  C   UNL A   1      43.065  27.224  33.770  1.00  0.00    -0.014 A 
BRANCH  41  42
ATOM     42  C   UNL A   1      42.559  27.524  32.424  1.00  0.00     0.031 A 
ATOM     43  C   UNL A   1      41.418  28.587  32.581  1.00  0.00     0.074 A 
ATOM     44  C   UNL A   1      43.094  26.762  31.403  1.00  0.00     0.049 A 
ATOM     45  N   UNL A   1      40.284  28.688  31.961  1.00  0.00    -0.248 NA
ATOM     46  C   UNL A   1      41.465  29.594  33.694  1.00  0.00     0.031 C 
ATOM     47  C   UNL A   1      44.274  25.860  31.518  1.00  0.00     0.029 A 
ATOM     48  N   UNL A   1      42.791  26.577  30.066  1.00  0.00    -0.354 N 
ATOM     49  C   UNL A   1      39.675  29.907  32.373  1.00  0.00     0.074 A 
ATOM     50  C   UNL A   1      40.343  30.307  33.565  1.00  0.00     0.031 C 
ATOM     51  C   UNL A   1      44.498  25.172  30.368  1.00  0.00     0.029 A 
ATOM     52  C   UNL A   1      43.517  25.556  29.369  1.00  0.00     0.049 A 
ATOM     53  H   UNL A   1      42.109  27.124  29.613  1.00  0.00     0.167 HD
ATOM     54  C   UNL A   1      38.807  30.595  31.571  1.00  0.00     0.034 A 
ATOM     55  C   UNL A   1      43.294  25.051  28.101  1.00  0.00     0.034 A 
ATOM     56  C   UNL A   1      38.676  29.868  30.352  1.00  0.00     0.049 A 
ATOM     57  C   UNL A   1      42.300  25.972  27.543  1.00  0.00     0.074 A 
ATOM     58  C   UNL A   1      38.056  28.681  30.063  1.00  0.00     0.029 A 
ATOM     59  N   UNL A   1      39.634  30.156  29.407  1.00  0.00    -0.354 N 
ATOM     60  N   UNL A   1      42.557  27.192  27.176  1.00  0.00    -0.248 NA
ATOM     61  C   UNL A   1      40.892  25.562  27.547  1.00  0.00     0.031 C 
ATOM     62  C   UNL A   1      39.024  28.045  29.268  1.00  0.00     0.029 A 
ATOM     63  C   UNL A   1      39.966  28.977  28.808  1.00  0.00     0.049 A 
ATOM     64  H   UNL A   1      40.008  31.045  29.203  1.00  0.00     0.167 HD
ATOM     65  C   UNL A   1      41.325  27.776  27.302  1.00  0.00     0.074 A 
ATOM     66  C   UNL A   1      40.349  26.712  27.161  1.00  0.00     0.031 C 
ATOM     67  C   UNL A   1      41.188  28.901  28.055  1.00  0.00     0.034 A 
BRANCH  54  68
ATOM     68  C   UNL A   1      38.243  31.997  31.528  1.00  0.00     0.023 A 
ATOM     69  C   UNL A   1      39.195  33.025  31.806  1.00  0.00     0.012 A 
ATOM     70  C   UNL A   1      36.885  32.343  31.605  1.00  0.00     0.148 A 
ATOM     71  C   UNL A   1      38.834  34.264  32.325  1.00  0.00     0.002 A 
ATOM     72  C   UNL A   1      36.525  33.618  32.062  1.00  0.00     0.091 A 
ATOM     73  F   UNL A   1      35.958  31.427  31.313  1.00  0.00    -0.205 F 
ATOM     74  C   UNL A   1      37.493  34.551  32.473  1.00  0.00     0.022 A 
BRANCH  72  75
ATOM     75  S   UNL A   1      34.826  34.181  32.195  1.00  0.00     0.127 S 
ATOM     76  O   UNL A   1      34.119  32.942  32.518  1.00  0.00    -0.237 OA
ATOM     77  O   UNL A   1      34.918  35.132  33.305  1.00  0.00    -0.237 OA
ATOM     78  O   UNL A   1      34.508  34.785  30.911  1.00  0.00    -0.744 OA
ENDBRANCH  72  75
ENDBRANCH  54  68
BRANCH  55  79
ATOM     79  C   UNL A   1      43.664  23.877  27.186  1.00  0.00     0.023 A 
ATOM     80  C   UNL A   1      44.909  23.685  26.575  1.00  0.00     0.012 A 
ATOM     81  C   UNL A   1      42.713  22.817  26.959  1.00  0.00     0.148 A 
ATOM     82  C   UNL A   1      45.209  22.481  25.881  1.00  0.00     0.002 A 
ATOM     83  C   UNL A   1      43.052  21.585  26.405  1.00  0.00     0.091 A 
ATOM     84  F   UNL A   1      41.418  23.014  27.224  1.00  0.00    -0.205 F 
ATOM     85  C   UNL A   1      44.308  21.414  25.844  1.00  0.00     0.022 A 
BRANCH  83  86
ATOM     86  S   UNL A   1      41.958  20.145  26.523  1.00  0.00     0.127 S 
ATOM     87  O   UNL A   1      42.253  19.421  25.288  1.00  0.00    -0.237 OA
ATOM     88  O   UNL A   1      42.451  19.504  27.741  1.00  0.00    -0.237 OA
ATOM     89  O   UNL A   1      40.600  20.666  26.624  1.00  0.00    -0.744 OA
ENDBRANCH  83  86
ENDBRANCH  55  79
BRANCH  67  90
ATOM     90  C   UNL A   1      42.440  29.776  28.196  1.00  0.00     0.023 A 
ATOM     91  C   UNL A   1      42.849  30.067  29.514  1.00  0.00     0.012 A 
ATOM     92  C   UNL A   1      43.173  30.398  27.151  1.00  0.00     0.148 A 
ATOM     93  C   UNL A   1      43.911  30.932  29.791  1.00  0.00     0.002 A 
ATOM     94  C   UNL A   1      44.222  31.292  27.429  1.00  0.00     0.091 A 
ATOM     95  F   UNL A   1      42.861  30.113  25.888  1.00  0.00    -0.205 F 
ATOM     96  C   UNL A   1      44.594  31.549  28.752  1.00  0.00     0.022 A 
BRANCH  94  97
ATOM     97  S   UNL A   1      45.119  32.238  26.172  1.00  0.00     0.127 S 
ATOM     98  O   UNL A   1      45.938  31.210  25.524  1.00  0.00    -0.237 OA
ATOM     99  O   UNL A   1      44.040  32.750  25.332  1.00  0.00    -0.237 OA
ATOM    100  O   UNL A   1      45.891  33.248  26.886  1.00  0.00    -0.744 OA
ENDBRANCH  94  97
ENDBRANCH  67  90
ENDBRANCH  41  42
ENDBRANCH  34  36
ENDBRANCH  33  34
ENDBRANCH  32  33
ENDBRANCH  31  32
ENDBRANCH  30  31
ENDBRANCH   1  30
TORSDOF 23
ENDMDL
MODEL 3
REMARK VINA RESULT:      -9.9      9.413     22.094
REMARK SMILES COc1ccc(-c2ccc(CCC(=O)OCCOCCOC(=O)c3ccc(-c4c5nc(c(-c6cccc(S(=O)(=O)[O-])c6F)c6ccc([nH]6)c(-c6cccc(S(=O)(=O)[O-])c6F)c6nc(c(-c7cccc(S(=O)(=O)[O-])c7F)c7ccc4[nH]7)C=C6)C=C5)cc3)n2-c2ccc(C(C)=O)cc2)cc1
REMARK SMILES IDX 17 1 16 2 15 3 13 4 14 5 12 6 11 7 10 8 7 9 8 10 87 11 9 12
REMARK SMILES IDX 6 13 3 14 4 15 98 16 5 17 97 18 2 19 1 20 88 21 89 22 96 23
REMARK SMILES IDX 90 24 95 25 91 26 92 27 93 28 94 29 18 30 19 31 20 32 21 33
REMARK SMILES IDX 22 34 23 35 24 36 25 37 86 38 26 39 85 40 27 41 28 42 29 43
REMARK SMILES IDX 79 44 30 45 84 46 78 47 80 48 31 49 83 50 77 51 76 52 32 54
REMARK SMILES IDX 64 55 44 56 63 57 45 58 48 59 62 60 81 61 46 62 47 63 61 65
REMARK SMILES IDX 82 66 49 67 33 68 34 69 42 70 35 71 37 72 43 73 36 74 38 75
REMARK SMILES IDX 39 76 40 77 41 78 65 79 66 80 74 81 67 82 69 83 75 84 68 85
REMARK SMILES IDX 70 86 71 87 72 88 73 89 50 90 51 91 59 92 52 93 54 94 60 95
REMARK SMILES IDX 53 96 55 97 56 98 57 99 58 100
REMARK H PARENT 80 53 48 64
REMARK Flexibility Score: inf
ROOT
ATOM      1  C   UNL A   1      46.320  20.511  38.798  1.00  0.00     0.202 C 
ENDROOT
BRANCH   1   2
ATOM      2  C   UNL A   1      47.516  20.023  37.970  1.00  0.00     0.261 C 
BRANCH   2   3
ATOM      3  O   UNL A   1      48.764  20.514  38.500  1.00  0.00    -0.463 OA
BRANCH   3   4
ATOM      4  C   UNL A   1      49.003  20.351  39.822  1.00  0.00     0.306 C 
ATOM      5  O   UNL A   1      49.040  21.259  40.643  1.00  0.00    -0.252 OA
BRANCH   4   6
ATOM      6  C   UNL A   1      49.241  18.899  40.190  1.00  0.00     0.129 C 
BRANCH   6   7
ATOM      7  C   UNL A   1      48.181  18.193  41.044  1.00  0.00     0.066 C 
BRANCH   7   8
ATOM      8  C   UNL A   1      48.293  18.440  42.525  1.00  0.00     0.024 A 
ATOM      9  C   UNL A   1      47.666  18.670  44.691  1.00  0.00     0.053 A 
ATOM     10  C   UNL A   1      48.949  19.165  44.568  1.00  0.00     0.029 A 
ATOM     11  N   UNL A   1      47.294  18.155  43.452  1.00  0.00    -0.314 N 
ATOM     12  C   UNL A   1      49.352  18.972  43.238  1.00  0.00     0.024 A 
BRANCH   9  13
ATOM     13  C   UNL A   1      46.889  18.550  45.920  1.00  0.00    -0.001 A 
ATOM     14  C   UNL A   1      45.346  18.290  48.244  1.00  0.00     0.118 A 
ATOM     15  C   UNL A   1      46.473  17.490  48.053  1.00  0.00     0.047 A 
ATOM     16  C   UNL A   1      45.029  19.267  47.300  1.00  0.00     0.047 A 
ATOM     17  C   UNL A   1      47.241  17.614  46.897  1.00  0.00     0.014 A 
ATOM     18  C   UNL A   1      45.801  19.398  46.143  1.00  0.00     0.014 A 
BRANCH  14  19
ATOM     19  O   UNL A   1      44.658  18.039  49.395  1.00  0.00    -0.497 OA
ATOM     20  C   UNL A   1      43.244  18.097  49.320  1.00  0.00     0.278 C 
ENDBRANCH  14  19
ENDBRANCH   9  13
BRANCH  11  21
ATOM     21  C   UNL A   1      46.098  17.452  43.177  1.00  0.00     0.046 A 
ATOM     22  C   UNL A   1      46.036  16.082  43.447  1.00  0.00     0.027 A 
ATOM     23  C   UNL A   1      44.990  18.134  42.680  1.00  0.00     0.027 A 
ATOM     24  C   UNL A   1      44.855  15.379  43.195  1.00  0.00     0.014 A 
ATOM     25  C   UNL A   1      43.821  17.422  42.408  1.00  0.00     0.014 A 
ATOM     26  C   UNL A   1      43.742  16.041  42.659  1.00  0.00     0.017 A 
BRANCH  26  27
ATOM     27  C   UNL A   1      42.462  15.349  42.314  1.00  0.00     0.159 C 
ATOM     28  C   UNL A   1      42.415  14.274  41.259  1.00  0.00     0.093 C 
ATOM     29  O   UNL A   1      41.426  15.670  42.902  1.00  0.00    -0.295 OA
ENDBRANCH  26  27
ENDBRANCH  11  21
ENDBRANCH   7   8
ENDBRANCH   6   7
ENDBRANCH   4   6
ENDBRANCH   3   4
ENDBRANCH   2   3
ENDBRANCH   1   2
BRANCH   1  30
ATOM     30  O   UNL A   1      45.865  21.829  38.479  1.00  0.00    -0.374 OA
BRANCH  30  31
ATOM     31  C   UNL A   1      45.813  22.757  39.557  1.00  0.00     0.202 C 
BRANCH  31  32
ATOM     32  C   UNL A   1      45.355  24.169  39.226  1.00  0.00     0.261 C 
BRANCH  32  33
ATOM     33  O   UNL A   1      44.974  24.315  37.860  1.00  0.00    -0.460 OA
BRANCH  33  34
ATOM     34  C   UNL A   1      45.593  25.340  37.229  1.00  0.00     0.338 C 
ATOM     35  O   UNL A   1      46.364  26.139  37.721  1.00  0.00    -0.246 OA
BRANCH  34  36
ATOM     36  C   UNL A   1      45.042  25.489  35.878  1.00  0.00     0.060 A 
ATOM     37  C   UNL A   1      45.697  26.402  35.047  1.00  0.00     0.016 A 
ATOM     38  C   UNL A   1      43.788  24.960  35.549  1.00  0.00     0.016 A 
ATOM     39  C   UNL A   1      45.029  26.899  33.949  1.00  0.00     0.010 A 
ATOM     40  C   UNL A   1      43.101  25.492  34.475  1.00  0.00     0.010 A 
ATOM     41  C   UNL A   1      43.717  26.474  33.697  1.00  0.00    -0.014 A 
BRANCH  41  42
ATOM     42  C   UNL A   1      43.113  26.903  32.428  1.00  0.00     0.031 A 
ATOM     43  C   UNL A   1      42.056  28.010  32.766  1.00  0.00     0.074 A 
ATOM     44  C   UNL A   1      43.509  26.195  31.311  1.00  0.00     0.049 A 
ATOM     45  N   UNL A   1      40.880  28.219  32.262  1.00  0.00    -0.248 NA
ATOM     46  C   UNL A   1      42.262  28.925  33.939  1.00  0.00     0.031 C 
ATOM     47  C   UNL A   1      44.639  25.225  31.250  1.00  0.00     0.029 A 
ATOM     48  N   UNL A   1      43.079  26.129  29.997  1.00  0.00    -0.354 N 
ATOM     49  C   UNL A   1      40.384  29.433  32.815  1.00  0.00     0.074 A 
ATOM     50  C   UNL A   1      41.177  29.705  33.966  1.00  0.00     0.031 C 
ATOM     51  C   UNL A   1      44.719  24.616  30.039  1.00  0.00     0.029 A 
ATOM     52  C   UNL A   1      43.678  25.127  29.164  1.00  0.00     0.049 A 
ATOM     53  H   UNL A   1      42.393  26.745  29.649  1.00  0.00     0.167 HD
ATOM     54  C   UNL A   1      39.491  30.226  32.148  1.00  0.00     0.034 A 
ATOM     55  C   UNL A   1      43.314  24.734  27.890  1.00  0.00     0.034 A 
ATOM     56  C   UNL A   1      39.210  29.602  30.898  1.00  0.00     0.049 A 
ATOM     57  C   UNL A   1      42.332  25.747  27.493  1.00  0.00     0.074 A 
ATOM     58  C   UNL A   1      38.497  28.477  30.582  1.00  0.00     0.029 A 
ATOM     59  N   UNL A   1      40.096  29.911  29.891  1.00  0.00    -0.354 N 
ATOM     60  N   UNL A   1      42.629  26.976  27.192  1.00  0.00    -0.248 NA
ATOM     61  C   UNL A   1      40.907  25.413  27.598  1.00  0.00     0.031 C 
ATOM     62  C   UNL A   1      39.351  27.852  29.657  1.00  0.00     0.029 A 
ATOM     63  C   UNL A   1      40.303  28.765  29.180  1.00  0.00     0.049 A 
ATOM     64  H   UNL A   1      40.503  30.792  29.717  1.00  0.00     0.167 HD
ATOM     65  C   UNL A   1      41.450  27.613  27.473  1.00  0.00     0.074 A 
ATOM     66  C   UNL A   1      40.403  26.617  27.347  1.00  0.00     0.031 C 
ATOM     67  C   UNL A   1      41.447  28.683  28.315  1.00  0.00     0.034 A 
BRANCH  54  68
ATOM     68  C   UNL A   1      39.011  31.655  32.258  1.00  0.00     0.023 A 
ATOM     69  C   UNL A   1      40.042  32.606  32.529  1.00  0.00     0.012 A 
ATOM     70  C   UNL A   1      37.687  32.066  32.477  1.00  0.00     0.148 A 
ATOM     71  C   UNL A   1      39.800  33.816  33.168  1.00  0.00     0.002 A 
ATOM     72  C   UNL A   1      37.443  33.318  33.056  1.00  0.00     0.091 A 
ATOM     73  F   UNL A   1      36.686  31.227  32.197  1.00  0.00    -0.205 F 
ATOM     74  C   UNL A   1      38.495  34.162  33.451  1.00  0.00     0.022 A 
BRANCH  72  75
ATOM     75  S   UNL A   1      35.796  33.959  33.375  1.00  0.00     0.127 S 
ATOM     76  O   UNL A   1      35.381  33.170  34.533  1.00  0.00    -0.237 OA
ATOM     77  O   UNL A   1      36.081  35.365  33.672  1.00  0.00    -0.237 OA
ATOM     78  O   UNL A   1      35.044  33.745  32.149  1.00  0.00    -0.744 OA
ENDBRANCH  72  75
ENDBRANCH  54  68
BRANCH  55  79
ATOM     79  C   UNL A   1      43.531  23.616  26.862  1.00  0.00     0.023 A 
ATOM     80  C   UNL A   1      44.619  23.517  25.987  1.00  0.00     0.012 A 
ATOM     81  C   UNL A   1      42.606  22.511  26.798  1.00  0.00     0.148 A 
ATOM     82  C   UNL A   1      44.818  22.357  25.189  1.00  0.00     0.002 A 
ATOM     83  C   UNL A   1      42.875  21.321  26.128  1.00  0.00     0.091 A 
ATOM     84  F   UNL A   1      41.393  22.625  27.347  1.00  0.00    -0.205 F 
ATOM     85  C   UNL A   1      43.984  21.242  25.300  1.00  0.00     0.022 A 
BRANCH  83  86
ATOM     86  S   UNL A   1      41.904  19.817  26.413  1.00  0.00     0.127 S 
ATOM     87  O   UNL A   1      42.537  18.855  25.513  1.00  0.00    -0.237 OA
ATOM     88  O   UNL A   1      42.150  19.578  27.835  1.00  0.00    -0.237 OA
ATOM     89  O   UNL A   1      40.523  20.150  26.088  1.00  0.00    -0.744 OA
ENDBRANCH  83  86
ENDBRANCH  55  79
BRANCH  67  90
ATOM     90  C   UNL A   1      42.757  29.476  28.402  1.00  0.00     0.023 A 
ATOM     91  C   UNL A   1      43.325  29.598  29.687  1.00  0.00     0.012 A 
ATOM     92  C   UNL A   1      43.407  30.176  27.351  1.00  0.00     0.148 A 
ATOM     93  C   UNL A   1      44.461  30.376  29.930  1.00  0.00     0.002 A 
ATOM     94  C   UNL A   1      44.531  30.983  27.599  1.00  0.00     0.091 A 
ATOM     95  F   UNL A   1      42.941  30.050  26.109  1.00  0.00    -0.205 F 
ATOM     96  C   UNL A   1      45.061  31.073  28.890  1.00  0.00     0.022 A 
BRANCH  94  97
ATOM     97  S   UNL A   1      45.340  32.021  26.354  1.00  0.00     0.127 S 
ATOM     98  O   UNL A   1      44.203  32.663  25.688  1.00  0.00    -0.237 OA
ATOM     99  O   UNL A   1      46.138  32.930  27.172  1.00  0.00    -0.237 OA
ATOM    100  O   UNL A   1      46.099  31.121  25.494  1.00  0.00    -0.744 OA
ENDBRANCH  94  97
ENDBRANCH  67  90
ENDBRANCH  41  42
ENDBRANCH  34  36
ENDBRANCH  33  34
ENDBRANCH  32  33
ENDBRANCH  31  32
ENDBRANCH  30  31
ENDBRANCH   1  30
TORSDOF 23
ENDMDL
