MODEL 1
REMARK VINA RESULT:     -11.3      0.000      0.000
REMARK SMILES O=C(CNc1ccccc1C(=O)N1CCCC1)OCCOCCOC(=O)c1ccc(-c2c3nc(c(-c4cccc(S(=O)(=O)[O-])c4F)c4ccc([nH]4)c(-c4cccc(S(=O)(=O)[O-])c4F)c4nc(c(-c5cccc(S(=O)(=O)[O-])c5F)c5ccc2[nH]5)C=C4)C=C3)cc1
REMARK SMILES IDX 21 1 20 2 19 3 18 4 2 5 1 6 3 7 4 8 5 10 6 11 10 12 7 13
REMARK SMILES IDX 9 14 8 15 11 16 12 17 13 18 14 19 17 20 15 21 16 22 22 23
REMARK SMILES IDX 23 24 24 25 25 26 26 27 27 28 28 29 89 30 29 31 88 32 30 33
REMARK SMILES IDX 31 34 32 35 82 36 33 37 87 38 81 39 83 40 34 41 86 42 80 43
REMARK SMILES IDX 79 44 35 46 67 47 47 48 66 49 48 50 51 51 65 52 84 53 49 54
REMARK SMILES IDX 50 55 64 57 85 58 52 59 36 60 37 61 45 62 38 63 40 64 46 65
REMARK SMILES IDX 39 66 41 67 42 68 43 69 44 70 68 71 69 72 77 73 70 74 72 75
REMARK SMILES IDX 78 76 71 77 73 78 74 79 75 80 76 81 53 82 54 83 62 84 55 85
REMARK SMILES IDX 57 86 63 87 56 88 58 89 59 90 60 91 61 92
REMARK H PARENT 4 9 83 45 51 56
REMARK Flexibility Score: inf
ROOT
ATOM      1  O   UNL A   1      34.917  20.503  24.493  1.00  0.00    -0.374 OA
ENDROOT
BRANCH   1   2
ATOM      2  C   UNL A   1      33.633  20.242  25.061  1.00  0.00     0.202 C 
BRANCH   2   3
ATOM      3  C   UNL A   1      33.255  21.206  26.179  1.00  0.00     0.261 C 
BRANCH   3   4
ATOM      4  O   UNL A   1      32.101  21.996  25.846  1.00  0.00    -0.462 OA
BRANCH   4   5
ATOM      5  C   UNL A   1      31.771  23.115  26.529  1.00  0.00     0.325 C 
ATOM      6  O   UNL A   1      31.894  23.159  27.754  1.00  0.00    -0.250 OA
BRANCH   5   7
ATOM      7  C   UNL A   1      31.182  24.289  25.769  1.00  0.00     0.236 C 
BRANCH   7   8
ATOM      8  N   UNL A   1      31.000  25.491  26.571  1.00  0.00    -0.374 N 
ATOM      9  H   UNL A   1      30.239  25.551  27.194  1.00  0.00     0.161 HD
BRANCH   8  10
ATOM     10  C   UNL A   1      31.894  26.558  26.465  1.00  0.00     0.047 A 
ATOM     11  C   UNL A   1      31.512  27.702  27.217  1.00  0.00     0.026 A 
ATOM     12  C   UNL A   1      33.174  26.565  25.857  1.00  0.00     0.063 A 
ATOM     13  C   UNL A   1      32.361  28.790  27.423  1.00  0.00     0.002 A 
ATOM     14  C   UNL A   1      33.998  27.709  26.051  1.00  0.00     0.016 A 
ATOM     15  C   UNL A   1      33.610  28.795  26.836  1.00  0.00     0.001 A 
BRANCH  12  16
ATOM     16  C   UNL A   1      33.902  25.454  25.139  1.00  0.00     0.255 C 
ATOM     17  O   UNL A   1      34.741  24.817  25.790  1.00  0.00    -0.269 OA
ATOM     18  N   UNL A   1      33.676  25.072  23.828  1.00  0.00    -0.339 N 
ATOM     19  C   UNL A   1      33.319  25.865  22.669  1.00  0.00     0.120 C 
ATOM     20  C   UNL A   1      34.144  23.773  23.392  1.00  0.00     0.120 C 
ATOM     21  C   UNL A   1      32.900  24.834  21.613  1.00  0.00     0.023 C 
ATOM     22  C   UNL A   1      33.274  23.464  22.190  1.00  0.00     0.023 C 
ENDBRANCH  12  16
ENDBRANCH   8  10
ENDBRANCH   7   8
ENDBRANCH   5   7
ENDBRANCH   4   5
ENDBRANCH   3   4
ENDBRANCH   2   3
ENDBRANCH   1   2
BRANCH   1  23
ATOM     23  C   UNL A   1      35.906  20.985  25.410  1.00  0.00     0.202 C 
BRANCH  23  24
ATOM     24  C   UNL A   1      37.293  20.445  25.070  1.00  0.00     0.261 C 
BRANCH  24  25
ATOM     25  O   UNL A   1      38.236  21.508  25.230  1.00  0.00    -0.460 OA
BRANCH  25  26
ATOM     26  C   UNL A   1      39.292  21.215  26.025  1.00  0.00     0.338 C 
ATOM     27  O   UNL A   1      39.885  20.152  26.104  1.00  0.00    -0.246 OA
BRANCH  26  28
ATOM     28  C   UNL A   1      39.777  22.482  26.613  1.00  0.00     0.060 A 
ATOM     29  C   UNL A   1      39.139  23.664  26.213  1.00  0.00     0.016 A 
ATOM     30  C   UNL A   1      40.759  22.508  27.612  1.00  0.00     0.016 A 
ATOM     31  C   UNL A   1      39.508  24.876  26.781  1.00  0.00     0.010 A 
ATOM     32  C   UNL A   1      41.132  23.723  28.179  1.00  0.00     0.010 A 
ATOM     33  C   UNL A   1      40.534  24.912  27.732  1.00  0.00    -0.014 A 
BRANCH  33  34
ATOM     34  C   UNL A   1      41.133  26.215  28.077  1.00  0.00     0.031 A 
ATOM     35  C   UNL A   1      42.545  26.470  27.630  1.00  0.00     0.074 A 
ATOM     36  C   UNL A   1      40.425  27.150  28.732  1.00  0.00     0.049 A 
ATOM     37  N   UNL A   1      43.270  27.547  27.756  1.00  0.00    -0.248 NA
ATOM     38  C   UNL A   1      43.231  25.357  26.947  1.00  0.00     0.031 C 
ATOM     39  C   UNL A   1      39.057  26.987  29.223  1.00  0.00     0.029 A 
ATOM     40  N   UNL A   1      40.771  28.419  29.110  1.00  0.00    -0.354 N 
ATOM     41  C   UNL A   1      44.494  27.243  27.172  1.00  0.00     0.074 A 
ATOM     42  C   UNL A   1      44.428  25.873  26.721  1.00  0.00     0.031 C 
ATOM     43  C   UNL A   1      38.688  28.111  29.862  1.00  0.00     0.029 A 
ATOM     44  C   UNL A   1      39.795  29.064  29.831  1.00  0.00     0.049 A 
ATOM     45  H   UNL A   1      41.637  28.832  28.886  1.00  0.00     0.167 HD
ATOM     46  C   UNL A   1      45.567  28.047  27.002  1.00  0.00     0.034 A 
ATOM     47  C   UNL A   1      39.809  30.283  30.404  1.00  0.00     0.034 A 
ATOM     48  C   UNL A   1      45.619  29.407  27.457  1.00  0.00     0.049 A 
ATOM     49  C   UNL A   1      41.024  31.155  30.209  1.00  0.00     0.074 A 
ATOM     50  C   UNL A   1      46.649  30.321  27.330  1.00  0.00     0.029 A 
ATOM     51  N   UNL A   1      44.594  30.046  28.140  1.00  0.00    -0.354 N 
ATOM     52  N   UNL A   1      42.130  30.898  29.549  1.00  0.00    -0.248 NA
ATOM     53  C   UNL A   1      40.976  32.500  30.797  1.00  0.00     0.031 C 
ATOM     54  C   UNL A   1      46.252  31.509  27.954  1.00  0.00     0.029 A 
ATOM     55  C   UNL A   1      44.966  31.343  28.444  1.00  0.00     0.049 A 
ATOM     56  H   UNL A   1      43.731  29.637  28.373  1.00  0.00     0.167 HD
ATOM     57  C   UNL A   1      42.897  32.056  29.622  1.00  0.00     0.074 A 
ATOM     58  C   UNL A   1      42.111  33.026  30.358  1.00  0.00     0.031 C 
ATOM     59  C   UNL A   1      44.144  32.296  29.144  1.00  0.00     0.034 A 
BRANCH  46  60
ATOM     60  C   UNL A   1      46.750  27.480  26.265  1.00  0.00     0.023 A 
ATOM     61  C   UNL A   1      46.843  27.648  24.868  1.00  0.00     0.012 A 
ATOM     62  C   UNL A   1      47.782  26.813  26.952  1.00  0.00     0.148 A 
ATOM     63  C   UNL A   1      47.933  27.143  24.162  1.00  0.00     0.002 A 
ATOM     64  C   UNL A   1      48.887  26.349  26.247  1.00  0.00     0.091 A 
ATOM     65  F   UNL A   1      47.660  26.638  28.275  1.00  0.00    -0.205 F 
ATOM     66  C   UNL A   1      48.959  26.504  24.851  1.00  0.00     0.022 A 
BRANCH  64  67
ATOM     67  S   UNL A   1      50.295  25.573  27.046  1.00  0.00     0.127 S 
ATOM     68  O   UNL A   1      49.696  24.343  27.569  1.00  0.00    -0.237 OA
ATOM     69  O   UNL A   1      51.212  25.375  25.925  1.00  0.00    -0.237 OA
ATOM     70  O   UNL A   1      50.756  26.515  28.056  1.00  0.00    -0.744 OA
ENDBRANCH  64  67
ENDBRANCH  46  60
BRANCH  47  71
ATOM     71  C   UNL A   1      38.631  30.762  31.182  1.00  0.00     0.023 A 
ATOM     72  C   UNL A   1      38.598  30.603  32.580  1.00  0.00     0.012 A 
ATOM     73  C   UNL A   1      37.543  31.384  30.537  1.00  0.00     0.148 A 
ATOM     74  C   UNL A   1      37.488  31.019  33.319  1.00  0.00     0.002 A 
ATOM     75  C   UNL A   1      36.467  31.848  31.285  1.00  0.00     0.091 A 
ATOM     76  F   UNL A   1      37.581  31.509  29.203  1.00  0.00    -0.205 F 
ATOM     77  C   UNL A   1      36.428  31.650  32.673  1.00  0.00     0.022 A 
BRANCH  75  78
ATOM     78  S   UNL A   1      35.128  32.792  30.547  1.00  0.00     0.127 S 
ATOM     79  O   UNL A   1      34.187  32.897  31.658  1.00  0.00    -0.237 OA
ATOM     80  O   UNL A   1      35.801  34.041  30.186  1.00  0.00    -0.237 OA
ATOM     81  O   UNL A   1      34.682  32.004  29.405  1.00  0.00    -0.744 OA
ENDBRANCH  75  78
ENDBRANCH  47  71
BRANCH  59  82
ATOM     82  C   UNL A   1      44.722  33.665  29.389  1.00  0.00     0.023 A 
ATOM     83  C   UNL A   1      45.438  33.918  30.576  1.00  0.00     0.012 A 
ATOM     84  C   UNL A   1      44.599  34.682  28.423  1.00  0.00     0.148 A 
ATOM     85  C   UNL A   1      45.983  35.177  30.818  1.00  0.00     0.002 A 
ATOM     86  C   UNL A   1      45.190  35.919  28.649  1.00  0.00     0.091 A 
ATOM     87  F   UNL A   1      43.900  34.426  27.308  1.00  0.00    -0.205 F 
ATOM     88  C   UNL A   1      45.869  36.173  29.852  1.00  0.00     0.022 A 
BRANCH  86  89
ATOM     89  S   UNL A   1      45.173  37.224  27.415  1.00  0.00     0.127 S 
ATOM     90  O   UNL A   1      45.799  38.328  28.142  1.00  0.00    -0.237 OA
ATOM     91  O   UNL A   1      45.995  36.655  26.346  1.00  0.00    -0.237 OA
ATOM     92  O   UNL A   1      43.774  37.417  27.060  1.00  0.00    -0.744 OA
ENDBRANCH  86  89
ENDBRANCH  59  82
ENDBRANCH  33  34
ENDBRANCH  26  28
ENDBRANCH  25  26
ENDBRANCH  24  25
ENDBRANCH  23  24
ENDBRANCH   1  23
TORSDOF 20
ENDMDL
MODEL 2
REMARK VINA RESULT:     -11.0      2.257      7.988
REMARK SMILES O=C(CNc1ccccc1C(=O)N1CCCC1)OCCOCCOC(=O)c1ccc(-c2c3nc(c(-c4cccc(S(=O)(=O)[O-])c4F)c4ccc([nH]4)c(-c4cccc(S(=O)(=O)[O-])c4F)c4nc(c(-c5cccc(S(=O)(=O)[O-])c5F)c5ccc2[nH]5)C=C4)C=C3)cc1
REMARK SMILES IDX 21 1 20 2 19 3 18 4 2 5 1 6 3 7 4 8 5 10 6 11 10 12 7 13
REMARK SMILES IDX 9 14 8 15 11 16 12 17 13 18 14 19 17 20 15 21 16 22 22 23
REMARK SMILES IDX 23 24 24 25 25 26 26 27 27 28 28 29 89 30 29 31 88 32 30 33
REMARK SMILES IDX 31 34 32 35 82 36 33 37 87 38 81 39 83 40 34 41 86 42 80 43
REMARK SMILES IDX 79 44 35 46 67 47 47 48 66 49 48 50 51 51 65 52 84 53 49 54
REMARK SMILES IDX 50 55 64 57 85 58 52 59 36 60 37 61 45 62 38 63 40 64 46 65
REMARK SMILES IDX 39 66 41 67 42 68 43 69 44 70 68 71 69 72 77 73 70 74 72 75
REMARK SMILES IDX 78 76 71 77 73 78 74 79 75 80 76 81 53 82 54 83 62 84 55 85
REMARK SMILES IDX 57 86 63 87 56 88 58 89 59 90 60 91 61 92
REMARK H PARENT 4 9 83 45 51 56
REMARK Flexibility Score: inf
ROOT
ATOM      1  O   UNL A   1      34.206  21.311  24.545  1.00  0.00    -0.374 OA
ENDROOT
BRANCH   1   2
ATOM      2  C   UNL A   1      33.659  22.424  23.836  1.00  0.00     0.202 C 
BRANCH   2   3
ATOM      3  C   UNL A   1      33.145  23.531  24.748  1.00  0.00     0.261 C 
BRANCH   3   4
ATOM      4  O   UNL A   1      31.829  23.249  25.254  1.00  0.00    -0.462 OA
BRANCH   4   5
ATOM      5  C   UNL A   1      31.201  24.069  26.127  1.00  0.00     0.325 C 
ATOM      6  O   UNL A   1      31.291  23.876  27.340  1.00  0.00    -0.250 OA
BRANCH   5   7
ATOM      7  C   UNL A   1      30.329  25.185  25.584  1.00  0.00     0.236 C 
BRANCH   7   8
ATOM      8  N   UNL A   1      31.064  26.243  24.903  1.00  0.00    -0.374 N 
ATOM      9  H   UNL A   1      31.417  26.087  23.997  1.00  0.00     0.161 HD
BRANCH   8  10
ATOM     10  C   UNL A   1      31.273  27.476  25.524  1.00  0.00     0.047 A 
ATOM     11  C   UNL A   1      31.807  27.373  26.838  1.00  0.00     0.026 A 
ATOM     12  C   UNL A   1      31.180  28.768  24.949  1.00  0.00     0.063 A 
ATOM     13  C   UNL A   1      32.289  28.474  27.546  1.00  0.00     0.002 A 
ATOM     14  C   UNL A   1      31.640  29.874  25.715  1.00  0.00     0.016 A 
ATOM     15  C   UNL A   1      32.204  29.731  26.984  1.00  0.00     0.001 A 
BRANCH  12  16
ATOM     16  C   UNL A   1      30.805  29.168  23.542  1.00  0.00     0.255 C 
ATOM     17  O   UNL A   1      31.473  28.680  22.620  1.00  0.00    -0.269 OA
ATOM     18  N   UNL A   1      29.753  30.002  23.205  1.00  0.00    -0.339 N 
ATOM     19  C   UNL A   1      29.214  31.156  23.897  1.00  0.00     0.120 C 
ATOM     20  C   UNL A   1      29.265  29.990  21.842  1.00  0.00     0.120 C 
ATOM     21  C   UNL A   1      27.878  31.433  23.195  1.00  0.00     0.023 C 
ATOM     22  C   UNL A   1      27.851  30.522  21.962  1.00  0.00     0.023 C 
ENDBRANCH  12  16
ENDBRANCH   8  10
ENDBRANCH   7   8
ENDBRANCH   5   7
ENDBRANCH   4   5
ENDBRANCH   3   4
ENDBRANCH   2   3
ENDBRANCH   1   2
BRANCH   1  23
ATOM     23  C   UNL A   1      35.297  21.618  25.420  1.00  0.00     0.202 C 
BRANCH  23  24
ATOM     24  C   UNL A   1      36.466  20.658  25.214  1.00  0.00     0.261 C 
BRANCH  24  25
ATOM     25  O   UNL A   1      37.652  21.434  25.023  1.00  0.00    -0.460 OA
BRANCH  25  26
ATOM     26  C   UNL A   1      38.715  21.036  25.760  1.00  0.00     0.338 C 
ATOM     27  O   UNL A   1      39.185  19.913  25.832  1.00  0.00    -0.246 OA
BRANCH  26  28
ATOM     28  C   UNL A   1      39.381  22.250  26.281  1.00  0.00     0.060 A 
ATOM     29  C   UNL A   1      38.792  23.485  25.981  1.00  0.00     0.016 A 
ATOM     30  C   UNL A   1      40.492  22.179  27.132  1.00  0.00     0.016 A 
ATOM     31  C   UNL A   1      39.336  24.654  26.498  1.00  0.00     0.010 A 
ATOM     32  C   UNL A   1      41.040  23.350  27.647  1.00  0.00     0.010 A 
ATOM     33  C   UNL A   1      40.485  24.591  27.296  1.00  0.00    -0.014 A 
BRANCH  33  34
ATOM     34  C   UNL A   1      41.232  25.835  27.560  1.00  0.00     0.031 A 
ATOM     35  C   UNL A   1      40.520  26.926  28.306  1.00  0.00     0.074 A 
ATOM     36  C   UNL A   1      42.513  25.967  27.178  1.00  0.00     0.049 A 
ATOM     37  N   UNL A   1      40.970  28.082  28.711  1.00  0.00    -0.248 NA
ATOM     38  C   UNL A   1      39.105  26.678  28.645  1.00  0.00     0.031 C 
ATOM     39  C   UNL A   1      43.282  24.970  26.432  1.00  0.00     0.029 A 
ATOM     40  N   UNL A   1      43.388  27.005  27.355  1.00  0.00    -0.354 N 
ATOM     41  C   UNL A   1      39.900  28.699  29.346  1.00  0.00     0.074 A 
ATOM     42  C   UNL A   1      38.768  27.807  29.247  1.00  0.00     0.031 C 
ATOM     43  C   UNL A   1      44.511  25.461  26.193  1.00  0.00     0.029 A 
ATOM     44  C   UNL A   1      44.610  26.802  26.762  1.00  0.00     0.049 A 
ATOM     45  H   UNL A   1      43.162  27.820  27.861  1.00  0.00     0.167 HD
ATOM     46  C   UNL A   1      39.872  29.892  29.981  1.00  0.00     0.034 A 
ATOM     47  C   UNL A   1      45.677  27.620  26.684  1.00  0.00     0.034 A 
ATOM     48  C   UNL A   1      41.005  30.769  30.070  1.00  0.00     0.049 A 
ATOM     49  C   UNL A   1      45.617  28.951  27.391  1.00  0.00     0.074 A 
ATOM     50  C   UNL A   1      41.099  31.996  30.698  1.00  0.00     0.029 A 
ATOM     51  N   UNL A   1      42.244  30.511  29.501  1.00  0.00    -0.354 N 
ATOM     52  N   UNL A   1      44.636  29.471  28.094  1.00  0.00    -0.248 NA
ATOM     53  C   UNL A   1      46.823  29.788  27.336  1.00  0.00     0.031 C 
ATOM     54  C   UNL A   1      42.392  32.490  30.492  1.00  0.00     0.029 A 
ATOM     55  C   UNL A   1      43.109  31.558  29.760  1.00  0.00     0.049 A 
ATOM     56  H   UNL A   1      42.472  29.704  28.988  1.00  0.00     0.167 HD
ATOM     57  C   UNL A   1      45.115  30.681  28.583  1.00  0.00     0.074 A 
ATOM     58  C   UNL A   1      46.486  30.797  28.127  1.00  0.00     0.031 C 
ATOM     59  C   UNL A   1      44.481  31.624  29.324  1.00  0.00     0.034 A 
BRANCH  46  60
ATOM     60  C   UNL A   1      38.587  30.291  30.654  1.00  0.00     0.023 A 
ATOM     61  C   UNL A   1      38.354  29.903  31.990  1.00  0.00     0.012 A 
ATOM     62  C   UNL A   1      37.629  31.075  29.984  1.00  0.00     0.148 A 
ATOM     63  C   UNL A   1      37.178  30.269  32.641  1.00  0.00     0.002 A 
ATOM     64  C   UNL A   1      36.477  31.472  30.653  1.00  0.00     0.091 A 
ATOM     65  F   UNL A   1      37.857  31.407  28.706  1.00  0.00    -0.205 F 
ATOM     66  C   UNL A   1      36.245  31.061  31.978  1.00  0.00     0.022 A 
BRANCH  64  67
ATOM     67  S   UNL A   1      35.245  32.548  29.914  1.00  0.00     0.127 S 
ATOM     68  O   UNL A   1      34.743  31.715  28.821  1.00  0.00    -0.237 OA
ATOM     69  O   UNL A   1      34.305  32.738  31.018  1.00  0.00    -0.237 OA
ATOM     70  O   UNL A   1      35.955  33.750  29.500  1.00  0.00    -0.744 OA
ENDBRANCH  64  67
ENDBRANCH  46  60
BRANCH  47  71
ATOM     71  C   UNL A   1      46.898  27.195  25.943  1.00  0.00     0.023 A 
ATOM     72  C   UNL A   1      47.843  26.356  26.563  1.00  0.00     0.012 A 
ATOM     73  C   UNL A   1      47.123  27.617  24.617  1.00  0.00     0.148 A 
ATOM     74  C   UNL A   1      49.007  25.974  25.891  1.00  0.00     0.002 A 
ATOM     75  C   UNL A   1      48.255  27.186  23.934  1.00  0.00     0.091 A 
ATOM     76  F   UNL A   1      46.225  28.434  24.048  1.00  0.00    -0.205 F 
ATOM     77  C   UNL A   1      49.208  26.381  24.575  1.00  0.00     0.022 A 
BRANCH  75  78
ATOM     78  S   UNL A   1      48.518  27.554  22.195  1.00  0.00     0.127 S 
ATOM     79  O   UNL A   1      49.738  28.356  22.239  1.00  0.00    -0.237 OA
ATOM     80  O   UNL A   1      48.679  26.216  21.624  1.00  0.00    -0.237 OA
ATOM     81  O   UNL A   1      47.314  28.248  21.759  1.00  0.00    -0.744 OA
ENDBRANCH  75  78
ENDBRANCH  47  71
BRANCH  59  82
ATOM     82  C   UNL A   1      45.271  32.849  29.700  1.00  0.00     0.023 A 
ATOM     83  C   UNL A   1      46.024  32.855  30.891  1.00  0.00     0.012 A 
ATOM     84  C   UNL A   1      45.308  33.972  28.851  1.00  0.00     0.148 A 
ATOM     85  C   UNL A   1      46.765  33.979  31.254  1.00  0.00     0.002 A 
ATOM     86  C   UNL A   1      46.089  35.068  29.195  1.00  0.00     0.091 A 
ATOM     87  F   UNL A   1      44.571  33.953  27.731  1.00  0.00    -0.205 F 
ATOM     88  C   UNL A   1      46.806  35.079  30.403  1.00  0.00     0.022 A 
BRANCH  86  89
ATOM     89  S   UNL A   1      46.276  36.486  28.108  1.00  0.00     0.127 S 
ATOM     90  O   UNL A   1      47.471  37.125  28.654  1.00  0.00    -0.237 OA
ATOM     91  O   UNL A   1      46.465  35.855  26.800  1.00  0.00    -0.237 OA
ATOM     92  O   UNL A   1      45.041  37.248  28.233  1.00  0.00    -0.744 OA
ENDBRANCH  86  89
ENDBRANCH  59  82
ENDBRANCH  33  34
ENDBRANCH  26  28
ENDBRANCH  25  26
ENDBRANCH  24  25
ENDBRANCH  23  24
ENDBRANCH   1  23
TORSDOF 20
ENDMDL
MODEL 3
REMARK VINA RESULT:     -11.0      1.686      2.132
REMARK SMILES O=C(CNc1ccccc1C(=O)N1CCCC1)OCCOCCOC(=O)c1ccc(-c2c3nc(c(-c4cccc(S(=O)(=O)[O-])c4F)c4ccc([nH]4)c(-c4cccc(S(=O)(=O)[O-])c4F)c4nc(c(-c5cccc(S(=O)(=O)[O-])c5F)c5ccc2[nH]5)C=C4)C=C3)cc1
REMARK SMILES IDX 21 1 20 2 19 3 18 4 2 5 1 6 3 7 4 8 5 10 6 11 10 12 7 13
REMARK SMILES IDX 9 14 8 15 11 16 12 17 13 18 14 19 17 20 15 21 16 22 22 23
REMARK SMILES IDX 23 24 24 25 25 26 26 27 27 28 28 29 89 30 29 31 88 32 30 33
REMARK SMILES IDX 31 34 32 35 82 36 33 37 87 38 81 39 83 40 34 41 86 42 80 43
REMARK SMILES IDX 79 44 35 46 67 47 47 48 66 49 48 50 51 51 65 52 84 53 49 54
REMARK SMILES IDX 50 55 64 57 85 58 52 59 36 60 37 61 45 62 38 63 40 64 46 65
REMARK SMILES IDX 39 66 41 67 42 68 43 69 44 70 68 71 69 72 77 73 70 74 72 75
REMARK SMILES IDX 78 76 71 77 73 78 74 79 75 80 76 81 53 82 54 83 62 84 55 85
REMARK SMILES IDX 57 86 63 87 56 88 58 89 59 90 60 91 61 92
REMARK H PARENT 4 9 83 45 51 56
REMARK Flexibility Score: inf
ROOT
ATOM      1  O   UNL A   1      35.158  20.608  24.674  1.00  0.00    -0.374 OA
ENDROOT
BRANCH   1   2
ATOM      2  C   UNL A   1      33.903  20.741  25.342  1.00  0.00     0.202 C 
BRANCH   2   3
ATOM      3  C   UNL A   1      33.712  22.095  26.014  1.00  0.00     0.261 C 
BRANCH   3   4
ATOM      4  O   UNL A   1      33.335  23.117  25.075  1.00  0.00    -0.462 OA
BRANCH   4   5
ATOM      5  C   UNL A   1      34.162  24.135  24.748  1.00  0.00     0.325 C 
ATOM      6  O   UNL A   1      35.191  24.337  25.393  1.00  0.00    -0.250 OA
BRANCH   5   7
ATOM      7  C   UNL A   1      33.763  25.067  23.618  1.00  0.00     0.236 C 
BRANCH   7   8
ATOM      8  N   UNL A   1      32.488  25.741  23.820  1.00  0.00    -0.374 N 
ATOM      9  H   UNL A   1      31.657  25.321  23.500  1.00  0.00     0.161 HD
BRANCH   8  10
ATOM     10  C   UNL A   1      32.433  26.979  24.464  1.00  0.00     0.047 A 
ATOM     11  C   UNL A   1      33.678  27.399  25.005  1.00  0.00     0.026 A 
ATOM     12  C   UNL A   1      31.359  27.903  24.485  1.00  0.00     0.063 A 
ATOM     13  C   UNL A   1      33.894  28.688  25.496  1.00  0.00     0.002 A 
ATOM     14  C   UNL A   1      31.600  29.194  25.031  1.00  0.00     0.016 A 
ATOM     15  C   UNL A   1      32.850  29.590  25.510  1.00  0.00     0.001 A 
BRANCH  12  16
ATOM     16  C   UNL A   1      29.989  27.798  23.858  1.00  0.00     0.255 C 
ATOM     17  O   UNL A   1      29.326  26.785  24.117  1.00  0.00    -0.269 OA
ATOM     18  N   UNL A   1      29.408  28.761  23.051  1.00  0.00    -0.339 N 
ATOM     19  C   UNL A   1      30.007  29.661  22.086  1.00  0.00     0.120 C 
ATOM     20  C   UNL A   1      27.976  28.721  22.842  1.00  0.00     0.120 C 
ATOM     21  C   UNL A   1      28.903  30.681  21.776  1.00  0.00     0.023 C 
ATOM     22  C   UNL A   1      27.631  30.141  22.441  1.00  0.00     0.023 C 
ENDBRANCH  12  16
ENDBRANCH   8  10
ENDBRANCH   7   8
ENDBRANCH   5   7
ENDBRANCH   4   5
ENDBRANCH   3   4
ENDBRANCH   2   3
ENDBRANCH   1   2
BRANCH   1  23
ATOM     23  C   UNL A   1      36.294  21.084  25.405  1.00  0.00     0.202 C 
BRANCH  23  24
ATOM     24  C   UNL A   1      37.557  20.306  25.043  1.00  0.00     0.261 C 
BRANCH  24  25
ATOM     25  O   UNL A   1      38.670  21.200  25.124  1.00  0.00    -0.460 OA
BRANCH  25  26
ATOM     26  C   UNL A   1      39.552  20.920  26.112  1.00  0.00     0.338 C 
ATOM     27  O   UNL A   1      40.050  19.838  26.373  1.00  0.00    -0.246 OA
BRANCH  26  28
ATOM     28  C   UNL A   1      40.013  22.205  26.680  1.00  0.00     0.060 A 
ATOM     29  C   UNL A   1      39.377  23.371  26.234  1.00  0.00     0.016 A 
ATOM     30  C   UNL A   1      40.969  22.263  27.703  1.00  0.00     0.016 A 
ATOM     31  C   UNL A   1      39.724  24.601  26.781  1.00  0.00     0.010 A 
ATOM     32  C   UNL A   1      41.320  23.495  28.248  1.00  0.00     0.010 A 
ATOM     33  C   UNL A   1      40.726  24.668  27.757  1.00  0.00    -0.014 A 
BRANCH  33  34
ATOM     34  C   UNL A   1      41.306  25.983  28.083  1.00  0.00     0.031 A 
ATOM     35  C   UNL A   1      42.714  26.251  27.634  1.00  0.00     0.074 A 
ATOM     36  C   UNL A   1      40.585  26.917  28.726  1.00  0.00     0.049 A 
ATOM     37  N   UNL A   1      43.425  27.340  27.744  1.00  0.00    -0.248 NA
ATOM     38  C   UNL A   1      43.416  25.138  26.966  1.00  0.00     0.031 C 
ATOM     39  C   UNL A   1      39.219  26.743  29.218  1.00  0.00     0.029 A 
ATOM     40  N   UNL A   1      40.914  28.197  29.086  1.00  0.00    -0.354 N 
ATOM     41  C   UNL A   1      44.653  27.045  27.165  1.00  0.00     0.074 A 
ATOM     42  C   UNL A   1      44.606  25.667  26.733  1.00  0.00     0.031 C 
ATOM     43  C   UNL A   1      38.836  27.871  29.842  1.00  0.00     0.029 A 
ATOM     44  C   UNL A   1      39.929  28.838  29.797  1.00  0.00     0.049 A 
ATOM     45  H   UNL A   1      41.775  28.618  28.856  1.00  0.00     0.167 HD
ATOM     46  C   UNL A   1      45.716  27.860  26.984  1.00  0.00     0.034 A 
ATOM     47  C   UNL A   1      39.927  30.065  30.353  1.00  0.00     0.034 A 
ATOM     48  C   UNL A   1      45.749  29.227  27.420  1.00  0.00     0.049 A 
ATOM     49  C   UNL A   1      41.130  30.951  30.147  1.00  0.00     0.074 A 
ATOM     50  C   UNL A   1      46.766  30.153  27.281  1.00  0.00     0.029 A 
ATOM     51  N   UNL A   1      44.715  29.862  28.094  1.00  0.00    -0.354 N 
ATOM     52  N   UNL A   1      42.239  30.700  29.491  1.00  0.00    -0.248 NA
ATOM     53  C   UNL A   1      41.064  32.303  30.716  1.00  0.00     0.031 C 
ATOM     54  C   UNL A   1      46.353  31.344  27.888  1.00  0.00     0.029 A 
ATOM     55  C   UNL A   1      45.069  31.167  28.380  1.00  0.00     0.049 A 
ATOM     56  H   UNL A   1      43.857  29.444  28.333  1.00  0.00     0.167 HD
ATOM     57  C   UNL A   1      42.990  31.868  29.547  1.00  0.00     0.074 A 
ATOM     58  C   UNL A   1      42.191  32.838  30.270  1.00  0.00     0.031 C 
ATOM     59  C   UNL A   1      44.234  32.119  29.067  1.00  0.00     0.034 A 
BRANCH  46  60
ATOM     60  C   UNL A   1      46.907  27.299  26.255  1.00  0.00     0.023 A 
ATOM     61  C   UNL A   1      46.994  27.444  24.855  1.00  0.00     0.012 A 
ATOM     62  C   UNL A   1      47.950  26.662  26.951  1.00  0.00     0.148 A 
ATOM     63  C   UNL A   1      48.091  26.944  24.156  1.00  0.00     0.002 A 
ATOM     64  C   UNL A   1      49.061  26.203  26.253  1.00  0.00     0.091 A 
ATOM     65  F   UNL A   1      47.833  26.508  28.278  1.00  0.00    -0.205 F 
ATOM     66  C   UNL A   1      49.128  26.334  24.855  1.00  0.00     0.022 A 
BRANCH  64  67
ATOM     67  S   UNL A   1      50.482  25.463  27.064  1.00  0.00     0.127 S 
ATOM     68  O   UNL A   1      49.892  24.264  27.660  1.00  0.00    -0.237 OA
ATOM     69  O   UNL A   1      51.377  25.206  25.936  1.00  0.00    -0.237 OA
ATOM     70  O   UNL A   1      50.966  26.454  28.015  1.00  0.00    -0.744 OA
ENDBRANCH  64  67
ENDBRANCH  46  60
BRANCH  47  71
ATOM     71  C   UNL A   1      38.742  30.539  31.124  1.00  0.00     0.023 A 
ATOM     72  C   UNL A   1      38.684  30.344  32.517  1.00  0.00     0.012 A 
ATOM     73  C   UNL A   1      37.673  31.191  30.479  1.00  0.00     0.148 A 
ATOM     74  C   UNL A   1      37.567  30.754  33.248  1.00  0.00     0.002 A 
ATOM     75  C   UNL A   1      36.590  31.650  31.221  1.00  0.00     0.091 A 
ATOM     76  F   UNL A   1      37.734  31.350  29.149  1.00  0.00    -0.205 F 
ATOM     77  C   UNL A   1      36.526  31.416  32.602  1.00  0.00     0.022 A 
BRANCH  75  78
ATOM     78  S   UNL A   1      35.275  32.629  30.486  1.00  0.00     0.127 S 
ATOM     79  O   UNL A   1      34.329  32.740  31.593  1.00  0.00    -0.237 OA
ATOM     80  O   UNL A   1      35.975  33.868  30.145  1.00  0.00    -0.237 OA
ATOM     81  O   UNL A   1      34.821  31.864  29.332  1.00  0.00    -0.744 OA
ENDBRANCH  75  78
ENDBRANCH  47  71
BRANCH  59  82
ATOM     82  C   UNL A   1      44.793  33.498  29.292  1.00  0.00     0.023 A 
ATOM     83  C   UNL A   1      45.532  33.769  30.462  1.00  0.00     0.012 A 
ATOM     84  C   UNL A   1      44.631  34.509  28.325  1.00  0.00     0.148 A 
ATOM     85  C   UNL A   1      46.060  35.039  30.686  1.00  0.00     0.002 A 
ATOM     86  C   UNL A   1      45.205  35.757  28.533  1.00  0.00     0.091 A 
ATOM     87  F   UNL A   1      43.911  34.236  27.228  1.00  0.00    -0.205 F 
ATOM     88  C   UNL A   1      45.907  36.029  29.719  1.00  0.00     0.022 A 
BRANCH  86  89
ATOM     89  S   UNL A   1      45.138  37.056  27.294  1.00  0.00     0.127 S 
ATOM     90  O   UNL A   1      45.697  38.193  28.025  1.00  0.00    -0.237 OA
ATOM     91  O   UNL A   1      46.001  36.526  26.238  1.00  0.00    -0.237 OA
ATOM     92  O   UNL A   1      43.735  37.176  26.921  1.00  0.00    -0.744 OA
ENDBRANCH  86  89
ENDBRANCH  59  82
ENDBRANCH  33  34
ENDBRANCH  26  28
ENDBRANCH  25  26
ENDBRANCH  24  25
ENDBRANCH  23  24
ENDBRANCH   1  23
TORSDOF 20
ENDMDL
