MODEL 1
REMARK VINA RESULT:     -11.5      0.000      0.000
REMARK SMILES Cc1nc(NC(=O)[C@@H]2CCC[C@@H](C(=O)OCCOCCOC(=O)c3ccc(-c4c5nc(c(-c6cccc(S(=O)(=O)[O-])c6F)c6ccc([nH]6)c(-c6cccc(S(=O)(=O)[O-])c6F)c6nc(c(-c7cccc(S(=O)(=O)[O-])c7F)c7ccc4[nH]7)C=C6)C=C5)cc3)C2)ccc1Br
REMARK SMILES IDX 19 1 18 2 17 3 16 4 15 5 13 6 14 7 12 8 8 9 9 10 87 11 10 12
REMARK SMILES IDX 11 13 6 14 5 15 7 17 4 18 1 19 2 20 3 21 90 22 89 23 91 24
REMARK SMILES IDX 88 25 20 26 21 27 22 28 23 29 24 30 25 31 86 32 26 33 85 34
REMARK SMILES IDX 27 35 28 36 29 37 79 38 30 39 84 40 78 41 80 42 31 43 83 44
REMARK SMILES IDX 77 45 76 46 32 48 64 49 44 50 63 51 45 52 48 53 62 54 81 55
REMARK SMILES IDX 46 56 47 57 61 59 82 60 49 61 33 62 34 63 42 64 35 65 37 66
REMARK SMILES IDX 43 67 36 68 38 69 39 70 40 71 41 72 65 73 66 74 74 75 67 76
REMARK SMILES IDX 69 77 75 78 68 79 70 80 71 81 72 82 73 83 50 84 51 85 59 86
REMARK SMILES IDX 52 87 54 88 60 89 53 90 55 91 56 92 57 93 58 94
REMARK H PARENT 5 16 80 47 48 58
REMARK Flexibility Score: inf
ROOT
ATOM      1  C   UNL A   1      31.791  31.923  26.807  1.00  0.00     0.202 C 
ENDROOT
BRANCH   1   2
ATOM      2  O   UNL A   1      32.462  30.750  27.243  1.00  0.00    -0.374 OA
BRANCH   2   3
ATOM      3  C   UNL A   1      33.154  29.969  26.278  1.00  0.00     0.202 C 
BRANCH   3   4
ATOM      4  C   UNL A   1      33.120  28.440  26.375  1.00  0.00     0.261 C 
BRANCH   4   5
ATOM      5  O   UNL A   1      31.828  27.825  26.197  1.00  0.00    -0.463 OA
BRANCH   5   6
ATOM      6  C   UNL A   1      31.544  27.465  24.915  1.00  0.00     0.309 C 
ATOM      7  O   UNL A   1      30.912  28.158  24.124  1.00  0.00    -0.252 OA
BRANCH   6   8
ATOM      8  C   UNL A   1      32.122  26.115  24.508  1.00  0.00     0.100 C 
ATOM      9  C   UNL A   1      30.895  24.176  25.659  1.00  0.00     0.080 C 
ATOM     10  C   UNL A   1      30.869  23.483  24.293  1.00  0.00     0.013 C 
ATOM     11  C   UNL A   1      32.122  25.102  25.678  1.00  0.00     0.028 C 
ATOM     12  C   UNL A   1      30.509  24.532  23.248  1.00  0.00     0.002 C 
ATOM     13  C   UNL A   1      31.600  25.592  23.157  1.00  0.00     0.015 C 
BRANCH   9  14
ATOM     14  C   UNL A   1      30.815  23.178  26.814  1.00  0.00     0.228 C 
ATOM     15  N   UNL A   1      31.796  22.248  27.038  1.00  0.00    -0.310 N 
ATOM     16  H   UNL A   1      31.564  21.631  27.770  1.00  0.00     0.171 HD
ATOM     17  O   UNL A   1      29.836  23.175  27.568  1.00  0.00    -0.274 OA
BRANCH  15  18
ATOM     18  C   UNL A   1      33.049  21.958  26.480  1.00  0.00     0.132 A 
ATOM     19  C   UNL A   1      34.310  19.120  24.488  1.00  0.00     0.068 C 
ATOM     20  C   UNL A   1      34.333  20.359  25.336  1.00  0.00     0.054 A 
ATOM     21  N   UNL A   1      33.121  20.771  25.838  1.00  0.00    -0.235 NA
ATOM     22  C   UNL A   1      35.502  21.089  25.520  1.00  0.00     0.039 A 
ATOM     23  C   UNL A   1      35.408  22.297  26.182  1.00  0.00     0.021 A 
ATOM     24  Br  UNL A   1      37.204  20.577  24.873  1.00  0.00    -0.049 Br
ATOM     25  C   UNL A   1      34.165  22.762  26.586  1.00  0.00     0.048 A 
ENDBRANCH  15  18
ENDBRANCH   9  14
ENDBRANCH   6   8
ENDBRANCH   5   6
ENDBRANCH   4   5
ENDBRANCH   3   4
ENDBRANCH   2   3
ENDBRANCH   1   2
BRANCH   1  26
ATOM     26  C   UNL A   1      32.198  33.281  27.399  1.00  0.00     0.261 C 
BRANCH  26  27
ATOM     27  O   UNL A   1      33.602  33.564  27.354  1.00  0.00    -0.460 OA
BRANCH  27  28
ATOM     28  C   UNL A   1      34.145  33.885  28.560  1.00  0.00     0.338 C 
ATOM     29  O   UNL A   1      33.729  34.682  29.378  1.00  0.00    -0.246 OA
BRANCH  28  30
ATOM     30  C   UNL A   1      35.327  33.041  28.786  1.00  0.00     0.060 A 
ATOM     31  C   UNL A   1      35.171  31.722  29.216  1.00  0.00     0.016 A 
ATOM     32  C   UNL A   1      36.594  33.601  28.659  1.00  0.00     0.016 A 
ATOM     33  C   UNL A   1      36.299  30.965  29.531  1.00  0.00     0.010 A 
ATOM     34  C   UNL A   1      37.725  32.839  28.932  1.00  0.00     0.010 A 
ATOM     35  C   UNL A   1      37.577  31.534  29.421  1.00  0.00    -0.014 A 
BRANCH  35  36
ATOM     36  C   UNL A   1      38.736  30.849  30.030  1.00  0.00     0.031 A 
ATOM     37  C   UNL A   1      39.133  31.226  31.431  1.00  0.00     0.074 A 
ATOM     38  C   UNL A   1      39.404  29.896  29.357  1.00  0.00     0.049 A 
ATOM     39  N   UNL A   1      40.082  30.732  32.179  1.00  0.00    -0.248 NA
ATOM     40  C   UNL A   1      38.363  32.307  32.077  1.00  0.00     0.031 C 
ATOM     41  C   UNL A   1      39.117  29.467  27.989  1.00  0.00     0.029 A 
ATOM     42  N   UNL A   1      40.470  29.122  29.737  1.00  0.00    -0.354 N 
ATOM     43  C   UNL A   1      40.030  31.446  33.370  1.00  0.00     0.074 A 
ATOM     44  C   UNL A   1      38.984  32.431  33.240  1.00  0.00     0.031 C 
ATOM     45  C   UNL A   1      39.987  28.502  27.643  1.00  0.00     0.029 A 
ATOM     46  C   UNL A   1      40.897  28.255  28.760  1.00  0.00     0.049 A 
ATOM     47  H   UNL A   1      40.891  29.182  30.625  1.00  0.00     0.167 HD
ATOM     48  C   UNL A   1      40.768  31.270  34.488  1.00  0.00     0.034 A 
ATOM     49  C   UNL A   1      41.905  27.362  28.772  1.00  0.00     0.034 A 
ATOM     50  C   UNL A   1      41.782  30.267  34.626  1.00  0.00     0.049 A 
ATOM     51  C   UNL A   1      42.723  27.193  30.023  1.00  0.00     0.074 A 
ATOM     52  C   UNL A   1      42.549  29.973  35.737  1.00  0.00     0.029 A 
ATOM     53  N   UNL A   1      42.173  29.399  33.620  1.00  0.00    -0.354 N 
ATOM     54  N   UNL A   1      42.591  27.804  31.176  1.00  0.00    -0.248 NA
ATOM     55  C   UNL A   1      43.803  26.197  29.991  1.00  0.00     0.031 C 
ATOM     56  C   UNL A   1      43.421  28.937  35.396  1.00  0.00     0.029 A 
ATOM     57  C   UNL A   1      43.179  28.573  34.080  1.00  0.00     0.049 A 
ATOM     58  H   UNL A   1      41.790  29.373  32.713  1.00  0.00     0.167 HD
ATOM     59  C   UNL A   1      43.553  27.251  32.013  1.00  0.00     0.074 A 
ATOM     60  C   UNL A   1      44.255  26.249  31.238  1.00  0.00     0.031 C 
ATOM     61  C   UNL A   1      43.833  27.552  33.304  1.00  0.00     0.034 A 
BRANCH  48  62
ATOM     62  C   UNL A   1      40.474  32.141  35.675  1.00  0.00     0.023 A 
ATOM     63  C   UNL A   1      41.272  33.278  35.909  1.00  0.00     0.012 A 
ATOM     64  C   UNL A   1      39.355  31.893  36.491  1.00  0.00     0.148 A 
ATOM     65  C   UNL A   1      40.960  34.158  36.943  1.00  0.00     0.002 A 
ATOM     66  C   UNL A   1      39.033  32.791  37.501  1.00  0.00     0.091 A 
ATOM     67  F   UNL A   1      38.626  30.793  36.256  1.00  0.00    -0.205 F 
ATOM     68  C   UNL A   1      39.835  33.922  37.729  1.00  0.00     0.022 A 
BRANCH  66  69
ATOM     69  S   UNL A   1      37.581  32.606  38.540  1.00  0.00     0.127 S 
ATOM     70  O   UNL A   1      37.790  33.664  39.528  1.00  0.00    -0.237 OA
ATOM     71  O   UNL A   1      36.496  32.859  37.594  1.00  0.00    -0.237 OA
ATOM     72  O   UNL A   1      37.632  31.251  39.072  1.00  0.00    -0.744 OA
ENDBRANCH  66  69
ENDBRANCH  48  62
BRANCH  49  73
ATOM     73  C   UNL A   1      42.143  26.516  27.571  1.00  0.00     0.023 A 
ATOM     74  C   UNL A   1      42.861  27.047  26.483  1.00  0.00     0.012 A 
ATOM     75  C   UNL A   1      41.726  25.172  27.535  1.00  0.00     0.148 A 
ATOM     76  C   UNL A   1      43.160  26.252  25.376  1.00  0.00     0.002 A 
ATOM     77  C   UNL A   1      42.055  24.376  26.445  1.00  0.00     0.091 A 
ATOM     78  F   UNL A   1      41.044  24.693  28.585  1.00  0.00    -0.205 F 
ATOM     79  C   UNL A   1      42.766  24.916  25.360  1.00  0.00     0.022 A 
BRANCH  77  80
ATOM     80  S   UNL A   1      41.674  22.622  26.373  1.00  0.00     0.127 S 
ATOM     81  O   UNL A   1      42.330  22.225  25.128  1.00  0.00    -0.237 OA
ATOM     82  O   UNL A   1      42.314  22.128  27.592  1.00  0.00    -0.237 OA
ATOM     83  O   UNL A   1      40.221  22.531  26.369  1.00  0.00    -0.744 OA
ENDBRANCH  77  80
ENDBRANCH  49  73
BRANCH  61  84
ATOM     84  C   UNL A   1      44.932  26.793  33.994  1.00  0.00     0.023 A 
ATOM     85  C   UNL A   1      46.244  27.300  33.962  1.00  0.00     0.012 A 
ATOM     86  C   UNL A   1      44.629  25.681  34.804  1.00  0.00     0.148 A 
ATOM     87  C   UNL A   1      47.245  26.707  34.730  1.00  0.00     0.002 A 
ATOM     88  C   UNL A   1      45.623  25.116  35.591  1.00  0.00     0.091 A 
ATOM     89  F   UNL A   1      43.368  25.224  34.812  1.00  0.00    -0.205 F 
ATOM     90  C   UNL A   1      46.932  25.626  35.553  1.00  0.00     0.022 A 
BRANCH  88  91
ATOM     91  S   UNL A   1      45.304  23.771  36.737  1.00  0.00     0.127 S 
ATOM     92  O   UNL A   1      46.647  23.482  37.236  1.00  0.00    -0.237 OA
ATOM     93  O   UNL A   1      44.413  24.402  37.711  1.00  0.00    -0.237 OA
ATOM     94  O   UNL A   1      44.695  22.705  35.953  1.00  0.00    -0.744 OA
ENDBRANCH  88  91
ENDBRANCH  61  84
ENDBRANCH  35  36
ENDBRANCH  28  30
ENDBRANCH  27  28
ENDBRANCH  26  27
ENDBRANCH   1  26
TORSDOF 19
ENDMDL
MODEL 2
REMARK VINA RESULT:     -10.9      1.723      2.450
REMARK SMILES Cc1nc(NC(=O)[C@@H]2CCC[C@@H](C(=O)OCCOCCOC(=O)c3ccc(-c4c5nc(c(-c6cccc(S(=O)(=O)[O-])c6F)c6ccc([nH]6)c(-c6cccc(S(=O)(=O)[O-])c6F)c6nc(c(-c7cccc(S(=O)(=O)[O-])c7F)c7ccc4[nH]7)C=C6)C=C5)cc3)C2)ccc1Br
REMARK SMILES IDX 19 1 18 2 17 3 16 4 15 5 13 6 14 7 12 8 8 9 9 10 87 11 10 12
REMARK SMILES IDX 11 13 6 14 5 15 7 17 4 18 1 19 2 20 3 21 90 22 89 23 91 24
REMARK SMILES IDX 88 25 20 26 21 27 22 28 23 29 24 30 25 31 86 32 26 33 85 34
REMARK SMILES IDX 27 35 28 36 29 37 79 38 30 39 84 40 78 41 80 42 31 43 83 44
REMARK SMILES IDX 77 45 76 46 32 48 64 49 44 50 63 51 45 52 48 53 62 54 81 55
REMARK SMILES IDX 46 56 47 57 61 59 82 60 49 61 33 62 34 63 42 64 35 65 37 66
REMARK SMILES IDX 43 67 36 68 38 69 39 70 40 71 41 72 65 73 66 74 74 75 67 76
REMARK SMILES IDX 69 77 75 78 68 79 70 80 71 81 72 82 73 83 50 84 51 85 59 86
REMARK SMILES IDX 52 87 54 88 60 89 53 90 55 91 56 92 57 93 58 94
REMARK H PARENT 5 16 80 47 48 58
REMARK Flexibility Score: inf
ROOT
ATOM      1  C   UNL A   1      30.876  31.075  25.619  1.00  0.00     0.202 C 
ENDROOT
BRANCH   1   2
ATOM      2  O   UNL A   1      30.844  30.071  24.615  1.00  0.00    -0.374 OA
BRANCH   2   3
ATOM      3  C   UNL A   1      31.065  28.721  25.002  1.00  0.00     0.202 C 
BRANCH   3   4
ATOM      4  C   UNL A   1      31.532  27.700  23.959  1.00  0.00     0.261 C 
BRANCH   4   5
ATOM      5  O   UNL A   1      31.184  26.325  24.222  1.00  0.00    -0.463 OA
BRANCH   5   6
ATOM      6  C   UNL A   1      32.159  25.603  24.839  1.00  0.00     0.309 C 
ATOM      7  O   UNL A   1      32.005  24.985  25.888  1.00  0.00    -0.252 OA
BRANCH   6   8
ATOM      8  C   UNL A   1      33.485  25.582  24.088  1.00  0.00     0.100 C 
ATOM      9  C   UNL A   1      34.960  23.616  24.829  1.00  0.00     0.080 C 
ATOM     10  C   UNL A   1      35.228  23.356  23.343  1.00  0.00     0.013 C 
ATOM     11  C   UNL A   1      34.657  25.115  24.984  1.00  0.00     0.028 C 
ATOM     12  C   UNL A   1      33.905  23.507  22.601  1.00  0.00     0.002 C 
ATOM     13  C   UNL A   1      33.402  24.943  22.689  1.00  0.00     0.015 C 
BRANCH   9  14
ATOM     14  C   UNL A   1      36.083  23.083  25.718  1.00  0.00     0.228 C 
ATOM     15  N   UNL A   1      36.322  21.741  25.859  1.00  0.00    -0.310 N 
ATOM     16  H   UNL A   1      37.026  21.556  26.521  1.00  0.00     0.171 HD
ATOM     17  O   UNL A   1      36.795  23.865  26.358  1.00  0.00    -0.274 OA
BRANCH  15  18
ATOM     18  C   UNL A   1      35.809  20.566  25.291  1.00  0.00     0.132 A 
ATOM     19  C   UNL A   1      32.398  19.515  24.361  1.00  0.00     0.068 C 
ATOM     20  C   UNL A   1      33.862  19.409  24.671  1.00  0.00     0.054 A 
ATOM     21  N   UNL A   1      34.467  20.552  25.137  1.00  0.00    -0.235 NA
ATOM     22  C   UNL A   1      34.575  18.243  24.412  1.00  0.00     0.039 A 
ATOM     23  C   UNL A   1      35.945  18.277  24.579  1.00  0.00     0.021 A 
ATOM     24  Br  UNL A   1      33.810  16.631  23.786  1.00  0.00    -0.049 Br
ATOM     25  C   UNL A   1      36.562  19.466  24.938  1.00  0.00     0.048 A 
ENDBRANCH  15  18
ENDBRANCH   9  14
ENDBRANCH   6   8
ENDBRANCH   5   6
ENDBRANCH   4   5
ENDBRANCH   3   4
ENDBRANCH   2   3
ENDBRANCH   1   2
BRANCH   1  26
ATOM     26  C   UNL A   1      31.758  30.864  26.859  1.00  0.00     0.261 C 
BRANCH  26  27
ATOM     27  O   UNL A   1      33.166  30.995  26.629  1.00  0.00    -0.460 OA
BRANCH  27  28
ATOM     28  C   UNL A   1      33.783  31.891  27.447  1.00  0.00     0.338 C 
ATOM     29  O   UNL A   1      33.345  32.943  27.868  1.00  0.00    -0.246 OA
BRANCH  28  30
ATOM     30  C   UNL A   1      35.095  31.351  27.833  1.00  0.00     0.060 A 
ATOM     31  C   UNL A   1      35.258  29.977  28.017  1.00  0.00     0.016 A 
ATOM     32  C   UNL A   1      36.137  32.233  28.105  1.00  0.00     0.016 A 
ATOM     33  C   UNL A   1      36.475  29.488  28.488  1.00  0.00     0.010 A 
ATOM     34  C   UNL A   1      37.367  31.748  28.535  1.00  0.00     0.010 A 
ATOM     35  C   UNL A   1      37.521  30.376  28.780  1.00  0.00    -0.014 A 
BRANCH  35  36
ATOM     36  C   UNL A   1      38.690  29.901  29.551  1.00  0.00     0.031 A 
ATOM     37  C   UNL A   1      38.846  30.372  30.972  1.00  0.00     0.074 A 
ATOM     38  C   UNL A   1      39.577  29.053  29.003  1.00  0.00     0.049 A 
ATOM     39  N   UNL A   1      39.761  30.054  31.847  1.00  0.00    -0.248 NA
ATOM     40  C   UNL A   1      37.842  31.329  31.475  1.00  0.00     0.031 C 
ATOM     41  C   UNL A   1      39.532  28.550  27.631  1.00  0.00     0.029 A 
ATOM     42  N   UNL A   1      40.696  28.470  29.540  1.00  0.00    -0.354 N 
ATOM     43  C   UNL A   1      39.452  30.778  32.991  1.00  0.00     0.074 A 
ATOM     44  C   UNL A   1      38.287  31.579  32.696  1.00  0.00     0.031 C 
ATOM     45  C   UNL A   1      40.578  27.731  27.433  1.00  0.00     0.029 A 
ATOM     46  C   UNL A   1      41.371  27.660  28.659  1.00  0.00     0.049 A 
ATOM     47  H   UNL A   1      40.989  28.618  30.469  1.00  0.00     0.167 HD
ATOM     48  C   UNL A   1      40.064  30.751  34.195  1.00  0.00     0.034 A 
ATOM     49  C   UNL A   1      42.498  26.941  28.829  1.00  0.00     0.034 A 
ATOM     50  C   UNL A   1      41.198  29.928  34.496  1.00  0.00     0.049 A 
ATOM     51  C   UNL A   1      43.171  26.936  30.174  1.00  0.00     0.074 A 
ATOM     52  C   UNL A   1      41.858  29.787  35.702  1.00  0.00     0.029 A 
ATOM     53  N   UNL A   1      41.841  29.110  33.581  1.00  0.00    -0.354 N 
ATOM     54  N   UNL A   1      42.803  27.546  31.276  1.00  0.00    -0.248 NA
ATOM     55  C   UNL A   1      44.390  26.127  30.313  1.00  0.00     0.031 C 
ATOM     56  C   UNL A   1      42.917  28.898  35.512  1.00  0.00     0.029 A 
ATOM     57  C   UNL A   1      42.899  28.468  34.193  1.00  0.00     0.049 A 
ATOM     58  H   UNL A   1      41.582  29.002  32.638  1.00  0.00     0.167 HD
ATOM     59  C   UNL A   1      43.729  27.175  32.244  1.00  0.00     0.074 A 
ATOM     60  C   UNL A   1      44.670  26.280  31.601  1.00  0.00     0.031 C 
ATOM     61  C   UNL A   1      43.797  27.548  33.545  1.00  0.00     0.034 A 
BRANCH  48  62
ATOM     62  C   UNL A   1      39.492  31.591  35.301  1.00  0.00     0.023 A 
ATOM     63  C   UNL A   1      38.505  31.041  36.142  1.00  0.00     0.012 A 
ATOM     64  C   UNL A   1      40.000  32.876  35.566  1.00  0.00     0.148 A 
ATOM     65  C   UNL A   1      38.030  31.762  37.236  1.00  0.00     0.002 A 
ATOM     66  C   UNL A   1      39.542  33.576  36.676  1.00  0.00     0.091 A 
ATOM     67  F   UNL A   1      40.924  33.381  34.737  1.00  0.00    -0.205 F 
ATOM     68  C   UNL A   1      38.556  33.021  37.510  1.00  0.00     0.022 A 
BRANCH  66  69
ATOM     69  S   UNL A   1      40.188  35.184  37.145  1.00  0.00     0.127 S 
ATOM     70  O   UNL A   1      39.925  35.969  35.939  1.00  0.00    -0.237 OA
ATOM     71  O   UNL A   1      39.349  35.526  38.292  1.00  0.00    -0.237 OA
ATOM     72  O   UNL A   1      41.598  34.982  37.450  1.00  0.00    -0.744 OA
ENDBRANCH  66  69
ENDBRANCH  48  62
BRANCH  49  73
ATOM     73  C   UNL A   1      43.012  26.117  27.702  1.00  0.00     0.023 A 
ATOM     74  C   UNL A   1      44.037  26.626  26.884  1.00  0.00     0.012 A 
ATOM     75  C   UNL A   1      42.542  24.806  27.487  1.00  0.00     0.148 A 
ATOM     76  C   UNL A   1      44.586  25.846  25.866  1.00  0.00     0.002 A 
ATOM     77  C   UNL A   1      43.116  24.021  26.495  1.00  0.00     0.091 A 
ATOM     78  F   UNL A   1      41.566  24.347  28.282  1.00  0.00    -0.205 F 
ATOM     79  C   UNL A   1      44.133  24.541  25.678  1.00  0.00     0.022 A 
BRANCH  77  80
ATOM     80  S   UNL A   1      42.666  22.302  26.236  1.00  0.00     0.127 S 
ATOM     81  O   UNL A   1      42.927  21.724  27.552  1.00  0.00    -0.237 OA
ATOM     82  O   UNL A   1      41.252  22.415  25.881  1.00  0.00    -0.237 OA
ATOM     83  O   UNL A   1      43.526  21.824  25.162  1.00  0.00    -0.744 OA
ENDBRANCH  77  80
ENDBRANCH  49  73
BRANCH  61  84
ATOM     84  C   UNL A   1      44.907  26.992  34.392  1.00  0.00     0.023 A 
ATOM     85  C   UNL A   1      46.115  27.706  34.499  1.00  0.00     0.012 A 
ATOM     86  C   UNL A   1      44.686  25.862  35.203  1.00  0.00     0.148 A 
ATOM     87  C   UNL A   1      47.093  27.299  35.405  1.00  0.00     0.002 A 
ATOM     88  C   UNL A   1      45.651  25.483  36.126  1.00  0.00     0.091 A 
ATOM     89  F   UNL A   1      43.523  25.205  35.077  1.00  0.00    -0.205 F 
ATOM     90  C   UNL A   1      46.855  26.199  36.226  1.00  0.00     0.022 A 
BRANCH  88  91
ATOM     91  S   UNL A   1      45.409  24.126  37.278  1.00  0.00     0.127 S 
ATOM     92  O   UNL A   1      46.697  24.090  37.968  1.00  0.00    -0.237 OA
ATOM     93  O   UNL A   1      44.293  24.610  38.092  1.00  0.00    -0.237 OA
ATOM     94  O   UNL A   1      45.111  22.953  36.468  1.00  0.00    -0.744 OA
ENDBRANCH  88  91
ENDBRANCH  61  84
ENDBRANCH  35  36
ENDBRANCH  28  30
ENDBRANCH  27  28
ENDBRANCH  26  27
ENDBRANCH   1  26
TORSDOF 19
ENDMDL
MODEL 3
REMARK VINA RESULT:     -10.9      2.380      8.086
REMARK SMILES Cc1nc(NC(=O)[C@@H]2CCC[C@@H](C(=O)OCCOCCOC(=O)c3ccc(-c4c5nc(c(-c6cccc(S(=O)(=O)[O-])c6F)c6ccc([nH]6)c(-c6cccc(S(=O)(=O)[O-])c6F)c6nc(c(-c7cccc(S(=O)(=O)[O-])c7F)c7ccc4[nH]7)C=C6)C=C5)cc3)C2)ccc1Br
REMARK SMILES IDX 19 1 18 2 17 3 16 4 15 5 13 6 14 7 12 8 8 9 9 10 87 11 10 12
REMARK SMILES IDX 11 13 6 14 5 15 7 17 4 18 1 19 2 20 3 21 90 22 89 23 91 24
REMARK SMILES IDX 88 25 20 26 21 27 22 28 23 29 24 30 25 31 86 32 26 33 85 34
REMARK SMILES IDX 27 35 28 36 29 37 79 38 30 39 84 40 78 41 80 42 31 43 83 44
REMARK SMILES IDX 77 45 76 46 32 48 64 49 44 50 63 51 45 52 48 53 62 54 81 55
REMARK SMILES IDX 46 56 47 57 61 59 82 60 49 61 33 62 34 63 42 64 35 65 37 66
REMARK SMILES IDX 43 67 36 68 38 69 39 70 40 71 41 72 65 73 66 74 74 75 67 76
REMARK SMILES IDX 69 77 75 78 68 79 70 80 71 81 72 82 73 83 50 84 51 85 59 86
REMARK SMILES IDX 52 87 54 88 60 89 53 90 55 91 56 92 57 93 58 94
REMARK H PARENT 5 16 80 47 48 58
REMARK Flexibility Score: inf
ROOT
ATOM      1  C   UNL A   1      34.001  31.342  27.629  1.00  0.00     0.202 C 
ENDROOT
BRANCH   1   2
ATOM      2  O   UNL A   1      33.530  30.085  27.165  1.00  0.00    -0.374 OA
BRANCH   2   3
ATOM      3  C   UNL A   1      32.143  29.943  26.890  1.00  0.00     0.202 C 
BRANCH   3   4
ATOM      4  C   UNL A   1      31.398  28.692  27.369  1.00  0.00     0.261 C 
BRANCH   4   5
ATOM      5  O   UNL A   1      32.177  27.480  27.430  1.00  0.00    -0.463 OA
BRANCH   5   6
ATOM      6  C   UNL A   1      31.806  26.524  26.534  1.00  0.00     0.309 C 
ATOM      7  O   UNL A   1      31.713  25.328  26.795  1.00  0.00    -0.252 OA
BRANCH   6   8
ATOM      8  C   UNL A   1      31.465  27.068  25.152  1.00  0.00     0.100 C 
ATOM      9  C   UNL A   1      32.082  25.400  23.301  1.00  0.00     0.080 C 
ATOM     10  C   UNL A   1      30.710  25.691  22.686  1.00  0.00     0.013 C 
ATOM     11  C   UNL A   1      32.506  26.652  24.086  1.00  0.00     0.028 C 
ATOM     12  C   UNL A   1      29.694  25.731  23.822  1.00  0.00     0.002 C 
ATOM     13  C   UNL A   1      29.985  26.896  24.760  1.00  0.00     0.015 C 
BRANCH   9  14
ATOM     14  C   UNL A   1      33.089  24.913  22.259  1.00  0.00     0.228 C 
ATOM     15  N   UNL A   1      33.535  23.618  22.231  1.00  0.00    -0.310 N 
ATOM     16  H   UNL A   1      34.234  23.480  21.552  1.00  0.00     0.171 HD
ATOM     17  O   UNL A   1      33.546  25.698  21.420  1.00  0.00    -0.274 OA
BRANCH  15  18
ATOM     18  C   UNL A   1      33.241  22.441  22.934  1.00  0.00     0.132 A 
ATOM     19  C   UNL A   1      34.461  21.058  26.128  1.00  0.00     0.068 C 
ATOM     20  C   UNL A   1      33.789  21.108  24.787  1.00  0.00     0.054 A 
ATOM     21  N   UNL A   1      33.943  22.274  24.076  1.00  0.00    -0.235 NA
ATOM     22  C   UNL A   1      32.983  20.065  24.341  1.00  0.00     0.039 A 
ATOM     23  C   UNL A   1      32.278  20.254  23.170  1.00  0.00     0.021 A 
ATOM     24  Br  UNL A   1      32.737  18.429  25.257  1.00  0.00    -0.049 Br
ATOM     25  C   UNL A   1      32.349  21.476  22.517  1.00  0.00     0.048 A 
ENDBRANCH  15  18
ENDBRANCH   9  14
ENDBRANCH   6   8
ENDBRANCH   5   6
ENDBRANCH   4   5
ENDBRANCH   3   4
ENDBRANCH   2   3
ENDBRANCH   1   2
BRANCH   1  26
ATOM     26  C   UNL A   1      33.048  32.546  27.622  1.00  0.00     0.261 C 
BRANCH  26  27
ATOM     27  O   UNL A   1      33.690  33.824  27.541  1.00  0.00    -0.460 OA
BRANCH  27  28
ATOM     28  C   UNL A   1      33.566  34.583  28.664  1.00  0.00     0.338 C 
ATOM     29  O   UNL A   1      32.683  35.372  28.939  1.00  0.00    -0.246 OA
BRANCH  28  30
ATOM     30  C   UNL A   1      34.663  34.249  29.584  1.00  0.00     0.060 A 
ATOM     31  C   UNL A   1      35.989  34.430  29.184  1.00  0.00     0.016 A 
ATOM     32  C   UNL A   1      34.365  33.664  30.810  1.00  0.00     0.016 A 
ATOM     33  C   UNL A   1      37.020  34.009  30.021  1.00  0.00     0.010 A 
ATOM     34  C   UNL A   1      35.390  33.279  31.668  1.00  0.00     0.010 A 
ATOM     35  C   UNL A   1      36.722  33.402  31.250  1.00  0.00    -0.014 A 
BRANCH  35  36
ATOM     36  C   UNL A   1      37.786  32.693  31.993  1.00  0.00     0.031 A 
ATOM     37  C   UNL A   1      38.453  31.517  31.334  1.00  0.00     0.074 A 
ATOM     38  C   UNL A   1      38.162  33.105  33.216  1.00  0.00     0.049 A 
ATOM     39  N   UNL A   1      39.433  30.776  31.773  1.00  0.00    -0.248 NA
ATOM     40  C   UNL A   1      37.949  31.118  30.006  1.00  0.00     0.031 C 
ATOM     41  C   UNL A   1      37.570  34.219  33.954  1.00  0.00     0.029 A 
ATOM     42  N   UNL A   1      39.133  32.623  34.055  1.00  0.00    -0.354 N 
ATOM     43  C   UNL A   1      39.652  29.822  30.788  1.00  0.00     0.074 A 
ATOM     44  C   UNL A   1      38.685  30.050  29.741  1.00  0.00     0.031 C 
ATOM     45  C   UNL A   1      38.192  34.337  35.139  1.00  0.00     0.029 A 
ATOM     46  C   UNL A   1      39.218  33.301  35.247  1.00  0.00     0.049 A 
ATOM     47  H   UNL A   1      39.715  31.861  33.826  1.00  0.00     0.167 HD
ATOM     48  C   UNL A   1      40.601  28.861  30.743  1.00  0.00     0.034 A 
ATOM     49  C   UNL A   1      40.035  33.107  36.301  1.00  0.00     0.034 A 
ATOM     50  C   UNL A   1      41.583  28.660  31.767  1.00  0.00     0.049 A 
ATOM     51  C   UNL A   1      41.075  32.023  36.234  1.00  0.00     0.074 A 
ATOM     52  C   UNL A   1      42.622  27.748  31.790  1.00  0.00     0.029 A 
ATOM     53  N   UNL A   1      41.645  29.379  32.950  1.00  0.00    -0.354 N 
ATOM     54  N   UNL A   1      41.337  31.197  35.249  1.00  0.00    -0.248 NA
ATOM     55  C   UNL A   1      41.952  31.859  37.403  1.00  0.00     0.031 C 
ATOM     56  C   UNL A   1      43.302  27.902  33.000  1.00  0.00     0.029 A 
ATOM     57  C   UNL A   1      42.699  28.925  33.717  1.00  0.00     0.049 A 
ATOM     58  H   UNL A   1      41.031  30.104  33.205  1.00  0.00     0.167 HD
ATOM     59  C   UNL A   1      42.420  30.435  35.667  1.00  0.00     0.074 A 
ATOM     60  C   UNL A   1      42.774  30.901  36.992  1.00  0.00     0.031 C 
ATOM     61  C   UNL A   1      43.059  29.433  35.014  1.00  0.00     0.034 A 
BRANCH  48  62
ATOM     62  C   UNL A   1      40.666  27.986  29.524  1.00  0.00     0.023 A 
ATOM     63  C   UNL A   1      39.765  26.910  29.401  1.00  0.00     0.012 A 
ATOM     64  C   UNL A   1      41.542  28.289  28.466  1.00  0.00     0.148 A 
ATOM     65  C   UNL A   1      39.736  26.144  28.238  1.00  0.00     0.002 A 
ATOM     66  C   UNL A   1      41.486  27.539  27.297  1.00  0.00     0.091 A 
ATOM     67  F   UNL A   1      42.401  29.306  28.619  1.00  0.00    -0.205 F 
ATOM     68  C   UNL A   1      40.586  26.466  27.183  1.00  0.00     0.022 A 
BRANCH  66  69
ATOM     69  S   UNL A   1      42.502  27.899  25.862  1.00  0.00     0.127 S 
ATOM     70  O   UNL A   1      42.108  29.275  25.560  1.00  0.00    -0.237 OA
ATOM     71  O   UNL A   1      43.853  27.755  26.401  1.00  0.00    -0.237 OA
ATOM     72  O   UNL A   1      42.136  26.919  24.848  1.00  0.00    -0.744 OA
ENDBRANCH  66  69
ENDBRANCH  48  62
BRANCH  49  73
ATOM     73  C   UNL A   1      39.934  34.014  37.476  1.00  0.00     0.023 A 
ATOM     74  C   UNL A   1      40.506  35.298  37.409  1.00  0.00     0.012 A 
ATOM     75  C   UNL A   1      39.213  33.637  38.625  1.00  0.00     0.148 A 
ATOM     76  C   UNL A   1      40.364  36.193  38.470  1.00  0.00     0.002 A 
ATOM     77  C   UNL A   1      39.045  34.544  39.663  1.00  0.00     0.091 A 
ATOM     78  F   UNL A   1      38.678  32.408  38.661  1.00  0.00    -0.205 F 
ATOM     79  C   UNL A   1      39.626  35.821  39.592  1.00  0.00     0.022 A 
BRANCH  77  80
ATOM     80  S   UNL A   1      38.036  34.192  41.107  1.00  0.00     0.127 S 
ATOM     81  O   UNL A   1      37.811  35.531  41.647  1.00  0.00    -0.237 OA
ATOM     82  O   UNL A   1      36.861  33.565  40.503  1.00  0.00    -0.237 OA
ATOM     83  O   UNL A   1      38.835  33.307  41.944  1.00  0.00    -0.744 OA
ENDBRANCH  77  80
ENDBRANCH  49  73
BRANCH  61  84
ATOM     84  C   UNL A   1      44.222  28.766  35.692  1.00  0.00     0.023 A 
ATOM     85  C   UNL A   1      45.510  29.314  35.550  1.00  0.00     0.012 A 
ATOM     86  C   UNL A   1      44.008  27.705  36.595  1.00  0.00     0.148 A 
ATOM     87  C   UNL A   1      46.574  28.814  36.299  1.00  0.00     0.002 A 
ATOM     88  C   UNL A   1      45.065  27.235  37.362  1.00  0.00     0.091 A 
ATOM     89  F   UNL A   1      42.768  27.207  36.708  1.00  0.00    -0.205 F 
ATOM     90  C   UNL A   1      46.348  27.787  37.213  1.00  0.00     0.022 A 
BRANCH  88  91
ATOM     91  S   UNL A   1      44.861  25.967  38.618  1.00  0.00     0.127 S 
ATOM     92  O   UNL A   1      46.231  25.809  39.105  1.00  0.00    -0.237 OA
ATOM     93  O   UNL A   1      43.948  26.613  39.561  1.00  0.00    -0.237 OA
ATOM     94  O   UNL A   1      44.312  24.804  37.935  1.00  0.00    -0.744 OA
ENDBRANCH  88  91
ENDBRANCH  61  84
ENDBRANCH  35  36
ENDBRANCH  28  30
ENDBRANCH  27  28
ENDBRANCH  26  27
ENDBRANCH   1  26
TORSDOF 19
ENDMDL
