MODEL 1
REMARK VINA RESULT:      -9.7      0.000      0.000
REMARK SMILES C[C@@H](C(=O)OCCOCCOC(=O)c1ccc(-c2c3nc(c(-c4cccc(S(=O)(=O)[O-])c4F)c4ccc([nH]4)c(-c4cccc(S(=O)(=O)[O-])c4F)c4nc(c(-c5cccc(S(=O)(=O)[O-])c5F)c5ccc2[nH]5)C=C4)C=C3)cc1)c1ccc(C[C@H]2CCC[C@@H]2O)cc1
REMARK SMILES IDX 7 1 6 2 5 3 3 4 4 5 2 6 1 7 77 8 78 9 89 10 79 11 88 12
REMARK SMILES IDX 80 13 81 14 82 15 83 16 86 17 84 18 85 19 87 20 8 22 9 23
REMARK SMILES IDX 10 24 11 25 12 26 13 27 14 28 15 29 76 30 16 31 75 32 17 33
REMARK SMILES IDX 18 34 19 35 69 36 20 37 74 38 68 39 70 40 21 41 73 42 67 43
REMARK SMILES IDX 66 44 22 46 54 47 34 48 53 49 35 50 38 51 52 52 71 53 36 54
REMARK SMILES IDX 37 55 51 57 72 58 39 59 23 60 24 61 32 62 25 63 27 64 33 65
REMARK SMILES IDX 26 66 28 67 29 68 30 69 31 70 55 71 56 72 64 73 57 74 59 75
REMARK SMILES IDX 65 76 58 77 60 78 61 79 62 80 63 81 40 82 41 83 49 84 42 85
REMARK SMILES IDX 44 86 50 87 43 88 45 89 46 90 47 91 48 92
REMARK H PARENT 87 21 70 45 38 56
REMARK Flexibility Score: inf
ROOT
ATOM      1  C   UNL A   1      41.680  20.514  27.257  1.00  0.00     0.202 C 
ENDROOT
BRANCH   1   2
ATOM      2  C   UNL A   1      41.287  21.892  26.714  1.00  0.00     0.261 C 
BRANCH   2   3
ATOM      3  O   UNL A   1      39.946  22.227  27.105  1.00  0.00    -0.463 OA
BRANCH   3   4
ATOM      4  C   UNL A   1      39.001  22.132  26.131  1.00  0.00     0.313 C 
ATOM      5  O   UNL A   1      38.636  21.076  25.623  1.00  0.00    -0.252 OA
BRANCH   4   6
ATOM      6  C   UNL A   1      38.358  23.482  25.803  1.00  0.00     0.126 C 
ATOM      7  C   UNL A   1      38.507  24.551  26.895  1.00  0.00     0.025 C 
BRANCH   6   8
ATOM      8  C   UNL A   1      36.894  23.362  25.378  1.00  0.00    -0.034 A 
ATOM      9  C   UNL A   1      36.589  23.101  24.035  1.00  0.00     0.005 A 
ATOM     10  C   UNL A   1      35.827  23.523  26.275  1.00  0.00     0.005 A 
ATOM     11  C   UNL A   1      35.262  23.009  23.603  1.00  0.00     0.004 A 
ATOM     12  C   UNL A   1      34.499  23.455  25.838  1.00  0.00     0.004 A 
ATOM     13  C   UNL A   1      34.201  23.213  24.493  1.00  0.00    -0.048 A 
BRANCH  13  14
ATOM     14  C   UNL A   1      32.766  23.151  24.027  1.00  0.00     0.041 C 
BRANCH  14  15
ATOM     15  C   UNL A   1      32.149  21.753  23.863  1.00  0.00     0.022 C 
ATOM     16  C   UNL A   1      32.107  21.192  22.433  1.00  0.00     0.007 C 
ATOM     17  C   UNL A   1      32.797  20.642  24.692  1.00  0.00     0.117 C 
ATOM     18  C   UNL A   1      32.355  19.684  22.562  1.00  0.00     0.003 C 
ATOM     19  C   UNL A   1      32.247  19.379  24.048  1.00  0.00     0.032 C 
BRANCH  17  20
ATOM     20  O   UNL A   1      32.422  20.737  26.055  1.00  0.00    -0.393 OA
ATOM     21  H   UNL A   1      33.204  20.612  26.614  1.00  0.00     0.210 HD
ENDBRANCH  17  20
ENDBRANCH  14  15
ENDBRANCH  13  14
ENDBRANCH   6   8
ENDBRANCH   4   6
ENDBRANCH   3   4
ENDBRANCH   2   3
ENDBRANCH   1   2
BRANCH   1  22
ATOM     22  O   UNL A   1      41.822  19.470  26.290  1.00  0.00    -0.374 OA
BRANCH  22  23
ATOM     23  C   UNL A   1      42.869  18.521  26.505  1.00  0.00     0.202 C 
BRANCH  23  24
ATOM     24  C   UNL A   1      43.832  18.261  25.341  1.00  0.00     0.261 C 
BRANCH  24  25
ATOM     25  O   UNL A   1      44.911  19.210  25.301  1.00  0.00    -0.460 OA
BRANCH  25  26
ATOM     26  C   UNL A   1      44.778  20.177  24.364  1.00  0.00     0.338 C 
ATOM     27  O   UNL A   1      44.650  20.020  23.155  1.00  0.00    -0.246 OA
BRANCH  26  28
ATOM     28  C   UNL A   1      44.614  21.493  25.006  1.00  0.00     0.060 A 
ATOM     29  C   UNL A   1      44.196  22.555  24.195  1.00  0.00     0.016 A 
ATOM     30  C   UNL A   1      44.933  21.704  26.349  1.00  0.00     0.016 A 
ATOM     31  C   UNL A   1      44.151  23.848  24.707  1.00  0.00     0.010 A 
ATOM     32  C   UNL A   1      44.894  23.006  26.860  1.00  0.00     0.010 A 
ATOM     33  C   UNL A   1      44.543  24.088  26.031  1.00  0.00    -0.014 A 
BRANCH  33  34
ATOM     34  C   UNL A   1      44.727  25.484  26.491  1.00  0.00     0.031 A 
ATOM     35  C   UNL A   1      46.096  26.105  26.408  1.00  0.00     0.074 A 
ATOM     36  C   UNL A   1      43.688  26.197  26.959  1.00  0.00     0.049 A 
ATOM     37  N   UNL A   1      46.482  27.306  26.749  1.00  0.00    -0.248 NA
ATOM     38  C   UNL A   1      47.173  25.258  25.868  1.00  0.00     0.031 C 
ATOM     39  C   UNL A   1      42.316  25.707  27.082  1.00  0.00     0.029 A 
ATOM     40  N   UNL A   1      43.632  27.482  27.438  1.00  0.00    -0.354 N 
ATOM     41  C   UNL A   1      47.847  27.351  26.494  1.00  0.00     0.074 A 
ATOM     42  C   UNL A   1      48.226  26.054  25.979  1.00  0.00     0.031 C 
ATOM     43  C   UNL A   1      41.557  26.673  27.626  1.00  0.00     0.029 A 
ATOM     44  C   UNL A   1      42.391  27.840  27.908  1.00  0.00     0.049 A 
ATOM     45  H   UNL A   1      44.407  28.089  27.444  1.00  0.00     0.167 HD
ATOM     46  C   UNL A   1      48.706  28.386  26.658  1.00  0.00     0.034 A 
ATOM     47  C   UNL A   1      41.981  28.973  28.512  1.00  0.00     0.034 A 
ATOM     48  C   UNL A   1      48.323  29.682  27.146  1.00  0.00     0.049 A 
ATOM     49  C   UNL A   1      42.962  30.102  28.700  1.00  0.00     0.074 A 
ATOM     50  C   UNL A   1      49.108  30.812  27.295  1.00  0.00     0.029 A 
ATOM     51  N   UNL A   1      47.049  30.020  27.577  1.00  0.00    -0.354 N 
ATOM     52  N   UNL A   1      44.219  30.174  28.336  1.00  0.00    -0.248 NA
ATOM     53  C   UNL A   1      42.457  31.319  29.352  1.00  0.00     0.031 C 
ATOM     54  C   UNL A   1      48.314  31.826  27.841  1.00  0.00     0.029 A 
ATOM     55  C   UNL A   1      47.028  31.335  28.008  1.00  0.00     0.049 A 
ATOM     56  H   UNL A   1      46.274  29.413  27.578  1.00  0.00     0.167 HD
ATOM     57  C   UNL A   1      44.646  31.451  28.681  1.00  0.00     0.074 A 
ATOM     58  C   UNL A   1      43.505  32.127  29.266  1.00  0.00     0.031 C 
ATOM     59  C   UNL A   1      45.873  32.012  28.539  1.00  0.00     0.034 A 
BRANCH  46  60
ATOM     60  C   UNL A   1      50.146  28.164  26.279  1.00  0.00     0.023 A 
ATOM     61  C   UNL A   1      50.544  28.302  24.935  1.00  0.00     0.012 A 
ATOM     62  C   UNL A   1      51.114  27.868  27.259  1.00  0.00     0.148 A 
ATOM     63  C   UNL A   1      51.877  28.122  24.566  1.00  0.00     0.002 A 
ATOM     64  C   UNL A   1      52.447  27.729  26.891  1.00  0.00     0.091 A 
ATOM     65  F   UNL A   1      50.711  27.714  28.529  1.00  0.00    -0.205 F 
ATOM     66  C   UNL A   1      52.828  27.845  25.544  1.00  0.00     0.022 A 
BRANCH  64  67
ATOM     67  S   UNL A   1      53.755  27.447  28.089  1.00  0.00     0.127 S 
ATOM     68  O   UNL A   1      53.193  26.361  28.889  1.00  0.00    -0.237 OA
ATOM     69  O   UNL A   1      54.877  27.056  27.235  1.00  0.00    -0.237 OA
ATOM     70  O   UNL A   1      53.938  28.711  28.787  1.00  0.00    -0.744 OA
ENDBRANCH  64  67
ENDBRANCH  46  60
BRANCH  47  71
ATOM     71  C   UNL A   1      40.563  29.111  28.947  1.00  0.00     0.023 A 
ATOM     72  C   UNL A   1      39.559  29.328  27.984  1.00  0.00     0.012 A 
ATOM     73  C   UNL A   1      40.202  29.006  30.305  1.00  0.00     0.148 A 
ATOM     74  C   UNL A   1      38.224  29.464  28.368  1.00  0.00     0.002 A 
ATOM     75  C   UNL A   1      38.865  29.088  30.674  1.00  0.00     0.091 A 
ATOM     76  F   UNL A   1      41.175  28.820  31.207  1.00  0.00    -0.205 F 
ATOM     77  C   UNL A   1      37.876  29.333  29.709  1.00  0.00     0.022 A 
BRANCH  75  78
ATOM     78  S   UNL A   1      38.314  28.806  32.360  1.00  0.00     0.127 S 
ATOM     79  O   UNL A   1      38.828  27.464  32.622  1.00  0.00    -0.237 OA
ATOM     80  O   UNL A   1      38.994  29.880  33.084  1.00  0.00    -0.237 OA
ATOM     81  O   UNL A   1      36.863  28.933  32.326  1.00  0.00    -0.744 OA
ENDBRANCH  75  78
ENDBRANCH  47  71
BRANCH  59  82
ATOM     82  C   UNL A   1      46.050  33.438  28.992  1.00  0.00     0.023 A 
ATOM     83  C   UNL A   1      46.529  33.707  30.290  1.00  0.00     0.012 A 
ATOM     84  C   UNL A   1      45.818  34.508  28.104  1.00  0.00     0.148 A 
ATOM     85  C   UNL A   1      46.747  35.019  30.706  1.00  0.00     0.002 A 
ATOM     86  C   UNL A   1      46.083  35.811  28.512  1.00  0.00     0.091 A 
ATOM     87  F   UNL A   1      45.345  34.234  26.881  1.00  0.00    -0.205 F 
ATOM     88  C   UNL A   1      46.537  36.069  29.816  1.00  0.00     0.022 A 
BRANCH  86  89
ATOM     89  S   UNL A   1      45.933  37.215  27.401  1.00  0.00     0.127 S 
ATOM     90  O   UNL A   1      44.498  37.223  27.123  1.00  0.00    -0.237 OA
ATOM     91  O   UNL A   1      46.400  38.324  28.234  1.00  0.00    -0.237 OA
ATOM     92  O   UNL A   1      46.790  36.916  26.261  1.00  0.00    -0.744 OA
ENDBRANCH  86  89
ENDBRANCH  59  82
ENDBRANCH  33  34
ENDBRANCH  26  28
ENDBRANCH  25  26
ENDBRANCH  24  25
ENDBRANCH  23  24
ENDBRANCH  22  23
ENDBRANCH   1  22
TORSDOF 21
ENDMDL
MODEL 2
REMARK VINA RESULT:      -9.3      1.614      2.175
REMARK SMILES C[C@@H](C(=O)OCCOCCOC(=O)c1ccc(-c2c3nc(c(-c4cccc(S(=O)(=O)[O-])c4F)c4ccc([nH]4)c(-c4cccc(S(=O)(=O)[O-])c4F)c4nc(c(-c5cccc(S(=O)(=O)[O-])c5F)c5ccc2[nH]5)C=C4)C=C3)cc1)c1ccc(C[C@H]2CCC[C@@H]2O)cc1
REMARK SMILES IDX 7 1 6 2 5 3 3 4 4 5 2 6 1 7 77 8 78 9 89 10 79 11 88 12
REMARK SMILES IDX 80 13 81 14 82 15 83 16 86 17 84 18 85 19 87 20 8 22 9 23
REMARK SMILES IDX 10 24 11 25 12 26 13 27 14 28 15 29 76 30 16 31 75 32 17 33
REMARK SMILES IDX 18 34 19 35 69 36 20 37 74 38 68 39 70 40 21 41 73 42 67 43
REMARK SMILES IDX 66 44 22 46 54 47 34 48 53 49 35 50 38 51 52 52 71 53 36 54
REMARK SMILES IDX 37 55 51 57 72 58 39 59 23 60 24 61 32 62 25 63 27 64 33 65
REMARK SMILES IDX 26 66 28 67 29 68 30 69 31 70 55 71 56 72 64 73 57 74 59 75
REMARK SMILES IDX 65 76 58 77 60 78 61 79 62 80 63 81 40 82 41 83 49 84 42 85
REMARK SMILES IDX 44 86 50 87 43 88 45 89 46 90 47 91 48 92
REMARK H PARENT 87 21 70 45 38 56
REMARK Flexibility Score: inf
ROOT
ATOM      1  C   UNL A   1      41.197  20.096  26.918  1.00  0.00     0.202 C 
ENDROOT
BRANCH   1   2
ATOM      2  C   UNL A   1      40.719  21.396  26.262  1.00  0.00     0.261 C 
BRANCH   2   3
ATOM      3  O   UNL A   1      39.367  21.690  26.646  1.00  0.00    -0.463 OA
BRANCH   3   4
ATOM      4  C   UNL A   1      38.434  21.594  25.660  1.00  0.00     0.313 C 
ATOM      5  O   UNL A   1      38.114  20.543  25.112  1.00  0.00    -0.252 OA
BRANCH   4   6
ATOM      6  C   UNL A   1      37.742  22.929  25.373  1.00  0.00     0.126 C 
ATOM      7  C   UNL A   1      37.982  24.020  26.427  1.00  0.00     0.025 C 
BRANCH   6   8
ATOM      8  C   UNL A   1      36.246  22.782  25.097  1.00  0.00    -0.034 A 
ATOM      9  C   UNL A   1      35.772  22.931  23.787  1.00  0.00     0.005 A 
ATOM     10  C   UNL A   1      35.308  22.523  26.109  1.00  0.00     0.005 A 
ATOM     11  C   UNL A   1      34.407  22.829  23.499  1.00  0.00     0.004 A 
ATOM     12  C   UNL A   1      33.941  22.445  25.824  1.00  0.00     0.004 A 
ATOM     13  C   UNL A   1      33.472  22.613  24.517  1.00  0.00    -0.048 A 
BRANCH  13  14
ATOM     14  C   UNL A   1      31.993  22.537  24.219  1.00  0.00     0.041 C 
BRANCH  14  15
ATOM     15  C   UNL A   1      31.156  23.787  24.535  1.00  0.00     0.022 C 
ATOM     16  C   UNL A   1      31.157  24.252  26.000  1.00  0.00     0.007 C 
ATOM     17  C   UNL A   1      31.510  25.041  23.734  1.00  0.00     0.117 C 
ATOM     18  C   UNL A   1      31.117  25.783  25.957  1.00  0.00     0.003 C 
ATOM     19  C   UNL A   1      30.810  26.144  24.512  1.00  0.00     0.032 C 
BRANCH  17  20
ATOM     20  O   UNL A   1      31.025  24.952  22.406  1.00  0.00    -0.393 OA
ATOM     21  H   UNL A   1      30.382  24.230  22.344  1.00  0.00     0.210 HD
ENDBRANCH  17  20
ENDBRANCH  14  15
ENDBRANCH  13  14
ENDBRANCH   6   8
ENDBRANCH   4   6
ENDBRANCH   3   4
ENDBRANCH   2   3
ENDBRANCH   1   2
BRANCH   1  22
ATOM     22  O   UNL A   1      41.701  19.089  26.036  1.00  0.00    -0.374 OA
BRANCH  22  23
ATOM     23  C   UNL A   1      42.853  18.362  26.467  1.00  0.00     0.202 C 
BRANCH  23  24
ATOM     24  C   UNL A   1      43.940  18.083  25.423  1.00  0.00     0.261 C 
BRANCH  24  25
ATOM     25  O   UNL A   1      44.918  19.135  25.358  1.00  0.00    -0.460 OA
BRANCH  25  26
ATOM     26  C   UNL A   1      44.701  20.049  24.384  1.00  0.00     0.338 C 
ATOM     27  O   UNL A   1      44.516  19.827  23.192  1.00  0.00    -0.246 OA
BRANCH  26  28
ATOM     28  C   UNL A   1      44.521  21.388  24.970  1.00  0.00     0.060 A 
ATOM     29  C   UNL A   1      44.351  22.459  24.084  1.00  0.00     0.016 A 
ATOM     30  C   UNL A   1      44.591  21.608  26.347  1.00  0.00     0.016 A 
ATOM     31  C   UNL A   1      44.310  23.764  24.566  1.00  0.00     0.010 A 
ATOM     32  C   UNL A   1      44.557  22.921  26.829  1.00  0.00     0.010 A 
ATOM     33  C   UNL A   1      44.458  24.005  25.938  1.00  0.00    -0.014 A 
BRANCH  33  34
ATOM     34  C   UNL A   1      44.660  25.395  26.412  1.00  0.00     0.031 A 
ATOM     35  C   UNL A   1      46.036  25.998  26.338  1.00  0.00     0.074 A 
ATOM     36  C   UNL A   1      43.629  26.117  26.886  1.00  0.00     0.049 A 
ATOM     37  N   UNL A   1      46.437  27.190  26.692  1.00  0.00    -0.248 NA
ATOM     38  C   UNL A   1      47.103  25.142  25.791  1.00  0.00     0.031 C 
ATOM     39  C   UNL A   1      42.251  25.643  27.002  1.00  0.00     0.029 A 
ATOM     40  N   UNL A   1      43.589  27.397  27.377  1.00  0.00    -0.354 N 
ATOM     41  C   UNL A   1      47.804  27.220  26.439  1.00  0.00     0.074 A 
ATOM     42  C   UNL A   1      48.166  25.923  25.912  1.00  0.00     0.031 C 
ATOM     43  C   UNL A   1      41.503  26.613  27.554  1.00  0.00     0.029 A 
ATOM     44  C   UNL A   1      42.352  27.766  27.849  1.00  0.00     0.049 A 
ATOM     45  H   UNL A   1      44.372  27.994  27.390  1.00  0.00     0.167 HD
ATOM     46  C   UNL A   1      48.676  28.242  26.615  1.00  0.00     0.034 A 
ATOM     47  C   UNL A   1      41.956  28.899  28.463  1.00  0.00     0.034 A 
ATOM     48  C   UNL A   1      48.309  29.538  27.116  1.00  0.00     0.049 A 
ATOM     49  C   UNL A   1      42.951  30.013  28.664  1.00  0.00     0.074 A 
ATOM     50  C   UNL A   1      49.108  30.656  27.277  1.00  0.00     0.029 A 
ATOM     51  N   UNL A   1      47.039  29.888  27.548  1.00  0.00    -0.354 N 
ATOM     52  N   UNL A   1      44.210  30.072  28.303  1.00  0.00    -0.248 NA
ATOM     53  C   UNL A   1      42.461  31.230  29.327  1.00  0.00     0.031 C 
ATOM     54  C   UNL A   1      48.327  31.674  27.832  1.00  0.00     0.029 A 
ATOM     55  C   UNL A   1      47.035  31.199  27.991  1.00  0.00     0.049 A 
ATOM     56  H   UNL A   1      46.256  29.292  27.541  1.00  0.00     0.167 HD
ATOM     57  C   UNL A   1      44.653  31.340  28.661  1.00  0.00     0.074 A 
ATOM     58  C   UNL A   1      43.520  32.024  29.252  1.00  0.00     0.031 C 
ATOM     59  C   UNL A   1      45.887  31.886  28.527  1.00  0.00     0.034 A 
BRANCH  46  60
ATOM     60  C   UNL A   1      50.114  28.005  26.237  1.00  0.00     0.023 A 
ATOM     61  C   UNL A   1      51.072  27.779  27.244  1.00  0.00     0.012 A 
ATOM     62  C   UNL A   1      50.507  27.955  24.885  1.00  0.00     0.148 A 
ATOM     63  C   UNL A   1      52.406  27.536  26.914  1.00  0.00     0.002 A 
ATOM     64  C   UNL A   1      51.829  27.673  24.562  1.00  0.00     0.091 A 
ATOM     65  F   UNL A   1      49.585  28.199  23.942  1.00  0.00    -0.205 F 
ATOM     66  C   UNL A   1      52.782  27.474  25.575  1.00  0.00     0.022 A 
BRANCH  64  67
ATOM     67  S   UNL A   1      52.392  27.497  22.866  1.00  0.00     0.127 S 
ATOM     68  O   UNL A   1      51.185  27.006  22.203  1.00  0.00    -0.237 OA
ATOM     69  O   UNL A   1      52.761  28.870  22.519  1.00  0.00    -0.237 OA
ATOM     70  O   UNL A   1      53.508  26.563  22.910  1.00  0.00    -0.744 OA
ENDBRANCH  64  67
ENDBRANCH  46  60
BRANCH  47  71
ATOM     71  C   UNL A   1      40.539  29.051  28.897  1.00  0.00     0.023 A 
ATOM     72  C   UNL A   1      39.539  29.291  27.935  1.00  0.00     0.012 A 
ATOM     73  C   UNL A   1      40.174  28.937  30.253  1.00  0.00     0.148 A 
ATOM     74  C   UNL A   1      38.206  29.441  28.318  1.00  0.00     0.002 A 
ATOM     75  C   UNL A   1      38.837  29.033  30.621  1.00  0.00     0.091 A 
ATOM     76  F   UNL A   1      41.143  28.728  31.155  1.00  0.00    -0.205 F 
ATOM     77  C   UNL A   1      37.854  29.301  29.657  1.00  0.00     0.022 A 
BRANCH  75  78
ATOM     78  S   UNL A   1      38.280  28.739  32.303  1.00  0.00     0.127 S 
ATOM     79  O   UNL A   1      39.058  29.722  33.052  1.00  0.00    -0.237 OA
ATOM     80  O   UNL A   1      36.850  29.031  32.202  1.00  0.00    -0.237 OA
ATOM     81  O   UNL A   1      38.587  27.343  32.581  1.00  0.00    -0.744 OA
ENDBRANCH  75  78
ENDBRANCH  47  71
BRANCH  59  82
ATOM     82  C   UNL A   1      46.082  33.305  28.995  1.00  0.00     0.023 A 
ATOM     83  C   UNL A   1      46.527  33.555  30.308  1.00  0.00     0.012 A 
ATOM     84  C   UNL A   1      45.901  34.385  28.108  1.00  0.00     0.148 A 
ATOM     85  C   UNL A   1      46.761  34.859  30.740  1.00  0.00     0.002 A 
ATOM     86  C   UNL A   1      46.183  35.679  28.532  1.00  0.00     0.091 A 
ATOM     87  F   UNL A   1      45.459  34.129  26.869  1.00  0.00    -0.205 F 
ATOM     88  C   UNL A   1      46.602  35.919  29.850  1.00  0.00     0.022 A 
BRANCH  86  89
ATOM     89  S   UNL A   1      46.098  37.092  27.426  1.00  0.00     0.127 S 
ATOM     90  O   UNL A   1      46.501  36.499  26.152  1.00  0.00    -0.237 OA
ATOM     91  O   UNL A   1      44.684  37.466  27.505  1.00  0.00    -0.237 OA
ATOM     92  O   UNL A   1      47.014  38.084  27.973  1.00  0.00    -0.744 OA
ENDBRANCH  86  89
ENDBRANCH  59  82
ENDBRANCH  33  34
ENDBRANCH  26  28
ENDBRANCH  25  26
ENDBRANCH  24  25
ENDBRANCH  23  24
ENDBRANCH  22  23
ENDBRANCH   1  22
TORSDOF 21
ENDMDL
MODEL 3
REMARK VINA RESULT:      -9.3      6.359     11.603
REMARK SMILES C[C@@H](C(=O)OCCOCCOC(=O)c1ccc(-c2c3nc(c(-c4cccc(S(=O)(=O)[O-])c4F)c4ccc([nH]4)c(-c4cccc(S(=O)(=O)[O-])c4F)c4nc(c(-c5cccc(S(=O)(=O)[O-])c5F)c5ccc2[nH]5)C=C4)C=C3)cc1)c1ccc(C[C@H]2CCC[C@@H]2O)cc1
REMARK SMILES IDX 7 1 6 2 5 3 3 4 4 5 2 6 1 7 77 8 78 9 89 10 79 11 88 12
REMARK SMILES IDX 80 13 81 14 82 15 83 16 86 17 84 18 85 19 87 20 8 22 9 23
REMARK SMILES IDX 10 24 11 25 12 26 13 27 14 28 15 29 76 30 16 31 75 32 17 33
REMARK SMILES IDX 18 34 19 35 69 36 20 37 74 38 68 39 70 40 21 41 73 42 67 43
REMARK SMILES IDX 66 44 22 46 54 47 34 48 53 49 35 50 38 51 52 52 71 53 36 54
REMARK SMILES IDX 37 55 51 57 72 58 39 59 23 60 24 61 32 62 25 63 27 64 33 65
REMARK SMILES IDX 26 66 28 67 29 68 30 69 31 70 55 71 56 72 64 73 57 74 59 75
REMARK SMILES IDX 65 76 58 77 60 78 61 79 62 80 63 81 40 82 41 83 49 84 42 85
REMARK SMILES IDX 44 86 50 87 43 88 45 89 46 90 47 91 48 92
REMARK H PARENT 87 21 70 45 38 56
REMARK Flexibility Score: inf
ROOT
ATOM      1  C   UNL A   1      32.187  29.322  26.799  1.00  0.00     0.202 C 
ENDROOT
BRANCH   1   2
ATOM      2  C   UNL A   1      32.802  28.523  25.644  1.00  0.00     0.261 C 
BRANCH   2   3
ATOM      3  O   UNL A   1      32.300  28.991  24.382  1.00  0.00    -0.463 OA
BRANCH   3   4
ATOM      4  C   UNL A   1      32.832  28.403  23.276  1.00  0.00     0.313 C 
ATOM      5  O   UNL A   1      33.986  28.570  22.893  1.00  0.00    -0.252 OA
BRANCH   4   6
ATOM      6  C   UNL A   1      31.865  27.421  22.610  1.00  0.00     0.126 C 
ATOM      7  C   UNL A   1      30.401  27.885  22.566  1.00  0.00     0.025 C 
BRANCH   6   8
ATOM      8  C   UNL A   1      31.953  26.008  23.186  1.00  0.00    -0.034 A 
ATOM      9  C   UNL A   1      30.775  25.282  23.408  1.00  0.00     0.005 A 
ATOM     10  C   UNL A   1      33.172  25.402  23.529  1.00  0.00     0.005 A 
ATOM     11  C   UNL A   1      30.814  23.997  23.957  1.00  0.00     0.004 A 
ATOM     12  C   UNL A   1      33.209  24.126  24.101  1.00  0.00     0.004 A 
ATOM     13  C   UNL A   1      32.028  23.414  24.337  1.00  0.00    -0.048 A 
BRANCH  13  14
ATOM     14  C   UNL A   1      32.075  22.040  24.963  1.00  0.00     0.041 C 
BRANCH  14  15
ATOM     15  C   UNL A   1      32.647  20.903  24.102  1.00  0.00     0.022 C 
ATOM     16  C   UNL A   1      32.829  19.547  24.801  1.00  0.00     0.007 C 
ATOM     17  C   UNL A   1      31.860  20.577  22.830  1.00  0.00     0.117 C 
ATOM     18  C   UNL A   1      32.503  18.481  23.749  1.00  0.00     0.003 C 
ATOM     19  C   UNL A   1      32.425  19.224  22.425  1.00  0.00     0.032 C 
BRANCH  17  20
ATOM     20  O   UNL A   1      32.079  21.554  21.830  1.00  0.00    -0.393 OA
ATOM     21  H   UNL A   1      32.041  22.438  22.227  1.00  0.00     0.210 HD
ENDBRANCH  17  20
ENDBRANCH  14  15
ENDBRANCH  13  14
ENDBRANCH   6   8
ENDBRANCH   4   6
ENDBRANCH   3   4
ENDBRANCH   2   3
ENDBRANCH   1   2
BRANCH   1  22
ATOM     22  O   UNL A   1      32.520  30.712  26.855  1.00  0.00    -0.374 OA
BRANCH  22  23
ATOM     23  C   UNL A   1      31.458  31.645  26.649  1.00  0.00     0.202 C 
BRANCH  23  24
ATOM     24  C   UNL A   1      31.792  33.134  26.792  1.00  0.00     0.261 C 
BRANCH  24  25
ATOM     25  O   UNL A   1      32.565  33.410  27.973  1.00  0.00    -0.460 OA
BRANCH  25  26
ATOM     26  C   UNL A   1      33.786  33.943  27.738  1.00  0.00     0.338 C 
ATOM     27  O   UNL A   1      34.050  34.884  26.997  1.00  0.00    -0.246 OA
BRANCH  26  28
ATOM     28  C   UNL A   1      34.783  33.360  28.651  1.00  0.00     0.060 A 
ATOM     29  C   UNL A   1      36.032  33.991  28.726  1.00  0.00     0.016 A 
ATOM     30  C   UNL A   1      34.536  32.182  29.361  1.00  0.00     0.016 A 
ATOM     31  C   UNL A   1      37.061  33.415  29.465  1.00  0.00     0.010 A 
ATOM     32  C   UNL A   1      35.575  31.602  30.097  1.00  0.00     0.010 A 
ATOM     33  C   UNL A   1      36.851  32.194  30.119  1.00  0.00    -0.014 A 
BRANCH  33  34
ATOM     34  C   UNL A   1      38.010  31.470  30.693  1.00  0.00     0.031 A 
ATOM     35  C   UNL A   1      38.414  31.751  32.115  1.00  0.00     0.074 A 
ATOM     36  C   UNL A   1      38.684  30.563  29.964  1.00  0.00     0.049 A 
ATOM     37  N   UNL A   1      39.389  31.233  32.816  1.00  0.00    -0.248 NA
ATOM     38  C   UNL A   1      37.612  32.747  32.845  1.00  0.00     0.031 C 
ATOM     39  C   UNL A   1      38.384  30.203  28.579  1.00  0.00     0.029 A 
ATOM     40  N   UNL A   1      39.774  29.794  30.285  1.00  0.00    -0.354 N 
ATOM     41  C   UNL A   1      39.337  31.859  34.056  1.00  0.00     0.074 A 
ATOM     42  C   UNL A   1      38.242  32.803  34.009  1.00  0.00     0.031 C 
ATOM     43  C   UNL A   1      39.286  29.299  28.160  1.00  0.00     0.029 A 
ATOM     44  C   UNL A   1      40.237  29.033  29.238  1.00  0.00     0.049 A 
ATOM     45  H   UNL A   1      40.186  29.788  31.179  1.00  0.00     0.167 HD
ATOM     46  C   UNL A   1      40.120  31.655  35.141  1.00  0.00     0.034 A 
ATOM     47  C   UNL A   1      41.314  28.227  29.156  1.00  0.00     0.034 A 
ATOM     48  C   UNL A   1      41.192  30.699  35.194  1.00  0.00     0.049 A 
ATOM     49  C   UNL A   1      42.181  28.032  30.373  1.00  0.00     0.074 A 
ATOM     50  C   UNL A   1      42.007  30.378  36.265  1.00  0.00     0.029 A 
ATOM     51  N   UNL A   1      41.607  29.918  34.127  1.00  0.00    -0.354 N 
ATOM     52  N   UNL A   1      42.042  28.534  31.576  1.00  0.00    -0.248 NA
ATOM     53  C   UNL A   1      43.334  27.131  30.231  1.00  0.00     0.031 C 
ATOM     54  C   UNL A   1      42.933  29.421  35.838  1.00  0.00     0.029 A 
ATOM     55  C   UNL A   1      42.678  29.127  34.507  1.00  0.00     0.049 A 
ATOM     56  H   UNL A   1      41.202  29.925  33.230  1.00  0.00     0.167 HD
ATOM     57  C   UNL A   1      43.064  27.985  32.342  1.00  0.00     0.074 A 
ATOM     58  C   UNL A   1      43.805  27.096  31.469  1.00  0.00     0.031 C 
ATOM     59  C   UNL A   1      43.372  28.206  33.644  1.00  0.00     0.034 A 
BRANCH  46  60
ATOM     60  C   UNL A   1      39.827  32.466  36.376  1.00  0.00     0.023 A 
ATOM     61  C   UNL A   1      40.543  33.656  36.614  1.00  0.00     0.012 A 
ATOM     62  C   UNL A   1      38.812  32.079  37.271  1.00  0.00     0.148 A 
ATOM     63  C   UNL A   1      40.273  34.433  37.741  1.00  0.00     0.002 A 
ATOM     64  C   UNL A   1      38.520  32.879  38.370  1.00  0.00     0.091 A 
ATOM     65  F   UNL A   1      38.161  30.930  37.041  1.00  0.00    -0.205 F 
ATOM     66  C   UNL A   1      39.257  34.051  38.612  1.00  0.00     0.022 A 
BRANCH  64  67
ATOM     67  S   UNL A   1      37.180  32.508  39.506  1.00  0.00     0.127 S 
ATOM     68  O   UNL A   1      36.014  32.615  38.632  1.00  0.00    -0.237 OA
ATOM     69  O   UNL A   1      37.501  31.144  39.929  1.00  0.00    -0.237 OA
ATOM     70  O   UNL A   1      37.265  33.505  40.564  1.00  0.00    -0.744 OA
ENDBRANCH  64  67
ENDBRANCH  46  60
BRANCH  47  71
ATOM     71  C   UNL A   1      41.611  27.511  27.883  1.00  0.00     0.023 A 
ATOM     72  C   UNL A   1      42.066  28.239  26.767  1.00  0.00     0.012 A 
ATOM     73  C   UNL A   1      41.467  26.113  27.781  1.00  0.00     0.148 A 
ATOM     74  C   UNL A   1      42.346  27.591  25.563  1.00  0.00     0.002 A 
ATOM     75  C   UNL A   1      41.800  25.468  26.596  1.00  0.00     0.091 A 
ATOM     76  F   UNL A   1      41.014  25.442  28.848  1.00  0.00    -0.205 F 
ATOM     77  C   UNL A   1      42.225  26.207  25.480  1.00  0.00     0.022 A 
BRANCH  75  78
ATOM     78  S   UNL A   1      41.795  23.679  26.441  1.00  0.00     0.127 S 
ATOM     79  O   UNL A   1      42.536  23.484  25.198  1.00  0.00    -0.237 OA
ATOM     80  O   UNL A   1      42.504  23.269  27.654  1.00  0.00    -0.237 OA
ATOM     81  O   UNL A   1      40.391  23.292  26.408  1.00  0.00    -0.744 OA
ENDBRANCH  75  78
ENDBRANCH  47  71
BRANCH  59  82
ATOM     82  C   UNL A   1      44.541  27.454  34.226  1.00  0.00     0.023 A 
ATOM     83  C   UNL A   1      45.830  28.022  34.186  1.00  0.00     0.012 A 
ATOM     84  C   UNL A   1      44.348  26.223  34.885  1.00  0.00     0.148 A 
ATOM     85  C   UNL A   1      46.913  27.363  34.765  1.00  0.00     0.002 A 
ATOM     86  C   UNL A   1      45.424  25.595  35.501  1.00  0.00     0.091 A 
ATOM     87  F   UNL A   1      43.118  25.689  34.896  1.00  0.00    -0.205 F 
ATOM     88  C   UNL A   1      46.709  26.158  35.433  1.00  0.00     0.022 A 
BRANCH  86  89
ATOM     89  S   UNL A   1      45.236  24.090  36.465  1.00  0.00     0.127 S 
ATOM     90  O   UNL A   1      46.518  24.020  37.162  1.00  0.00    -0.237 OA
ATOM     91  O   UNL A   1      44.092  24.409  37.321  1.00  0.00    -0.237 OA
ATOM     92  O   UNL A   1      44.988  23.027  35.501  1.00  0.00    -0.744 OA
ENDBRANCH  86  89
ENDBRANCH  59  82
ENDBRANCH  33  34
ENDBRANCH  26  28
ENDBRANCH  25  26
ENDBRANCH  24  25
ENDBRANCH  23  24
ENDBRANCH  22  23
ENDBRANCH   1  22
TORSDOF 21
ENDMDL
