MODEL 1
REMARK VINA RESULT:      -6.9      0.000      0.000
REMARK SMILES CC(=O)Nc1ccc(/N=C2\C(=O)N(c3ccc(NC(C)=O)cc3)[C@H](c3ccccc3)[C@H]2CC(=O)OCCOCCOC(=O)c2ccc(-c3c4nc(c(-c5cccc(S(=O)(=O)[O-])c5F)c5ccc([nH]5)c(-c5cccc(S(=O)(=O)[O-])c5F)c5nc(c(-c6cccc(S(=O)(=O)[O-])c6F)c6ccc3[nH]6)C=C5)C=C4)cc2)cc1
REMARK SMILES IDX 38 1 37 2 36 3 35 4 33 5 34 6 32 7 31 8 9 9 10 10 11 11
REMARK SMILES IDX 12 12 13 13 24 14 8 15 5 16 6 17 108 18 7 19 107 20 4 21
REMARK SMILES IDX 1 22 2 23 3 24 14 26 15 27 23 28 16 29 22 30 17 31 18 32
REMARK SMILES IDX 19 33 20 35 21 36 25 37 26 38 30 39 27 40 29 41 28 42 39 43
REMARK SMILES IDX 40 44 41 45 42 46 43 47 44 48 45 49 106 50 46 51 105 52
REMARK SMILES IDX 47 53 48 54 49 55 99 56 50 57 104 58 98 59 100 60 51 61
REMARK SMILES IDX 103 62 97 63 96 64 52 66 84 67 64 68 83 69 65 70 68 71 82 72
REMARK SMILES IDX 101 73 66 74 67 75 81 77 102 78 69 79 53 80 54 81 62 82
REMARK SMILES IDX 55 83 57 84 63 85 56 86 58 87 59 88 60 89 61 90 85 91 86 92
REMARK SMILES IDX 94 93 87 94 89 95 95 96 88 97 90 98 91 99 92 100 93 101
REMARK SMILES IDX 70 102 71 103 79 104 72 105 74 106 80 107 73 108 75 109
REMARK SMILES IDX 76 110 77 111 78 112
REMARK H PARENT 4 25 18 34 100 65 68 76
REMARK Flexibility Score: inf
ROOT
ATOM      1  O   UNL A   1      46.034  23.455  23.874  1.00  0.00    -0.374 OA
ENDROOT
BRANCH   1   2
ATOM      2  C   UNL A   1      47.144  24.331  24.097  1.00  0.00     0.202 C 
BRANCH   2   3
ATOM      3  C   UNL A   1      46.844  25.290  25.251  1.00  0.00     0.261 C 
BRANCH   3   4
ATOM      4  O   UNL A   1      45.982  26.361  24.819  1.00  0.00    -0.463 OA
BRANCH   4   5
ATOM      5  C   UNL A   1      46.510  27.604  24.735  1.00  0.00     0.306 C 
ATOM      6  O   UNL A   1      46.466  28.349  23.766  1.00  0.00    -0.252 OA
BRANCH   5   7
ATOM      7  C   UNL A   1      47.153  27.992  26.046  1.00  0.00     0.135 C 
BRANCH   7   8
ATOM      8  C   UNL A   1      46.080  28.130  27.123  1.00  0.00     0.083 C 
ATOM      9  N   UNL A   1      47.265  27.866  29.248  1.00  0.00    -0.247 NA
ATOM     10  C   UNL A   1      46.690  28.652  28.389  1.00  0.00     0.112 C 
ATOM     11  C   UNL A   1      46.416  30.133  28.502  1.00  0.00     0.273 C 
ATOM     12  O   UNL A   1      47.062  30.890  29.191  1.00  0.00    -0.267 OA
ATOM     13  N   UNL A   1      45.308  30.367  27.701  1.00  0.00    -0.299 N 
ATOM     14  C   UNL A   1      45.020  29.229  26.830  1.00  0.00     0.131 C 
BRANCH   9  15
ATOM     15  C   UNL A   1      47.745  28.410  30.451  1.00  0.00     0.064 A 
ATOM     16  C   UNL A   1      48.707  29.403  32.918  1.00  0.00     0.041 A 
ATOM     17  C   UNL A   1      47.336  29.218  32.703  1.00  0.00     0.028 A 
ATOM     18  C   UNL A   1      49.581  29.164  31.858  1.00  0.00     0.028 A 
ATOM     19  C   UNL A   1      46.860  28.719  31.482  1.00  0.00     0.030 A 
ATOM     20  C   UNL A   1      49.103  28.684  30.631  1.00  0.00     0.030 A 
BRANCH  16  21
ATOM     21  N   UNL A   1      49.100  29.853  34.191  1.00  0.00    -0.326 N 
ATOM     22  C   UNL A   1      49.245  27.711  35.471  1.00  0.00     0.114 C 
ATOM     23  C   UNL A   1      49.436  29.196  35.340  1.00  0.00     0.221 C 
ATOM     24  O   UNL A   1      49.857  29.840  36.304  1.00  0.00    -0.275 OA
ATOM     25  H   UNL A   1      49.140  30.833  34.270  1.00  0.00     0.169 HD
ENDBRANCH  16  21
ENDBRANCH   9  15
BRANCH  13  26
ATOM     26  C   UNL A   1      44.639  31.623  27.673  1.00  0.00     0.045 A 
ATOM     27  C   UNL A   1      44.852  32.519  26.618  1.00  0.00     0.028 A 
ATOM     28  C   UNL A   1      43.852  32.065  28.739  1.00  0.00     0.028 A 
ATOM     29  C   UNL A   1      44.337  33.824  26.642  1.00  0.00     0.028 A 
ATOM     30  C   UNL A   1      43.369  33.380  28.785  1.00  0.00     0.028 A 
ATOM     31  C   UNL A   1      43.622  34.276  27.744  1.00  0.00     0.041 A 
BRANCH  31  32
ATOM     32  N   UNL A   1      43.201  35.610  27.916  1.00  0.00    -0.326 N 
ATOM     33  C   UNL A   1      43.945  36.752  27.692  1.00  0.00     0.221 C 
ATOM     34  H   UNL A   1      42.278  35.742  28.230  1.00  0.00     0.169 HD
ATOM     35  C   UNL A   1      43.283  38.000  28.224  1.00  0.00     0.114 C 
ATOM     36  O   UNL A   1      45.024  36.823  27.114  1.00  0.00    -0.275 OA
ENDBRANCH  31  32
ENDBRANCH  13  26
BRANCH  14  37
ATOM     37  C   UNL A   1      43.624  28.636  26.906  1.00  0.00    -0.024 A 
ATOM     38  C   UNL A   1      42.554  29.313  26.293  1.00  0.00     0.006 A 
ATOM     39  C   UNL A   1      43.365  27.421  27.561  1.00  0.00     0.006 A 
ATOM     40  C   UNL A   1      41.259  28.795  26.345  1.00  0.00     0.000 A 
ATOM     41  C   UNL A   1      42.070  26.901  27.598  1.00  0.00     0.000 A 
ATOM     42  C   UNL A   1      41.018  27.588  26.994  1.00  0.00     0.000 A 
ENDBRANCH  14  37
ENDBRANCH   7   8
ENDBRANCH   5   7
ENDBRANCH   4   5
ENDBRANCH   3   4
ENDBRANCH   2   3
ENDBRANCH   1   2
BRANCH   1  43
ATOM     43  C   UNL A   1      46.249  22.110  24.300  1.00  0.00     0.202 C 
BRANCH  43  44
ATOM     44  C   UNL A   1      45.136  21.626  25.228  1.00  0.00     0.261 C 
BRANCH  44  45
ATOM     45  O   UNL A   1      45.119  22.421  26.426  1.00  0.00    -0.460 OA
BRANCH  45  46
ATOM     46  C   UNL A   1      44.012  23.170  26.648  1.00  0.00     0.338 C 
ATOM     47  O   UNL A   1      43.107  23.376  25.855  1.00  0.00    -0.246 OA
BRANCH  46  48
ATOM     48  C   UNL A   1      44.041  23.738  28.023  1.00  0.00     0.060 A 
ATOM     49  C   UNL A   1      45.188  24.436  28.424  1.00  0.00     0.016 A 
ATOM     50  C   UNL A   1      42.971  23.601  28.918  1.00  0.00     0.016 A 
ATOM     51  C   UNL A   1      45.267  24.985  29.707  1.00  0.00     0.010 A 
ATOM     52  C   UNL A   1      43.053  24.148  30.202  1.00  0.00     0.010 A 
ATOM     53  C   UNL A   1      44.201  24.840  30.604  1.00  0.00    -0.014 A 
BRANCH  53  54
ATOM     54  C   UNL A   1      44.303  25.421  31.960  1.00  0.00     0.031 A 
ATOM     55  C   UNL A   1      44.836  24.597  33.092  1.00  0.00     0.074 A 
ATOM     56  C   UNL A   1      43.949  26.701  32.169  1.00  0.00     0.049 A 
ATOM     57  N   UNL A   1      45.276  24.989  34.258  1.00  0.00    -0.248 NA
ATOM     58  C   UNL A   1      44.899  23.145  32.873  1.00  0.00     0.031 C 
ATOM     59  C   UNL A   1      43.385  27.599  31.162  1.00  0.00     0.029 A 
ATOM     60  N   UNL A   1      44.028  27.469  33.302  1.00  0.00    -0.354 N 
ATOM     61  C   UNL A   1      45.715  23.840  34.899  1.00  0.00     0.074 A 
ATOM     62  C   UNL A   1      45.446  22.730  34.008  1.00  0.00     0.031 C 
ATOM     63  C   UNL A   1      43.182  28.805  31.720  1.00  0.00     0.029 A 
ATOM     64  C   UNL A   1      43.618  28.766  33.115  1.00  0.00     0.049 A 
ATOM     65  H   UNL A   1      44.347  27.124  34.167  1.00  0.00     0.167 HD
ATOM     66  C   UNL A   1      46.341  23.737  36.097  1.00  0.00     0.034 A 
ATOM     67  C   UNL A   1      43.634  29.811  33.963  1.00  0.00     0.034 A 
ATOM     68  C   UNL A   1      46.629  24.860  36.953  1.00  0.00     0.049 A 
ATOM     69  C   UNL A   1      44.223  29.637  35.335  1.00  0.00     0.074 A 
ATOM     70  C   UNL A   1      47.412  24.914  38.094  1.00  0.00     0.029 A 
ATOM     71  N   UNL A   1      46.102  26.129  36.773  1.00  0.00    -0.354 N 
ATOM     72  N   UNL A   1      44.889  28.618  35.819  1.00  0.00    -0.248 NA
ATOM     73  C   UNL A   1      44.090  30.770  36.263  1.00  0.00     0.031 C 
ATOM     74  C   UNL A   1      47.359  26.219  38.602  1.00  0.00     0.029 A 
ATOM     75  C   UNL A   1      46.511  26.964  37.800  1.00  0.00     0.049 A 
ATOM     76  H   UNL A   1      45.521  26.399  36.025  1.00  0.00     0.167 HD
ATOM     77  C   UNL A   1      45.308  29.008  37.084  1.00  0.00     0.074 A 
ATOM     78  C   UNL A   1      44.799  30.347  37.303  1.00  0.00     0.031 C 
ATOM     79  C   UNL A   1      46.056  28.317  37.979  1.00  0.00     0.034 A 
BRANCH  66  80
ATOM     80  C   UNL A   1      46.879  22.384  36.467  1.00  0.00     0.023 A 
ATOM     81  C   UNL A   1      46.082  21.555  37.282  1.00  0.00     0.012 A 
ATOM     82  C   UNL A   1      48.147  21.934  36.064  1.00  0.00     0.148 A 
ATOM     83  C   UNL A   1      46.537  20.301  37.686  1.00  0.00     0.002 A 
ATOM     84  C   UNL A   1      48.606  20.691  36.494  1.00  0.00     0.091 A 
ATOM     85  F   UNL A   1      48.913  22.735  35.307  1.00  0.00    -0.205 F 
ATOM     86  C   UNL A   1      47.802  19.870  37.297  1.00  0.00     0.022 A 
BRANCH  84  87
ATOM     87  S   UNL A   1      50.274  20.175  36.083  1.00  0.00     0.127 S 
ATOM     88  O   UNL A   1      50.154  19.788  34.679  1.00  0.00    -0.237 OA
ATOM     89  O   UNL A   1      51.067  21.388  36.301  1.00  0.00    -0.237 OA
ATOM     90  O   UNL A   1      50.538  19.106  37.038  1.00  0.00    -0.744 OA
ENDBRANCH  84  87
ENDBRANCH  66  80
BRANCH  67  91
ATOM     91  C   UNL A   1      43.192  31.147  33.490  1.00  0.00     0.023 A 
ATOM     92  C   UNL A   1      44.151  32.043  32.979  1.00  0.00     0.012 A 
ATOM     93  C   UNL A   1      41.838  31.520  33.493  1.00  0.00     0.148 A 
ATOM     94  C   UNL A   1      43.765  33.293  32.489  1.00  0.00     0.002 A 
ATOM     95  C   UNL A   1      41.459  32.754  32.975  1.00  0.00     0.091 A 
ATOM     96  F   UNL A   1      40.929  30.657  33.971  1.00  0.00    -0.205 F 
ATOM     97  C   UNL A   1      42.418  33.647  32.480  1.00  0.00     0.022 A 
BRANCH  95  98
ATOM     98  S   UNL A   1      39.715  33.158  32.867  1.00  0.00     0.127 S 
ATOM     99  O   UNL A   1      39.286  33.101  34.260  1.00  0.00    -0.237 OA
ATOM    100  O   UNL A   1      39.716  34.501  32.285  1.00  0.00    -0.237 OA
ATOM    101  O   UNL A   1      39.198  32.122  31.977  1.00  0.00    -0.744 OA
ENDBRANCH  95  98
ENDBRANCH  67  91
BRANCH  79 102
ATOM    102  C   UNL A   1      46.397  29.008  39.266  1.00  0.00     0.023 A 
ATOM    103  C   UNL A   1      47.450  29.941  39.281  1.00  0.00     0.012 A 
ATOM    104  C   UNL A   1      45.664  28.773  40.442  1.00  0.00     0.148 A 
ATOM    105  C   UNL A   1      47.774  30.624  40.454  1.00  0.00     0.002 A 
ATOM    106  C   UNL A   1      45.986  29.465  41.605  1.00  0.00     0.091 A 
ATOM    107  F   UNL A   1      44.658  27.884  40.417  1.00  0.00    -0.205 F 
ATOM    108  C   UNL A   1      47.042  30.388  41.618  1.00  0.00     0.022 A 
BRANCH 106 109
ATOM    109  S   UNL A   1      45.033  29.177  43.098  1.00  0.00     0.127 S 
ATOM    110  O   UNL A   1      45.512  30.220  44.000  1.00  0.00    -0.237 OA
ATOM    111  O   UNL A   1      43.648  29.357  42.657  1.00  0.00    -0.237 OA
ATOM    112  O   UNL A   1      45.373  27.803  43.450  1.00  0.00    -0.744 OA
ENDBRANCH 106 109
ENDBRANCH  79 102
ENDBRANCH  53  54
ENDBRANCH  46  48
ENDBRANCH  45  46
ENDBRANCH  44  45
ENDBRANCH  43  44
ENDBRANCH   1  43
TORSDOF 23
ENDMDL
MODEL 2
REMARK VINA RESULT:      -6.9      7.942     15.360
REMARK SMILES CC(=O)Nc1ccc(/N=C2\C(=O)N(c3ccc(NC(C)=O)cc3)[C@H](c3ccccc3)[C@H]2CC(=O)OCCOCCOC(=O)c2ccc(-c3c4nc(c(-c5cccc(S(=O)(=O)[O-])c5F)c5ccc([nH]5)c(-c5cccc(S(=O)(=O)[O-])c5F)c5nc(c(-c6cccc(S(=O)(=O)[O-])c6F)c6ccc3[nH]6)C=C5)C=C4)cc2)cc1
REMARK SMILES IDX 38 1 37 2 36 3 35 4 33 5 34 6 32 7 31 8 9 9 10 10 11 11
REMARK SMILES IDX 12 12 13 13 24 14 8 15 5 16 6 17 108 18 7 19 107 20 4 21
REMARK SMILES IDX 1 22 2 23 3 24 14 26 15 27 23 28 16 29 22 30 17 31 18 32
REMARK SMILES IDX 19 33 20 35 21 36 25 37 26 38 30 39 27 40 29 41 28 42 39 43
REMARK SMILES IDX 40 44 41 45 42 46 43 47 44 48 45 49 106 50 46 51 105 52
REMARK SMILES IDX 47 53 48 54 49 55 99 56 50 57 104 58 98 59 100 60 51 61
REMARK SMILES IDX 103 62 97 63 96 64 52 66 84 67 64 68 83 69 65 70 68 71 82 72
REMARK SMILES IDX 101 73 66 74 67 75 81 77 102 78 69 79 53 80 54 81 62 82
REMARK SMILES IDX 55 83 57 84 63 85 56 86 58 87 59 88 60 89 61 90 85 91 86 92
REMARK SMILES IDX 94 93 87 94 89 95 95 96 88 97 90 98 91 99 92 100 93 101
REMARK SMILES IDX 70 102 71 103 79 104 72 105 74 106 80 107 73 108 75 109
REMARK SMILES IDX 76 110 77 111 78 112
REMARK H PARENT 4 25 18 34 100 65 68 76
REMARK Flexibility Score: inf
ROOT
ATOM      1  O   UNL A   1      41.267  41.041  24.699  1.00  0.00    -0.374 OA
ENDROOT
BRANCH   1   2
ATOM      2  C   UNL A   1      41.522  42.267  24.006  1.00  0.00     0.202 C 
BRANCH   2   3
ATOM      3  C   UNL A   1      41.711  42.006  22.511  1.00  0.00     0.261 C 
BRANCH   3   4
ATOM      4  O   UNL A   1      41.344  43.164  21.735  1.00  0.00    -0.463 OA
BRANCH   4   5
ATOM      5  C   UNL A   1      42.113  43.479  20.667  1.00  0.00     0.306 C 
ATOM      6  O   UNL A   1      41.733  43.993  19.623  1.00  0.00    -0.252 OA
BRANCH   5   7
ATOM      7  C   UNL A   1      43.560  43.143  20.942  1.00  0.00     0.135 C 
BRANCH   7   8
ATOM      8  C   UNL A   1      44.309  44.406  21.360  1.00  0.00     0.083 C 
ATOM      9  N   UNL A   1      44.162  44.460  23.803  1.00  0.00    -0.247 NA
ATOM     10  C   UNL A   1      44.872  44.233  22.739  1.00  0.00     0.112 C 
ATOM     11  C   UNL A   1      46.338  43.887  22.641  1.00  0.00     0.273 C 
ATOM     12  O   UNL A   1      46.966  43.344  23.521  1.00  0.00    -0.267 OA
ATOM     13  N   UNL A   1      46.744  44.343  21.395  1.00  0.00    -0.299 N 
ATOM     14  C   UNL A   1      45.604  44.679  20.544  1.00  0.00     0.131 C 
BRANCH   9  15
ATOM     15  C   UNL A   1      44.775  44.357  25.063  1.00  0.00     0.064 A 
ATOM     16  C   UNL A   1      46.093  44.096  27.551  1.00  0.00     0.041 A 
ATOM     17  C   UNL A   1      45.285  43.066  27.053  1.00  0.00     0.028 A 
ATOM     18  C   UNL A   1      46.166  45.287  26.829  1.00  0.00     0.028 A 
ATOM     19  C   UNL A   1      44.638  43.193  25.816  1.00  0.00     0.030 A 
ATOM     20  C   UNL A   1      45.503  45.421  25.602  1.00  0.00     0.030 A 
BRANCH  16  21
ATOM     21  N   UNL A   1      46.749  43.859  28.772  1.00  0.00    -0.326 N 
ATOM     22  C   UNL A   1      48.729  42.521  28.040  1.00  0.00     0.114 C 
ATOM     23  C   UNL A   1      47.936  43.260  29.082  1.00  0.00     0.221 C 
ATOM     24  O   UNL A   1      48.339  43.281  30.247  1.00  0.00    -0.275 OA
ATOM     25  H   UNL A   1      46.257  44.192  29.557  1.00  0.00     0.169 HD
ENDBRANCH  16  21
ENDBRANCH   9  15
BRANCH  13  26
ATOM     26  C   UNL A   1      48.109  44.348  20.992  1.00  0.00     0.045 A 
ATOM     27  C   UNL A   1      48.659  43.245  20.327  1.00  0.00     0.028 A 
ATOM     28  C   UNL A   1      48.980  45.382  21.346  1.00  0.00     0.028 A 
ATOM     29  C   UNL A   1      50.034  43.153  20.062  1.00  0.00     0.028 A 
ATOM     30  C   UNL A   1      50.360  45.275  21.119  1.00  0.00     0.028 A 
ATOM     31  C   UNL A   1      50.900  44.151  20.490  1.00  0.00     0.041 A 
BRANCH  31  32
ATOM     32  N   UNL A   1      52.303  44.067  20.401  1.00  0.00    -0.326 N 
ATOM     33  C   UNL A   1      53.186  43.773  21.423  1.00  0.00     0.221 C 
ATOM     34  H   UNL A   1      52.698  44.236  19.515  1.00  0.00     0.169 HD
ATOM     35  C   UNL A   1      54.626  44.023  21.048  1.00  0.00     0.114 C 
ATOM     36  O   UNL A   1      52.903  43.335  22.532  1.00  0.00    -0.275 OA
ENDBRANCH  31  32
ENDBRANCH  13  26
BRANCH  14  37
ATOM     37  C   UNL A   1      45.564  46.081  19.963  1.00  0.00    -0.024 A 
ATOM     38  C   UNL A   1      45.350  46.250  18.583  1.00  0.00     0.006 A 
ATOM     39  C   UNL A   1      45.721  47.224  20.764  1.00  0.00     0.006 A 
ATOM     40  C   UNL A   1      45.308  47.524  18.018  1.00  0.00     0.000 A 
ATOM     41  C   UNL A   1      45.665  48.498  20.195  1.00  0.00     0.000 A 
ATOM     42  C   UNL A   1      45.462  48.648  18.825  1.00  0.00     0.000 A 
ENDBRANCH  14  37
ENDBRANCH   7   8
ENDBRANCH   5   7
ENDBRANCH   4   5
ENDBRANCH   3   4
ENDBRANCH   2   3
ENDBRANCH   1   2
BRANCH   1  43
ATOM     43  C   UNL A   1      41.906  40.939  25.971  1.00  0.00     0.202 C 
BRANCH  43  44
ATOM     44  C   UNL A   1      41.326  39.798  26.806  1.00  0.00     0.261 C 
BRANCH  44  45
ATOM     45  O   UNL A   1      42.021  38.575  26.511  1.00  0.00    -0.460 OA
BRANCH  45  46
ATOM     46  C   UNL A   1      42.075  37.647  27.497  1.00  0.00     0.338 C 
ATOM     47  O   UNL A   1      41.414  37.645  28.523  1.00  0.00    -0.246 OA
BRANCH  46  48
ATOM     48  C   UNL A   1      43.082  36.602  27.167  1.00  0.00     0.060 A 
ATOM     49  C   UNL A   1      44.227  36.513  27.970  1.00  0.00     0.016 A 
ATOM     50  C   UNL A   1      42.921  35.713  26.096  1.00  0.00     0.016 A 
ATOM     51  C   UNL A   1      45.204  35.551  27.700  1.00  0.00     0.010 A 
ATOM     52  C   UNL A   1      43.902  34.754  25.825  1.00  0.00     0.010 A 
ATOM     53  C   UNL A   1      45.049  34.670  26.622  1.00  0.00    -0.014 A 
BRANCH  53  54
ATOM     54  C   UNL A   1      46.095  33.662  26.346  1.00  0.00     0.031 A 
ATOM     55  C   UNL A   1      47.463  34.097  25.919  1.00  0.00     0.074 A 
ATOM     56  C   UNL A   1      45.827  32.354  26.512  1.00  0.00     0.049 A 
ATOM     57  N   UNL A   1      48.578  33.417  25.915  1.00  0.00    -0.248 NA
ATOM     58  C   UNL A   1      47.594  35.486  25.455  1.00  0.00     0.031 C 
ATOM     59  C   UNL A   1      44.529  31.797  26.890  1.00  0.00     0.029 A 
ATOM     60  N   UNL A   1      46.645  31.260  26.395  1.00  0.00    -0.354 N 
ATOM     61  C   UNL A   1      49.558  34.305  25.495  1.00  0.00     0.074 A 
ATOM     62  C   UNL A   1      48.895  35.561  25.210  1.00  0.00     0.031 C 
ATOM     63  C   UNL A   1      44.642  30.462  26.989  1.00  0.00     0.029 A 
ATOM     64  C   UNL A   1      46.021  30.076  26.699  1.00  0.00     0.049 A 
ATOM     65  H   UNL A   1      47.588  31.318  26.119  1.00  0.00     0.167 HD
ATOM     66  C   UNL A   1      50.896  34.099  25.416  1.00  0.00     0.034 A 
ATOM     67  C   UNL A   1      46.521  28.828  26.775  1.00  0.00     0.034 A 
ATOM     68  C   UNL A   1      51.537  32.850  25.736  1.00  0.00     0.049 A 
ATOM     69  C   UNL A   1      47.992  28.609  26.559  1.00  0.00     0.074 A 
ATOM     70  C   UNL A   1      52.886  32.568  25.873  1.00  0.00     0.029 A 
ATOM     71  N   UNL A   1      50.860  31.656  25.933  1.00  0.00    -0.354 N 
ATOM     72  N   UNL A   1      48.946  29.500  26.443  1.00  0.00    -0.248 NA
ATOM     73  C   UNL A   1      48.458  27.215  26.519  1.00  0.00     0.031 C 
ATOM     74  C   UNL A   1      53.023  31.201  26.154  1.00  0.00     0.029 A 
ATOM     75  C   UNL A   1      51.762  30.629  26.152  1.00  0.00     0.049 A 
ATOM     76  H   UNL A   1      49.881  31.554  25.919  1.00  0.00     0.167 HD
ATOM     77  C   UNL A   1      50.131  28.779  26.378  1.00  0.00     0.074 A 
ATOM     78  C   UNL A   1      49.773  27.375  26.441  1.00  0.00     0.031 C 
ATOM     79  C   UNL A   1      51.400  29.242  26.282  1.00  0.00     0.034 A 
BRANCH  66  80
ATOM     80  C   UNL A   1      51.748  35.297  25.108  1.00  0.00     0.023 A 
ATOM     81  C   UNL A   1      52.349  35.373  23.835  1.00  0.00     0.012 A 
ATOM     82  C   UNL A   1      51.994  36.316  26.043  1.00  0.00     0.148 A 
ATOM     83  C   UNL A   1      53.177  36.443  23.499  1.00  0.00     0.002 A 
ATOM     84  C   UNL A   1      52.844  37.368  25.709  1.00  0.00     0.091 A 
ATOM     85  F   UNL A   1      51.438  36.230  27.262  1.00  0.00    -0.205 F 
ATOM     86  C   UNL A   1      53.429  37.439  24.438  1.00  0.00     0.022 A 
BRANCH  84  87
ATOM     87  S   UNL A   1      53.255  38.598  26.949  1.00  0.00     0.127 S 
ATOM     88  O   UNL A   1      51.943  39.017  27.434  1.00  0.00    -0.237 OA
ATOM     89  O   UNL A   1      54.039  37.842  27.929  1.00  0.00    -0.237 OA
ATOM     90  O   UNL A   1      54.023  39.585  26.198  1.00  0.00    -0.744 OA
ENDBRANCH  84  87
ENDBRANCH  66  80
BRANCH  67  91
ATOM     91  C   UNL A   1      45.641  27.709  27.198  1.00  0.00     0.023 A 
ATOM     92  C   UNL A   1      45.520  27.415  28.569  1.00  0.00     0.012 A 
ATOM     93  C   UNL A   1      44.889  26.971  26.269  1.00  0.00     0.148 A 
ATOM     94  C   UNL A   1      44.670  26.395  29.004  1.00  0.00     0.002 A 
ATOM     95  C   UNL A   1      44.023  25.978  26.712  1.00  0.00     0.091 A 
ATOM     96  F   UNL A   1      45.002  27.264  24.964  1.00  0.00    -0.205 F 
ATOM     97  C   UNL A   1      43.916  25.680  28.077  1.00  0.00     0.022 A 
BRANCH  95  98
ATOM     98  S   UNL A   1      42.976  25.136  25.525  1.00  0.00     0.127 S 
ATOM     99  O   UNL A   1      42.312  26.241  24.842  1.00  0.00    -0.237 OA
ATOM    100  O   UNL A   1      43.930  24.396  24.698  1.00  0.00    -0.237 OA
ATOM    101  O   UNL A   1      42.140  24.291  26.374  1.00  0.00    -0.744 OA
ENDBRANCH  95  98
ENDBRANCH  67  91
BRANCH  79 102
ATOM    102  C   UNL A   1      52.503  28.225  26.272  1.00  0.00     0.023 A 
ATOM    103  C   UNL A   1      52.901  27.663  25.045  1.00  0.00     0.012 A 
ATOM    104  C   UNL A   1      53.170  27.854  27.451  1.00  0.00     0.148 A 
ATOM    105  C   UNL A   1      53.944  26.737  24.996  1.00  0.00     0.002 A 
ATOM    106  C   UNL A   1      54.216  26.939  27.394  1.00  0.00     0.091 A 
ATOM    107  F   UNL A   1      52.786  28.399  28.617  1.00  0.00    -0.205 F 
ATOM    108  C   UNL A   1      54.604  26.375  26.170  1.00  0.00     0.022 A 
BRANCH 106 109
ATOM    109  S   UNL A   1      55.078  26.485  28.901  1.00  0.00     0.127 S 
ATOM    110  O   UNL A   1      55.764  27.719  29.271  1.00  0.00    -0.237 OA
ATOM    111  O   UNL A   1      53.996  26.105  29.811  1.00  0.00    -0.237 OA
ATOM    112  O   UNL A   1      55.922  25.371  28.479  1.00  0.00    -0.744 OA
ENDBRANCH 106 109
ENDBRANCH  79 102
ENDBRANCH  53  54
ENDBRANCH  46  48
ENDBRANCH  45  46
ENDBRANCH  44  45
ENDBRANCH  43  44
ENDBRANCH   1  43
TORSDOF 23
ENDMDL
MODEL 3
REMARK VINA RESULT:      -6.7      8.018     14.572
REMARK SMILES CC(=O)Nc1ccc(/N=C2\C(=O)N(c3ccc(NC(C)=O)cc3)[C@H](c3ccccc3)[C@H]2CC(=O)OCCOCCOC(=O)c2ccc(-c3c4nc(c(-c5cccc(S(=O)(=O)[O-])c5F)c5ccc([nH]5)c(-c5cccc(S(=O)(=O)[O-])c5F)c5nc(c(-c6cccc(S(=O)(=O)[O-])c6F)c6ccc3[nH]6)C=C5)C=C4)cc2)cc1
REMARK SMILES IDX 38 1 37 2 36 3 35 4 33 5 34 6 32 7 31 8 9 9 10 10 11 11
REMARK SMILES IDX 12 12 13 13 24 14 8 15 5 16 6 17 108 18 7 19 107 20 4 21
REMARK SMILES IDX 1 22 2 23 3 24 14 26 15 27 23 28 16 29 22 30 17 31 18 32
REMARK SMILES IDX 19 33 20 35 21 36 25 37 26 38 30 39 27 40 29 41 28 42 39 43
REMARK SMILES IDX 40 44 41 45 42 46 43 47 44 48 45 49 106 50 46 51 105 52
REMARK SMILES IDX 47 53 48 54 49 55 99 56 50 57 104 58 98 59 100 60 51 61
REMARK SMILES IDX 103 62 97 63 96 64 52 66 84 67 64 68 83 69 65 70 68 71 82 72
REMARK SMILES IDX 101 73 66 74 67 75 81 77 102 78 69 79 53 80 54 81 62 82
REMARK SMILES IDX 55 83 57 84 63 85 56 86 58 87 59 88 60 89 61 90 85 91 86 92
REMARK SMILES IDX 94 93 87 94 89 95 95 96 88 97 90 98 91 99 92 100 93 101
REMARK SMILES IDX 70 102 71 103 79 104 72 105 74 106 80 107 73 108 75 109
REMARK SMILES IDX 76 110 77 111 78 112
REMARK H PARENT 4 25 18 34 100 65 68 76
REMARK Flexibility Score: inf
ROOT
ATOM      1  O   UNL A   1      41.911  41.638  23.550  1.00  0.00    -0.374 OA
ENDROOT
BRANCH   1   2
ATOM      2  C   UNL A   1      41.460  42.752  22.773  1.00  0.00     0.202 C 
BRANCH   2   3
ATOM      3  C   UNL A   1      41.750  42.520  21.289  1.00  0.00     0.261 C 
BRANCH   3   4
ATOM      4  O   UNL A   1      41.391  43.677  20.507  1.00  0.00    -0.463 OA
BRANCH   4   5
ATOM      5  C   UNL A   1      41.717  43.679  19.194  1.00  0.00     0.306 C 
ATOM      6  O   UNL A   1      40.939  43.727  18.251  1.00  0.00    -0.252 OA
BRANCH   5   7
ATOM      7  C   UNL A   1      43.218  43.652  19.024  1.00  0.00     0.135 C 
BRANCH   7   8
ATOM      8  C   UNL A   1      43.818  44.954  19.549  1.00  0.00     0.083 C 
ATOM      9  N   UNL A   1      44.378  44.505  21.889  1.00  0.00    -0.247 NA
ATOM     10  C   UNL A   1      44.777  44.662  20.663  1.00  0.00     0.112 C 
ATOM     11  C   UNL A   1      46.189  44.704  20.131  1.00  0.00     0.273 C 
ATOM     12  O   UNL A   1      47.132  44.170  20.669  1.00  0.00    -0.267 OA
ATOM     13  N   UNL A   1      46.128  45.473  18.977  1.00  0.00    -0.299 N 
ATOM     14  C   UNL A   1      44.749  45.680  18.539  1.00  0.00     0.131 C 
BRANCH   9  15
ATOM     15  C   UNL A   1      45.338  44.315  22.897  1.00  0.00     0.064 A 
ATOM     16  C   UNL A   1      47.348  43.921  24.847  1.00  0.00     0.041 A 
ATOM     17  C   UNL A   1      46.725  42.831  24.225  1.00  0.00     0.028 A 
ATOM     18  C   UNL A   1      46.895  45.204  24.542  1.00  0.00     0.028 A 
ATOM     19  C   UNL A   1      45.734  43.027  23.253  1.00  0.00     0.030 A 
ATOM     20  C   UNL A   1      45.890  45.399  23.585  1.00  0.00     0.030 A 
BRANCH  16  21
ATOM     21  N   UNL A   1      48.371  43.632  25.767  1.00  0.00    -0.326 N 
ATOM     22  C   UNL A   1      47.068  42.959  27.790  1.00  0.00     0.114 C 
ATOM     23  C   UNL A   1      48.357  43.133  27.038  1.00  0.00     0.221 C 
ATOM     24  O   UNL A   1      49.424  42.867  27.596  1.00  0.00    -0.275 OA
ATOM     25  H   UNL A   1      49.275  43.828  25.429  1.00  0.00     0.169 HD
ENDBRANCH  16  21
ENDBRANCH   9  15
BRANCH  13  26
ATOM     26  C   UNL A   1      47.293  45.882  18.271  1.00  0.00     0.045 A 
ATOM     27  C   UNL A   1      47.385  45.704  16.884  1.00  0.00     0.028 A 
ATOM     28  C   UNL A   1      48.430  46.356  18.931  1.00  0.00     0.028 A 
ATOM     29  C   UNL A   1      48.577  45.946  16.186  1.00  0.00     0.028 A 
ATOM     30  C   UNL A   1      49.634  46.561  18.243  1.00  0.00     0.028 A 
ATOM     31  C   UNL A   1      49.721  46.342  16.866  1.00  0.00     0.041 A 
BRANCH  31  32
ATOM     32  N   UNL A   1      50.992  46.460  16.268  1.00  0.00    -0.326 N 
ATOM     33  C   UNL A   1      52.051  45.580  16.384  1.00  0.00     0.221 C 
ATOM     34  H   UNL A   1      51.141  47.255  15.707  1.00  0.00     0.169 HD
ATOM     35  C   UNL A   1      53.341  46.136  15.835  1.00  0.00     0.114 C 
ATOM     36  O   UNL A   1      52.015  44.448  16.854  1.00  0.00    -0.275 OA
ENDBRANCH  31  32
ENDBRANCH  13  26
BRANCH  14  37
ATOM     37  C   UNL A   1      44.292  47.116  18.352  1.00  0.00    -0.024 A 
ATOM     38  C   UNL A   1      44.596  48.070  19.341  1.00  0.00     0.006 A 
ATOM     39  C   UNL A   1      43.584  47.531  17.213  1.00  0.00     0.006 A 
ATOM     40  C   UNL A   1      44.190  49.398  19.200  1.00  0.00     0.000 A 
ATOM     41  C   UNL A   1      43.192  48.863  17.071  1.00  0.00     0.000 A 
ATOM     42  C   UNL A   1      43.492  49.794  18.064  1.00  0.00     0.000 A 
ENDBRANCH  14  37
ENDBRANCH   7   8
ENDBRANCH   5   7
ENDBRANCH   4   5
ENDBRANCH   3   4
ENDBRANCH   2   3
ENDBRANCH   1   2
BRANCH   1  43
ATOM     43  C   UNL A   1      42.738  41.988  24.660  1.00  0.00     0.202 C 
BRANCH  43  44
ATOM     44  C   UNL A   1      42.302  41.272  25.937  1.00  0.00     0.261 C 
BRANCH  44  45
ATOM     45  O   UNL A   1      42.757  39.908  25.911  1.00  0.00    -0.460 OA
BRANCH  45  46
ATOM     46  C   UNL A   1      43.940  39.644  26.516  1.00  0.00     0.338 C 
ATOM     47  O   UNL A   1      44.971  40.287  26.396  1.00  0.00    -0.246 OA
BRANCH  46  48
ATOM     48  C   UNL A   1      43.825  38.428  27.365  1.00  0.00     0.060 A 
ATOM     49  C   UNL A   1      43.465  38.593  28.709  1.00  0.00     0.016 A 
ATOM     50  C   UNL A   1      44.059  37.139  26.869  1.00  0.00     0.016 A 
ATOM     51  C   UNL A   1      43.348  37.484  29.550  1.00  0.00     0.010 A 
ATOM     52  C   UNL A   1      43.945  36.029  27.713  1.00  0.00     0.010 A 
ATOM     53  C   UNL A   1      43.592  36.195  29.057  1.00  0.00    -0.014 A 
BRANCH  53  54
ATOM     54  C   UNL A   1      43.470  35.031  29.960  1.00  0.00     0.031 A 
ATOM     55  C   UNL A   1      42.160  34.317  30.090  1.00  0.00     0.074 A 
ATOM     56  C   UNL A   1      44.545  34.592  30.637  1.00  0.00     0.049 A 
ATOM     57  N   UNL A   1      41.916  33.130  30.580  1.00  0.00    -0.248 NA
ATOM     58  C   UNL A   1      40.975  35.024  29.586  1.00  0.00     0.031 C 
ATOM     59  C   UNL A   1      45.867  35.217  30.625  1.00  0.00     0.029 A 
ATOM     60  N   UNL A   1      44.692  33.505  31.459  1.00  0.00    -0.354 N 
ATOM     61  C   UNL A   1      40.555  32.923  30.401  1.00  0.00     0.074 A 
ATOM     62  C   UNL A   1      40.021  34.126  29.799  1.00  0.00     0.031 C 
ATOM     63  C   UNL A   1      46.698  34.492  31.393  1.00  0.00     0.029 A 
ATOM     64  C   UNL A   1      45.970  33.345  31.933  1.00  0.00     0.049 A 
ATOM     65  H   UNL A   1      43.952  32.897  31.687  1.00  0.00     0.167 HD
ATOM     66  C   UNL A   1      39.838  31.803  30.663  1.00  0.00     0.034 A 
ATOM     67  C   UNL A   1      46.500  32.361  32.685  1.00  0.00     0.034 A 
ATOM     68  C   UNL A   1      40.399  30.604  31.233  1.00  0.00     0.049 A 
ATOM     69  C   UNL A   1      45.645  31.186  33.068  1.00  0.00     0.074 A 
ATOM     70  C   UNL A   1      39.826  29.351  31.376  1.00  0.00     0.029 A 
ATOM     71  N   UNL A   1      41.664  30.528  31.794  1.00  0.00    -0.354 N 
ATOM     72  N   UNL A   1      44.443  30.874  32.650  1.00  0.00    -0.248 NA
ATOM     73  C   UNL A   1      46.233  30.213  34.000  1.00  0.00     0.031 C 
ATOM     74  C   UNL A   1      40.748  28.517  32.023  1.00  0.00     0.029 A 
ATOM     75  C   UNL A   1      41.877  29.263  32.317  1.00  0.00     0.049 A 
ATOM     76  H   UNL A   1      42.317  31.265  31.817  1.00  0.00     0.167 HD
ATOM     77  C   UNL A   1      44.154  29.640  33.216  1.00  0.00     0.074 A 
ATOM     78  C   UNL A   1      45.296  29.272  34.030  1.00  0.00     0.031 C 
ATOM     79  C   UNL A   1      43.043  28.879  33.068  1.00  0.00     0.034 A 
BRANCH  66  80
ATOM     80  C   UNL A   1      38.411  31.788  30.196  1.00  0.00     0.023 A 
ATOM     81  C   UNL A   1      38.113  31.110  28.996  1.00  0.00     0.012 A 
ATOM     82  C   UNL A   1      37.379  32.447  30.884  1.00  0.00     0.148 A 
ATOM     83  C   UNL A   1      36.814  31.086  28.493  1.00  0.00     0.002 A 
ATOM     84  C   UNL A   1      36.088  32.442  30.360  1.00  0.00     0.091 A 
ATOM     85  F   UNL A   1      37.669  33.111  32.014  1.00  0.00    -0.205 F 
ATOM     86  C   UNL A   1      35.800  31.757  29.171  1.00  0.00     0.022 A 
BRANCH  84  87
ATOM     87  S   UNL A   1      34.801  33.390  31.174  1.00  0.00     0.127 S 
ATOM     88  O   UNL A   1      33.980  33.847  30.056  1.00  0.00    -0.237 OA
ATOM     89  O   UNL A   1      34.144  32.401  32.032  1.00  0.00    -0.237 OA
ATOM     90  O   UNL A   1      35.548  34.412  31.900  1.00  0.00    -0.744 OA
ENDBRANCH  84  87
ENDBRANCH  66  80
BRANCH  67  91
ATOM     91  C   UNL A   1      47.948  32.386  33.012  1.00  0.00     0.023 A 
ATOM     92  C   UNL A   1      48.859  31.777  32.128  1.00  0.00     0.012 A 
ATOM     93  C   UNL A   1      48.434  33.043  34.154  1.00  0.00     0.148 A 
ATOM     94  C   UNL A   1      50.232  31.817  32.385  1.00  0.00     0.002 A 
ATOM     95  C   UNL A   1      49.804  33.103  34.387  1.00  0.00     0.091 A 
ATOM     96  F   UNL A   1      47.560  33.629  34.987  1.00  0.00    -0.205 F 
ATOM     97  C   UNL A   1      50.706  32.485  33.512  1.00  0.00     0.022 A 
BRANCH  95  98
ATOM     98  S   UNL A   1      50.414  34.057  35.778  1.00  0.00     0.127 S 
ATOM     99  O   UNL A   1      49.998  35.415  35.443  1.00  0.00    -0.237 OA
ATOM    100  O   UNL A   1      49.713  33.471  36.922  1.00  0.00    -0.237 OA
ATOM    101  O   UNL A   1      51.848  33.783  35.753  1.00  0.00    -0.744 OA
ENDBRANCH  95  98
ENDBRANCH  67  91
BRANCH  79 102
ATOM    102  C   UNL A   1      43.018  27.555  33.773  1.00  0.00     0.023 A 
ATOM    103  C   UNL A   1      43.656  26.452  33.175  1.00  0.00     0.012 A 
ATOM    104  C   UNL A   1      42.410  27.405  35.030  1.00  0.00     0.148 A 
ATOM    105  C   UNL A   1      43.678  25.214  33.819  1.00  0.00     0.002 A 
ATOM    106  C   UNL A   1      42.445  26.170  35.670  1.00  0.00     0.091 A 
ATOM    107  F   UNL A   1      41.808  28.464  35.595  1.00  0.00    -0.205 F 
ATOM    108  C   UNL A   1      43.075  25.071  35.068  1.00  0.00     0.022 A 
BRANCH 106 109
ATOM    109  S   UNL A   1      41.685  25.989  37.286  1.00  0.00     0.127 S 
ATOM    110  O   UNL A   1      40.631  27.000  37.269  1.00  0.00    -0.237 OA
ATOM    111  O   UNL A   1      41.192  24.611  37.278  1.00  0.00    -0.237 OA
ATOM    112  O   UNL A   1      42.796  26.221  38.204  1.00  0.00    -0.744 OA
ENDBRANCH 106 109
ENDBRANCH  79 102
ENDBRANCH  53  54
ENDBRANCH  46  48
ENDBRANCH  45  46
ENDBRANCH  44  45
ENDBRANCH  43  44
ENDBRANCH   1  43
TORSDOF 23
ENDMDL
