MODEL 1
REMARK VINA RESULT:     -10.7      0.000      0.000
REMARK SMILES O=C(/C=C/c1c(Cl)cccc1Cl)NCC(=O)OCCOCCOC(=O)c1ccc(-c2c3nc(c(-c4cccc(S(=O)(=O)[O-])c4F)c4ccc([nH]4)c(-c4cccc(S(=O)(=O)[O-])c4F)c4nc(c(-c5cccc(S(=O)(=O)[O-])c5F)c5ccc2[nH]5)C=C4)C=C3)cc1
REMARK SMILES IDX 20 1 19 2 18 3 17 4 15 5 16 6 14 7 13 8 1 9 2 10 3 12 4 13
REMARK SMILES IDX 5 14 6 15 11 16 7 17 8 18 10 19 12 20 9 21 21 22 22 23 23 24
REMARK SMILES IDX 24 25 25 26 26 27 27 28 88 29 28 30 87 31 29 32 30 33 31 34
REMARK SMILES IDX 81 35 32 36 86 37 80 38 82 39 33 40 85 41 79 42 78 43 34 45
REMARK SMILES IDX 66 46 46 47 65 48 47 49 50 50 64 51 83 52 48 53 49 54 63 56
REMARK SMILES IDX 84 57 51 58 35 59 36 60 44 61 37 62 39 63 45 64 38 65 40 66
REMARK SMILES IDX 41 67 42 68 43 69 67 70 68 71 76 72 69 73 71 74 77 75 70 76
REMARK SMILES IDX 72 77 73 78 74 79 75 80 52 81 53 82 61 83 54 84 56 85 62 86
REMARK SMILES IDX 55 87 57 88 58 89 59 90 60 91
REMARK H PARENT 13 11 82 44 50 55
REMARK Flexibility Score: inf
ROOT
ATOM      1  O   UNL A   1      37.402  21.482  24.293  1.00  0.00    -0.374 OA
ENDROOT
BRANCH   1   2
ATOM      2  C   UNL A   1      36.425  22.358  24.859  1.00  0.00     0.202 C 
BRANCH   2   3
ATOM      3  C   UNL A   1      35.555  21.776  25.976  1.00  0.00     0.261 C 
BRANCH   3   4
ATOM      4  O   UNL A   1      34.193  22.218  25.848  1.00  0.00    -0.462 OA
BRANCH   4   5
ATOM      5  C   UNL A   1      33.329  21.308  25.319  1.00  0.00     0.325 C 
ATOM      6  O   UNL A   1      33.657  20.259  24.775  1.00  0.00    -0.250 OA
BRANCH   5   7
ATOM      7  C   UNL A   1      31.872  21.651  25.619  1.00  0.00     0.239 C 
BRANCH   7   8
ATOM      8  N   UNL A   1      31.372  22.939  25.151  1.00  0.00    -0.342 N 
ATOM      9  O   UNL A   1      31.033  23.777  27.251  1.00  0.00    -0.270 OA
ATOM     10  C   UNL A   1      31.044  23.926  26.036  1.00  0.00     0.244 C 
ATOM     11  H   UNL A   1      31.269  23.098  24.185  1.00  0.00     0.164 HD
BRANCH  10  12
ATOM     12  C   UNL A   1      30.707  25.249  25.455  1.00  0.00     0.072 C 
ATOM     13  C   UNL A   1      30.618  25.500  24.138  1.00  0.00     0.017 C 
BRANCH  13  14
ATOM     14  C   UNL A   1      30.494  26.878  23.608  1.00  0.00     0.012 A 
ATOM     15  C   UNL A   1      29.236  27.491  23.424  1.00  0.00     0.049 A 
ATOM     16  C   UNL A   1      31.637  27.641  23.307  1.00  0.00     0.049 A 
ATOM     17  Cl  UNL A   1      27.751  26.722  23.882  1.00  0.00    -0.084 Cl
ATOM     18  C   UNL A   1      29.131  28.788  22.903  1.00  0.00     0.021 A 
ATOM     19  C   UNL A   1      31.528  28.937  22.783  1.00  0.00     0.021 A 
ATOM     20  Cl  UNL A   1      33.237  27.046  23.598  1.00  0.00    -0.084 Cl
ATOM     21  C   UNL A   1      30.275  29.506  22.572  1.00  0.00     0.003 A 
ENDBRANCH  13  14
ENDBRANCH  10  12
ENDBRANCH   7   8
ENDBRANCH   5   7
ENDBRANCH   4   5
ENDBRANCH   3   4
ENDBRANCH   2   3
ENDBRANCH   1   2
BRANCH   1  22
ATOM     22  C   UNL A   1      37.366  20.107  24.676  1.00  0.00     0.202 C 
BRANCH  22  23
ATOM     23  C   UNL A   1      38.658  19.500  25.238  1.00  0.00     0.261 C 
BRANCH  23  24
ATOM     24  O   UNL A   1      39.080  20.114  26.468  1.00  0.00    -0.460 OA
BRANCH  24  25
ATOM     25  C   UNL A   1      40.404  20.396  26.535  1.00  0.00     0.338 C 
ATOM     26  O   UNL A   1      41.328  19.682  26.162  1.00  0.00    -0.246 OA
BRANCH  25  27
ATOM     27  C   UNL A   1      40.618  21.790  26.963  1.00  0.00     0.060 A 
ATOM     28  C   UNL A   1      39.987  22.805  26.232  1.00  0.00     0.016 A 
ATOM     29  C   UNL A   1      41.494  22.107  28.001  1.00  0.00     0.016 A 
ATOM     30  C   UNL A   1      40.258  24.144  26.514  1.00  0.00     0.010 A 
ATOM     31  C   UNL A   1      41.774  23.448  28.276  1.00  0.00     0.010 A 
ATOM     32  C   UNL A   1      41.182  24.472  27.514  1.00  0.00    -0.014 A 
BRANCH  32  33
ATOM     33  C   UNL A   1      41.629  25.873  27.695  1.00  0.00     0.031 A 
ATOM     34  C   UNL A   1      43.005  26.267  27.231  1.00  0.00     0.074 A 
ATOM     35  C   UNL A   1      40.835  26.771  28.304  1.00  0.00     0.049 A 
ATOM     36  N   UNL A   1      43.634  27.403  27.379  1.00  0.00    -0.248 NA
ATOM     37  C   UNL A   1      43.777  25.239  26.512  1.00  0.00     0.031 C 
ATOM     38  C   UNL A   1      39.483  26.505  28.793  1.00  0.00     0.029 A 
ATOM     39  N   UNL A   1      41.070  28.077  28.650  1.00  0.00    -0.354 N 
ATOM     40  C   UNL A   1      44.885  27.220  26.804  1.00  0.00     0.074 A 
ATOM     41  C   UNL A   1      44.929  25.861  26.308  1.00  0.00     0.031 C 
ATOM     42  C   UNL A   1      39.021  27.606  29.412  1.00  0.00     0.029 A 
ATOM     43  C   UNL A   1      40.055  28.639  29.387  1.00  0.00     0.049 A 
ATOM     44  H   UNL A   1      41.886  28.565  28.395  1.00  0.00     0.167 HD
ATOM     45  C   UNL A   1      45.901  28.107  26.690  1.00  0.00     0.034 A 
ATOM     46  C   UNL A   1      39.981  29.838  29.998  1.00  0.00     0.034 A 
ATOM     47  C   UNL A   1      45.846  29.464  27.165  1.00  0.00     0.049 A 
ATOM     48  C   UNL A   1      41.136  30.798  29.878  1.00  0.00     0.074 A 
ATOM     49  C   UNL A   1      46.803  30.455  27.049  1.00  0.00     0.029 A 
ATOM     50  N   UNL A   1      44.778  30.015  27.856  1.00  0.00    -0.354 N 
ATOM     51  N   UNL A   1      42.266  30.654  29.229  1.00  0.00    -0.248 NA
ATOM     52  C   UNL A   1      40.996  32.098  30.553  1.00  0.00     0.031 C 
ATOM     53  C   UNL A   1      46.324  31.601  27.692  1.00  0.00     0.029 A 
ATOM     54  C   UNL A   1      45.058  31.331  28.185  1.00  0.00     0.049 A 
ATOM     55  H   UNL A   1      43.944  29.542  28.080  1.00  0.00     0.167 HD
ATOM     56  C   UNL A   1      42.952  31.853  29.383  1.00  0.00     0.074 A 
ATOM     57  C   UNL A   1      42.105  32.720  30.177  1.00  0.00     0.031 C 
ATOM     58  C   UNL A   1      44.179  32.202  28.922  1.00  0.00     0.034 A 
BRANCH  45  59
ATOM     59  C   UNL A   1      47.158  27.648  26.000  1.00  0.00     0.023 A 
ATOM     60  C   UNL A   1      48.148  26.969  26.737  1.00  0.00     0.012 A 
ATOM     61  C   UNL A   1      47.333  27.836  24.615  1.00  0.00     0.148 A 
ATOM     62  C   UNL A   1      49.306  26.506  26.112  1.00  0.00     0.002 A 
ATOM     63  C   UNL A   1      48.471  27.336  23.991  1.00  0.00     0.091 A 
ATOM     64  F   UNL A   1      46.391  28.506  23.936  1.00  0.00    -0.205 F 
ATOM     65  C   UNL A   1      49.462  26.680  24.740  1.00  0.00     0.022 A 
BRANCH  63  66
ATOM     66  S   UNL A   1      48.729  27.450  22.217  1.00  0.00     0.127 S 
ATOM     67  O   UNL A   1      47.635  28.331  21.815  1.00  0.00    -0.237 OA
ATOM     68  O   UNL A   1      50.060  28.055  22.138  1.00  0.00    -0.237 OA
ATOM     69  O   UNL A   1      48.654  26.086  21.713  1.00  0.00    -0.744 OA
ENDBRANCH  63  66
ENDBRANCH  45  59
BRANCH  46  70
ATOM     70  C   UNL A   1      38.756  30.211  30.758  1.00  0.00     0.023 A 
ATOM     71  C   UNL A   1      38.616  29.789  32.095  1.00  0.00     0.012 A 
ATOM     72  C   UNL A   1      37.741  30.994  30.175  1.00  0.00     0.148 A 
ATOM     73  C   UNL A   1      37.475  30.117  32.828  1.00  0.00     0.002 A 
ATOM     74  C   UNL A   1      36.631  31.361  30.928  1.00  0.00     0.091 A 
ATOM     75  F   UNL A   1      37.885  31.370  28.897  1.00  0.00    -0.205 F 
ATOM     76  C   UNL A   1      36.488  30.912  32.249  1.00  0.00     0.022 A 
BRANCH  74  77
ATOM     77  S   UNL A   1      35.372  32.481  30.304  1.00  0.00     0.127 S 
ATOM     78  O   UNL A   1      36.158  33.674  30.002  1.00  0.00    -0.237 OA
ATOM     79  O   UNL A   1      34.879  31.755  29.133  1.00  0.00    -0.237 OA
ATOM     80  O   UNL A   1      34.401  32.617  31.381  1.00  0.00    -0.744 OA
ENDBRANCH  74  77
ENDBRANCH  46  70
BRANCH  58  81
ATOM     81  C   UNL A   1      44.675  33.594  29.217  1.00  0.00     0.023 A 
ATOM     82  C   UNL A   1      45.344  33.857  30.427  1.00  0.00     0.012 A 
ATOM     83  C   UNL A   1      44.564  34.614  28.251  1.00  0.00     0.148 A 
ATOM     84  C   UNL A   1      45.875  35.121  30.683  1.00  0.00     0.002 A 
ATOM     85  C   UNL A   1      45.136  35.857  28.492  1.00  0.00     0.091 A 
ATOM     86  F   UNL A   1      43.908  34.347  27.112  1.00  0.00    -0.205 F 
ATOM     87  C   UNL A   1      45.783  36.116  29.711  1.00  0.00     0.022 A 
BRANCH  85  88
ATOM     88  S   UNL A   1      45.154  37.166  27.261  1.00  0.00     0.127 S 
ATOM     89  O   UNL A   1      43.741  37.247  26.892  1.00  0.00    -0.237 OA
ATOM     90  O   UNL A   1      45.649  38.309  28.030  1.00  0.00    -0.237 OA
ATOM     91  O   UNL A   1      46.050  36.714  26.206  1.00  0.00    -0.744 OA
ENDBRANCH  85  88
ENDBRANCH  58  81
ENDBRANCH  32  33
ENDBRANCH  25  27
ENDBRANCH  24  25
ENDBRANCH  23  24
ENDBRANCH  22  23
ENDBRANCH   1  22
TORSDOF 20
ENDMDL
MODEL 2
REMARK VINA RESULT:     -10.6      5.335     11.157
REMARK SMILES O=C(/C=C/c1c(Cl)cccc1Cl)NCC(=O)OCCOCCOC(=O)c1ccc(-c2c3nc(c(-c4cccc(S(=O)(=O)[O-])c4F)c4ccc([nH]4)c(-c4cccc(S(=O)(=O)[O-])c4F)c4nc(c(-c5cccc(S(=O)(=O)[O-])c5F)c5ccc2[nH]5)C=C4)C=C3)cc1
REMARK SMILES IDX 20 1 19 2 18 3 17 4 15 5 16 6 14 7 13 8 1 9 2 10 3 12 4 13
REMARK SMILES IDX 5 14 6 15 11 16 7 17 8 18 10 19 12 20 9 21 21 22 22 23 23 24
REMARK SMILES IDX 24 25 25 26 26 27 27 28 88 29 28 30 87 31 29 32 30 33 31 34
REMARK SMILES IDX 81 35 32 36 86 37 80 38 82 39 33 40 85 41 79 42 78 43 34 45
REMARK SMILES IDX 66 46 46 47 65 48 47 49 50 50 64 51 83 52 48 53 49 54 63 56
REMARK SMILES IDX 84 57 51 58 35 59 36 60 44 61 37 62 39 63 45 64 38 65 40 66
REMARK SMILES IDX 41 67 42 68 43 69 67 70 68 71 76 72 69 73 71 74 77 75 70 76
REMARK SMILES IDX 72 77 73 78 74 79 75 80 52 81 53 82 61 83 54 84 56 85 62 86
REMARK SMILES IDX 55 87 57 88 58 89 59 90 60 91
REMARK H PARENT 13 11 82 44 50 55
REMARK Flexibility Score: inf
ROOT
ATOM      1  O   UNL A   1      31.385  31.016  25.681  1.00  0.00    -0.374 OA
ENDROOT
BRANCH   1   2
ATOM      2  C   UNL A   1      32.196  29.891  26.027  1.00  0.00     0.202 C 
BRANCH   2   3
ATOM      3  C   UNL A   1      32.408  28.842  24.932  1.00  0.00     0.261 C 
BRANCH   3   4
ATOM      4  O   UNL A   1      31.174  28.179  24.612  1.00  0.00    -0.462 OA
BRANCH   4   5
ATOM      5  C   UNL A   1      30.676  28.434  23.370  1.00  0.00     0.325 C 
ATOM      6  O   UNL A   1      29.859  29.310  23.105  1.00  0.00    -0.250 OA
BRANCH   5   7
ATOM      7  C   UNL A   1      31.370  27.612  22.287  1.00  0.00     0.239 C 
BRANCH   7   8
ATOM      8  N   UNL A   1      31.664  26.215  22.585  1.00  0.00    -0.342 N 
ATOM      9  O   UNL A   1      33.794  26.295  21.759  1.00  0.00    -0.270 OA
ATOM     10  C   UNL A   1      32.900  25.690  22.337  1.00  0.00     0.244 C 
ATOM     11  H   UNL A   1      30.961  25.643  22.969  1.00  0.00     0.164 HD
BRANCH  10  12
ATOM     12  C   UNL A   1      33.145  24.312  22.829  1.00  0.00     0.072 C 
ATOM     13  C   UNL A   1      32.242  23.572  23.494  1.00  0.00     0.017 C 
BRANCH  13  14
ATOM     14  C   UNL A   1      32.604  22.295  24.151  1.00  0.00     0.012 A 
ATOM     15  C   UNL A   1      32.422  21.052  23.506  1.00  0.00     0.049 A 
ATOM     16  C   UNL A   1      33.185  22.281  25.433  1.00  0.00     0.049 A 
ATOM     17  Cl  UNL A   1      31.848  20.927  21.875  1.00  0.00    -0.084 Cl
ATOM     18  C   UNL A   1      32.751  19.849  24.145  1.00  0.00     0.021 A 
ATOM     19  C   UNL A   1      33.509  21.075  26.070  1.00  0.00     0.021 A 
ATOM     20  Cl  UNL A   1      33.566  23.742  26.280  1.00  0.00    -0.084 Cl
ATOM     21  C   UNL A   1      33.283  19.859  25.431  1.00  0.00     0.003 A 
ENDBRANCH  13  14
ENDBRANCH  10  12
ENDBRANCH   7   8
ENDBRANCH   5   7
ENDBRANCH   4   5
ENDBRANCH   3   4
ENDBRANCH   2   3
ENDBRANCH   1   2
BRANCH   1  22
ATOM     22  C   UNL A   1      31.327  32.105  26.603  1.00  0.00     0.202 C 
BRANCH  22  23
ATOM     23  C   UNL A   1      32.649  32.794  26.961  1.00  0.00     0.261 C 
BRANCH  23  24
ATOM     24  O   UNL A   1      32.509  33.768  28.011  1.00  0.00    -0.460 OA
BRANCH  24  25
ATOM     25  C   UNL A   1      33.645  34.446  28.308  1.00  0.00     0.338 C 
ATOM     26  O   UNL A   1      33.770  35.662  28.411  1.00  0.00    -0.246 OA
BRANCH  25  27
ATOM     27  C   UNL A   1      34.723  33.515  28.685  1.00  0.00     0.060 A 
ATOM     28  C   UNL A   1      34.391  32.419  29.493  1.00  0.00     0.016 A 
ATOM     29  C   UNL A   1      36.051  33.757  28.336  1.00  0.00     0.016 A 
ATOM     30  C   UNL A   1      35.391  31.581  29.984  1.00  0.00     0.010 A 
ATOM     31  C   UNL A   1      37.054  32.925  28.837  1.00  0.00     0.010 A 
ATOM     32  C   UNL A   1      36.733  31.852  29.689  1.00  0.00    -0.014 A 
BRANCH  32  33
ATOM     33  C   UNL A   1      37.818  31.096  30.357  1.00  0.00     0.031 A 
ATOM     34  C   UNL A   1      38.132  31.387  31.799  1.00  0.00     0.074 A 
ATOM     35  C   UNL A   1      38.543  30.192  29.673  1.00  0.00     0.049 A 
ATOM     36  N   UNL A   1      39.097  30.920  32.546  1.00  0.00    -0.248 NA
ATOM     37  C   UNL A   1      37.242  32.338  32.487  1.00  0.00     0.031 C 
ATOM     38  C   UNL A   1      38.330  29.825  28.275  1.00  0.00     0.029 A 
ATOM     39  N   UNL A   1      39.630  29.449  30.057  1.00  0.00    -0.354 N 
ATOM     40  C   UNL A   1      38.955  31.542  33.779  1.00  0.00     0.074 A 
ATOM     41  C   UNL A   1      37.812  32.425  33.680  1.00  0.00     0.031 C 
ATOM     42  C   UNL A   1      39.284  28.953  27.904  1.00  0.00     0.029 A 
ATOM     43  C   UNL A   1      40.188  28.725  29.030  1.00  0.00     0.049 A 
ATOM     44  H   UNL A   1      39.978  29.436  30.978  1.00  0.00     0.167 HD
ATOM     45  C   UNL A   1      39.702  31.385  34.898  1.00  0.00     0.034 A 
ATOM     46  C   UNL A   1      41.316  27.988  28.995  1.00  0.00     0.034 A 
ATOM     47  C   UNL A   1      40.823  30.490  35.000  1.00  0.00     0.049 A 
ATOM     48  C   UNL A   1      42.145  27.849  30.246  1.00  0.00     0.074 A 
ATOM     49  C   UNL A   1      41.610  30.220  36.104  1.00  0.00     0.029 A 
ATOM     50  N   UNL A   1      41.324  29.729  33.955  1.00  0.00    -0.354 N 
ATOM     51  N   UNL A   1      41.930  28.350  31.438  1.00  0.00    -0.248 NA
ATOM     52  C   UNL A   1      43.357  27.021  30.154  1.00  0.00     0.031 C 
ATOM     53  C   UNL A   1      42.603  29.313  35.721  1.00  0.00     0.029 A 
ATOM     54  C   UNL A   1      42.418  28.998  34.385  1.00  0.00     0.049 A 
ATOM     55  H   UNL A   1      40.955  29.710  33.042  1.00  0.00     0.167 HD
ATOM     56  C   UNL A   1      42.955  27.868  32.246  1.00  0.00     0.074 A 
ATOM     57  C   UNL A   1      43.783  27.024  31.409  1.00  0.00     0.031 C 
ATOM     58  C   UNL A   1      43.197  28.113  33.557  1.00  0.00     0.034 A 
BRANCH  45  59
ATOM     59  C   UNL A   1      39.315  32.180  36.117  1.00  0.00     0.023 A 
ATOM     60  C   UNL A   1      39.850  33.470  36.304  1.00  0.00     0.012 A 
ATOM     61  C   UNL A   1      38.382  31.676  37.043  1.00  0.00     0.148 A 
ATOM     62  C   UNL A   1      39.482  34.238  37.408  1.00  0.00     0.002 A 
ATOM     63  C   UNL A   1      37.988  32.463  38.120  1.00  0.00     0.091 A 
ATOM     64  F   UNL A   1      37.904  30.437  36.860  1.00  0.00    -0.205 F 
ATOM     65  C   UNL A   1      38.545  33.739  38.309  1.00  0.00     0.022 A 
BRANCH  63  66
ATOM     66  S   UNL A   1      36.736  31.936  39.295  1.00  0.00     0.127 S 
ATOM     67  O   UNL A   1      35.565  32.678  38.831  1.00  0.00    -0.237 OA
ATOM     68  O   UNL A   1      36.677  30.493  39.056  1.00  0.00    -0.237 OA
ATOM     69  O   UNL A   1      37.236  32.313  40.609  1.00  0.00    -0.744 OA
ENDBRANCH  63  66
ENDBRANCH  45  59
BRANCH  46  70
ATOM     70  C   UNL A   1      41.715  27.300  27.735  1.00  0.00     0.023 A 
ATOM     71  C   UNL A   1      42.178  28.065  26.646  1.00  0.00     0.012 A 
ATOM     72  C   UNL A   1      41.659  25.898  27.616  1.00  0.00     0.148 A 
ATOM     73  C   UNL A   1      42.550  27.447  25.452  1.00  0.00     0.002 A 
ATOM     74  C   UNL A   1      42.082  25.286  26.442  1.00  0.00     0.091 A 
ATOM     75  F   UNL A   1      41.199  25.191  28.658  1.00  0.00    -0.205 F 
ATOM     76  C   UNL A   1      42.513  26.059  25.353  1.00  0.00     0.022 A 
BRANCH  74  77
ATOM     77  S   UNL A   1      42.182  23.500  26.269  1.00  0.00     0.127 S 
ATOM     78  O   UNL A   1      43.023  23.138  27.407  1.00  0.00    -0.237 OA
ATOM     79  O   UNL A   1      40.778  23.107  26.390  1.00  0.00    -0.237 OA
ATOM     80  O   UNL A   1      42.762  23.267  24.953  1.00  0.00    -0.744 OA
ENDBRANCH  74  77
ENDBRANCH  46  70
BRANCH  58  81
ATOM     81  C   UNL A   1      44.378  27.430  34.197  1.00  0.00     0.023 A 
ATOM     82  C   UNL A   1      45.629  28.076  34.225  1.00  0.00     0.012 A 
ATOM     83  C   UNL A   1      44.220  26.194  34.855  1.00  0.00     0.148 A 
ATOM     84  C   UNL A   1      46.713  27.491  34.879  1.00  0.00     0.002 A 
ATOM     85  C   UNL A   1      45.292  25.640  35.545  1.00  0.00     0.091 A 
ATOM     86  F   UNL A   1      43.025  25.589  34.802  1.00  0.00    -0.205 F 
ATOM     87  C   UNL A   1      46.542  26.281  35.549  1.00  0.00     0.022 A 
BRANCH  85  88
ATOM     88  S   UNL A   1      45.140  24.137  36.518  1.00  0.00     0.127 S 
ATOM     89  O   UNL A   1      46.541  23.794  36.758  1.00  0.00    -0.237 OA
ATOM     90  O   UNL A   1      44.416  24.604  37.700  1.00  0.00    -0.237 OA
ATOM     91  O   UNL A   1      44.400  23.195  35.689  1.00  0.00    -0.744 OA
ENDBRANCH  85  88
ENDBRANCH  58  81
ENDBRANCH  32  33
ENDBRANCH  25  27
ENDBRANCH  24  25
ENDBRANCH  23  24
ENDBRANCH  22  23
ENDBRANCH   1  22
TORSDOF 20
ENDMDL
MODEL 3
REMARK VINA RESULT:     -10.3      5.349     10.717
REMARK SMILES O=C(/C=C/c1c(Cl)cccc1Cl)NCC(=O)OCCOCCOC(=O)c1ccc(-c2c3nc(c(-c4cccc(S(=O)(=O)[O-])c4F)c4ccc([nH]4)c(-c4cccc(S(=O)(=O)[O-])c4F)c4nc(c(-c5cccc(S(=O)(=O)[O-])c5F)c5ccc2[nH]5)C=C4)C=C3)cc1
REMARK SMILES IDX 20 1 19 2 18 3 17 4 15 5 16 6 14 7 13 8 1 9 2 10 3 12 4 13
REMARK SMILES IDX 5 14 6 15 11 16 7 17 8 18 10 19 12 20 9 21 21 22 22 23 23 24
REMARK SMILES IDX 24 25 25 26 26 27 27 28 88 29 28 30 87 31 29 32 30 33 31 34
REMARK SMILES IDX 81 35 32 36 86 37 80 38 82 39 33 40 85 41 79 42 78 43 34 45
REMARK SMILES IDX 66 46 46 47 65 48 47 49 50 50 64 51 83 52 48 53 49 54 63 56
REMARK SMILES IDX 84 57 51 58 35 59 36 60 44 61 37 62 39 63 45 64 38 65 40 66
REMARK SMILES IDX 41 67 42 68 43 69 67 70 68 71 76 72 69 73 71 74 77 75 70 76
REMARK SMILES IDX 72 77 73 78 74 79 75 80 52 81 53 82 61 83 54 84 56 85 62 86
REMARK SMILES IDX 55 87 57 88 58 89 59 90 60 91
REMARK H PARENT 13 11 82 44 50 55
REMARK Flexibility Score: inf
ROOT
ATOM      1  O   UNL A   1      31.265  28.757  25.161  1.00  0.00    -0.374 OA
ENDROOT
BRANCH   1   2
ATOM      2  C   UNL A   1      30.774  27.757  24.265  1.00  0.00     0.202 C 
BRANCH   2   3
ATOM      3  C   UNL A   1      31.280  27.830  22.821  1.00  0.00     0.261 C 
BRANCH   3   4
ATOM      4  O   UNL A   1      32.713  27.934  22.785  1.00  0.00    -0.462 OA
BRANCH   4   5
ATOM      5  C   UNL A   1      33.371  26.820  22.357  1.00  0.00     0.325 C 
ATOM      6  O   UNL A   1      33.589  26.538  21.184  1.00  0.00    -0.250 OA
BRANCH   5   7
ATOM      7  C   UNL A   1      33.964  26.019  23.513  1.00  0.00     0.239 C 
BRANCH   7   8
ATOM      8  N   UNL A   1      33.822  24.569  23.473  1.00  0.00    -0.342 N 
ATOM      9  O   UNL A   1      35.852  24.158  24.441  1.00  0.00    -0.270 OA
ATOM     10  C   UNL A   1      34.780  23.755  24.006  1.00  0.00     0.244 C 
ATOM     11  H   UNL A   1      33.024  24.171  23.056  1.00  0.00     0.164 HD
BRANCH  10  12
ATOM     12  C   UNL A   1      34.461  22.308  24.066  1.00  0.00     0.072 C 
ATOM     13  C   UNL A   1      33.227  21.796  23.925  1.00  0.00     0.017 C 
BRANCH  13  14
ATOM     14  C   UNL A   1      32.931  20.372  24.207  1.00  0.00     0.012 A 
ATOM     15  C   UNL A   1      33.145  19.809  25.483  1.00  0.00     0.049 A 
ATOM     16  C   UNL A   1      32.384  19.538  23.213  1.00  0.00     0.049 A 
ATOM     17  Cl  UNL A   1      33.682  20.751  26.836  1.00  0.00    -0.084 Cl
ATOM     18  C   UNL A   1      32.879  18.455  25.732  1.00  0.00     0.021 A 
ATOM     19  C   UNL A   1      32.123  18.184  23.466  1.00  0.00     0.021 A 
ATOM     20  Cl  UNL A   1      31.968  20.137  21.643  1.00  0.00    -0.084 Cl
ATOM     21  C   UNL A   1      32.380  17.641  24.721  1.00  0.00     0.003 A 
ENDBRANCH  13  14
ENDBRANCH  10  12
ENDBRANCH   7   8
ENDBRANCH   5   7
ENDBRANCH   4   5
ENDBRANCH   3   4
ENDBRANCH   2   3
ENDBRANCH   1   2
BRANCH   1  22
ATOM     22  C   UNL A   1      30.894  30.113  24.914  1.00  0.00     0.202 C 
BRANCH  22  23
ATOM     23  C   UNL A   1      31.383  31.169  25.914  1.00  0.00     0.261 C 
BRANCH  23  24
ATOM     24  O   UNL A   1      32.528  30.738  26.671  1.00  0.00    -0.460 OA
BRANCH  24  25
ATOM     25  C   UNL A   1      33.218  31.739  27.270  1.00  0.00     0.338 C 
ATOM     26  O   UNL A   1      32.796  32.853  27.561  1.00  0.00    -0.246 OA
BRANCH  25  27
ATOM     27  C   UNL A   1      34.541  31.265  27.714  1.00  0.00     0.060 A 
ATOM     28  C   UNL A   1      34.727  29.884  27.863  1.00  0.00     0.016 A 
ATOM     29  C   UNL A   1      35.553  32.156  28.070  1.00  0.00     0.016 A 
ATOM     30  C   UNL A   1      35.915  29.391  28.403  1.00  0.00     0.010 A 
ATOM     31  C   UNL A   1      36.738  31.663  28.621  1.00  0.00     0.010 A 
ATOM     32  C   UNL A   1      36.913  30.281  28.819  1.00  0.00    -0.014 A 
BRANCH  32  33
ATOM     33  C   UNL A   1      38.092  29.791  29.571  1.00  0.00     0.031 A 
ATOM     34  C   UNL A   1      38.371  30.351  30.939  1.00  0.00     0.074 A 
ATOM     35  C   UNL A   1      38.927  28.891  29.022  1.00  0.00     0.049 A 
ATOM     36  N   UNL A   1      39.393  30.141  31.725  1.00  0.00    -0.248 NA
ATOM     37  C   UNL A   1      37.366  31.277  31.489  1.00  0.00     0.031 C 
ATOM     38  C   UNL A   1      38.758  28.277  27.707  1.00  0.00     0.029 A 
ATOM     39  N   UNL A   1      40.105  28.368  29.491  1.00  0.00    -0.354 N 
ATOM     40  C   UNL A   1      39.176  30.932  32.847  1.00  0.00     0.074 A 
ATOM     41  C   UNL A   1      37.926  31.630  32.637  1.00  0.00     0.031 C 
ATOM     42  C   UNL A   1      39.817  27.488  27.456  1.00  0.00     0.029 A 
ATOM     43  C   UNL A   1      40.749  27.566  28.579  1.00  0.00     0.049 A 
ATOM     44  H   UNL A   1      40.456  28.550  30.393  1.00  0.00     0.167 HD
ATOM     45  C   UNL A   1      39.942  31.057  33.956  1.00  0.00     0.034 A 
ATOM     46  C   UNL A   1      41.964  26.986  28.633  1.00  0.00     0.034 A 
ATOM     47  C   UNL A   1      41.173  30.344  34.170  1.00  0.00     0.049 A 
ATOM     48  C   UNL A   1      42.810  27.162  29.868  1.00  0.00     0.074 A 
ATOM     49  C   UNL A   1      41.995  30.362  35.283  1.00  0.00     0.029 A 
ATOM     50  N   UNL A   1      41.765  29.495  33.248  1.00  0.00    -0.354 N 
ATOM     51  N   UNL A   1      42.537  27.817  30.969  1.00  0.00    -0.248 NA
ATOM     52  C   UNL A   1      44.121  26.494  29.878  1.00  0.00     0.031 C 
ATOM     53  C   UNL A   1      43.098  29.542  35.024  1.00  0.00     0.029 A 
ATOM     54  C   UNL A   1      42.949  28.993  33.761  1.00  0.00     0.049 A 
ATOM     55  H   UNL A   1      41.398  29.281  32.360  1.00  0.00     0.167 HD
ATOM     56  C   UNL A   1      43.621  27.610  31.817  1.00  0.00     0.074 A 
ATOM     57  C   UNL A   1      44.550  26.756  31.105  1.00  0.00     0.031 C 
ATOM     58  C   UNL A   1      43.834  28.094  33.065  1.00  0.00     0.034 A 
BRANCH  45  59
ATOM     59  C   UNL A   1      39.460  31.981  35.041  1.00  0.00     0.023 A 
ATOM     60  C   UNL A   1      39.641  33.372  34.902  1.00  0.00     0.012 A 
ATOM     61  C   UNL A   1      38.777  31.482  36.167  1.00  0.00     0.148 A 
ATOM     62  C   UNL A   1      39.174  34.250  35.879  1.00  0.00     0.002 A 
ATOM     63  C   UNL A   1      38.278  32.366  37.117  1.00  0.00     0.091 A 
ATOM     64  F   UNL A   1      38.637  30.155  36.293  1.00  0.00    -0.205 F 
ATOM     65  C   UNL A   1      38.484  33.749  36.979  1.00  0.00     0.022 A 
BRANCH  63  66
ATOM     66  S   UNL A   1      37.317  31.822  38.533  1.00  0.00     0.127 S 
ATOM     67  O   UNL A   1      36.172  32.729  38.480  1.00  0.00    -0.237 OA
ATOM     68  O   UNL A   1      37.010  30.434  38.183  1.00  0.00    -0.237 OA
ATOM     69  O   UNL A   1      38.185  31.976  39.691  1.00  0.00    -0.744 OA
ENDBRANCH  63  66
ENDBRANCH  45  59
BRANCH  46  70
ATOM     70  C   UNL A   1      42.446  26.161  27.490  1.00  0.00     0.023 A 
ATOM     71  C   UNL A   1      43.287  26.744  26.522  1.00  0.00     0.012 A 
ATOM     72  C   UNL A   1      42.093  24.804  27.366  1.00  0.00     0.148 A 
ATOM     73  C   UNL A   1      43.746  25.997  25.437  1.00  0.00     0.002 A 
ATOM     74  C   UNL A   1      42.596  24.051  26.311  1.00  0.00     0.091 A 
ATOM     75  F   UNL A   1      41.277  24.273  28.288  1.00  0.00    -0.205 F 
ATOM     76  C   UNL A   1      43.410  24.649  25.336  1.00  0.00     0.022 A 
BRANCH  74  77
ATOM     77  S   UNL A   1      42.314  22.282  26.168  1.00  0.00     0.127 S 
ATOM     78  O   UNL A   1      43.121  21.946  24.999  1.00  0.00    -0.237 OA
ATOM     79  O   UNL A   1      42.841  21.791  27.442  1.00  0.00    -0.237 OA
ATOM     80  O   UNL A   1      40.875  22.127  26.011  1.00  0.00    -0.744 OA
ENDBRANCH  74  77
ENDBRANCH  46  70
BRANCH  58  81
ATOM     81  C   UNL A   1      45.099  27.684  33.775  1.00  0.00     0.023 A 
ATOM     82  C   UNL A   1      46.241  28.503  33.698  1.00  0.00     0.012 A 
ATOM     83  C   UNL A   1      45.120  26.539  34.596  1.00  0.00     0.148 A 
ATOM     84  C   UNL A   1      47.395  28.176  34.410  1.00  0.00     0.002 A 
ATOM     85  C   UNL A   1      46.258  26.245  35.339  1.00  0.00     0.091 A 
ATOM     86  F   UNL A   1      44.027  25.764  34.641  1.00  0.00    -0.205 F 
ATOM     87  C   UNL A   1      47.399  27.057  35.240  1.00  0.00     0.022 A 
BRANCH  85  88
ATOM     88  S   UNL A   1      46.321  24.882  36.507  1.00  0.00     0.127 S 
ATOM     89  O   UNL A   1      45.830  23.769  35.694  1.00  0.00    -0.237 OA
ATOM     90  O   UNL A   1      47.746  24.816  36.832  1.00  0.00    -0.237 OA
ATOM     91  O   UNL A   1      45.464  25.266  37.621  1.00  0.00    -0.744 OA
ENDBRANCH  85  88
ENDBRANCH  58  81
ENDBRANCH  32  33
ENDBRANCH  25  27
ENDBRANCH  24  25
ENDBRANCH  23  24
ENDBRANCH  22  23
ENDBRANCH   1  22
TORSDOF 20
ENDMDL
