MODEL 1
REMARK VINA RESULT:     -10.3      0.000      0.000
REMARK SMILES Cc1cscc1CNC(=O)CC(C)(C)C(=O)OCCOCCOC(=O)c1ccc(-c2c3nc(c(-c4cccc(S(=O)(=O)[O-])c4F)c4ccc([nH]4)c(-c4cccc(S(=O)(=O)[O-])c4F)c4nc(c(-c5cccc(S(=O)(=O)[O-])c5F)c5ccc2[nH]5)C=C4)C=C3)cc1
REMARK SMILES IDX 19 1 18 2 17 3 15 4 16 5 12 6 13 7 14 8 11 9 9 10 8 11 10 13
REMARK SMILES IDX 7 14 6 15 1 16 2 17 3 18 4 19 5 20 20 21 21 22 22 23 23 24
REMARK SMILES IDX 24 25 25 26 26 27 27 28 88 29 28 30 87 31 29 32 30 33 31 34
REMARK SMILES IDX 81 35 32 36 86 37 80 38 82 39 33 40 85 41 79 42 78 43 34 45
REMARK SMILES IDX 66 46 46 47 65 48 47 49 50 50 64 51 83 52 48 53 49 54 63 56
REMARK SMILES IDX 84 57 51 58 35 59 36 60 44 61 37 62 39 63 45 64 38 65 40 66
REMARK SMILES IDX 41 67 42 68 43 69 67 70 68 71 76 72 69 73 71 74 77 75 70 76
REMARK SMILES IDX 72 77 73 78 74 79 75 80 52 81 53 82 61 83 54 84 56 85 62 86
REMARK SMILES IDX 55 87 57 88 58 89 59 90 60 91
REMARK H PARENT 8 12 82 44 50 55
REMARK Flexibility Score: inf
ROOT
ATOM      1  C   UNL A   1      33.317  28.583  27.071  1.00  0.00     0.202 C 
ENDROOT
BRANCH   1   2
ATOM      2  C   UNL A   1      33.222  27.343  26.172  1.00  0.00     0.261 C 
BRANCH   2   3
ATOM      3  O   UNL A   1      33.178  27.623  24.763  1.00  0.00    -0.463 OA
BRANCH   3   4
ATOM      4  C   UNL A   1      32.251  26.889  24.082  1.00  0.00     0.312 C 
ATOM      5  O   UNL A   1      31.139  26.658  24.532  1.00  0.00    -0.252 OA
BRANCH   4   6
ATOM      6  C   UNL A   1      32.769  26.383  22.722  1.00  0.00     0.071 C 
ATOM      7  C   UNL A   1      33.676  27.473  22.129  1.00  0.00     0.024 C 
ATOM      8  C   UNL A   1      31.612  26.180  21.715  1.00  0.00     0.024 C 
BRANCH   6   9
ATOM      9  C   UNL A   1      33.533  25.025  22.838  1.00  0.00     0.118 C 
BRANCH   9  10
ATOM     10  C   UNL A   1      33.115  23.863  21.946  1.00  0.00     0.221 C 
ATOM     11  N   UNL A   1      32.466  22.783  22.460  1.00  0.00    -0.352 N 
ATOM     12  H   UNL A   1      32.015  22.210  21.798  1.00  0.00     0.163 HD
ATOM     13  O   UNL A   1      33.383  23.874  20.741  1.00  0.00    -0.275 OA
BRANCH  11  14
ATOM     14  C   UNL A   1      32.342  22.358  23.829  1.00  0.00     0.152 C 
BRANCH  14  15
ATOM     15  C   UNL A   1      32.544  20.879  24.012  1.00  0.00    -0.015 A 
ATOM     16  C   UNL A   1      33.434  21.095  26.451  1.00  0.00     0.045 C 
ATOM     17  C   UNL A   1      33.002  20.301  25.262  1.00  0.00    -0.035 A 
ATOM     18  C   UNL A   1      32.969  18.920  25.229  1.00  0.00     0.068 A 
ATOM     19  S   UNL A   1      32.483  18.307  23.716  1.00  0.00    -0.152 S 
ATOM     20  C   UNL A   1      32.301  19.882  23.084  1.00  0.00     0.070 A 
ENDBRANCH  14  15
ENDBRANCH  11  14
ENDBRANCH   9  10
ENDBRANCH   6   9
ENDBRANCH   4   6
ENDBRANCH   3   4
ENDBRANCH   2   3
ENDBRANCH   1   2
BRANCH   1  21
ATOM     21  O   UNL A   1      32.178  29.419  27.233  1.00  0.00    -0.374 OA
BRANCH  21  22
ATOM     22  C   UNL A   1      31.907  30.408  26.245  1.00  0.00     0.202 C 
BRANCH  22  23
ATOM     23  C   UNL A   1      31.965  31.887  26.647  1.00  0.00     0.261 C 
BRANCH  23  24
ATOM     24  O   UNL A   1      32.558  32.098  27.942  1.00  0.00    -0.460 OA
BRANCH  24  25
ATOM     25  C   UNL A   1      33.556  33.013  27.955  1.00  0.00     0.338 C 
ATOM     26  O   UNL A   1      33.434  34.235  27.985  1.00  0.00    -0.246 OA
BRANCH  25  27
ATOM     27  C   UNL A   1      34.865  32.365  28.124  1.00  0.00     0.060 A 
ATOM     28  C   UNL A   1      34.869  31.020  28.520  1.00  0.00     0.016 A 
ATOM     29  C   UNL A   1      36.058  33.085  28.037  1.00  0.00     0.016 A 
ATOM     30  C   UNL A   1      36.058  30.411  28.907  1.00  0.00     0.010 A 
ATOM     31  C   UNL A   1      37.251  32.472  28.436  1.00  0.00     0.010 A 
ATOM     32  C   UNL A   1      37.245  31.152  28.926  1.00  0.00    -0.014 A 
BRANCH  32  33
ATOM     33  C   UNL A   1      38.414  30.606  29.658  1.00  0.00     0.031 A 
ATOM     34  C   UNL A   1      38.649  31.053  31.076  1.00  0.00     0.074 A 
ATOM     35  C   UNL A   1      39.218  29.687  29.095  1.00  0.00     0.049 A 
ATOM     36  N   UNL A   1      39.572  30.677  31.923  1.00  0.00    -0.248 NA
ATOM     37  C   UNL A   1      37.714  32.056  31.615  1.00  0.00     0.031 C 
ATOM     38  C   UNL A   1      39.078  29.160  27.739  1.00  0.00     0.029 A 
ATOM     39  N   UNL A   1      40.316  29.038  29.600  1.00  0.00    -0.354 N 
ATOM     40  C   UNL A   1      39.343  31.409  33.083  1.00  0.00     0.074 A 
ATOM     41  C   UNL A   1      38.208  32.268  32.825  1.00  0.00     0.031 C 
ATOM     42  C   UNL A   1      40.063  28.273  27.515  1.00  0.00     0.029 A 
ATOM     43  C   UNL A   1      40.909  28.182  28.703  1.00  0.00     0.049 A 
ATOM     44  H   UNL A   1      40.648  29.174  30.516  1.00  0.00     0.167 HD
ATOM     45  C   UNL A   1      40.000  31.355  34.266  1.00  0.00     0.034 A 
ATOM     46  C   UNL A   1      42.011  27.416  28.831  1.00  0.00     0.034 A 
ATOM     47  C   UNL A   1      41.113  30.486  34.528  1.00  0.00     0.049 A 
ATOM     48  C   UNL A   1      42.745  27.397  30.147  1.00  0.00     0.074 A 
ATOM     49  C   UNL A   1      41.834  30.337  35.701  1.00  0.00     0.029 A 
ATOM     50  N   UNL A   1      41.672  29.619  33.603  1.00  0.00    -0.354 N 
ATOM     51  N   UNL A   1      42.453  28.016  31.267  1.00  0.00    -0.248 NA
ATOM     52  C   UNL A   1      43.941  26.545  30.229  1.00  0.00     0.031 C 
ATOM     53  C   UNL A   1      42.840  29.391  35.477  1.00  0.00     0.029 A 
ATOM     54  C   UNL A   1      42.733  28.935  34.173  1.00  0.00     0.049 A 
ATOM     55  H   UNL A   1      41.362  29.506  32.675  1.00  0.00     0.167 HD
ATOM     56  C   UNL A   1      43.401  27.596  32.196  1.00  0.00     0.074 A 
ATOM     57  C   UNL A   1      44.267  26.659  31.510  1.00  0.00     0.031 C 
ATOM     58  C   UNL A   1      43.547  27.959  33.494  1.00  0.00     0.034 A 
BRANCH  45  59
ATOM     59  C   UNL A   1      39.503  32.246  35.374  1.00  0.00     0.023 A 
ATOM     60  C   UNL A   1      38.566  31.744  36.302  1.00  0.00     0.012 A 
ATOM     61  C   UNL A   1      39.976  33.564  35.516  1.00  0.00     0.148 A 
ATOM     62  C   UNL A   1      38.081  32.551  37.330  1.00  0.00     0.002 A 
ATOM     63  C   UNL A   1      39.520  34.350  36.569  1.00  0.00     0.091 A 
ATOM     64  F   UNL A   1      40.845  34.035  34.609  1.00  0.00    -0.205 F 
ATOM     65  C   UNL A   1      38.565  33.849  37.469  1.00  0.00     0.022 A 
BRANCH  63  66
ATOM     66  S   UNL A   1      40.139  36.009  36.868  1.00  0.00     0.127 S 
ATOM     67  O   UNL A   1      41.539  35.748  37.198  1.00  0.00    -0.237 OA
ATOM     68  O   UNL A   1      39.929  36.659  35.574  1.00  0.00    -0.237 OA
ATOM     69  O   UNL A   1      39.326  36.545  37.951  1.00  0.00    -0.744 OA
ENDBRANCH  63  66
ENDBRANCH  45  59
BRANCH  46  70
ATOM     70  C   UNL A   1      42.450  26.549  27.701  1.00  0.00     0.023 A 
ATOM     71  C   UNL A   1      43.341  27.065  26.740  1.00  0.00     0.012 A 
ATOM     72  C   UNL A   1      42.007  25.217  27.583  1.00  0.00     0.148 A 
ATOM     73  C   UNL A   1      43.763  26.280  25.668  1.00  0.00     0.002 A 
ATOM     74  C   UNL A   1      42.472  24.424  26.540  1.00  0.00     0.091 A 
ATOM     75  F   UNL A   1      41.145  24.752  28.497  1.00  0.00    -0.205 F 
ATOM     76  C   UNL A   1      43.337  24.956  25.573  1.00  0.00     0.022 A 
BRANCH  74  77
ATOM     77  S   UNL A   1      42.071  22.678  26.406  1.00  0.00     0.127 S 
ATOM     78  O   UNL A   1      42.487  22.174  27.712  1.00  0.00    -0.237 OA
ATOM     79  O   UNL A   1      40.625  22.715  26.190  1.00  0.00    -0.237 OA
ATOM     80  O   UNL A   1      42.835  22.186  25.267  1.00  0.00    -0.744 OA
ENDBRANCH  74  77
ENDBRANCH  46  70
BRANCH  58  81
ATOM     81  C   UNL A   1      44.659  27.315  34.280  1.00  0.00     0.023 A 
ATOM     82  C   UNL A   1      45.927  27.928  34.333  1.00  0.00     0.012 A 
ATOM     83  C   UNL A   1      44.425  26.145  35.029  1.00  0.00     0.148 A 
ATOM     84  C   UNL A   1      46.954  27.368  35.092  1.00  0.00     0.002 A 
ATOM     85  C   UNL A   1      45.439  25.619  35.822  1.00  0.00     0.091 A 
ATOM     86  F   UNL A   1      43.219  25.565  34.953  1.00  0.00    -0.205 F 
ATOM     87  C   UNL A   1      46.707  26.223  35.845  1.00  0.00     0.022 A 
BRANCH  85  88
ATOM     88  S   UNL A   1      45.178  24.204  36.897  1.00  0.00     0.127 S 
ATOM     89  O   UNL A   1      46.546  23.872  37.292  1.00  0.00    -0.237 OA
ATOM     90  O   UNL A   1      44.356  24.769  37.967  1.00  0.00    -0.237 OA
ATOM     91  O   UNL A   1      44.498  23.205  36.081  1.00  0.00    -0.744 OA
ENDBRANCH  85  88
ENDBRANCH  58  81
ENDBRANCH  32  33
ENDBRANCH  25  27
ENDBRANCH  24  25
ENDBRANCH  23  24
ENDBRANCH  22  23
ENDBRANCH  21  22
ENDBRANCH   1  21
TORSDOF 21
ENDMDL
MODEL 2
REMARK VINA RESULT:     -10.3      1.369      2.066
REMARK SMILES Cc1cscc1CNC(=O)CC(C)(C)C(=O)OCCOCCOC(=O)c1ccc(-c2c3nc(c(-c4cccc(S(=O)(=O)[O-])c4F)c4ccc([nH]4)c(-c4cccc(S(=O)(=O)[O-])c4F)c4nc(c(-c5cccc(S(=O)(=O)[O-])c5F)c5ccc2[nH]5)C=C4)C=C3)cc1
REMARK SMILES IDX 19 1 18 2 17 3 15 4 16 5 12 6 13 7 14 8 11 9 9 10 8 11 10 13
REMARK SMILES IDX 7 14 6 15 1 16 2 17 3 18 4 19 5 20 20 21 21 22 22 23 23 24
REMARK SMILES IDX 24 25 25 26 26 27 27 28 88 29 28 30 87 31 29 32 30 33 31 34
REMARK SMILES IDX 81 35 32 36 86 37 80 38 82 39 33 40 85 41 79 42 78 43 34 45
REMARK SMILES IDX 66 46 46 47 65 48 47 49 50 50 64 51 83 52 48 53 49 54 63 56
REMARK SMILES IDX 84 57 51 58 35 59 36 60 44 61 37 62 39 63 45 64 38 65 40 66
REMARK SMILES IDX 41 67 42 68 43 69 67 70 68 71 76 72 69 73 71 74 77 75 70 76
REMARK SMILES IDX 72 77 73 78 74 79 75 80 52 81 53 82 61 83 54 84 56 85 62 86
REMARK SMILES IDX 55 87 57 88 58 89 59 90 60 91
REMARK H PARENT 8 12 82 44 50 55
REMARK Flexibility Score: inf
ROOT
ATOM      1  C   UNL A   1      30.866  28.321  24.155  1.00  0.00     0.202 C 
ENDROOT
BRANCH   1   2
ATOM      2  C   UNL A   1      30.558  27.774  22.754  1.00  0.00     0.261 C 
BRANCH   2   3
ATOM      3  O   UNL A   1      30.423  26.345  22.682  1.00  0.00    -0.463 OA
BRANCH   3   4
ATOM      4  C   UNL A   1      31.558  25.702  22.285  1.00  0.00     0.312 C 
ATOM      5  O   UNL A   1      32.178  26.024  21.282  1.00  0.00    -0.252 OA
BRANCH   4   6
ATOM      6  C   UNL A   1      31.945  24.539  23.218  1.00  0.00     0.071 C 
ATOM      7  C   UNL A   1      33.066  23.739  22.534  1.00  0.00     0.024 C 
ATOM      8  C   UNL A   1      30.767  23.557  23.419  1.00  0.00     0.024 C 
BRANCH   6   9
ATOM      9  C   UNL A   1      32.394  25.028  24.633  1.00  0.00     0.118 C 
BRANCH   9  10
ATOM     10  C   UNL A   1      33.790  25.613  24.805  1.00  0.00     0.221 C 
ATOM     11  N   UNL A   1      34.789  24.886  25.372  1.00  0.00    -0.352 N 
ATOM     12  H   UNL A   1      35.699  25.230  25.218  1.00  0.00     0.163 HD
ATOM     13  O   UNL A   1      34.027  26.772  24.453  1.00  0.00    -0.275 OA
BRANCH  11  14
ATOM     14  C   UNL A   1      34.711  23.686  26.162  1.00  0.00     0.152 C 
BRANCH  14  15
ATOM     15  C   UNL A   1      35.796  22.694  25.846  1.00  0.00    -0.015 A 
ATOM     16  C   UNL A   1      34.146  20.782  25.207  1.00  0.00     0.045 C 
ATOM     17  C   UNL A   1      35.516  21.360  25.347  1.00  0.00    -0.035 A 
ATOM     18  C   UNL A   1      36.674  20.693  24.994  1.00  0.00     0.068 A 
ATOM     19  S   UNL A   1      38.082  21.594  25.322  1.00  0.00    -0.152 S 
ATOM     20  C   UNL A   1      37.163  22.895  25.934  1.00  0.00     0.070 A 
ENDBRANCH  14  15
ENDBRANCH  11  14
ENDBRANCH   9  10
ENDBRANCH   6   9
ENDBRANCH   4   6
ENDBRANCH   3   4
ENDBRANCH   2   3
ENDBRANCH   1   2
BRANCH   1  21
ATOM     21  O   UNL A   1      31.276  29.675  24.303  1.00  0.00    -0.374 OA
BRANCH  21  22
ATOM     22  C   UNL A   1      31.427  30.207  25.615  1.00  0.00     0.202 C 
BRANCH  22  23
ATOM     23  C   UNL A   1      32.841  30.499  26.133  1.00  0.00     0.261 C 
BRANCH  23  24
ATOM     24  O   UNL A   1      32.864  30.920  27.509  1.00  0.00    -0.460 OA
BRANCH  24  25
ATOM     25  C   UNL A   1      33.694  31.960  27.759  1.00  0.00     0.338 C 
ATOM     26  O   UNL A   1      33.374  33.132  27.935  1.00  0.00    -0.246 OA
BRANCH  25  27
ATOM     27  C   UNL A   1      35.069  31.494  27.996  1.00  0.00     0.060 A 
ATOM     28  C   UNL A   1      35.250  30.125  28.236  1.00  0.00     0.016 A 
ATOM     29  C   UNL A   1      36.137  32.385  28.120  1.00  0.00     0.016 A 
ATOM     30  C   UNL A   1      36.480  29.651  28.679  1.00  0.00     0.010 A 
ATOM     31  C   UNL A   1      37.371  31.907  28.575  1.00  0.00     0.010 A 
ATOM     32  C   UNL A   1      37.528  30.549  28.910  1.00  0.00    -0.014 A 
BRANCH  32  33
ATOM     33  C   UNL A   1      38.699  30.090  29.698  1.00  0.00     0.031 A 
ATOM     34  C   UNL A   1      38.860  30.595  31.108  1.00  0.00     0.074 A 
ATOM     35  C   UNL A   1      39.569  29.199  29.194  1.00  0.00     0.049 A 
ATOM     36  N   UNL A   1      39.772  30.297  31.997  1.00  0.00    -0.248 NA
ATOM     37  C   UNL A   1      37.855  31.563  31.580  1.00  0.00     0.031 C 
ATOM     38  C   UNL A   1      39.505  28.621  27.853  1.00  0.00     0.029 A 
ATOM     39  N   UNL A   1      40.682  28.627  29.757  1.00  0.00    -0.354 N 
ATOM     40  C   UNL A   1      39.463  31.052  33.123  1.00  0.00     0.074 A 
ATOM     41  C   UNL A   1      38.295  31.840  32.799  1.00  0.00     0.031 C 
ATOM     42  C   UNL A   1      40.543  27.782  27.692  1.00  0.00     0.029 A 
ATOM     43  C   UNL A   1      41.350  27.775  28.910  1.00  0.00     0.049 A 
ATOM     44  H   UNL A   1      40.974  28.810  30.678  1.00  0.00     0.167 HD
ATOM     45  C   UNL A   1      40.081  31.071  34.328  1.00  0.00     0.034 A 
ATOM     46  C   UNL A   1      42.486  27.074  29.100  1.00  0.00     0.034 A 
ATOM     47  C   UNL A   1      41.229  30.273  34.657  1.00  0.00     0.049 A 
ATOM     48  C   UNL A   1      43.174  27.138  30.440  1.00  0.00     0.074 A 
ATOM     49  C   UNL A   1      41.915  30.201  35.857  1.00  0.00     0.029 A 
ATOM     50  N   UNL A   1      41.865  29.408  33.780  1.00  0.00    -0.354 N 
ATOM     51  N   UNL A   1      42.811  27.776  31.527  1.00  0.00    -0.248 NA
ATOM     52  C   UNL A   1      44.409  26.355  30.590  1.00  0.00     0.031 C 
ATOM     53  C   UNL A   1      42.976  29.304  35.699  1.00  0.00     0.029 A 
ATOM     54  C   UNL A   1      42.939  28.801  34.408  1.00  0.00     0.049 A 
ATOM     55  H   UNL A   1      41.593  29.249  32.847  1.00  0.00     0.167 HD
ATOM     56  C   UNL A   1      43.746  27.437  32.501  1.00  0.00     0.074 A 
ATOM     57  C   UNL A   1      44.684  26.527  31.876  1.00  0.00     0.031 C 
ATOM     58  C   UNL A   1      43.827  27.849  33.790  1.00  0.00     0.034 A 
BRANCH  45  59
ATOM     59  C   UNL A   1      39.499  31.969  35.388  1.00  0.00     0.023 A 
ATOM     60  C   UNL A   1      38.481  31.479  36.232  1.00  0.00     0.012 A 
ATOM     61  C   UNL A   1      39.972  33.283  35.569  1.00  0.00     0.148 A 
ATOM     62  C   UNL A   1      37.917  32.292  37.214  1.00  0.00     0.002 A 
ATOM     63  C   UNL A   1      39.434  34.075  36.578  1.00  0.00     0.091 A 
ATOM     64  F   UNL A   1      40.920  33.743  34.741  1.00  0.00    -0.205 F 
ATOM     65  C   UNL A   1      38.400  33.586  37.393  1.00  0.00     0.022 A 
BRANCH  63  66
ATOM     66  S   UNL A   1      40.042  35.729  36.928  1.00  0.00     0.127 S 
ATOM     67  O   UNL A   1      41.474  35.489  37.097  1.00  0.00    -0.237 OA
ATOM     68  O   UNL A   1      39.686  36.457  35.710  1.00  0.00    -0.237 OA
ATOM     69  O   UNL A   1      39.332  36.167  38.122  1.00  0.00    -0.744 OA
ENDBRANCH  63  66
ENDBRANCH  45  59
BRANCH  46  70
ATOM     70  C   UNL A   1      43.009  26.197  28.015  1.00  0.00     0.023 A 
ATOM     71  C   UNL A   1      43.936  26.718  27.091  1.00  0.00     0.012 A 
ATOM     72  C   UNL A   1      42.611  24.850  27.904  1.00  0.00     0.148 A 
ATOM     73  C   UNL A   1      44.437  25.922  26.061  1.00  0.00     0.002 A 
ATOM     74  C   UNL A   1      43.154  24.049  26.906  1.00  0.00     0.091 A 
ATOM     75  F   UNL A   1      41.715  24.380  28.782  1.00  0.00    -0.205 F 
ATOM     76  C   UNL A   1      44.055  24.585  25.975  1.00  0.00     0.022 A 
BRANCH  74  77
ATOM     77  S   UNL A   1      42.811  22.289  26.792  1.00  0.00     0.127 S 
ATOM     78  O   UNL A   1      41.592  22.273  25.988  1.00  0.00    -0.237 OA
ATOM     79  O   UNL A   1      44.007  21.790  26.112  1.00  0.00    -0.237 OA
ATOM     80  O   UNL A   1      42.668  21.827  28.167  1.00  0.00    -0.744 OA
ENDBRANCH  74  77
ENDBRANCH  46  70
BRANCH  58  81
ATOM     81  C   UNL A   1      44.944  27.292  34.634  1.00  0.00     0.023 A 
ATOM     82  C   UNL A   1      46.155  28.002  34.753  1.00  0.00     0.012 A 
ATOM     83  C   UNL A   1      44.763  26.104  35.371  1.00  0.00     0.148 A 
ATOM     84  C   UNL A   1      47.181  27.522  35.566  1.00  0.00     0.002 A 
ATOM     85  C   UNL A   1      45.773  25.657  36.216  1.00  0.00     0.091 A 
ATOM     86  F   UNL A   1      43.612  25.432  35.231  1.00  0.00    -0.205 F 
ATOM     87  C   UNL A   1      46.986  26.358  36.306  1.00  0.00     0.022 A 
BRANCH  85  88
ATOM     88  S   UNL A   1      45.568  24.222  37.277  1.00  0.00     0.127 S 
ATOM     89  O   UNL A   1      44.362  24.573  38.025  1.00  0.00    -0.237 OA
ATOM     90  O   UNL A   1      45.390  23.139  36.309  1.00  0.00    -0.237 OA
ATOM     91  O   UNL A   1      46.791  24.130  38.063  1.00  0.00    -0.744 OA
ENDBRANCH  85  88
ENDBRANCH  58  81
ENDBRANCH  32  33
ENDBRANCH  25  27
ENDBRANCH  24  25
ENDBRANCH  23  24
ENDBRANCH  22  23
ENDBRANCH  21  22
ENDBRANCH   1  21
TORSDOF 21
ENDMDL
MODEL 3
REMARK VINA RESULT:     -10.3      1.705      2.141
REMARK SMILES Cc1cscc1CNC(=O)CC(C)(C)C(=O)OCCOCCOC(=O)c1ccc(-c2c3nc(c(-c4cccc(S(=O)(=O)[O-])c4F)c4ccc([nH]4)c(-c4cccc(S(=O)(=O)[O-])c4F)c4nc(c(-c5cccc(S(=O)(=O)[O-])c5F)c5ccc2[nH]5)C=C4)C=C3)cc1
REMARK SMILES IDX 19 1 18 2 17 3 15 4 16 5 12 6 13 7 14 8 11 9 9 10 8 11 10 13
REMARK SMILES IDX 7 14 6 15 1 16 2 17 3 18 4 19 5 20 20 21 21 22 22 23 23 24
REMARK SMILES IDX 24 25 25 26 26 27 27 28 88 29 28 30 87 31 29 32 30 33 31 34
REMARK SMILES IDX 81 35 32 36 86 37 80 38 82 39 33 40 85 41 79 42 78 43 34 45
REMARK SMILES IDX 66 46 46 47 65 48 47 49 50 50 64 51 83 52 48 53 49 54 63 56
REMARK SMILES IDX 84 57 51 58 35 59 36 60 44 61 37 62 39 63 45 64 38 65 40 66
REMARK SMILES IDX 41 67 42 68 43 69 67 70 68 71 76 72 69 73 71 74 77 75 70 76
REMARK SMILES IDX 72 77 73 78 74 79 75 80 52 81 53 82 61 83 54 84 56 85 62 86
REMARK SMILES IDX 55 87 57 88 58 89 59 90 60 91
REMARK H PARENT 8 12 82 44 50 55
REMARK Flexibility Score: inf
ROOT
ATOM      1  C   UNL A   1      32.054  29.684  25.877  1.00  0.00     0.202 C 
ENDROOT
BRANCH   1   2
ATOM      2  C   UNL A   1      32.734  28.979  24.695  1.00  0.00     0.261 C 
BRANCH   2   3
ATOM      3  O   UNL A   1      33.247  27.669  24.991  1.00  0.00    -0.463 OA
BRANCH   3   4
ATOM      4  C   UNL A   1      32.434  26.651  24.585  1.00  0.00     0.312 C 
ATOM      5  O   UNL A   1      31.458  26.837  23.873  1.00  0.00    -0.252 OA
BRANCH   4   6
ATOM      6  C   UNL A   1      32.871  25.280  25.133  1.00  0.00     0.071 C 
ATOM      7  C   UNL A   1      34.405  25.215  25.071  1.00  0.00     0.024 C 
ATOM      8  C   UNL A   1      32.349  24.123  24.248  1.00  0.00     0.024 C 
BRANCH   6   9
ATOM      9  C   UNL A   1      32.360  25.024  26.587  1.00  0.00     0.118 C 
BRANCH   9  10
ATOM     10  C   UNL A   1      31.496  23.800  26.863  1.00  0.00     0.221 C 
ATOM     11  N   UNL A   1      32.047  22.641  27.315  1.00  0.00    -0.352 N 
ATOM     12  H   UNL A   1      31.411  21.997  27.703  1.00  0.00     0.163 HD
ATOM     13  O   UNL A   1      30.281  23.836  26.655  1.00  0.00    -0.275 OA
BRANCH  11  14
ATOM     14  C   UNL A   1      33.423  22.221  27.310  1.00  0.00     0.152 C 
BRANCH  14  15
ATOM     15  C   UNL A   1      33.731  21.207  26.242  1.00  0.00    -0.015 A 
ATOM     16  C   UNL A   1      36.146  22.086  25.815  1.00  0.00     0.045 C 
ATOM     17  C   UNL A   1      35.026  21.122  25.594  1.00  0.00    -0.035 A 
ATOM     18  C   UNL A   1      35.109  20.024  24.759  1.00  0.00     0.068 A 
ATOM     19  S   UNL A   1      33.651  19.147  24.674  1.00  0.00    -0.152 S 
ATOM     20  C   UNL A   1      32.889  20.220  25.761  1.00  0.00     0.070 A 
ENDBRANCH  14  15
ENDBRANCH  11  14
ENDBRANCH   9  10
ENDBRANCH   6   9
ENDBRANCH   4   6
ENDBRANCH   3   4
ENDBRANCH   2   3
ENDBRANCH   1   2
BRANCH   1  21
ATOM     21  O   UNL A   1      31.369  30.911  25.659  1.00  0.00    -0.374 OA
BRANCH  21  22
ATOM     22  C   UNL A   1      31.503  31.952  26.621  1.00  0.00     0.202 C 
BRANCH  22  23
ATOM     23  C   UNL A   1      32.868  32.170  27.285  1.00  0.00     0.261 C 
BRANCH  23  24
ATOM     24  O   UNL A   1      33.126  33.549  27.610  1.00  0.00    -0.460 OA
BRANCH  24  25
ATOM     25  C   UNL A   1      33.790  33.732  28.775  1.00  0.00     0.338 C 
ATOM     26  O   UNL A   1      33.397  34.357  29.756  1.00  0.00    -0.246 OA
BRANCH  25  27
ATOM     27  C   UNL A   1      35.011  32.912  28.822  1.00  0.00     0.060 A 
ATOM     28  C   UNL A   1      34.900  31.627  29.371  1.00  0.00     0.016 A 
ATOM     29  C   UNL A   1      36.259  33.431  28.472  1.00  0.00     0.016 A 
ATOM     30  C   UNL A   1      36.044  30.885  29.647  1.00  0.00     0.010 A 
ATOM     31  C   UNL A   1      37.408  32.686  28.758  1.00  0.00     0.010 A 
ATOM     32  C   UNL A   1      37.306  31.436  29.398  1.00  0.00    -0.014 A 
BRANCH  32  33
ATOM     33  C   UNL A   1      38.496  30.792  30.007  1.00  0.00     0.031 A 
ATOM     34  C   UNL A   1      38.886  31.179  31.408  1.00  0.00     0.074 A 
ATOM     35  C   UNL A   1      39.182  29.841  29.350  1.00  0.00     0.049 A 
ATOM     36  N   UNL A   1      39.854  30.718  32.158  1.00  0.00    -0.248 NA
ATOM     37  C   UNL A   1      38.073  32.224  32.054  1.00  0.00     0.031 C 
ATOM     38  C   UNL A   1      38.887  29.366  27.999  1.00  0.00     0.029 A 
ATOM     39  N   UNL A   1      40.275  29.107  29.736  1.00  0.00    -0.354 N 
ATOM     40  C   UNL A   1      39.779  31.427  33.352  1.00  0.00     0.074 A 
ATOM     41  C   UNL A   1      38.687  32.366  33.220  1.00  0.00     0.031 C 
ATOM     42  C   UNL A   1      39.786  28.424  27.665  1.00  0.00     0.029 A 
ATOM     43  C   UNL A   1      40.726  28.242  28.768  1.00  0.00     0.049 A 
ATOM     44  H   UNL A   1      40.696  29.193  30.622  1.00  0.00     0.167 HD
ATOM     45  C   UNL A   1      40.534  31.293  34.468  1.00  0.00     0.034 A 
ATOM     46  C   UNL A   1      41.781  27.402  28.776  1.00  0.00     0.034 A 
ATOM     47  C   UNL A   1      41.605  30.346  34.606  1.00  0.00     0.049 A 
ATOM     48  C   UNL A   1      42.626  27.295  30.019  1.00  0.00     0.074 A 
ATOM     49  C   UNL A   1      42.415  30.115  35.704  1.00  0.00     0.029 A 
ATOM     50  N   UNL A   1      42.019  29.474  33.612  1.00  0.00    -0.354 N 
ATOM     51  N   UNL A   1      42.478  27.897  31.176  1.00  0.00    -0.248 NA
ATOM     52  C   UNL A   1      43.765  26.365  29.970  1.00  0.00     0.031 C 
ATOM     53  C   UNL A   1      43.331  29.112  35.366  1.00  0.00     0.029 A 
ATOM     54  C   UNL A   1      43.077  28.705  34.066  1.00  0.00     0.049 A 
ATOM     55  H   UNL A   1      41.620  29.410  32.714  1.00  0.00     0.167 HD
ATOM     56  C   UNL A   1      43.474  27.387  32.003  1.00  0.00     0.074 A 
ATOM     57  C   UNL A   1      44.210  26.418  31.218  1.00  0.00     0.031 C 
ATOM     58  C   UNL A   1      43.760  27.700  33.291  1.00  0.00     0.034 A 
BRANCH  45  59
ATOM     59  C   UNL A   1      40.199  32.180  35.639  1.00  0.00     0.023 A 
ATOM     60  C   UNL A   1      40.976  33.332  35.883  1.00  0.00     0.012 A 
ATOM     61  C   UNL A   1      39.108  31.893  36.480  1.00  0.00     0.148 A 
ATOM     62  C   UNL A   1      40.696  34.163  36.966  1.00  0.00     0.002 A 
ATOM     63  C   UNL A   1      38.808  32.749  37.535  1.00  0.00     0.091 A 
ATOM     64  F   UNL A   1      38.397  30.779  36.252  1.00  0.00    -0.205 F 
ATOM     65  C   UNL A   1      39.607  33.877  37.786  1.00  0.00     0.022 A 
BRANCH  63  66
ATOM     66  S   UNL A   1      37.383  32.499  38.600  1.00  0.00     0.127 S 
ATOM     67  O   UNL A   1      37.468  31.066  38.876  1.00  0.00    -0.237 OA
ATOM     68  O   UNL A   1      37.694  33.359  39.743  1.00  0.00    -0.237 OA
ATOM     69  O   UNL A   1      36.228  32.924  37.821  1.00  0.00    -0.744 OA
ENDBRANCH  63  66
ENDBRANCH  45  59
BRANCH  46  70
ATOM     70  C   UNL A   1      42.057  26.544  27.589  1.00  0.00     0.023 A 
ATOM     71  C   UNL A   1      42.711  27.100  26.472  1.00  0.00     0.012 A 
ATOM     72  C   UNL A   1      41.696  25.183  27.568  1.00  0.00     0.148 A 
ATOM     73  C   UNL A   1      42.976  26.323  25.344  1.00  0.00     0.002 A 
ATOM     74  C   UNL A   1      42.009  24.402  26.461  1.00  0.00     0.091 A 
ATOM     75  F   UNL A   1      41.058  24.679  28.633  1.00  0.00    -0.205 F 
ATOM     76  C   UNL A   1      42.635  24.972  25.343  1.00  0.00     0.022 A 
BRANCH  74  77
ATOM     77  S   UNL A   1      41.716  22.630  26.419  1.00  0.00     0.127 S 
ATOM     78  O   UNL A   1      42.340  22.193  27.666  1.00  0.00    -0.237 OA
ATOM     79  O   UNL A   1      40.254  22.565  26.404  1.00  0.00    -0.237 OA
ATOM     80  O   UNL A   1      42.349  22.156  25.195  1.00  0.00    -0.744 OA
ENDBRANCH  74  77
ENDBRANCH  46  70
BRANCH  58  81
ATOM     81  C   UNL A   1      44.892  26.960  33.957  1.00  0.00     0.023 A 
ATOM     82  C   UNL A   1      46.195  27.495  33.923  1.00  0.00     0.012 A 
ATOM     83  C   UNL A   1      44.649  25.776  34.681  1.00  0.00     0.148 A 
ATOM     84  C   UNL A   1      47.245  26.847  34.572  1.00  0.00     0.002 A 
ATOM     85  C   UNL A   1      45.691  25.160  35.365  1.00  0.00     0.091 A 
ATOM     86  F   UNL A   1      43.407  25.271  34.686  1.00  0.00    -0.205 F 
ATOM     87  C   UNL A   1      46.991  25.688  35.302  1.00  0.00     0.022 A 
BRANCH  85  88
ATOM     88  S   UNL A   1      45.434  23.720  36.407  1.00  0.00     0.127 S 
ATOM     89  O   UNL A   1      46.805  23.271  36.641  1.00  0.00    -0.237 OA
ATOM     90  O   UNL A   1      44.772  24.294  37.579  1.00  0.00    -0.237 OA
ATOM     91  O   UNL A   1      44.598  22.812  35.631  1.00  0.00    -0.744 OA
ENDBRANCH  85  88
ENDBRANCH  58  81
ENDBRANCH  32  33
ENDBRANCH  25  27
ENDBRANCH  24  25
ENDBRANCH  23  24
ENDBRANCH  22  23
ENDBRANCH  21  22
ENDBRANCH   1  21
TORSDOF 21
ENDMDL
