MODEL 1
REMARK VINA RESULT:     -11.4      0.000      0.000
REMARK SMILES C[C@@H](C(=O)OCCOCCOC(=O)c1ccc(-c2c3nc(c(-c4cccc(S(=O)(=O)[O-])c4F)c4ccc([nH]4)c(-c4cccc(S(=O)(=O)[O-])c4F)c4nc(c(-c5cccc(S(=O)(=O)[O-])c5F)c5ccc2[nH]5)C=C4)C=C3)cc1)c1ccc(-c2cccc(OC(=O)Nc3ccccc3)c2)c(F)c1
REMARK SMILES IDX 7 1 6 2 5 3 3 4 4 5 2 6 1 7 77 8 78 9 99 10 79 11 97 12
REMARK SMILES IDX 80 13 98 14 81 15 82 16 96 17 83 18 85 19 84 20 86 21 87 22
REMARK SMILES IDX 88 23 89 24 90 26 91 27 95 28 92 29 94 30 93 31 8 32 9 33
REMARK SMILES IDX 10 34 11 35 12 36 13 37 14 38 15 39 76 40 16 41 75 42 17 43
REMARK SMILES IDX 18 44 19 45 69 46 20 47 74 48 68 49 70 50 21 51 73 52 67 53
REMARK SMILES IDX 66 54 22 56 54 57 34 58 53 59 35 60 38 61 52 62 71 63 36 64
REMARK SMILES IDX 37 65 51 67 72 68 39 69 23 70 24 71 32 72 25 73 27 74 33 75
REMARK SMILES IDX 26 76 28 77 29 78 30 79 31 80 55 81 56 82 64 83 57 84 59 85
REMARK SMILES IDX 65 86 58 87 60 88 61 89 62 90 63 91 40 92 41 93 49 94 42 95
REMARK SMILES IDX 44 96 50 97 43 98 45 99 46 100 47 101 48 102
REMARK H PARENT 89 25 70 55 38 66
REMARK Flexibility Score: inf
ROOT
ATOM      1  C   UNL A   1      33.131  29.112  26.114  1.00  0.00     0.202 C 
ENDROOT
BRANCH   1   2
ATOM      2  C   UNL A   1      32.355  28.982  24.798  1.00  0.00     0.261 C 
BRANCH   2   3
ATOM      3  O   UNL A   1      32.168  27.596  24.451  1.00  0.00    -0.463 OA
BRANCH   3   4
ATOM      4  C   UNL A   1      31.373  27.353  23.375  1.00  0.00     0.313 C 
ATOM      5  O   UNL A   1      31.384  28.021  22.347  1.00  0.00    -0.252 OA
BRANCH   4   6
ATOM      6  C   UNL A   1      30.469  26.124  23.567  1.00  0.00     0.126 C 
ATOM      7  C   UNL A   1      29.369  26.276  24.622  1.00  0.00     0.025 C 
BRANCH   6   8
ATOM      8  C   UNL A   1      31.331  24.882  23.787  1.00  0.00    -0.031 A 
ATOM      9  C   UNL A   1      31.429  24.229  25.024  1.00  0.00     0.005 A 
ATOM     10  C   UNL A   1      32.165  24.448  22.749  1.00  0.00     0.044 A 
ATOM     11  C   UNL A   1      32.385  23.224  25.240  1.00  0.00     0.012 A 
ATOM     12  C   UNL A   1      33.100  23.439  22.965  1.00  0.00     0.131 A 
ATOM     13  C   UNL A   1      33.263  22.830  24.219  1.00  0.00     0.018 A 
ATOM     14  F   UNL A   1      33.883  23.082  21.934  1.00  0.00    -0.206 F 
BRANCH  13  15
ATOM     15  C   UNL A   1      34.369  21.889  24.476  1.00  0.00    -0.012 A 
ATOM     16  C   UNL A   1      34.165  20.504  24.587  1.00  0.00     0.009 A 
ATOM     17  C   UNL A   1      35.676  22.382  24.647  1.00  0.00     0.056 A 
ATOM     18  C   UNL A   1      35.235  19.641  24.845  1.00  0.00     0.004 A 
ATOM     19  C   UNL A   1      36.738  21.524  24.915  1.00  0.00     0.133 A 
ATOM     20  C   UNL A   1      36.523  20.149  25.006  1.00  0.00     0.047 A 
BRANCH  19  21
ATOM     21  O   UNL A   1      38.076  21.947  25.109  1.00  0.00    -0.410 OA
BRANCH  21  22
ATOM     22  C   UNL A   1      38.496  22.978  25.951  1.00  0.00     0.417 C 
ATOM     23  O   UNL A   1      37.828  23.954  26.281  1.00  0.00    -0.224 OA
ATOM     24  N   UNL A   1      39.728  22.792  26.523  1.00  0.00    -0.291 N 
ATOM     25  H   UNL A   1      39.956  23.443  27.225  1.00  0.00     0.173 HD
BRANCH  24  26
ATOM     26  C   UNL A   1      40.716  21.830  26.276  1.00  0.00     0.044 A 
ATOM     27  C   UNL A   1      40.354  20.490  26.453  1.00  0.00     0.026 A 
ATOM     28  C   UNL A   1      42.027  22.137  25.907  1.00  0.00     0.026 A 
ATOM     29  C   UNL A   1      41.273  19.467  26.214  1.00  0.00     0.002 A 
ATOM     30  C   UNL A   1      42.955  21.113  25.688  1.00  0.00     0.002 A 
ATOM     31  C   UNL A   1      42.575  19.780  25.830  1.00  0.00     0.000 A 
ENDBRANCH  24  26
ENDBRANCH  21  22
ENDBRANCH  19  21
ENDBRANCH  13  15
ENDBRANCH   6   8
ENDBRANCH   4   6
ENDBRANCH   3   4
ENDBRANCH   2   3
ENDBRANCH   1   2
BRANCH   1  32
ATOM     32  O   UNL A   1      32.689  30.131  27.016  1.00  0.00    -0.374 OA
BRANCH  32  33
ATOM     33  C   UNL A   1      33.695  30.847  27.726  1.00  0.00     0.202 C 
BRANCH  33  34
ATOM     34  C   UNL A   1      33.890  32.323  27.358  1.00  0.00     0.261 C 
BRANCH  34  35
ATOM     35  O   UNL A   1      32.854  33.165  27.886  1.00  0.00    -0.460 OA
BRANCH  35  36
ATOM     36  C   UNL A   1      33.308  34.300  28.476  1.00  0.00     0.338 C 
ATOM     37  O   UNL A   1      32.839  35.421  28.372  1.00  0.00    -0.246 OA
BRANCH  36  38
ATOM     38  C   UNL A   1      34.375  33.978  29.441  1.00  0.00     0.060 A 
ATOM     39  C   UNL A   1      35.691  34.272  29.058  1.00  0.00     0.016 A 
ATOM     40  C   UNL A   1      34.113  33.343  30.656  1.00  0.00     0.016 A 
ATOM     41  C   UNL A   1      36.755  33.881  29.864  1.00  0.00     0.010 A 
ATOM     42  C   UNL A   1      35.186  32.943  31.461  1.00  0.00     0.010 A 
ATOM     43  C   UNL A   1      36.512  33.174  31.048  1.00  0.00    -0.014 A 
BRANCH  43  44
ATOM     44  C   UNL A   1      37.649  32.550  31.765  1.00  0.00     0.031 A 
ATOM     45  C   UNL A   1      38.389  31.417  31.109  1.00  0.00     0.074 A 
ATOM     46  C   UNL A   1      38.032  33.003  32.973  1.00  0.00     0.049 A 
ATOM     47  N   UNL A   1      39.414  30.733  31.549  1.00  0.00    -0.248 NA
ATOM     48  C   UNL A   1      37.911  30.995  29.782  1.00  0.00     0.031 C 
ATOM     49  C   UNL A   1      37.397  34.098  33.703  1.00  0.00     0.029 A 
ATOM     50  N   UNL A   1      39.039  32.581  33.803  1.00  0.00    -0.354 N 
ATOM     51  C   UNL A   1      39.685  29.787  30.570  1.00  0.00     0.074 A 
ATOM     52  C   UNL A   1      38.712  29.973  29.517  1.00  0.00     0.031 C 
ATOM     53  C   UNL A   1      38.017  34.249  34.887  1.00  0.00     0.029 A 
ATOM     54  C   UNL A   1      39.075  33.247  35.005  1.00  0.00     0.049 A 
ATOM     55  H   UNL A   1      39.674  31.869  33.562  1.00  0.00     0.167 HD
ATOM     56  C   UNL A   1      40.668  28.854  30.541  1.00  0.00     0.034 A 
ATOM     57  C   UNL A   1      39.864  33.059  36.081  1.00  0.00     0.034 A 
ATOM     58  C   UNL A   1      41.650  28.688  31.577  1.00  0.00     0.049 A 
ATOM     59  C   UNL A   1      40.936  32.001  36.032  1.00  0.00     0.074 A 
ATOM     60  C   UNL A   1      42.719  27.810  31.615  1.00  0.00     0.029 A 
ATOM     61  N   UNL A   1      41.678  29.405  32.763  1.00  0.00    -0.354 N 
ATOM     62  N   UNL A   1      41.261  31.199  35.046  1.00  0.00    -0.248 NA
ATOM     63  C   UNL A   1      41.773  31.845  37.231  1.00  0.00     0.031 C 
ATOM     64  C   UNL A   1      43.377  27.976  32.839  1.00  0.00     0.029 A 
ATOM     65  C   UNL A   1      42.735  28.978  33.549  1.00  0.00     0.049 A 
ATOM     66  H   UNL A   1      41.040  30.112  33.011  1.00  0.00     0.167 HD
ATOM     67  C   UNL A   1      42.360  30.471  35.491  1.00  0.00     0.074 A 
ATOM     68  C   UNL A   1      42.657  30.941  36.829  1.00  0.00     0.031 C 
ATOM     69  C   UNL A   1      43.053  29.494  34.857  1.00  0.00     0.034 A 
BRANCH  56  70
ATOM     70  C   UNL A   1      40.744  27.954  29.337  1.00  0.00     0.023 A 
ATOM     71  C   UNL A   1      39.926  26.809  29.266  1.00  0.00     0.012 A 
ATOM     72  C   UNL A   1      41.582  28.274  28.250  1.00  0.00     0.148 A 
ATOM     73  C   UNL A   1      39.961  25.980  28.147  1.00  0.00     0.002 A 
ATOM     74  C   UNL A   1      41.580  27.465  27.120  1.00  0.00     0.091 A 
ATOM     75  F   UNL A   1      42.371  29.354  28.348  1.00  0.00    -0.205 F 
ATOM     76  C   UNL A   1      40.779  26.313  27.070  1.00  0.00     0.022 A 
BRANCH  74  77
ATOM     77  S   UNL A   1      42.544  27.852  25.654  1.00  0.00     0.127 S 
ATOM     78  O   UNL A   1      42.316  26.666  24.831  1.00  0.00    -0.237 OA
ATOM     79  O   UNL A   1      41.891  29.067  25.167  1.00  0.00    -0.237 OA
ATOM     80  O   UNL A   1      43.913  28.042  26.112  1.00  0.00    -0.744 OA
ENDBRANCH  74  77
ENDBRANCH  56  70
BRANCH  57  81
ATOM     81  C   UNL A   1      39.695  33.917  37.289  1.00  0.00     0.023 A 
ATOM     82  C   UNL A   1      40.236  35.217  37.299  1.00  0.00     0.012 A 
ATOM     83  C   UNL A   1      38.989  33.457  38.417  1.00  0.00     0.148 A 
ATOM     84  C   UNL A   1      40.103  36.033  38.424  1.00  0.00     0.002 A 
ATOM     85  C   UNL A   1      38.812  34.294  39.512  1.00  0.00     0.091 A 
ATOM     86  F   UNL A   1      38.499  32.209  38.395  1.00  0.00    -0.205 F 
ATOM     87  C   UNL A   1      39.383  35.576  39.525  1.00  0.00     0.022 A 
BRANCH  85  88
ATOM     88  S   UNL A   1      37.793  33.836  40.918  1.00  0.00     0.127 S 
ATOM     89  O   UNL A   1      36.627  33.248  40.263  1.00  0.00    -0.237 OA
ATOM     90  O   UNL A   1      38.653  32.881  41.617  1.00  0.00    -0.237 OA
ATOM     91  O   UNL A   1      37.554  35.074  41.649  1.00  0.00    -0.744 OA
ENDBRANCH  85  88
ENDBRANCH  57  81
BRANCH  69  92
ATOM     92  C   UNL A   1      44.227  28.883  35.578  1.00  0.00     0.023 A 
ATOM     93  C   UNL A   1      45.508  29.453  35.438  1.00  0.00     0.012 A 
ATOM     94  C   UNL A   1      44.044  27.797  36.457  1.00  0.00     0.148 A 
ATOM     95  C   UNL A   1      46.596  28.929  36.136  1.00  0.00     0.002 A 
ATOM     96  C   UNL A   1      45.123  27.313  37.187  1.00  0.00     0.091 A 
ATOM     97  F   UNL A   1      42.821  27.259  36.563  1.00  0.00    -0.205 F 
ATOM     98  C   UNL A   1      46.401  27.869  37.019  1.00  0.00     0.022 A 
BRANCH  96  99
ATOM     99  S   UNL A   1      44.947  26.017  38.419  1.00  0.00     0.127 S 
ATOM    100  O   UNL A   1      46.327  25.841  38.867  1.00  0.00    -0.237 OA
ATOM    101  O   UNL A   1      44.061  26.641  39.402  1.00  0.00    -0.237 OA
ATOM    102  O   UNL A   1      44.365  24.877  37.721  1.00  0.00    -0.744 OA
ENDBRANCH  96  99
ENDBRANCH  69  92
ENDBRANCH  43  44
ENDBRANCH  36  38
ENDBRANCH  35  36
ENDBRANCH  34  35
ENDBRANCH  33  34
ENDBRANCH  32  33
ENDBRANCH   1  32
TORSDOF 22
ENDMDL
MODEL 2
REMARK VINA RESULT:     -11.3      4.973     10.471
REMARK SMILES C[C@@H](C(=O)OCCOCCOC(=O)c1ccc(-c2c3nc(c(-c4cccc(S(=O)(=O)[O-])c4F)c4ccc([nH]4)c(-c4cccc(S(=O)(=O)[O-])c4F)c4nc(c(-c5cccc(S(=O)(=O)[O-])c5F)c5ccc2[nH]5)C=C4)C=C3)cc1)c1ccc(-c2cccc(OC(=O)Nc3ccccc3)c2)c(F)c1
REMARK SMILES IDX 7 1 6 2 5 3 3 4 4 5 2 6 1 7 77 8 78 9 99 10 79 11 97 12
REMARK SMILES IDX 80 13 98 14 81 15 82 16 96 17 83 18 85 19 84 20 86 21 87 22
REMARK SMILES IDX 88 23 89 24 90 26 91 27 95 28 92 29 94 30 93 31 8 32 9 33
REMARK SMILES IDX 10 34 11 35 12 36 13 37 14 38 15 39 76 40 16 41 75 42 17 43
REMARK SMILES IDX 18 44 19 45 69 46 20 47 74 48 68 49 70 50 21 51 73 52 67 53
REMARK SMILES IDX 66 54 22 56 54 57 34 58 53 59 35 60 38 61 52 62 71 63 36 64
REMARK SMILES IDX 37 65 51 67 72 68 39 69 23 70 24 71 32 72 25 73 27 74 33 75
REMARK SMILES IDX 26 76 28 77 29 78 30 79 31 80 55 81 56 82 64 83 57 84 59 85
REMARK SMILES IDX 65 86 58 87 60 88 61 89 62 90 63 91 40 92 41 93 49 94 42 95
REMARK SMILES IDX 44 96 50 97 43 98 45 99 46 100 47 101 48 102
REMARK H PARENT 89 25 70 55 38 66
REMARK Flexibility Score: inf
ROOT
ATOM      1  C   UNL A   1      45.412  21.702  25.719  1.00  0.00     0.202 C 
ENDROOT
BRANCH   1   2
ATOM      2  C   UNL A   1      44.290  21.667  24.677  1.00  0.00     0.261 C 
BRANCH   2   3
ATOM      3  O   UNL A   1      42.999  21.717  25.316  1.00  0.00    -0.463 OA
BRANCH   3   4
ATOM      4  C   UNL A   1      42.559  20.553  25.864  1.00  0.00     0.313 C 
ATOM      5  O   UNL A   1      42.461  19.497  25.247  1.00  0.00    -0.252 OA
BRANCH   4   6
ATOM      6  C   UNL A   1      42.220  20.686  27.357  1.00  0.00     0.126 C 
ATOM      7  C   UNL A   1      41.195  19.681  27.891  1.00  0.00     0.025 C 
BRANCH   6   8
ATOM      8  C   UNL A   1      41.846  22.134  27.672  1.00  0.00    -0.031 A 
ATOM      9  C   UNL A   1      40.619  22.704  27.302  1.00  0.00     0.005 A 
ATOM     10  C   UNL A   1      42.815  22.973  28.235  1.00  0.00     0.044 A 
ATOM     11  C   UNL A   1      40.396  24.085  27.420  1.00  0.00     0.012 A 
ATOM     12  C   UNL A   1      42.582  24.339  28.365  1.00  0.00     0.131 A 
ATOM     13  C   UNL A   1      41.389  24.936  27.928  1.00  0.00     0.018 A 
ATOM     14  F   UNL A   1      43.558  25.093  28.895  1.00  0.00    -0.206 F 
BRANCH  13  15
ATOM     15  C   UNL A   1      41.225  26.402  27.915  1.00  0.00    -0.012 A 
ATOM     16  C   UNL A   1      41.205  27.144  26.722  1.00  0.00     0.009 A 
ATOM     17  C   UNL A   1      41.112  27.100  29.131  1.00  0.00     0.056 A 
ATOM     18  C   UNL A   1      41.061  28.535  26.746  1.00  0.00     0.004 A 
ATOM     19  C   UNL A   1      40.980  28.485  29.155  1.00  0.00     0.133 A 
ATOM     20  C   UNL A   1      40.945  29.207  27.962  1.00  0.00     0.047 A 
BRANCH  19  21
ATOM     21  O   UNL A   1      40.872  29.257  30.338  1.00  0.00    -0.410 OA
BRANCH  21  22
ATOM     22  C   UNL A   1      40.006  29.008  31.403  1.00  0.00     0.417 C 
ATOM     23  O   UNL A   1      40.181  28.184  32.295  1.00  0.00    -0.224 OA
ATOM     24  N   UNL A   1      38.929  29.854  31.482  1.00  0.00    -0.291 N 
ATOM     25  H   UNL A   1      38.404  29.773  32.310  1.00  0.00     0.173 HD
BRANCH  24  26
ATOM     26  C   UNL A   1      38.452  30.816  30.581  1.00  0.00     0.044 A 
ATOM     27  C   UNL A   1      38.781  32.150  30.845  1.00  0.00     0.026 A 
ATOM     28  C   UNL A   1      37.650  30.519  29.477  1.00  0.00     0.026 A 
ATOM     29  C   UNL A   1      38.359  33.169  29.990  1.00  0.00     0.002 A 
ATOM     30  C   UNL A   1      37.209  31.543  28.632  1.00  0.00     0.002 A 
ATOM     31  C   UNL A   1      37.573  32.865  28.882  1.00  0.00     0.000 A 
ENDBRANCH  24  26
ENDBRANCH  21  22
ENDBRANCH  19  21
ENDBRANCH  13  15
ENDBRANCH   6   8
ENDBRANCH   4   6
ENDBRANCH   3   4
ENDBRANCH   2   3
ENDBRANCH   1   2
BRANCH   1  32
ATOM     32  O   UNL A   1      46.474  22.632  25.481  1.00  0.00    -0.374 OA
BRANCH  32  33
ATOM     33  C   UNL A   1      46.227  23.669  24.536  1.00  0.00     0.202 C 
BRANCH  33  34
ATOM     34  C   UNL A   1      47.397  24.604  24.206  1.00  0.00     0.261 C 
BRANCH  34  35
ATOM     35  O   UNL A   1      47.280  25.882  24.849  1.00  0.00    -0.460 OA
BRANCH  35  36
ATOM     36  C   UNL A   1      47.662  25.886  26.152  1.00  0.00     0.338 C 
ATOM     37  O   UNL A   1      48.623  25.315  26.638  1.00  0.00    -0.246 OA
BRANCH  36  38
ATOM     38  C   UNL A   1      46.845  26.846  26.916  1.00  0.00     0.060 A 
ATOM     39  C   UNL A   1      47.511  27.639  27.860  1.00  0.00     0.016 A 
ATOM     40  C   UNL A   1      45.459  26.926  26.771  1.00  0.00     0.016 A 
ATOM     41  C   UNL A   1      46.785  28.476  28.703  1.00  0.00     0.010 A 
ATOM     42  C   UNL A   1      44.731  27.761  27.626  1.00  0.00     0.010 A 
ATOM     43  C   UNL A   1      45.388  28.508  28.622  1.00  0.00    -0.014 A 
BRANCH  43  44
ATOM     44  C   UNL A   1      44.617  29.204  29.680  1.00  0.00     0.031 A 
ATOM     45  C   UNL A   1      44.286  28.464  30.946  1.00  0.00     0.074 A 
ATOM     46  C   UNL A   1      44.240  30.486  29.523  1.00  0.00     0.049 A 
ATOM     47  N   UNL A   1      43.633  28.879  32.001  1.00  0.00    -0.248 NA
ATOM     48  C   UNL A   1      44.751  27.070  31.038  1.00  0.00     0.031 C 
ATOM     49  C   UNL A   1      44.510  31.308  28.345  1.00  0.00     0.029 A 
ATOM     50  N   UNL A   1      43.531  31.313  30.358  1.00  0.00    -0.354 N 
ATOM     51  C   UNL A   1      43.584  27.794  32.866  1.00  0.00     0.074 A 
ATOM     52  C   UNL A   1      44.262  26.697  32.212  1.00  0.00     0.031 C 
ATOM     53  C   UNL A   1      43.952  32.519  28.522  1.00  0.00     0.029 A 
ATOM     54  C   UNL A   1      43.270  32.548  29.814  1.00  0.00     0.049 A 
ATOM     55  H   UNL A   1      43.238  31.047  31.259  1.00  0.00     0.167 HD
ATOM     56  C   UNL A   1      43.037  27.720  34.103  1.00  0.00     0.034 A 
ATOM     57  C   UNL A   1      42.549  33.579  30.300  1.00  0.00     0.034 A 
ATOM     58  C   UNL A   1      42.386  28.820  34.762  1.00  0.00     0.049 A 
ATOM     59  C   UNL A   1      41.933  33.463  31.670  1.00  0.00     0.074 A 
ATOM     60  C   UNL A   1      41.849  28.861  36.037  1.00  0.00     0.029 A 
ATOM     61  N   UNL A   1      42.171  30.066  34.195  1.00  0.00    -0.354 N 
ATOM     62  N   UNL A   1      42.005  32.474  32.528  1.00  0.00    -0.248 NA
ATOM     63  C   UNL A   1      41.165  34.621  32.154  1.00  0.00     0.031 C 
ATOM     64  C   UNL A   1      41.284  30.127  36.231  1.00  0.00     0.029 A 
ATOM     65  C   UNL A   1      41.495  30.881  35.087  1.00  0.00     0.049 A 
ATOM     66  H   UNL A   1      42.456  30.333  33.292  1.00  0.00     0.167 HD
ATOM     67  C   UNL A   1      41.325  32.903  33.664  1.00  0.00     0.074 A 
ATOM     68  C   UNL A   1      40.865  34.249  33.392  1.00  0.00     0.031 C 
ATOM     69  C   UNL A   1      41.091  32.239  34.823  1.00  0.00     0.034 A 
BRANCH  56  70
ATOM     70  C   UNL A   1      43.140  26.410  34.838  1.00  0.00     0.023 A 
ATOM     71  C   UNL A   1      42.050  25.516  34.829  1.00  0.00     0.012 A 
ATOM     72  C   UNL A   1      44.335  26.040  35.486  1.00  0.00     0.148 A 
ATOM     73  C   UNL A   1      42.137  24.286  35.479  1.00  0.00     0.002 A 
ATOM     74  C   UNL A   1      44.427  24.794  36.096  1.00  0.00     0.091 A 
ATOM     75  F   UNL A   1      45.350  26.915  35.505  1.00  0.00    -0.205 F 
ATOM     76  C   UNL A   1      43.328  23.920  36.102  1.00  0.00     0.022 A 
BRANCH  74  77
ATOM     77  S   UNL A   1      45.942  24.203  36.860  1.00  0.00     0.127 S 
ATOM     78  O   UNL A   1      45.511  22.921  37.414  1.00  0.00    -0.237 OA
ATOM     79  O   UNL A   1      46.846  24.101  35.714  1.00  0.00    -0.237 OA
ATOM     80  O   UNL A   1      46.317  25.214  37.840  1.00  0.00    -0.744 OA
ENDBRANCH  74  77
ENDBRANCH  56  70
BRANCH  57  81
ATOM     81  C   UNL A   1      42.399  34.827  29.499  1.00  0.00     0.023 A 
ATOM     82  C   UNL A   1      41.315  34.955  28.609  1.00  0.00     0.012 A 
ATOM     83  C   UNL A   1      43.314  35.890  29.626  1.00  0.00     0.148 A 
ATOM     84  C   UNL A   1      41.162  36.109  27.838  1.00  0.00     0.002 A 
ATOM     85  C   UNL A   1      43.125  37.057  28.896  1.00  0.00     0.091 A 
ATOM     86  F   UNL A   1      44.350  35.740  30.464  1.00  0.00    -0.205 F 
ATOM     87  C   UNL A   1      42.060  37.163  27.989  1.00  0.00     0.022 A 
BRANCH  85  88
ATOM     88  S   UNL A   1      44.156  38.510  29.123  1.00  0.00     0.127 S 
ATOM     89  O   UNL A   1      45.488  37.979  28.843  1.00  0.00    -0.237 OA
ATOM     90  O   UNL A   1      43.629  39.418  28.104  1.00  0.00    -0.237 OA
ATOM     91  O   UNL A   1      43.922  38.947  30.493  1.00  0.00    -0.744 OA
ENDBRANCH  85  88
ENDBRANCH  57  81
BRANCH  69  92
ATOM     92  C   UNL A   1      40.334  32.962  35.907  1.00  0.00     0.023 A 
ATOM     93  C   UNL A   1      38.937  32.810  36.006  1.00  0.00     0.012 A 
ATOM     94  C   UNL A   1      41.017  33.726  36.874  1.00  0.00     0.148 A 
ATOM     95  C   UNL A   1      38.228  33.434  37.033  1.00  0.00     0.002 A 
ATOM     96  C   UNL A   1      40.310  34.303  37.922  1.00  0.00     0.091 A 
ATOM     97  F   UNL A   1      42.345  33.872  36.752  1.00  0.00    -0.205 F 
ATOM     98  C   UNL A   1      38.915  34.168  37.996  1.00  0.00     0.022 A 
BRANCH  96  99
ATOM     99  S   UNL A   1      41.123  35.183  39.260  1.00  0.00     0.127 S 
ATOM    100  O   UNL A   1      40.005  35.451  40.164  1.00  0.00    -0.237 OA
ATOM    101  O   UNL A   1      42.079  34.190  39.751  1.00  0.00    -0.237 OA
ATOM    102  O   UNL A   1      41.733  36.360  38.655  1.00  0.00    -0.744 OA
ENDBRANCH  96  99
ENDBRANCH  69  92
ENDBRANCH  43  44
ENDBRANCH  36  38
ENDBRANCH  35  36
ENDBRANCH  34  35
ENDBRANCH  33  34
ENDBRANCH  32  33
ENDBRANCH   1  32
TORSDOF 22
ENDMDL
MODEL 3
REMARK VINA RESULT:     -11.2      4.812      8.403
REMARK SMILES C[C@@H](C(=O)OCCOCCOC(=O)c1ccc(-c2c3nc(c(-c4cccc(S(=O)(=O)[O-])c4F)c4ccc([nH]4)c(-c4cccc(S(=O)(=O)[O-])c4F)c4nc(c(-c5cccc(S(=O)(=O)[O-])c5F)c5ccc2[nH]5)C=C4)C=C3)cc1)c1ccc(-c2cccc(OC(=O)Nc3ccccc3)c2)c(F)c1
REMARK SMILES IDX 7 1 6 2 5 3 3 4 4 5 2 6 1 7 77 8 78 9 99 10 79 11 97 12
REMARK SMILES IDX 80 13 98 14 81 15 82 16 96 17 83 18 85 19 84 20 86 21 87 22
REMARK SMILES IDX 88 23 89 24 90 26 91 27 95 28 92 29 94 30 93 31 8 32 9 33
REMARK SMILES IDX 10 34 11 35 12 36 13 37 14 38 15 39 76 40 16 41 75 42 17 43
REMARK SMILES IDX 18 44 19 45 69 46 20 47 74 48 68 49 70 50 21 51 73 52 67 53
REMARK SMILES IDX 66 54 22 56 54 57 34 58 53 59 35 60 38 61 52 62 71 63 36 64
REMARK SMILES IDX 37 65 51 67 72 68 39 69 23 70 24 71 32 72 25 73 27 74 33 75
REMARK SMILES IDX 26 76 28 77 29 78 30 79 31 80 55 81 56 82 64 83 57 84 59 85
REMARK SMILES IDX 65 86 58 87 60 88 61 89 62 90 63 91 40 92 41 93 49 94 42 95
REMARK SMILES IDX 44 96 50 97 43 98 45 99 46 100 47 101 48 102
REMARK H PARENT 89 25 70 55 38 66
REMARK Flexibility Score: inf
ROOT
ATOM      1  C   UNL A   1      33.123  35.857  30.001  1.00  0.00     0.202 C 
ENDROOT
BRANCH   1   2
ATOM      2  C   UNL A   1      34.387  35.313  30.677  1.00  0.00     0.261 C 
BRANCH   2   3
ATOM      3  O   UNL A   1      34.048  34.557  31.855  1.00  0.00    -0.463 OA
BRANCH   3   4
ATOM      4  C   UNL A   1      34.695  33.370  32.008  1.00  0.00     0.313 C 
ATOM      5  O   UNL A   1      34.365  32.330  31.448  1.00  0.00    -0.252 OA
BRANCH   4   6
ATOM      6  C   UNL A   1      35.912  33.470  32.942  1.00  0.00     0.126 C 
ATOM      7  C   UNL A   1      35.771  34.459  34.103  1.00  0.00     0.025 C 
BRANCH   6   8
ATOM      8  C   UNL A   1      37.176  33.705  32.115  1.00  0.00    -0.031 A 
ATOM      9  C   UNL A   1      37.297  33.306  30.775  1.00  0.00     0.005 A 
ATOM     10  C   UNL A   1      38.311  34.220  32.751  1.00  0.00     0.044 A 
ATOM     11  C   UNL A   1      38.536  33.350  30.116  1.00  0.00     0.012 A 
ATOM     12  C   UNL A   1      39.533  34.276  32.086  1.00  0.00     0.131 A 
ATOM     13  C   UNL A   1      39.688  33.809  30.772  1.00  0.00     0.018 A 
ATOM     14  F   UNL A   1      40.589  34.763  32.758  1.00  0.00    -0.206 F 
BRANCH  13  15
ATOM     15  C   UNL A   1      41.019  33.715  30.143  1.00  0.00    -0.012 A 
ATOM     16  C   UNL A   1      41.635  34.815  29.523  1.00  0.00     0.009 A 
ATOM     17  C   UNL A   1      41.697  32.482  30.130  1.00  0.00     0.056 A 
ATOM     18  C   UNL A   1      42.893  34.688  28.924  1.00  0.00     0.004 A 
ATOM     19  C   UNL A   1      42.943  32.353  29.525  1.00  0.00     0.133 A 
ATOM     20  C   UNL A   1      43.550  33.458  28.927  1.00  0.00     0.047 A 
BRANCH  19  21
ATOM     21  O   UNL A   1      43.679  31.145  29.462  1.00  0.00    -0.410 OA
BRANCH  21  22
ATOM     22  C   UNL A   1      44.775  30.810  30.258  1.00  0.00     0.417 C 
ATOM     23  O   UNL A   1      45.109  31.373  31.295  1.00  0.00    -0.224 OA
ATOM     24  N   UNL A   1      45.447  29.679  29.870  1.00  0.00    -0.291 N 
ATOM     25  H   UNL A   1      46.122  29.364  30.512  1.00  0.00     0.173 HD
BRANCH  24  26
ATOM     26  C   UNL A   1      45.332  28.897  28.713  1.00  0.00     0.044 A 
ATOM     27  C   UNL A   1      46.404  28.047  28.415  1.00  0.00     0.026 A 
ATOM     28  C   UNL A   1      44.243  28.949  27.842  1.00  0.00     0.026 A 
ATOM     29  C   UNL A   1      46.365  27.223  27.289  1.00  0.00     0.002 A 
ATOM     30  C   UNL A   1      44.214  28.139  26.702  1.00  0.00     0.002 A 
ATOM     31  C   UNL A   1      45.269  27.268  26.433  1.00  0.00     0.000 A 
ENDBRANCH  24  26
ENDBRANCH  21  22
ENDBRANCH  19  21
ENDBRANCH  13  15
ENDBRANCH   6   8
ENDBRANCH   4   6
ENDBRANCH   3   4
ENDBRANCH   2   3
ENDBRANCH   1   2
BRANCH   1  32
ATOM     32  O   UNL A   1      32.805  35.314  28.715  1.00  0.00    -0.374 OA
BRANCH  32  33
ATOM     33  C   UNL A   1      32.907  33.901  28.565  1.00  0.00     0.202 C 
BRANCH  33  34
ATOM     34  C   UNL A   1      33.996  33.378  27.620  1.00  0.00     0.261 C 
BRANCH  34  35
ATOM     35  O   UNL A   1      34.942  32.528  28.286  1.00  0.00    -0.460 OA
BRANCH  35  36
ATOM     36  C   UNL A   1      34.728  31.201  28.093  1.00  0.00     0.338 C 
ATOM     37  O   UNL A   1      33.742  30.680  27.601  1.00  0.00    -0.246 OA
BRANCH  36  38
ATOM     38  C   UNL A   1      35.953  30.441  28.401  1.00  0.00     0.060 A 
ATOM     39  C   UNL A   1      35.983  29.745  29.617  1.00  0.00     0.016 A 
ATOM     40  C   UNL A   1      37.070  30.458  27.563  1.00  0.00     0.016 A 
ATOM     41  C   UNL A   1      37.151  29.110  30.027  1.00  0.00     0.010 A 
ATOM     42  C   UNL A   1      38.246  29.826  27.983  1.00  0.00     0.010 A 
ATOM     43  C   UNL A   1      38.303  29.185  29.235  1.00  0.00    -0.014 A 
BRANCH  43  44
ATOM     44  C   UNL A   1      39.597  28.724  29.792  1.00  0.00     0.031 A 
ATOM     45  C   UNL A   1      40.313  27.584  29.123  1.00  0.00     0.074 A 
ATOM     46  C   UNL A   1      40.138  29.330  30.865  1.00  0.00     0.049 A 
ATOM     47  N   UNL A   1      41.455  27.027  29.434  1.00  0.00    -0.248 NA
ATOM     48  C   UNL A   1      39.656  26.989  27.947  1.00  0.00     0.031 C 
ATOM     49  C   UNL A   1      39.541  30.449  31.592  1.00  0.00     0.029 A 
ATOM     50  N   UNL A   1      41.305  29.073  31.537  1.00  0.00    -0.354 N 
ATOM     51  C   UNL A   1      41.640  26.003  28.514  1.00  0.00     0.074 A 
ATOM     52  C   UNL A   1      40.488  26.005  27.638  1.00  0.00     0.031 C 
ATOM     53  C   UNL A   1      40.338  30.769  32.627  1.00  0.00     0.029 A 
ATOM     54  C   UNL A   1      41.486  29.865  32.647  1.00  0.00     0.049 A 
ATOM     55  H   UNL A   1      41.951  28.387  31.254  1.00  0.00     0.167 HD
ATOM     56  C   UNL A   1      42.682  25.146  28.397  1.00  0.00     0.034 A 
ATOM     57  C   UNL A   1      42.460  29.850  33.578  1.00  0.00     0.034 A 
ATOM     58  C   UNL A   1      43.838  25.163  29.252  1.00  0.00     0.049 A 
ATOM     59  C   UNL A   1      43.598  28.872  33.436  1.00  0.00     0.074 A 
ATOM     60  C   UNL A   1      44.972  24.373  29.180  1.00  0.00     0.029 A 
ATOM     61  N   UNL A   1      44.003  26.002  30.343  1.00  0.00    -0.354 N 
ATOM     62  N   UNL A   1      43.821  27.995  32.487  1.00  0.00    -0.248 NA
ATOM     63  C   UNL A   1      44.637  28.906  34.476  1.00  0.00     0.031 C 
ATOM     64  C   UNL A   1      45.811  24.716  30.245  1.00  0.00     0.029 A 
ATOM     65  C   UNL A   1      45.212  25.739  30.963  1.00  0.00     0.049 A 
ATOM     66  H   UNL A   1      43.356  26.684  30.633  1.00  0.00     0.167 HD
ATOM     67  C   UNL A   1      45.040  27.401  32.794  1.00  0.00     0.074 A 
ATOM     68  C   UNL A   1      45.518  28.031  34.008  1.00  0.00     0.031 C 
ATOM     69  C   UNL A   1      45.700  26.413  32.140  1.00  0.00     0.034 A 
BRANCH  56  70
ATOM     70  C   UNL A   1      42.633  24.131  27.287  1.00  0.00     0.023 A 
ATOM     71  C   UNL A   1      43.210  24.433  26.036  1.00  0.00     0.012 A 
ATOM     72  C   UNL A   1      42.068  22.858  27.499  1.00  0.00     0.148 A 
ATOM     73  C   UNL A   1      43.199  23.495  25.005  1.00  0.00     0.002 A 
ATOM     74  C   UNL A   1      42.100  21.914  26.480  1.00  0.00     0.091 A 
ATOM     75  F   UNL A   1      41.502  22.600  28.686  1.00  0.00    -0.205 F 
ATOM     76  C   UNL A   1      42.655  22.233  25.230  1.00  0.00     0.022 A 
BRANCH  74  77
ATOM     77  S   UNL A   1      41.491  20.237  26.696  1.00  0.00     0.127 S 
ATOM     78  O   UNL A   1      42.457  19.693  27.647  1.00  0.00    -0.237 OA
ATOM     79  O   UNL A   1      40.154  20.463  27.245  1.00  0.00    -0.237 OA
ATOM     80  O   UNL A   1      41.507  19.631  25.371  1.00  0.00    -0.744 OA
ENDBRANCH  74  77
ENDBRANCH  56  70
BRANCH  57  81
ATOM     81  C   UNL A   1      42.422  30.817  34.712  1.00  0.00     0.023 A 
ATOM     82  C   UNL A   1      41.822  30.439  35.928  1.00  0.00     0.012 A 
ATOM     83  C   UNL A   1      42.990  32.101  34.595  1.00  0.00     0.148 A 
ATOM     84  C   UNL A   1      41.762  31.333  36.999  1.00  0.00     0.002 A 
ATOM     85  C   UNL A   1      42.977  32.966  35.683  1.00  0.00     0.091 A 
ATOM     86  F   UNL A   1      43.539  32.448  33.423  1.00  0.00    -0.205 F 
ATOM     87  C   UNL A   1      42.348  32.591  36.880  1.00  0.00     0.022 A 
BRANCH  85  88
ATOM     88  S   UNL A   1      43.818  34.552  35.660  1.00  0.00     0.127 S 
ATOM     89  O   UNL A   1      43.861  34.889  37.081  1.00  0.00    -0.237 OA
ATOM     90  O   UNL A   1      45.110  34.201  35.071  1.00  0.00    -0.237 OA
ATOM     91  O   UNL A   1      42.995  35.419  34.826  1.00  0.00    -0.744 OA
ENDBRANCH  85  88
ENDBRANCH  57  81
BRANCH  69  92
ATOM     92  C   UNL A   1      47.030  25.970  32.693  1.00  0.00     0.023 A 
ATOM     93  C   UNL A   1      47.076  24.983  33.698  1.00  0.00     0.012 A 
ATOM     94  C   UNL A   1      48.234  26.471  32.159  1.00  0.00     0.148 A 
ATOM     95  C   UNL A   1      48.301  24.527  34.186  1.00  0.00     0.002 A 
ATOM     96  C   UNL A   1      49.449  25.976  32.615  1.00  0.00     0.091 A 
ATOM     97  F   UNL A   1      48.168  27.422  31.215  1.00  0.00    -0.205 F 
ATOM     98  C   UNL A   1      49.485  25.014  33.637  1.00  0.00     0.022 A 
BRANCH  96  99
ATOM     99  S   UNL A   1      51.020  26.471  31.898  1.00  0.00     0.127 S 
ATOM    100  O   UNL A   1      51.258  27.754  32.558  1.00  0.00    -0.237 OA
ATOM    101  O   UNL A   1      51.911  25.392  32.323  1.00  0.00    -0.237 OA
ATOM    102  O   UNL A   1      50.800  26.539  30.459  1.00  0.00    -0.744 OA
ENDBRANCH  96  99
ENDBRANCH  69  92
ENDBRANCH  43  44
ENDBRANCH  36  38
ENDBRANCH  35  36
ENDBRANCH  34  35
ENDBRANCH  33  34
ENDBRANCH  32  33
ENDBRANCH   1  32
TORSDOF 22
ENDMDL
