MODEL 1
REMARK VINA RESULT:     -11.0      0.000      0.000
REMARK SMILES O=C(CCC(=O)OCCOCCOC(=O)c1ccc(-c2c3nc(c(-c4cccc(S(=O)(=O)[O-])c4F)c4ccc([nH]4)c(-c4cccc(S(=O)(=O)[O-])c4F)c4nc(c(-c5cccc(S(=O)(=O)[O-])c5F)c5ccc2[nH]5)C=C4)C=C3)cc1)/[NH+]=C1\S[C@H]2CS(=O)(=O)C[C@@H]2N1c1ccc(Oc2ccccc2)cc1
REMARK SMILES IDX 9 1 8 2 7 3 5 4 6 5 4 6 3 7 2 8 1 9 79 10 80 11 81 13 89 14
REMARK SMILES IDX 82 15 88 16 83 17 87 18 84 19 85 20 86 21 90 22 91 23 102 24
REMARK SMILES IDX 92 25 101 26 93 27 94 28 95 29 96 30 100 31 97 32 99 33
REMARK SMILES IDX 98 34 10 35 11 36 12 37 13 38 14 39 15 40 16 41 17 42 78 43
REMARK SMILES IDX 18 44 77 45 19 46 20 47 21 48 71 49 22 50 76 51 70 52 72 53
REMARK SMILES IDX 23 54 75 55 69 56 68 57 24 59 56 60 36 61 55 62 37 63 40 64
REMARK SMILES IDX 54 65 73 66 38 67 39 68 53 70 74 71 41 72 25 73 26 74 34 75
REMARK SMILES IDX 27 76 29 77 35 78 28 79 30 80 31 81 32 82 33 83 57 84 58 85
REMARK SMILES IDX 66 86 59 87 61 88 67 89 60 90 62 91 63 92 64 93 65 94 42 95
REMARK SMILES IDX 43 96 51 97 44 98 46 99 52 100 45 101 47 102 48 103 49 104
REMARK SMILES IDX 50 105
REMARK H PARENT 79 12 72 58 40 69
REMARK Flexibility Score: inf
ROOT
ATOM      1  C   UNL A   1      33.320  36.218  30.453  1.00  0.00     0.202 C 
ENDROOT
BRANCH   1   2
ATOM      2  C   UNL A   1      33.226  34.725  30.028  1.00  0.00     0.261 C 
BRANCH   2   3
ATOM      3  O   UNL A   1      34.466  34.294  29.461  1.00  0.00    -0.463 OA
BRANCH   3   4
ATOM      4  C   UNL A   1      34.724  33.011  29.785  1.00  0.00     0.306 C 
ATOM      5  O   UNL A   1      34.390  32.494  30.845  1.00  0.00    -0.252 OA
BRANCH   4   6
ATOM      6  C   UNL A   1      35.389  32.295  28.646  1.00  0.00     0.135 C 
BRANCH   6   7
ATOM      7  C   UNL A   1      34.513  31.346  27.815  1.00  0.00     0.139 C 
BRANCH   7   8
ATOM      8  C   UNL A   1      34.941  30.001  27.193  1.00  0.00     0.308 C 
ATOM      9  O   UNL A   1      35.701  29.333  27.900  1.00  0.00    -0.247 OA
ATOM     10  N   UNL A   1      34.572  29.479  25.941  1.00  0.00    -0.204 N 
ATOM     11  C   UNL A   1      33.429  29.053  25.476  1.00  0.00     0.319 C 
ATOM     12  H   UNL A   1      35.312  29.423  25.295  1.00  0.00     0.316 HD
ATOM     13  S   UNL A   1      31.798  29.405  26.091  1.00  0.00    -0.029 SA
ATOM     14  N   UNL A   1      33.213  28.264  24.332  1.00  0.00    -0.217 N 
ATOM     15  C   UNL A   1      30.906  28.951  24.647  1.00  0.00     0.120 C 
ATOM     16  C   UNL A   1      32.003  28.707  23.617  1.00  0.00     0.212 C 
ATOM     17  C   UNL A   1      29.946  29.884  23.944  1.00  0.00     0.156 C 
ATOM     18  C   UNL A   1      31.243  27.911  22.581  1.00  0.00     0.188 C 
ATOM     19  S   UNL A   1      29.797  29.016  22.365  1.00  0.00     0.155 S 
ATOM     20  O   UNL A   1      28.582  28.250  22.383  1.00  0.00    -0.229 OA
ATOM     21  O   UNL A   1      30.106  29.971  21.309  1.00  0.00    -0.229 OA
BRANCH  14  22
ATOM     22  C   UNL A   1      33.344  26.865  24.476  1.00  0.00     0.128 A 
ATOM     23  C   UNL A   1      33.114  26.289  25.721  1.00  0.00     0.056 A 
ATOM     24  C   UNL A   1      33.658  26.017  23.398  1.00  0.00     0.056 A 
ATOM     25  C   UNL A   1      33.212  24.907  25.882  1.00  0.00     0.051 A 
ATOM     26  C   UNL A   1      33.710  24.632  23.549  1.00  0.00     0.051 A 
ATOM     27  C   UNL A   1      33.515  24.070  24.802  1.00  0.00     0.127 A 
BRANCH  27  28
ATOM     28  O   UNL A   1      33.568  22.738  25.122  1.00  0.00    -0.457 OA
BRANCH  28  29
ATOM     29  C   UNL A   1      34.730  22.023  24.998  1.00  0.00     0.127 A 
ATOM     30  C   UNL A   1      34.597  20.635  24.985  1.00  0.00     0.047 A 
ATOM     31  C   UNL A   1      35.998  22.611  25.033  1.00  0.00     0.047 A 
ATOM     32  C   UNL A   1      35.732  19.831  24.999  1.00  0.00     0.004 A 
ATOM     33  C   UNL A   1      37.133  21.808  24.995  1.00  0.00     0.004 A 
ATOM     34  C   UNL A   1      36.994  20.424  25.002  1.00  0.00     0.000 A 
ENDBRANCH  28  29
ENDBRANCH  27  28
ENDBRANCH  14  22
ENDBRANCH   7   8
ENDBRANCH   6   7
ENDBRANCH   4   6
ENDBRANCH   3   4
ENDBRANCH   2   3
ENDBRANCH   1   2
BRANCH   1  35
ATOM     35  O   UNL A   1      33.517  36.548  31.823  1.00  0.00    -0.374 OA
BRANCH  35  36
ATOM     36  C   UNL A   1      34.043  35.617  32.814  1.00  0.00     0.202 C 
BRANCH  36  37
ATOM     37  C   UNL A   1      35.500  34.862  33.047  1.00  0.00     0.261 C 
BRANCH  37  38
ATOM     38  O   UNL A   1      36.477  34.502  31.968  1.00  0.00    -0.460 OA
BRANCH  38  39
ATOM     39  C   UNL A   1      37.715  33.963  32.347  1.00  0.00     0.338 C 
ATOM     40  O   UNL A   1      37.812  33.066  33.180  1.00  0.00    -0.246 OA
BRANCH  39  41
ATOM     41  C   UNL A   1      38.982  34.419  31.584  1.00  0.00     0.060 A 
ATOM     42  C   UNL A   1      38.939  34.730  30.230  1.00  0.00     0.016 A 
ATOM     43  C   UNL A   1      40.283  34.298  32.077  1.00  0.00     0.016 A 
ATOM     44  C   UNL A   1      40.057  34.955  29.391  1.00  0.00     0.010 A 
ATOM     45  C   UNL A   1      41.436  34.580  31.254  1.00  0.00     0.010 A 
ATOM     46  C   UNL A   1      41.348  34.918  29.882  1.00  0.00    -0.014 A 
BRANCH  46  47
ATOM     47  C   UNL A   1      42.544  35.138  28.963  1.00  0.00     0.031 A 
ATOM     48  C   UNL A   1      43.480  33.978  28.667  1.00  0.00     0.074 A 
ATOM     49  C   UNL A   1      42.822  36.316  28.338  1.00  0.00     0.049 A 
ATOM     50  N   UNL A   1      44.706  33.980  28.204  1.00  0.00    -0.248 NA
ATOM     51  C   UNL A   1      42.947  32.628  28.919  1.00  0.00     0.031 C 
ATOM     52  C   UNL A   1      41.986  37.521  28.339  1.00  0.00     0.029 A 
ATOM     53  N   UNL A   1      43.928  36.710  27.593  1.00  0.00    -0.354 N 
ATOM     54  C   UNL A   1      45.118  32.649  28.197  1.00  0.00     0.074 A 
ATOM     55  C   UNL A   1      44.004  31.862  28.677  1.00  0.00     0.031 C 
ATOM     56  C   UNL A   1      42.613  38.510  27.679  1.00  0.00     0.029 A 
ATOM     57  C   UNL A   1      43.948  38.064  27.300  1.00  0.00     0.049 A 
ATOM     58  H   UNL A   1      44.632  36.086  27.302  1.00  0.00     0.167 HD
ATOM     59  C   UNL A   1      46.304  32.123  27.804  1.00  0.00     0.034 A 
ATOM     60  C   UNL A   1      44.939  38.883  26.874  1.00  0.00     0.034 A 
ATOM     61  C   UNL A   1      47.375  32.878  27.220  1.00  0.00     0.049 A 
ATOM     62  C   UNL A   1      46.311  38.303  26.612  1.00  0.00     0.074 A 
ATOM     63  C   UNL A   1      48.605  32.419  26.780  1.00  0.00     0.029 A 
ATOM     64  N   UNL A   1      47.347  34.241  26.993  1.00  0.00    -0.354 N 
ATOM     65  N   UNL A   1      46.692  37.050  26.617  1.00  0.00    -0.248 NA
ATOM     66  C   UNL A   1      47.396  39.249  26.289  1.00  0.00     0.031 C 
ATOM     67  C   UNL A   1      49.341  33.517  26.331  1.00  0.00     0.029 A 
ATOM     68  C   UNL A   1      48.553  34.649  26.455  1.00  0.00     0.049 A 
ATOM     69  H   UNL A   1      46.583  34.832  27.185  1.00  0.00     0.167 HD
ATOM     70  C   UNL A   1      48.036  37.056  26.258  1.00  0.00     0.074 A 
ATOM     71  C   UNL A   1      48.408  38.433  26.028  1.00  0.00     0.031 C 
ATOM     72  C   UNL A   1      48.891  36.011  26.145  1.00  0.00     0.034 A 
BRANCH  59  73
ATOM     73  C   UNL A   1      46.544  30.648  27.991  1.00  0.00     0.023 A 
ATOM     74  C   UNL A   1      46.807  30.131  29.271  1.00  0.00     0.012 A 
ATOM     75  C   UNL A   1      46.355  29.758  26.919  1.00  0.00     0.148 A 
ATOM     76  C   UNL A   1      46.984  28.762  29.471  1.00  0.00     0.002 A 
ATOM     77  C   UNL A   1      46.447  28.389  27.139  1.00  0.00     0.091 A 
ATOM     78  F   UNL A   1      46.063  30.265  25.713  1.00  0.00    -0.205 F 
ATOM     79  C   UNL A   1      46.800  27.890  28.404  1.00  0.00     0.022 A 
BRANCH  77  80
ATOM     80  S   UNL A   1      46.010  27.181  25.885  1.00  0.00     0.127 S 
ATOM     81  O   UNL A   1      46.974  27.487  24.830  1.00  0.00    -0.237 OA
ATOM     82  O   UNL A   1      46.246  25.915  26.581  1.00  0.00    -0.237 OA
ATOM     83  O   UNL A   1      44.614  27.438  25.555  1.00  0.00    -0.744 OA
ENDBRANCH  77  80
ENDBRANCH  59  73
BRANCH  60  84
ATOM     84  C   UNL A   1      44.743  40.372  26.770  1.00  0.00     0.023 A 
ATOM     85  C   UNL A   1      44.220  40.945  25.592  1.00  0.00     0.012 A 
ATOM     86  C   UNL A   1      45.160  41.235  27.807  1.00  0.00     0.148 A 
ATOM     87  C   UNL A   1      44.158  42.336  25.432  1.00  0.00     0.002 A 
ATOM     88  C   UNL A   1      45.031  42.614  27.670  1.00  0.00     0.091 A 
ATOM     89  F   UNL A   1      45.708  40.693  28.903  1.00  0.00    -0.205 F 
ATOM     90  C   UNL A   1      44.552  43.169  26.475  1.00  0.00     0.022 A 
BRANCH  88  91
ATOM     91  S   UNL A   1      45.405  43.753  29.010  1.00  0.00     0.127 S 
ATOM     92  O   UNL A   1      45.113  45.045  28.396  1.00  0.00    -0.237 OA
ATOM     93  O   UNL A   1      44.453  43.332  30.039  1.00  0.00    -0.237 OA
ATOM     94  O   UNL A   1      46.801  43.511  29.350  1.00  0.00    -0.744 OA
ENDBRANCH  88  91
ENDBRANCH  60  84
BRANCH  72  95
ATOM     95  C   UNL A   1      50.293  36.278  25.668  1.00  0.00     0.023 A 
ATOM     96  C   UNL A   1      50.588  36.280  24.292  1.00  0.00     0.012 A 
ATOM     97  C   UNL A   1      51.288  36.652  26.593  1.00  0.00     0.148 A 
ATOM     98  C   UNL A   1      51.861  36.634  23.844  1.00  0.00     0.002 A 
ATOM     99  C   UNL A   1      52.534  37.060  26.137  1.00  0.00     0.091 A 
ATOM    100  F   UNL A   1      50.987  36.627  27.900  1.00  0.00    -0.205 F 
ATOM    101  C   UNL A   1      52.827  37.040  24.764  1.00  0.00     0.022 A 
BRANCH  99 102
ATOM    102  S   UNL A   1      53.792  37.715  27.239  1.00  0.00     0.127 S 
ATOM    103  O   UNL A   1      53.200  38.988  27.645  1.00  0.00    -0.237 OA
ATOM    104  O   UNL A   1      53.839  36.699  28.291  1.00  0.00    -0.237 OA
ATOM    105  O   UNL A   1      55.009  37.818  26.446  1.00  0.00    -0.744 OA
ENDBRANCH  99 102
ENDBRANCH  72  95
ENDBRANCH  46  47
ENDBRANCH  39  41
ENDBRANCH  38  39
ENDBRANCH  37  38
ENDBRANCH  36  37
ENDBRANCH  35  36
ENDBRANCH   1  35
TORSDOF 22
ENDMDL
MODEL 2
REMARK VINA RESULT:     -10.6      7.747      8.773
REMARK SMILES O=C(CCC(=O)OCCOCCOC(=O)c1ccc(-c2c3nc(c(-c4cccc(S(=O)(=O)[O-])c4F)c4ccc([nH]4)c(-c4cccc(S(=O)(=O)[O-])c4F)c4nc(c(-c5cccc(S(=O)(=O)[O-])c5F)c5ccc2[nH]5)C=C4)C=C3)cc1)/[NH+]=C1\S[C@H]2CS(=O)(=O)C[C@@H]2N1c1ccc(Oc2ccccc2)cc1
REMARK SMILES IDX 9 1 8 2 7 3 5 4 6 5 4 6 3 7 2 8 1 9 79 10 80 11 81 13 89 14
REMARK SMILES IDX 82 15 88 16 83 17 87 18 84 19 85 20 86 21 90 22 91 23 102 24
REMARK SMILES IDX 92 25 101 26 93 27 94 28 95 29 96 30 100 31 97 32 99 33
REMARK SMILES IDX 98 34 10 35 11 36 12 37 13 38 14 39 15 40 16 41 17 42 78 43
REMARK SMILES IDX 18 44 77 45 19 46 20 47 21 48 71 49 22 50 76 51 70 52 72 53
REMARK SMILES IDX 23 54 75 55 69 56 68 57 24 59 56 60 36 61 55 62 37 63 40 64
REMARK SMILES IDX 54 65 73 66 38 67 39 68 53 70 74 71 41 72 25 73 26 74 34 75
REMARK SMILES IDX 27 76 29 77 35 78 28 79 30 80 31 81 32 82 33 83 57 84 58 85
REMARK SMILES IDX 66 86 59 87 61 88 67 89 60 90 62 91 63 92 64 93 65 94 42 95
REMARK SMILES IDX 43 96 51 97 44 98 46 99 52 100 45 101 47 102 48 103 49 104
REMARK SMILES IDX 50 105
REMARK H PARENT 79 12 72 58 40 69
REMARK Flexibility Score: inf
ROOT
ATOM      1  C   UNL A   1      33.337  35.978  28.975  1.00  0.00     0.202 C 
ENDROOT
BRANCH   1   2
ATOM      2  C   UNL A   1      33.517  34.434  29.024  1.00  0.00     0.261 C 
BRANCH   2   3
ATOM      3  O   UNL A   1      34.762  34.101  29.643  1.00  0.00    -0.463 OA
BRANCH   3   4
ATOM      4  C   UNL A   1      34.929  32.765  29.704  1.00  0.00     0.306 C 
ATOM      5  O   UNL A   1      34.708  32.095  30.705  1.00  0.00    -0.252 OA
BRANCH   4   6
ATOM      6  C   UNL A   1      35.333  32.214  28.367  1.00  0.00     0.135 C 
BRANCH   6   7
ATOM      7  C   UNL A   1      34.391  31.184  27.726  1.00  0.00     0.139 C 
BRANCH   7   8
ATOM      8  C   UNL A   1      34.799  29.889  26.995  1.00  0.00     0.308 C 
ATOM      9  O   UNL A   1      35.565  29.164  27.635  1.00  0.00    -0.247 OA
ATOM     10  N   UNL A   1      34.405  29.467  25.713  1.00  0.00    -0.204 N 
ATOM     11  C   UNL A   1      33.252  29.086  25.236  1.00  0.00     0.319 C 
ATOM     12  H   UNL A   1      35.134  29.457  25.053  1.00  0.00     0.316 HD
ATOM     13  S   UNL A   1      31.633  29.399  25.903  1.00  0.00    -0.029 SA
ATOM     14  N   UNL A   1      33.011  28.389  24.038  1.00  0.00    -0.217 N 
ATOM     15  C   UNL A   1      30.715  29.063  24.443  1.00  0.00     0.120 C 
ATOM     16  C   UNL A   1      31.793  28.892  23.380  1.00  0.00     0.212 C 
ATOM     17  C   UNL A   1      29.751  30.054  23.831  1.00  0.00     0.156 C 
ATOM     18  C   UNL A   1      31.011  28.183  22.299  1.00  0.00     0.188 C 
ATOM     19  S   UNL A   1      29.570  29.311  22.192  1.00  0.00     0.155 S 
ATOM     20  O   UNL A   1      28.350  28.554  22.172  1.00  0.00    -0.229 OA
ATOM     21  O   UNL A   1      29.869  30.343  21.208  1.00  0.00    -0.229 OA
BRANCH  14  22
ATOM     22  C   UNL A   1      33.134  26.982  24.072  1.00  0.00     0.128 A 
ATOM     23  C   UNL A   1      33.480  26.306  22.906  1.00  0.00     0.056 A 
ATOM     24  C   UNL A   1      32.961  26.232  25.250  1.00  0.00     0.056 A 
ATOM     25  C   UNL A   1      33.632  24.919  22.920  1.00  0.00     0.051 A 
ATOM     26  C   UNL A   1      33.159  24.852  25.273  1.00  0.00     0.051 A 
ATOM     27  C   UNL A   1      33.468  24.183  24.099  1.00  0.00     0.127 A 
BRANCH  27  28
ATOM     28  O   UNL A   1      33.659  22.833  23.948  1.00  0.00    -0.457 OA
BRANCH  28  29
ATOM     29  C   UNL A   1      34.825  22.232  24.343  1.00  0.00     0.127 A 
ATOM     30  C   UNL A   1      36.000  22.924  24.050  1.00  0.00     0.047 A 
ATOM     31  C   UNL A   1      34.880  20.938  24.871  1.00  0.00     0.047 A 
ATOM     32  C   UNL A   1      37.232  22.327  24.293  1.00  0.00     0.004 A 
ATOM     33  C   UNL A   1      36.112  20.363  25.161  1.00  0.00     0.004 A 
ATOM     34  C   UNL A   1      37.280  21.050  24.849  1.00  0.00     0.000 A 
ENDBRANCH  28  29
ENDBRANCH  27  28
ENDBRANCH  14  22
ENDBRANCH   7   8
ENDBRANCH   6   7
ENDBRANCH   4   6
ENDBRANCH   3   4
ENDBRANCH   2   3
ENDBRANCH   1   2
BRANCH   1  35
ATOM     35  O   UNL A   1      33.002  36.684  30.164  1.00  0.00    -0.374 OA
BRANCH  35  36
ATOM     36  C   UNL A   1      32.129  36.155  31.204  1.00  0.00     0.202 C 
BRANCH  36  37
ATOM     37  C   UNL A   1      32.353  35.196  32.538  1.00  0.00     0.261 C 
BRANCH  37  38
ATOM     38  O   UNL A   1      33.538  34.312  32.785  1.00  0.00    -0.460 OA
BRANCH  38  39
ATOM     39  C   UNL A   1      34.704  34.896  33.304  1.00  0.00     0.338 C 
ATOM     40  O   UNL A   1      34.670  35.847  34.081  1.00  0.00    -0.246 OA
BRANCH  39  41
ATOM     41  C   UNL A   1      36.064  34.226  32.995  1.00  0.00     0.060 A 
ATOM     42  C   UNL A   1      36.445  33.042  33.615  1.00  0.00     0.016 A 
ATOM     43  C   UNL A   1      37.113  34.852  32.318  1.00  0.00     0.016 A 
ATOM     44  C   UNL A   1      37.732  32.454  33.569  1.00  0.00     0.010 A 
ATOM     45  C   UNL A   1      38.418  34.242  32.209  1.00  0.00     0.010 A 
ATOM     46  C   UNL A   1      38.760  33.020  32.837  1.00  0.00    -0.014 A 
BRANCH  46  47
ATOM     47  C   UNL A   1      40.147  32.390  32.816  1.00  0.00     0.031 A 
ATOM     48  C   UNL A   1      40.510  31.423  31.701  1.00  0.00     0.074 A 
ATOM     49  C   UNL A   1      41.126  32.667  33.721  1.00  0.00     0.049 A 
ATOM     50  N   UNL A   1      41.467  30.530  31.637  1.00  0.00    -0.248 NA
ATOM     51  C   UNL A   1      39.680  31.486  30.486  1.00  0.00     0.031 C 
ATOM     52  C   UNL A   1      41.071  33.676  34.784  1.00  0.00     0.029 A 
ATOM     53  N   UNL A   1      42.374  32.083  33.916  1.00  0.00    -0.354 N 
ATOM     54  C   UNL A   1      41.297  29.869  30.422  1.00  0.00     0.074 A 
ATOM     55  C   UNL A   1      40.162  30.479  29.767  1.00  0.00     0.031 C 
ATOM     56  C   UNL A   1      42.189  33.616  35.527  1.00  0.00     0.029 A 
ATOM     57  C   UNL A   1      43.003  32.492  35.081  1.00  0.00     0.049 A 
ATOM     58  H   UNL A   1      42.773  31.440  33.286  1.00  0.00     0.167 HD
ATOM     59  C   UNL A   1      42.031  28.864  29.885  1.00  0.00     0.034 A 
ATOM     60  C   UNL A   1      44.045  31.975  35.776  1.00  0.00     0.034 A 
ATOM     61  C   UNL A   1      43.227  28.327  30.471  1.00  0.00     0.049 A 
ATOM     62  C   UNL A   1      44.740  30.740  35.249  1.00  0.00     0.074 A 
ATOM     63  C   UNL A   1      44.039  27.317  29.984  1.00  0.00     0.029 A 
ATOM     64  N   UNL A   1      43.780  28.753  31.664  1.00  0.00    -0.354 N 
ATOM     65  N   UNL A   1      44.567  30.119  34.108  1.00  0.00    -0.248 NA
ATOM     66  C   UNL A   1      45.774  30.127  36.104  1.00  0.00     0.031 C 
ATOM     67  C   UNL A   1      45.060  27.099  30.911  1.00  0.00     0.029 A 
ATOM     68  C   UNL A   1      44.903  28.000  31.951  1.00  0.00     0.049 A 
ATOM     69  H   UNL A   1      43.428  29.482  32.224  1.00  0.00     0.167 HD
ATOM     70  C   UNL A   1      45.492  29.079  34.093  1.00  0.00     0.074 A 
ATOM     71  C   UNL A   1      46.237  29.156  35.329  1.00  0.00     0.031 C 
ATOM     72  C   UNL A   1      45.695  28.136  33.143  1.00  0.00     0.034 A 
BRANCH  59  73
ATOM     73  C   UNL A   1      41.579  28.243  28.591  1.00  0.00     0.023 A 
ATOM     74  C   UNL A   1      42.009  28.775  27.363  1.00  0.00     0.012 A 
ATOM     75  C   UNL A   1      40.851  27.040  28.597  1.00  0.00     0.148 A 
ATOM     76  C   UNL A   1      41.639  28.186  26.155  1.00  0.00     0.002 A 
ATOM     77  C   UNL A   1      40.557  26.409  27.394  1.00  0.00     0.091 A 
ATOM     78  F   UNL A   1      40.484  26.524  29.778  1.00  0.00    -0.205 F 
ATOM     79  C   UNL A   1      40.916  26.999  26.171  1.00  0.00     0.022 A 
BRANCH  77  80
ATOM     80  S   UNL A   1      39.828  24.770  27.321  1.00  0.00     0.127 S 
ATOM     81  O   UNL A   1      39.449  24.677  25.912  1.00  0.00    -0.237 OA
ATOM     82  O   UNL A   1      40.951  23.915  27.709  1.00  0.00    -0.237 OA
ATOM     83  O   UNL A   1      38.722  24.784  28.269  1.00  0.00    -0.744 OA
ENDBRANCH  77  80
ENDBRANCH  59  73
BRANCH  60  84
ATOM     84  C   UNL A   1      44.451  32.527  37.116  1.00  0.00     0.023 A 
ATOM     85  C   UNL A   1      45.510  33.454  37.219  1.00  0.00     0.012 A 
ATOM     86  C   UNL A   1      43.849  32.064  38.307  1.00  0.00     0.148 A 
ATOM     87  C   UNL A   1      45.984  33.872  38.469  1.00  0.00     0.002 A 
ATOM     88  C   UNL A   1      44.279  32.536  39.543  1.00  0.00     0.091 A 
ATOM     89  F   UNL A   1      42.881  31.141  38.212  1.00  0.00    -0.205 F 
ATOM     90  C   UNL A   1      45.362  33.422  39.629  1.00  0.00     0.022 A 
BRANCH  88  91
ATOM     91  S   UNL A   1      43.455  32.098  41.079  1.00  0.00     0.127 S 
ATOM     92  O   UNL A   1      42.055  32.352  40.753  1.00  0.00    -0.237 OA
ATOM     93  O   UNL A   1      43.806  30.683  41.218  1.00  0.00    -0.237 OA
ATOM     94  O   UNL A   1      44.038  32.961  42.097  1.00  0.00    -0.744 OA
ENDBRANCH  88  91
ENDBRANCH  60  84
BRANCH  72  95
ATOM     95  C   UNL A   1      46.818  27.153  33.336  1.00  0.00     0.023 A 
ATOM     96  C   UNL A   1      48.134  27.497  32.975  1.00  0.00     0.012 A 
ATOM     97  C   UNL A   1      46.575  25.931  33.994  1.00  0.00     0.148 A 
ATOM     98  C   UNL A   1      49.191  26.630  33.253  1.00  0.00     0.002 A 
ATOM     99  C   UNL A   1      47.638  25.100  34.320  1.00  0.00     0.091 A 
ATOM    100  F   UNL A   1      45.310  25.618  34.313  1.00  0.00    -0.205 F 
ATOM    101  C   UNL A   1      48.946  25.441  33.939  1.00  0.00     0.022 A 
BRANCH  99 102
ATOM    102  S   UNL A   1      47.428  23.616  35.309  1.00  0.00     0.127 S 
ATOM    103  O   UNL A   1      46.619  22.780  34.426  1.00  0.00    -0.237 OA
ATOM    104  O   UNL A   1      48.809  23.164  35.483  1.00  0.00    -0.237 OA
ATOM    105  O   UNL A   1      46.773  24.040  36.539  1.00  0.00    -0.744 OA
ENDBRANCH  99 102
ENDBRANCH  72  95
ENDBRANCH  46  47
ENDBRANCH  39  41
ENDBRANCH  38  39
ENDBRANCH  37  38
ENDBRANCH  36  37
ENDBRANCH  35  36
ENDBRANCH   1  35
TORSDOF 22
ENDMDL
MODEL 3
REMARK VINA RESULT:     -10.5      2.838      7.567
REMARK SMILES O=C(CCC(=O)OCCOCCOC(=O)c1ccc(-c2c3nc(c(-c4cccc(S(=O)(=O)[O-])c4F)c4ccc([nH]4)c(-c4cccc(S(=O)(=O)[O-])c4F)c4nc(c(-c5cccc(S(=O)(=O)[O-])c5F)c5ccc2[nH]5)C=C4)C=C3)cc1)/[NH+]=C1\S[C@H]2CS(=O)(=O)C[C@@H]2N1c1ccc(Oc2ccccc2)cc1
REMARK SMILES IDX 9 1 8 2 7 3 5 4 6 5 4 6 3 7 2 8 1 9 79 10 80 11 81 13 89 14
REMARK SMILES IDX 82 15 88 16 83 17 87 18 84 19 85 20 86 21 90 22 91 23 102 24
REMARK SMILES IDX 92 25 101 26 93 27 94 28 95 29 96 30 100 31 97 32 99 33
REMARK SMILES IDX 98 34 10 35 11 36 12 37 13 38 14 39 15 40 16 41 17 42 78 43
REMARK SMILES IDX 18 44 77 45 19 46 20 47 21 48 71 49 22 50 76 51 70 52 72 53
REMARK SMILES IDX 23 54 75 55 69 56 68 57 24 59 56 60 36 61 55 62 37 63 40 64
REMARK SMILES IDX 54 65 73 66 38 67 39 68 53 70 74 71 41 72 25 73 26 74 34 75
REMARK SMILES IDX 27 76 29 77 35 78 28 79 30 80 31 81 32 82 33 83 57 84 58 85
REMARK SMILES IDX 66 86 59 87 61 88 67 89 60 90 62 91 63 92 64 93 65 94 42 95
REMARK SMILES IDX 43 96 51 97 44 98 46 99 52 100 45 101 47 102 48 103 49 104
REMARK SMILES IDX 50 105
REMARK H PARENT 79 12 72 58 40 69
REMARK Flexibility Score: inf
ROOT
ATOM      1  C   UNL A   1      33.303  36.053  29.388  1.00  0.00     0.202 C 
ENDROOT
BRANCH   1   2
ATOM      2  C   UNL A   1      33.695  34.554  29.258  1.00  0.00     0.261 C 
BRANCH   2   3
ATOM      3  O   UNL A   1      35.117  34.411  29.290  1.00  0.00    -0.463 OA
BRANCH   3   4
ATOM      4  C   UNL A   1      35.468  33.122  29.471  1.00  0.00     0.306 C 
ATOM      5  O   UNL A   1      35.451  32.556  30.557  1.00  0.00    -0.252 OA
BRANCH   4   6
ATOM      6  C   UNL A   1      35.794  32.467  28.160  1.00  0.00     0.135 C 
BRANCH   6   7
ATOM      7  C   UNL A   1      34.758  31.482  27.599  1.00  0.00     0.139 C 
BRANCH   7   8
ATOM      8  C   UNL A   1      35.016  30.033  27.140  1.00  0.00     0.308 C 
ATOM      9  O   UNL A   1      35.706  29.368  27.918  1.00  0.00    -0.247 OA
ATOM     10  N   UNL A   1      34.566  29.413  25.961  1.00  0.00    -0.204 N 
ATOM     11  C   UNL A   1      33.374  29.073  25.555  1.00  0.00     0.319 C 
ATOM     12  H   UNL A   1      35.283  29.195  25.323  1.00  0.00     0.316 HD
ATOM     13  S   UNL A   1      31.805  29.683  26.130  1.00  0.00    -0.029 SA
ATOM     14  N   UNL A   1      33.047  28.185  24.513  1.00  0.00    -0.217 N 
ATOM     15  C   UNL A   1      30.841  29.169  24.754  1.00  0.00     0.120 C 
ATOM     16  C   UNL A   1      31.883  28.679  23.756  1.00  0.00     0.212 C 
ATOM     17  C   UNL A   1      29.983  30.119  23.949  1.00  0.00     0.156 C 
ATOM     18  C   UNL A   1      31.018  27.861  22.825  1.00  0.00     0.188 C 
ATOM     19  S   UNL A   1      29.706  29.095  22.485  1.00  0.00     0.155 S 
ATOM     20  O   UNL A   1      28.411  28.484  22.600  1.00  0.00    -0.229 OA
ATOM     21  O   UNL A   1      30.104  29.876  21.322  1.00  0.00    -0.229 OA
BRANCH  14  22
ATOM     22  C   UNL A   1      33.017  26.807  24.822  1.00  0.00     0.128 A 
ATOM     23  C   UNL A   1      32.433  26.394  26.015  1.00  0.00     0.056 A 
ATOM     24  C   UNL A   1      33.519  25.822  23.951  1.00  0.00     0.056 A 
ATOM     25  C   UNL A   1      32.370  25.037  26.331  1.00  0.00     0.051 A 
ATOM     26  C   UNL A   1      33.413  24.464  24.245  1.00  0.00     0.051 A 
ATOM     27  C   UNL A   1      32.862  24.064  25.454  1.00  0.00     0.127 A 
BRANCH  27  28
ATOM     28  O   UNL A   1      32.718  22.777  25.905  1.00  0.00    -0.457 OA
BRANCH  28  29
ATOM     29  C   UNL A   1      33.673  21.826  25.656  1.00  0.00     0.127 A 
ATOM     30  C   UNL A   1      34.973  22.146  26.048  1.00  0.00     0.047 A 
ATOM     31  C   UNL A   1      33.423  20.664  24.919  1.00  0.00     0.047 A 
ATOM     32  C   UNL A   1      36.024  21.301  25.712  1.00  0.00     0.004 A 
ATOM     33  C   UNL A   1      34.468  19.794  24.628  1.00  0.00     0.004 A 
ATOM     34  C   UNL A   1      35.764  20.127  25.005  1.00  0.00     0.000 A 
ENDBRANCH  28  29
ENDBRANCH  27  28
ENDBRANCH  14  22
ENDBRANCH   7   8
ENDBRANCH   6   7
ENDBRANCH   4   6
ENDBRANCH   3   4
ENDBRANCH   2   3
ENDBRANCH   1   2
BRANCH   1  35
ATOM     35  O   UNL A   1      33.260  36.660  30.674  1.00  0.00    -0.374 OA
BRANCH  35  36
ATOM     36  C   UNL A   1      32.766  35.991  31.872  1.00  0.00     0.202 C 
BRANCH  36  37
ATOM     37  C   UNL A   1      33.452  35.040  33.043  1.00  0.00     0.261 C 
BRANCH  37  38
ATOM     38  O   UNL A   1      34.609  34.107  32.840  1.00  0.00    -0.460 OA
BRANCH  38  39
ATOM     39  C   UNL A   1      35.556  33.991  33.868  1.00  0.00     0.338 C 
ATOM     40  O   UNL A   1      35.232  33.831  35.042  1.00  0.00    -0.246 OA
BRANCH  39  41
ATOM     41  C   UNL A   1      37.054  33.922  33.486  1.00  0.00     0.060 A 
ATOM     42  C   UNL A   1      37.542  34.563  32.353  1.00  0.00     0.016 A 
ATOM     43  C   UNL A   1      37.967  33.026  34.045  1.00  0.00     0.016 A 
ATOM     44  C   UNL A   1      38.834  34.402  31.797  1.00  0.00     0.010 A 
ATOM     45  C   UNL A   1      39.310  32.888  33.529  1.00  0.00     0.010 A 
ATOM     46  C   UNL A   1      39.777  33.579  32.385  1.00  0.00    -0.014 A 
BRANCH  46  47
ATOM     47  C   UNL A   1      41.156  33.395  31.762  1.00  0.00     0.031 A 
ATOM     48  C   UNL A   1      42.231  34.441  32.009  1.00  0.00     0.074 A 
ATOM     49  C   UNL A   1      41.520  32.316  31.014  1.00  0.00     0.049 A 
ATOM     50  N   UNL A   1      43.338  34.683  31.352  1.00  0.00    -0.248 NA
ATOM     51  C   UNL A   1      42.027  35.325  33.169  1.00  0.00     0.031 C 
ATOM     52  C   UNL A   1      40.717  31.113  30.772  1.00  0.00     0.029 A 
ATOM     53  N   UNL A   1      42.672  32.071  30.275  1.00  0.00    -0.354 N 
ATOM     54  C   UNL A   1      43.912  35.798  31.961  1.00  0.00     0.074 A 
ATOM     55  C   UNL A   1      43.045  36.170  33.057  1.00  0.00     0.031 C 
ATOM     56  C   UNL A   1      41.368  30.294  29.929  1.00  0.00     0.029 A 
ATOM     57  C   UNL A   1      42.586  30.948  29.468  1.00  0.00     0.049 A 
ATOM     58  H   UNL A   1      43.473  32.641  30.321  1.00  0.00     0.167 HD
ATOM     59  C   UNL A   1      45.066  36.440  31.657  1.00  0.00     0.034 A 
ATOM     60  C   UNL A   1      43.329  30.533  28.414  1.00  0.00     0.034 A 
ATOM     61  C   UNL A   1      45.992  36.014  30.647  1.00  0.00     0.049 A 
ATOM     62  C   UNL A   1      44.514  31.364  27.976  1.00  0.00     0.074 A 
ATOM     63  C   UNL A   1      47.193  36.600  30.284  1.00  0.00     0.029 A 
ATOM     64  N   UNL A   1      45.825  34.902  29.843  1.00  0.00    -0.354 N 
ATOM     65  N   UNL A   1      45.041  32.417  28.550  1.00  0.00    -0.248 NA
ATOM     66  C   UNL A   1      45.209  30.956  26.740  1.00  0.00     0.031 C 
ATOM     67  C   UNL A   1      47.729  35.867  29.224  1.00  0.00     0.029 A 
ATOM     68  C   UNL A   1      46.882  34.805  28.957  1.00  0.00     0.049 A 
ATOM     69  H   UNL A   1      45.068  34.274  29.893  1.00  0.00     0.167 HD
ATOM     70  C   UNL A   1      46.143  32.765  27.776  1.00  0.00     0.074 A 
ATOM     71  C   UNL A   1      46.224  31.807  26.697  1.00  0.00     0.031 C 
ATOM     72  C   UNL A   1      47.004  33.798  27.938  1.00  0.00     0.034 A 
BRANCH  59  73
ATOM     73  C   UNL A   1      45.421  37.695  32.408  1.00  0.00     0.023 A 
ATOM     74  C   UNL A   1      46.345  37.649  33.467  1.00  0.00     0.012 A 
ATOM     75  C   UNL A   1      44.952  38.944  31.964  1.00  0.00     0.148 A 
ATOM     76  C   UNL A   1      46.721  38.808  34.143  1.00  0.00     0.002 A 
ATOM     77  C   UNL A   1      45.396  40.106  32.585  1.00  0.00     0.091 A 
ATOM     78  F   UNL A   1      44.104  38.974  30.926  1.00  0.00    -0.205 F 
ATOM     79  C   UNL A   1      46.249  40.039  33.699  1.00  0.00     0.022 A 
BRANCH  77  80
ATOM     80  S   UNL A   1      45.023  41.741  31.947  1.00  0.00     0.127 S 
ATOM     81  O   UNL A   1      43.573  41.804  32.124  1.00  0.00    -0.237 OA
ATOM     82  O   UNL A   1      45.786  42.605  32.849  1.00  0.00    -0.237 OA
ATOM     83  O   UNL A   1      45.488  41.746  30.567  1.00  0.00    -0.744 OA
ENDBRANCH  77  80
ENDBRANCH  59  73
BRANCH  60  84
ATOM     84  C   UNL A   1      42.936  29.332  27.595  1.00  0.00     0.023 A 
ATOM     85  C   UNL A   1      42.010  29.457  26.538  1.00  0.00     0.012 A 
ATOM     86  C   UNL A   1      43.409  28.042  27.922  1.00  0.00     0.148 A 
ATOM     87  C   UNL A   1      41.535  28.329  25.857  1.00  0.00     0.002 A 
ATOM     88  C   UNL A   1      42.986  26.933  27.196  1.00  0.00     0.091 A 
ATOM     89  F   UNL A   1      44.245  27.917  28.962  1.00  0.00    -0.205 F 
ATOM     90  C   UNL A   1      42.032  27.069  26.178  1.00  0.00     0.022 A 
BRANCH  88  91
ATOM     91  S   UNL A   1      43.665  25.291  27.468  1.00  0.00     0.127 S 
ATOM     92  O   UNL A   1      43.502  25.133  28.910  1.00  0.00    -0.237 OA
ATOM     93  O   UNL A   1      42.778  24.458  26.654  1.00  0.00    -0.237 OA
ATOM     94  O   UNL A   1      45.039  25.350  26.986  1.00  0.00    -0.744 OA
ENDBRANCH  88  91
ENDBRANCH  60  84
BRANCH  72  95
ATOM     95  C   UNL A   1      48.169  33.917  26.994  1.00  0.00     0.023 A 
ATOM     96  C   UNL A   1      48.104  34.785  25.888  1.00  0.00     0.012 A 
ATOM     97  C   UNL A   1      49.377  33.252  27.285  1.00  0.00     0.148 A 
ATOM     98  C   UNL A   1      49.221  34.978  25.075  1.00  0.00     0.002 A 
ATOM     99  C   UNL A   1      50.501  33.494  26.507  1.00  0.00     0.091 A 
ATOM    100  F   UNL A   1      49.410  32.417  28.334  1.00  0.00    -0.205 F 
ATOM    101  C   UNL A   1      50.423  34.346  25.394  1.00  0.00     0.022 A 
BRANCH  99 102
ATOM    102  S   UNL A   1      52.116  32.822  26.918  1.00  0.00     0.127 S 
ATOM    103  O   UNL A   1      52.823  32.944  25.646  1.00  0.00    -0.237 OA
ATOM    104  O   UNL A   1      52.573  33.740  27.963  1.00  0.00    -0.237 OA
ATOM    105  O   UNL A   1      51.882  31.459  27.373  1.00  0.00    -0.744 OA
ENDBRANCH  99 102
ENDBRANCH  72  95
ENDBRANCH  46  47
ENDBRANCH  39  41
ENDBRANCH  38  39
ENDBRANCH  37  38
ENDBRANCH  36  37
ENDBRANCH  35  36
ENDBRANCH   1  35
TORSDOF 22
ENDMDL
