MODEL 1
REMARK VINA RESULT:     -10.8      0.000      0.000
REMARK SMILES O=C(OCCOCCOC(=O)c1ccc(C[NH2+]C[C@H]2C[C@H](O)C2)nc1)c1ccc(-c2c3nc(c(-c4cccc(S(=O)(=O)[O-])c4F)c4ccc([nH]4)c(-c4cccc(S(=O)(=O)[O-])c4F)c4nc(c(-c5cccc(S(=O)(=O)[O-])c5F)c5ccc2[nH]5)C=C4)C=C3)cc1
REMARK SMILES IDX 7 1 6 2 5 3 4 4 3 5 2 6 1 7 26 8 27 9 88 10 28 11 87 12
REMARK SMILES IDX 29 13 30 14 31 15 81 16 32 17 86 18 80 19 82 20 33 21 85 22
REMARK SMILES IDX 79 23 78 24 34 26 66 27 46 28 65 29 47 30 50 31 64 32 83 33
REMARK SMILES IDX 48 34 49 35 63 37 84 38 51 39 35 40 36 41 44 42 37 43 39 44
REMARK SMILES IDX 45 45 38 46 40 47 41 48 42 49 43 50 67 51 68 52 76 53 69 54
REMARK SMILES IDX 71 55 77 56 70 57 72 58 73 59 74 60 75 61 52 62 53 63 61 64
REMARK SMILES IDX 54 65 56 66 62 67 55 68 57 69 58 70 59 71 60 72 8 73 9 74
REMARK SMILES IDX 10 75 11 76 12 77 13 78 25 79 14 80 24 81 15 82 16 83 17 84
REMARK SMILES IDX 18 87 19 88 23 89 20 90 21 91 22 92
REMARK H PARENT 82 25 50 36 17 85 17 86 22 93
REMARK Flexibility Score: inf
ROOT
ATOM      1  C   UNL A   1      33.709  21.819  25.641  1.00  0.00     0.202 C 
ENDROOT
BRANCH   1   2
ATOM      2  O   UNL A   1      34.266  20.940  24.651  1.00  0.00    -0.374 OA
BRANCH   2   3
ATOM      3  C   UNL A   1      35.505  20.314  24.994  1.00  0.00     0.202 C 
BRANCH   3   4
ATOM      4  C   UNL A   1      36.759  21.148  24.713  1.00  0.00     0.261 C 
BRANCH   4   5
ATOM      5  O   UNL A   1      37.469  21.402  25.936  1.00  0.00    -0.460 OA
BRANCH   5   6
ATOM      6  C   UNL A   1      38.805  21.498  26.124  1.00  0.00     0.338 C 
ATOM      7  O   UNL A   1      39.494  20.497  25.928  1.00  0.00    -0.246 OA
BRANCH   6   8
ATOM      8  C   UNL A   1      39.490  22.755  26.552  1.00  0.00     0.060 A 
ATOM      9  C   UNL A   1      39.122  24.044  26.154  1.00  0.00     0.016 A 
ATOM     10  C   UNL A   1      40.513  22.624  27.502  1.00  0.00     0.016 A 
ATOM     11  C   UNL A   1      39.779  25.169  26.625  1.00  0.00     0.010 A 
ATOM     12  C   UNL A   1      41.160  23.751  28.010  1.00  0.00     0.010 A 
ATOM     13  C   UNL A   1      40.800  25.024  27.553  1.00  0.00    -0.014 A 
BRANCH  13  14
ATOM     14  C   UNL A   1      41.557  26.216  27.955  1.00  0.00     0.031 A 
ATOM     15  C   UNL A   1      40.848  27.254  28.758  1.00  0.00     0.074 A 
ATOM     16  C   UNL A   1      42.855  26.320  27.626  1.00  0.00     0.049 A 
ATOM     17  N   UNL A   1      41.249  28.442  29.107  1.00  0.00    -0.248 NA
ATOM     18  C   UNL A   1      39.499  26.901  29.234  1.00  0.00     0.031 C 
ATOM     19  C   UNL A   1      43.629  25.295  26.924  1.00  0.00     0.029 A 
ATOM     20  N   UNL A   1      43.742  27.343  27.819  1.00  0.00    -0.354 N 
ATOM     21  C   UNL A   1      40.177  29.010  29.781  1.00  0.00     0.074 A 
ATOM     22  C   UNL A   1      39.120  28.025  29.822  1.00  0.00     0.031 C 
ATOM     23  C   UNL A   1      44.870  25.758  26.709  1.00  0.00     0.029 A 
ATOM     24  C   UNL A   1      44.950  27.130  27.199  1.00  0.00     0.049 A 
ATOM     25  H   UNL A   1      43.537  28.149  28.346  1.00  0.00     0.167 HD
ATOM     26  C   UNL A   1      40.089  30.254  30.300  1.00  0.00     0.034 A 
ATOM     27  C   UNL A   1      45.976  27.978  27.001  1.00  0.00     0.034 A 
ATOM     28  C   UNL A   1      41.167  31.200  30.233  1.00  0.00     0.049 A 
ATOM     29  C   UNL A   1      45.848  29.371  27.555  1.00  0.00     0.074 A 
ATOM     30  C   UNL A   1      41.211  32.497  30.702  1.00  0.00     0.029 A 
ATOM     31  N   UNL A   1      42.396  30.941  29.636  1.00  0.00    -0.354 N 
ATOM     32  N   UNL A   1      44.844  29.902  28.214  1.00  0.00    -0.248 NA
ATOM     33  C   UNL A   1      46.984  30.277  27.358  1.00  0.00     0.031 C 
ATOM     34  C   UNL A   1      42.457  33.033  30.359  1.00  0.00     0.029 A 
ATOM     35  C   UNL A   1      43.205  32.057  29.714  1.00  0.00     0.049 A 
ATOM     36  H   UNL A   1      42.652  30.086  29.220  1.00  0.00     0.167 HD
ATOM     37  C   UNL A   1      45.236  31.191  28.542  1.00  0.00     0.074 A 
ATOM     38  C   UNL A   1      46.576  31.360  28.010  1.00  0.00     0.031 C 
ATOM     39  C   UNL A   1      44.555  32.153  29.213  1.00  0.00     0.034 A 
BRANCH  26  40
ATOM     40  C   UNL A   1      38.773  30.648  30.911  1.00  0.00     0.023 A 
ATOM     41  C   UNL A   1      38.471  30.297  32.244  1.00  0.00     0.012 A 
ATOM     42  C   UNL A   1      37.805  31.322  30.140  1.00  0.00     0.148 A 
ATOM     43  C   UNL A   1      37.208  30.559  32.778  1.00  0.00     0.002 A 
ATOM     44  C   UNL A   1      36.567  31.620  30.694  1.00  0.00     0.091 A 
ATOM     45  F   UNL A   1      38.096  31.618  28.865  1.00  0.00    -0.205 F 
ATOM     46  C   UNL A   1      36.260  31.225  32.006  1.00  0.00     0.022 A 
BRANCH  44  47
ATOM     47  S   UNL A   1      35.305  32.527  29.795  1.00  0.00     0.127 S 
ATOM     48  O   UNL A   1      34.273  32.691  30.818  1.00  0.00    -0.237 OA
ATOM     49  O   UNL A   1      36.009  33.760  29.437  1.00  0.00    -0.237 OA
ATOM     50  O   UNL A   1      34.941  31.688  28.662  1.00  0.00    -0.744 OA
ENDBRANCH  44  47
ENDBRANCH  26  40
BRANCH  27  51
ATOM     51  C   UNL A   1      47.173  27.522  26.242  1.00  0.00     0.023 A 
ATOM     52  C   UNL A   1      48.103  26.660  26.851  1.00  0.00     0.012 A 
ATOM     53  C   UNL A   1      47.346  27.869  24.885  1.00  0.00     0.148 A 
ATOM     54  C   UNL A   1      49.188  26.160  26.127  1.00  0.00     0.002 A 
ATOM     55  C   UNL A   1      48.396  27.324  24.155  1.00  0.00     0.091 A 
ATOM     56  F   UNL A   1      46.456  28.699  24.325  1.00  0.00    -0.205 F 
ATOM     57  C   UNL A   1      49.327  26.479  24.778  1.00  0.00     0.022 A 
BRANCH  55  58
ATOM     58  S   UNL A   1      48.576  27.571  22.384  1.00  0.00     0.127 S 
ATOM     59  O   UNL A   1      49.816  28.339  22.314  1.00  0.00    -0.237 OA
ATOM     60  O   UNL A   1      48.676  26.195  21.897  1.00  0.00    -0.237 OA
ATOM     61  O   UNL A   1      47.375  28.276  21.957  1.00  0.00    -0.744 OA
ENDBRANCH  55  58
ENDBRANCH  27  51
BRANCH  39  62
ATOM     62  C   UNL A   1      45.259  33.456  29.464  1.00  0.00     0.023 A 
ATOM     63  C   UNL A   1      46.232  33.548  30.476  1.00  0.00     0.012 A 
ATOM     64  C   UNL A   1      45.053  34.540  28.588  1.00  0.00     0.148 A 
ATOM     65  C   UNL A   1      46.991  34.709  30.616  1.00  0.00     0.002 A 
ATOM     66  C   UNL A   1      45.848  35.671  28.700  1.00  0.00     0.091 A 
ATOM     67  F   UNL A   1      44.105  34.428  27.646  1.00  0.00    -0.205 F 
ATOM     68  C   UNL A   1      46.811  35.761  29.719  1.00  0.00     0.022 A 
BRANCH  66  69
ATOM     69  S   UNL A   1      45.768  37.020  27.519  1.00  0.00     0.127 S 
ATOM     70  O   UNL A   1      46.876  37.866  27.960  1.00  0.00    -0.237 OA
ATOM     71  O   UNL A   1      45.993  36.330  26.248  1.00  0.00    -0.237 OA
ATOM     72  O   UNL A   1      44.443  37.608  27.664  1.00  0.00    -0.744 OA
ENDBRANCH  66  69
ENDBRANCH  39  62
ENDBRANCH  13  14
ENDBRANCH   6   8
ENDBRANCH   5   6
ENDBRANCH   4   5
ENDBRANCH   3   4
ENDBRANCH   2   3
ENDBRANCH   1   2
BRANCH   1  73
ATOM     73  C   UNL A   1      32.799  22.846  24.963  1.00  0.00     0.261 C 
BRANCH  73  74
ATOM     74  O   UNL A   1      32.814  24.040  25.761  1.00  0.00    -0.460 OA
BRANCH  74  75
ATOM     75  C   UNL A   1      33.474  25.074  25.176  1.00  0.00     0.339 C 
ATOM     76  O   UNL A   1      34.668  25.195  25.005  1.00  0.00    -0.246 OA
BRANCH  75  77
ATOM     77  C   UNL A   1      32.472  25.953  24.558  1.00  0.00     0.078 A 
ATOM     78  C   UNL A   1      31.370  26.471  25.236  1.00  0.00     0.019 A 
ATOM     79  C   UNL A   1      32.607  26.221  23.207  1.00  0.00     0.127 A 
ATOM     80  C   UNL A   1      30.462  27.269  24.541  1.00  0.00     0.031 A 
ATOM     81  N   UNL A   1      31.729  26.974  22.509  1.00  0.00    -0.254 NA
ATOM     82  C   UNL A   1      30.679  27.511  23.185  1.00  0.00     0.094 A 
BRANCH  82  83
ATOM     83  C   UNL A   1      29.834  28.522  22.422  1.00  0.00     0.317 C 
BRANCH  83  84
ATOM     84  N   UNL A   1      28.646  28.860  23.208  1.00  0.00    -0.341 N 
ATOM     85  H   UNL A   1      28.964  29.330  24.056  1.00  0.00     0.346 HD
ATOM     86  H   UNL A   1      28.169  27.971  23.355  1.00  0.00     0.346 HD
BRANCH  84  87
ATOM     87  C   UNL A   1      27.658  29.712  22.584  1.00  0.00     0.264 C 
BRANCH  87  88
ATOM     88  C   UNL A   1      27.823  31.202  22.870  1.00  0.00     0.049 C 
ATOM     89  C   UNL A   1      28.478  32.022  21.723  1.00  0.00     0.041 C 
ATOM     90  C   UNL A   1      28.941  31.777  23.789  1.00  0.00     0.041 C 
ATOM     91  C   UNL A   1      29.068  32.957  22.800  1.00  0.00     0.115 C 
BRANCH  91  92
ATOM     92  O   UNL A   1      28.307  34.143  23.106  1.00  0.00    -0.393 OA
ATOM     93  H   UNL A   1      27.751  33.978  23.883  1.00  0.00     0.210 HD
ENDBRANCH  91  92
ENDBRANCH  87  88
ENDBRANCH  84  87
ENDBRANCH  83  84
ENDBRANCH  82  83
ENDBRANCH  75  77
ENDBRANCH  74  75
ENDBRANCH  73  74
ENDBRANCH   1  73
TORSDOF 22
ENDMDL
MODEL 2
REMARK VINA RESULT:     -10.5      2.046      2.454
REMARK SMILES O=C(OCCOCCOC(=O)c1ccc(C[NH2+]C[C@H]2C[C@H](O)C2)nc1)c1ccc(-c2c3nc(c(-c4cccc(S(=O)(=O)[O-])c4F)c4ccc([nH]4)c(-c4cccc(S(=O)(=O)[O-])c4F)c4nc(c(-c5cccc(S(=O)(=O)[O-])c5F)c5ccc2[nH]5)C=C4)C=C3)cc1
REMARK SMILES IDX 7 1 6 2 5 3 4 4 3 5 2 6 1 7 26 8 27 9 88 10 28 11 87 12
REMARK SMILES IDX 29 13 30 14 31 15 81 16 32 17 86 18 80 19 82 20 33 21 85 22
REMARK SMILES IDX 79 23 78 24 34 26 66 27 46 28 65 29 47 30 50 31 64 32 83 33
REMARK SMILES IDX 48 34 49 35 63 37 84 38 51 39 35 40 36 41 44 42 37 43 39 44
REMARK SMILES IDX 45 45 38 46 40 47 41 48 42 49 43 50 67 51 68 52 76 53 69 54
REMARK SMILES IDX 71 55 77 56 70 57 72 58 73 59 74 60 75 61 52 62 53 63 61 64
REMARK SMILES IDX 54 65 56 66 62 67 55 68 57 69 58 70 59 71 60 72 8 73 9 74
REMARK SMILES IDX 10 75 11 76 12 77 13 78 25 79 14 80 24 81 15 82 16 83 17 84
REMARK SMILES IDX 18 87 19 88 23 89 20 90 21 91 22 92
REMARK H PARENT 82 25 50 36 17 85 17 86 22 93
REMARK Flexibility Score: inf
ROOT
ATOM      1  C   UNL A   1      34.103  21.994  26.748  1.00  0.00     0.202 C 
ENDROOT
BRANCH   1   2
ATOM      2  O   UNL A   1      33.819  21.407  25.469  1.00  0.00    -0.374 OA
BRANCH   2   3
ATOM      3  C   UNL A   1      34.950  21.135  24.638  1.00  0.00     0.202 C 
BRANCH   3   4
ATOM      4  C   UNL A   1      36.197  20.635  25.373  1.00  0.00     0.261 C 
BRANCH   4   5
ATOM      5  O   UNL A   1      37.290  21.544  25.168  1.00  0.00    -0.460 OA
BRANCH   5   6
ATOM      6  C   UNL A   1      38.511  21.532  25.750  1.00  0.00     0.338 C 
ATOM      7  O   UNL A   1      39.062  20.446  25.925  1.00  0.00    -0.246 OA
BRANCH   6   8
ATOM      8  C   UNL A   1      39.229  22.767  26.187  1.00  0.00     0.060 A 
ATOM      9  C   UNL A   1      38.875  24.071  25.827  1.00  0.00     0.016 A 
ATOM     10  C   UNL A   1      40.275  22.597  27.106  1.00  0.00     0.016 A 
ATOM     11  C   UNL A   1      39.564  25.173  26.305  1.00  0.00     0.010 A 
ATOM     12  C   UNL A   1      40.955  23.702  27.620  1.00  0.00     0.010 A 
ATOM     13  C   UNL A   1      40.606  24.990  27.202  1.00  0.00    -0.014 A 
BRANCH  13  14
ATOM     14  C   UNL A   1      41.395  26.159  27.609  1.00  0.00     0.031 A 
ATOM     15  C   UNL A   1      40.730  27.186  28.463  1.00  0.00     0.074 A 
ATOM     16  C   UNL A   1      42.682  26.254  27.239  1.00  0.00     0.049 A 
ATOM     17  N   UNL A   1      41.160  28.358  28.830  1.00  0.00    -0.248 NA
ATOM     18  C   UNL A   1      39.392  26.840  28.976  1.00  0.00     0.031 C 
ATOM     19  C   UNL A   1      43.416  25.237  26.484  1.00  0.00     0.029 A 
ATOM     20  N   UNL A   1      43.591  27.258  27.429  1.00  0.00    -0.354 N 
ATOM     21  C   UNL A   1      40.121  28.923  29.555  1.00  0.00     0.074 A 
ATOM     22  C   UNL A   1      39.051  27.953  29.606  1.00  0.00     0.031 C 
ATOM     23  C   UNL A   1      44.657  25.687  26.239  1.00  0.00     0.029 A 
ATOM     24  C   UNL A   1      44.774  27.044  26.762  1.00  0.00     0.049 A 
ATOM     25  H   UNL A   1      43.416  28.052  27.983  1.00  0.00     0.167 HD
ATOM     26  C   UNL A   1      40.070  30.154  30.110  1.00  0.00     0.034 A 
ATOM     27  C   UNL A   1      45.806  27.882  26.553  1.00  0.00     0.034 A 
ATOM     28  C   UNL A   1      41.159  31.085  30.031  1.00  0.00     0.049 A 
ATOM     29  C   UNL A   1      45.718  29.261  27.147  1.00  0.00     0.074 A 
ATOM     30  C   UNL A   1      41.240  32.369  30.533  1.00  0.00     0.029 A 
ATOM     31  N   UNL A   1      42.363  30.824  29.386  1.00  0.00    -0.354 N 
ATOM     32  N   UNL A   1      44.746  29.788  27.854  1.00  0.00    -0.248 NA
ATOM     33  C   UNL A   1      46.862  30.155  26.936  1.00  0.00     0.031 C 
ATOM     34  C   UNL A   1      42.481  32.895  30.162  1.00  0.00     0.029 A 
ATOM     35  C   UNL A   1      43.192  31.926  29.466  1.00  0.00     0.049 A 
ATOM     36  H   UNL A   1      42.592  29.978  28.939  1.00  0.00     0.167 HD
ATOM     37  C   UNL A   1      45.169  31.063  28.203  1.00  0.00     0.074 A 
ATOM     38  C   UNL A   1      46.493  31.226  27.630  1.00  0.00     0.031 C 
ATOM     39  C   UNL A   1      44.526  32.015  28.922  1.00  0.00     0.034 A 
BRANCH  26  40
ATOM     40  C   UNL A   1      38.781  30.550  30.776  1.00  0.00     0.023 A 
ATOM     41  C   UNL A   1      38.496  30.123  32.089  1.00  0.00     0.012 A 
ATOM     42  C   UNL A   1      37.822  31.304  30.072  1.00  0.00     0.148 A 
ATOM     43  C   UNL A   1      37.255  30.392  32.669  1.00  0.00     0.002 A 
ATOM     44  C   UNL A   1      36.606  31.607  30.674  1.00  0.00     0.091 A 
ATOM     45  F   UNL A   1      38.095  31.673  28.812  1.00  0.00    -0.205 F 
ATOM     46  C   UNL A   1      36.314  31.137  31.964  1.00  0.00     0.022 A 
BRANCH  44  47
ATOM     47  S   UNL A   1      35.358  32.611  29.864  1.00  0.00     0.127 S 
ATOM     48  O   UNL A   1      34.314  32.667  30.887  1.00  0.00    -0.237 OA
ATOM     49  O   UNL A   1      36.069  33.873  29.651  1.00  0.00    -0.237 OA
ATOM     50  O   UNL A   1      35.005  31.903  28.643  1.00  0.00    -0.744 OA
ENDBRANCH  44  47
ENDBRANCH  26  40
BRANCH  27  51
ATOM     51  C   UNL A   1      46.970  27.428  25.741  1.00  0.00     0.023 A 
ATOM     52  C   UNL A   1      46.982  27.646  24.351  1.00  0.00     0.012 A 
ATOM     53  C   UNL A   1      48.106  26.861  26.357  1.00  0.00     0.148 A 
ATOM     54  C   UNL A   1      48.100  27.298  23.588  1.00  0.00     0.002 A 
ATOM     55  C   UNL A   1      49.235  26.569  25.600  1.00  0.00     0.091 A 
ATOM     56  F   UNL A   1      48.071  26.652  27.680  1.00  0.00    -0.205 F 
ATOM     57  C   UNL A   1      49.229  26.774  24.213  1.00  0.00     0.022 A 
BRANCH  55  58
ATOM     58  S   UNL A   1      50.779  26.019  26.338  1.00  0.00     0.127 S 
ATOM     59  O   UNL A   1      50.400  24.724  26.895  1.00  0.00    -0.237 OA
ATOM     60  O   UNL A   1      51.661  25.954  25.172  1.00  0.00    -0.237 OA
ATOM     61  O   UNL A   1      51.141  27.041  27.311  1.00  0.00    -0.744 OA
ENDBRANCH  55  58
ENDBRANCH  27  51
BRANCH  39  62
ATOM     62  C   UNL A   1      45.258  33.301  29.183  1.00  0.00     0.023 A 
ATOM     63  C   UNL A   1      46.134  33.403  30.280  1.00  0.00     0.012 A 
ATOM     64  C   UNL A   1      45.184  34.349  28.245  1.00  0.00     0.148 A 
ATOM     65  C   UNL A   1      46.925  34.539  30.443  1.00  0.00     0.002 A 
ATOM     66  C   UNL A   1      46.013  35.453  28.385  1.00  0.00     0.091 A 
ATOM     67  F   UNL A   1      44.326  34.230  27.221  1.00  0.00    -0.205 F 
ATOM     68  C   UNL A   1      46.877  35.554  29.488  1.00  0.00     0.022 A 
BRANCH  66  69
ATOM     69  S   UNL A   1      46.104  36.747  27.144  1.00  0.00     0.127 S 
ATOM     70  O   UNL A   1      46.495  35.990  25.956  1.00  0.00    -0.237 OA
ATOM     71  O   UNL A   1      44.730  37.250  27.124  1.00  0.00    -0.237 OA
ATOM     72  O   UNL A   1      47.092  37.701  27.627  1.00  0.00    -0.744 OA
ENDBRANCH  66  69
ENDBRANCH  39  62
ENDBRANCH  13  14
ENDBRANCH   6   8
ENDBRANCH   5   6
ENDBRANCH   4   5
ENDBRANCH   3   4
ENDBRANCH   2   3
ENDBRANCH   1   2
BRANCH   1  73
ATOM     73  C   UNL A   1      32.826  22.608  27.328  1.00  0.00     0.261 C 
BRANCH  73  74
ATOM     74  O   UNL A   1      31.817  22.567  26.307  1.00  0.00    -0.460 OA
BRANCH  74  75
ATOM     75  C   UNL A   1      30.734  23.338  26.587  1.00  0.00     0.339 C 
ATOM     76  O   UNL A   1      30.044  23.323  27.584  1.00  0.00    -0.246 OA
BRANCH  75  77
ATOM     77  C   UNL A   1      30.652  24.386  25.560  1.00  0.00     0.078 A 
ATOM     78  C   UNL A   1      29.878  25.538  25.687  1.00  0.00     0.019 A 
ATOM     79  C   UNL A   1      31.337  24.173  24.377  1.00  0.00     0.127 A 
ATOM     80  C   UNL A   1      29.848  26.452  24.635  1.00  0.00     0.031 A 
ATOM     81  N   UNL A   1      31.305  25.035  23.336  1.00  0.00    -0.254 NA
ATOM     82  C   UNL A   1      30.582  26.177  23.482  1.00  0.00     0.094 A 
BRANCH  82  83
ATOM     83  C   UNL A   1      30.741  27.218  22.383  1.00  0.00     0.317 C 
BRANCH  83  84
ATOM     84  N   UNL A   1      31.071  28.513  22.979  1.00  0.00    -0.341 N 
ATOM     85  H   UNL A   1      30.467  28.639  23.792  1.00  0.00     0.346 HD
ATOM     86  H   UNL A   1      30.934  29.189  22.228  1.00  0.00     0.346 HD
BRANCH  84  87
ATOM     87  C   UNL A   1      32.435  28.715  23.416  1.00  0.00     0.264 C 
BRANCH  87  88
ATOM     88  C   UNL A   1      32.646  28.622  24.925  1.00  0.00     0.049 C 
ATOM     89  C   UNL A   1      32.198  29.876  25.727  1.00  0.00     0.041 C 
ATOM     90  C   UNL A   1      34.035  28.803  25.606  1.00  0.00     0.041 C 
ATOM     91  C   UNL A   1      33.315  29.559  26.744  1.00  0.00     0.115 C 
BRANCH  91  92
ATOM     92  O   UNL A   1      32.932  28.782  27.896  1.00  0.00    -0.393 OA
ATOM     93  H   UNL A   1      33.369  27.917  27.863  1.00  0.00     0.210 HD
ENDBRANCH  91  92
ENDBRANCH  87  88
ENDBRANCH  84  87
ENDBRANCH  83  84
ENDBRANCH  82  83
ENDBRANCH  75  77
ENDBRANCH  74  75
ENDBRANCH  73  74
ENDBRANCH   1  73
TORSDOF 22
ENDMDL
MODEL 3
REMARK VINA RESULT:     -10.4      1.698      2.119
REMARK SMILES O=C(OCCOCCOC(=O)c1ccc(C[NH2+]C[C@H]2C[C@H](O)C2)nc1)c1ccc(-c2c3nc(c(-c4cccc(S(=O)(=O)[O-])c4F)c4ccc([nH]4)c(-c4cccc(S(=O)(=O)[O-])c4F)c4nc(c(-c5cccc(S(=O)(=O)[O-])c5F)c5ccc2[nH]5)C=C4)C=C3)cc1
REMARK SMILES IDX 7 1 6 2 5 3 4 4 3 5 2 6 1 7 26 8 27 9 88 10 28 11 87 12
REMARK SMILES IDX 29 13 30 14 31 15 81 16 32 17 86 18 80 19 82 20 33 21 85 22
REMARK SMILES IDX 79 23 78 24 34 26 66 27 46 28 65 29 47 30 50 31 64 32 83 33
REMARK SMILES IDX 48 34 49 35 63 37 84 38 51 39 35 40 36 41 44 42 37 43 39 44
REMARK SMILES IDX 45 45 38 46 40 47 41 48 42 49 43 50 67 51 68 52 76 53 69 54
REMARK SMILES IDX 71 55 77 56 70 57 72 58 73 59 74 60 75 61 52 62 53 63 61 64
REMARK SMILES IDX 54 65 56 66 62 67 55 68 57 69 58 70 59 71 60 72 8 73 9 74
REMARK SMILES IDX 10 75 11 76 12 77 13 78 25 79 14 80 24 81 15 82 16 83 17 84
REMARK SMILES IDX 18 87 19 88 23 89 20 90 21 91 22 92
REMARK H PARENT 82 25 50 36 17 85 17 86 22 93
REMARK Flexibility Score: inf
ROOT
ATOM      1  C   UNL A   1      35.140  22.276  23.744  1.00  0.00     0.202 C 
ENDROOT
BRANCH   1   2
ATOM      2  O   UNL A   1      34.569  21.317  24.647  1.00  0.00    -0.374 OA
BRANCH   2   3
ATOM      3  C   UNL A   1      35.391  20.194  24.973  1.00  0.00     0.202 C 
BRANCH   3   4
ATOM      4  C   UNL A   1      36.885  20.372  24.687  1.00  0.00     0.261 C 
BRANCH   4   5
ATOM      5  O   UNL A   1      37.486  21.204  25.693  1.00  0.00    -0.460 OA
BRANCH   5   6
ATOM      6  C   UNL A   1      38.786  21.268  26.060  1.00  0.00     0.338 C 
ATOM      7  O   UNL A   1      39.448  20.231  26.042  1.00  0.00    -0.246 OA
BRANCH   6   8
ATOM      8  C   UNL A   1      39.463  22.532  26.480  1.00  0.00     0.060 A 
ATOM      9  C   UNL A   1      39.092  23.816  26.071  1.00  0.00     0.016 A 
ATOM     10  C   UNL A   1      40.484  22.413  27.436  1.00  0.00     0.016 A 
ATOM     11  C   UNL A   1      39.741  24.948  26.535  1.00  0.00     0.010 A 
ATOM     12  C   UNL A   1      41.123  23.548  27.937  1.00  0.00     0.010 A 
ATOM     13  C   UNL A   1      40.759  24.815  27.469  1.00  0.00    -0.014 A 
BRANCH  13  14
ATOM     14  C   UNL A   1      41.509  26.013  27.864  1.00  0.00     0.031 A 
ATOM     15  C   UNL A   1      40.786  27.064  28.638  1.00  0.00     0.074 A 
ATOM     16  C   UNL A   1      42.812  26.113  27.557  1.00  0.00     0.049 A 
ATOM     17  N   UNL A   1      41.180  28.258  28.974  1.00  0.00    -0.248 NA
ATOM     18  C   UNL A   1      39.428  26.719  29.096  1.00  0.00     0.031 C 
ATOM     19  C   UNL A   1      43.598  25.077  26.885  1.00  0.00     0.029 A 
ATOM     20  N   UNL A   1      43.695  27.139  27.748  1.00  0.00    -0.354 N 
ATOM     21  C   UNL A   1      40.097  28.837  29.620  1.00  0.00     0.074 A 
ATOM     22  C   UNL A   1      39.039  27.852  29.658  1.00  0.00     0.031 C 
ATOM     23  C   UNL A   1      44.843  25.537  26.684  1.00  0.00     0.029 A 
ATOM     24  C   UNL A   1      44.914  26.916  27.153  1.00  0.00     0.049 A 
ATOM     25  H   UNL A   1      43.481  27.953  28.258  1.00  0.00     0.167 HD
ATOM     26  C   UNL A   1      39.999  30.089  30.117  1.00  0.00     0.034 A 
ATOM     27  C   UNL A   1      45.943  27.762  26.960  1.00  0.00     0.034 A 
ATOM     28  C   UNL A   1      41.078  31.034  30.053  1.00  0.00     0.049 A 
ATOM     29  C   UNL A   1      45.805  29.164  27.488  1.00  0.00     0.074 A 
ATOM     30  C   UNL A   1      41.114  32.339  30.502  1.00  0.00     0.029 A 
ATOM     31  N   UNL A   1      42.317  30.766  29.483  1.00  0.00    -0.354 N 
ATOM     32  N   UNL A   1      44.790  29.705  28.121  1.00  0.00    -0.248 NA
ATOM     33  C   UNL A   1      46.945  30.066  27.296  1.00  0.00     0.031 C 
ATOM     34  C   UNL A   1      42.365  32.870  30.172  1.00  0.00     0.029 A 
ATOM     35  C   UNL A   1      43.125  31.883  29.556  1.00  0.00     0.049 A 
ATOM     36  H   UNL A   1      42.580  29.904  29.085  1.00  0.00     0.167 HD
ATOM     37  C   UNL A   1      45.176  30.999  28.435  1.00  0.00     0.074 A 
ATOM     38  C   UNL A   1      46.526  31.160  27.923  1.00  0.00     0.031 C 
ATOM     39  C   UNL A   1      44.483  31.972  29.078  1.00  0.00     0.034 A 
BRANCH  26  40
ATOM     40  C   UNL A   1      38.672  30.492  30.699  1.00  0.00     0.023 A 
ATOM     41  C   UNL A   1      38.340  30.146  32.025  1.00  0.00     0.012 A 
ATOM     42  C   UNL A   1      37.726  31.170  29.905  1.00  0.00     0.148 A 
ATOM     43  C   UNL A   1      37.067  30.418  32.531  1.00  0.00     0.002 A 
ATOM     44  C   UNL A   1      36.478  31.477  30.431  1.00  0.00     0.091 A 
ATOM     45  F   UNL A   1      38.046  31.461  28.636  1.00  0.00    -0.205 F 
ATOM     46  C   UNL A   1      36.140  31.087  31.737  1.00  0.00     0.022 A 
BRANCH  44  47
ATOM     47  S   UNL A   1      35.242  32.389  29.503  1.00  0.00     0.127 S 
ATOM     48  O   UNL A   1      36.052  33.435  28.880  1.00  0.00    -0.237 OA
ATOM     49  O   UNL A   1      34.742  31.373  28.575  1.00  0.00    -0.237 OA
ATOM     50  O   UNL A   1      34.265  32.848  30.480  1.00  0.00    -0.744 OA
ENDBRANCH  44  47
ENDBRANCH  26  40
BRANCH  27  51
ATOM     51  C   UNL A   1      47.154  27.293  26.229  1.00  0.00     0.023 A 
ATOM     52  C   UNL A   1      47.334  27.638  24.877  1.00  0.00     0.012 A 
ATOM     53  C   UNL A   1      48.172  26.580  26.896  1.00  0.00     0.148 A 
ATOM     54  C   UNL A   1      48.501  27.274  24.200  1.00  0.00     0.002 A 
ATOM     55  C   UNL A   1      49.354  26.269  26.233  1.00  0.00     0.091 A 
ATOM     56  F   UNL A   1      47.978  26.251  28.181  1.00  0.00    -0.205 F 
ATOM     57  C   UNL A   1      49.515  26.604  24.881  1.00  0.00     0.022 A 
BRANCH  55  58
ATOM     58  S   UNL A   1      50.765  25.529  27.064  1.00  0.00     0.127 S 
ATOM     59  O   UNL A   1      51.178  26.601  27.966  1.00  0.00    -0.237 OA
ATOM     60  O   UNL A   1      50.153  24.373  27.722  1.00  0.00    -0.237 OA
ATOM     61  O   UNL A   1      51.714  25.190  26.012  1.00  0.00    -0.744 OA
ENDBRANCH  55  58
ENDBRANCH  27  51
BRANCH  39  62
ATOM     62  C   UNL A   1      45.183  33.279  29.320  1.00  0.00     0.023 A 
ATOM     63  C   UNL A   1      46.024  33.432  30.437  1.00  0.00     0.012 A 
ATOM     64  C   UNL A   1      45.115  34.297  28.347  1.00  0.00     0.148 A 
ATOM     65  C   UNL A   1      46.788  34.589  30.586  1.00  0.00     0.002 A 
ATOM     66  C   UNL A   1      45.918  35.420  28.477  1.00  0.00     0.091 A 
ATOM     67  F   UNL A   1      44.289  34.128  27.303  1.00  0.00    -0.205 F 
ATOM     68  C   UNL A   1      46.748  35.573  29.600  1.00  0.00     0.022 A 
BRANCH  66  69
ATOM     69  S   UNL A   1      46.020  36.677  27.199  1.00  0.00     0.127 S 
ATOM     70  O   UNL A   1      46.481  35.897  26.052  1.00  0.00    -0.237 OA
ATOM     71  O   UNL A   1      44.633  37.137  27.109  1.00  0.00    -0.237 OA
ATOM     72  O   UNL A   1      46.959  37.677  27.689  1.00  0.00    -0.744 OA
ENDBRANCH  66  69
ENDBRANCH  39  62
ENDBRANCH  13  14
ENDBRANCH   6   8
ENDBRANCH   5   6
ENDBRANCH   4   5
ENDBRANCH   3   4
ENDBRANCH   2   3
ENDBRANCH   1   2
BRANCH   1  73
ATOM     73  C   UNL A   1      34.892  23.692  24.271  1.00  0.00     0.261 C 
BRANCH  73  74
ATOM     74  O   UNL A   1      33.541  23.747  24.757  1.00  0.00    -0.460 OA
BRANCH  74  75
ATOM     75  C   UNL A   1      33.447  24.165  26.046  1.00  0.00     0.339 C 
ATOM     76  O   UNL A   1      33.864  23.613  27.042  1.00  0.00    -0.246 OA
BRANCH  75  77
ATOM     77  C   UNL A   1      32.945  25.546  26.035  1.00  0.00     0.078 A 
ATOM     78  C   UNL A   1      31.643  25.901  26.380  1.00  0.00     0.019 A 
ATOM     79  C   UNL A   1      33.807  26.533  25.592  1.00  0.00     0.127 A 
ATOM     80  C   UNL A   1      31.262  27.240  26.301  1.00  0.00     0.031 A 
ATOM     81  N   UNL A   1      33.454  27.834  25.487  1.00  0.00    -0.254 NA
ATOM     82  C   UNL A   1      32.195  28.180  25.865  1.00  0.00     0.094 A 
BRANCH  82  83
ATOM     83  C   UNL A   1      31.901  29.672  25.938  1.00  0.00     0.317 C 
BRANCH  83  84
ATOM     84  N   UNL A   1      31.037  30.056  24.821  1.00  0.00    -0.341 N 
ATOM     85  H   UNL A   1      31.208  31.042  24.625  1.00  0.00     0.346 HD
ATOM     86  H   UNL A   1      30.092  29.832  25.133  1.00  0.00     0.346 HD
BRANCH  84  87
ATOM     87  C   UNL A   1      31.197  29.332  23.578  1.00  0.00     0.264 C 
BRANCH  87  88
ATOM     88  C   UNL A   1      30.039  29.481  22.595  1.00  0.00     0.049 C 
ATOM     89  C   UNL A   1      29.263  30.824  22.695  1.00  0.00     0.041 C 
ATOM     90  C   UNL A   1      28.661  28.781  22.787  1.00  0.00     0.041 C 
ATOM     91  C   UNL A   1      27.998  30.065  22.241  1.00  0.00     0.115 C 
BRANCH  91  92
ATOM     92  O   UNL A   1      27.706  30.093  20.829  1.00  0.00    -0.393 OA
ATOM     93  H   UNL A   1      28.121  29.329  20.398  1.00  0.00     0.210 HD
ENDBRANCH  91  92
ENDBRANCH  87  88
ENDBRANCH  84  87
ENDBRANCH  83  84
ENDBRANCH  82  83
ENDBRANCH  75  77
ENDBRANCH  74  75
ENDBRANCH  73  74
ENDBRANCH   1  73
TORSDOF 22
ENDMDL
