MODEL 1
REMARK VINA RESULT:     -10.9      0.000      0.000
REMARK SMILES O=C(OCCOCCOC(=O)c1c(F)cccc1Oc1cccc(Cl)c1)c1ccc(-c2c3nc(c(-c4cccc(S(=O)(=O)[O-])c4F)c4ccc([nH]4)c(-c4cccc(S(=O)(=O)[O-])c4F)c4nc(c(-c5cccc(S(=O)(=O)[O-])c5F)c5ccc2[nH]5)C=C4)C=C3)cc1
REMARK SMILES IDX 5 1 4 2 3 3 2 4 1 5 27 6 28 7 89 8 29 9 88 10 30 11 31 12
REMARK SMILES IDX 32 13 82 14 33 15 87 16 81 17 83 18 34 19 86 20 80 21 79 22
REMARK SMILES IDX 35 24 67 25 47 26 66 27 48 28 51 29 65 30 84 31 49 32 50 33
REMARK SMILES IDX 64 35 85 36 52 37 36 38 37 39 45 40 38 41 40 42 46 43 39 44
REMARK SMILES IDX 41 45 42 46 43 47 44 48 68 49 69 50 77 51 70 52 72 53 78 54
REMARK SMILES IDX 71 55 73 56 74 57 75 58 76 59 53 60 54 61 62 62 55 63 57 64
REMARK SMILES IDX 63 65 56 66 58 67 59 68 60 69 61 70 6 71 7 72 8 73 9 74
REMARK SMILES IDX 10 75 11 76 12 77 13 78 18 79 14 80 15 81 17 82 16 83 19 84
REMARK SMILES IDX 20 85 21 86 26 87 22 88 24 89 23 90 25 91
REMARK H PARENT 83 23 51 34
REMARK Flexibility Score: inf
ROOT
ATOM      1  C   UNL A   1      32.013  31.032  26.126  1.00  0.00     0.202 C 
ENDROOT
BRANCH   1   2
ATOM      2  C   UNL A   1      31.405  32.212  26.880  1.00  0.00     0.261 C 
BRANCH   2   3
ATOM      3  O   UNL A   1      32.351  33.301  26.863  1.00  0.00    -0.460 OA
BRANCH   3   4
ATOM      4  C   UNL A   1      32.965  33.892  27.915  1.00  0.00     0.338 C 
ATOM      5  O   UNL A   1      32.528  34.956  28.347  1.00  0.00    -0.246 OA
BRANCH   4   6
ATOM      6  C   UNL A   1      34.138  33.281  28.596  1.00  0.00     0.060 A 
ATOM      7  C   UNL A   1      34.044  32.131  29.370  1.00  0.00     0.016 A 
ATOM      8  C   UNL A   1      35.412  33.803  28.344  1.00  0.00     0.016 A 
ATOM      9  C   UNL A   1      35.163  31.569  29.968  1.00  0.00     0.010 A 
ATOM     10  C   UNL A   1      36.556  33.190  28.879  1.00  0.00     0.010 A 
ATOM     11  C   UNL A   1      36.439  32.071  29.717  1.00  0.00    -0.014 A 
BRANCH  11  12
ATOM     12  C   UNL A   1      37.601  31.412  30.372  1.00  0.00     0.031 A 
ATOM     13  C   UNL A   1      37.880  31.652  31.827  1.00  0.00     0.074 A 
ATOM     14  C   UNL A   1      38.343  30.517  29.686  1.00  0.00     0.049 A 
ATOM     15  N   UNL A   1      38.865  31.203  32.559  1.00  0.00    -0.248 NA
ATOM     16  C   UNL A   1      36.932  32.508  32.558  1.00  0.00     0.031 C 
ATOM     17  C   UNL A   1      38.134  30.151  28.284  1.00  0.00     0.029 A 
ATOM     18  N   UNL A   1      39.388  29.718  30.080  1.00  0.00    -0.354 N 
ATOM     19  C   UNL A   1      38.707  31.790  33.807  1.00  0.00     0.074 A 
ATOM     20  C   UNL A   1      37.513  32.603  33.746  1.00  0.00     0.031 C 
ATOM     21  C   UNL A   1      38.955  29.141  27.962  1.00  0.00     0.029 A 
ATOM     22  C   UNL A   1      39.832  28.863  29.094  1.00  0.00     0.049 A 
ATOM     23  H   UNL A   1      39.785  29.753  30.980  1.00  0.00     0.167 HD
ATOM     24  C   UNL A   1      39.493  31.665  34.901  1.00  0.00     0.034 A 
ATOM     25  C   UNL A   1      40.848  27.977  29.086  1.00  0.00     0.034 A 
ATOM     26  C   UNL A   1      40.640  30.804  34.971  1.00  0.00     0.049 A 
ATOM     27  C   UNL A   1      41.704  27.851  30.315  1.00  0.00     0.074 A 
ATOM     28  C   UNL A   1      41.507  30.617  36.032  1.00  0.00     0.029 A 
ATOM     29  N   UNL A   1      41.074  29.976  33.947  1.00  0.00    -0.354 N 
ATOM     30  N   UNL A   1      41.554  28.431  31.481  1.00  0.00    -0.248 NA
ATOM     31  C   UNL A   1      42.874  26.966  30.229  1.00  0.00     0.031 C 
ATOM     32  C   UNL A   1      42.480  29.694  35.640  1.00  0.00     0.029 A 
ATOM     33  C   UNL A   1      42.201  29.281  34.347  1.00  0.00     0.049 A 
ATOM     34  H   UNL A   1      40.643  29.895  33.065  1.00  0.00     0.167 HD
ATOM     35  C   UNL A   1      42.606  27.983  32.269  1.00  0.00     0.074 A 
ATOM     36  C   UNL A   1      43.371  27.058  31.457  1.00  0.00     0.031 C 
ATOM     37  C   UNL A   1      42.923  28.329  33.540  1.00  0.00     0.034 A 
BRANCH  24  38
ATOM     38  C   UNL A   1      39.152  32.505  36.101  1.00  0.00     0.023 A 
ATOM     39  C   UNL A   1      39.615  33.832  36.197  1.00  0.00     0.012 A 
ATOM     40  C   UNL A   1      38.337  31.979  37.123  1.00  0.00     0.148 A 
ATOM     41  C   UNL A   1      39.298  34.612  37.310  1.00  0.00     0.002 A 
ATOM     42  C   UNL A   1      37.988  32.776  38.205  1.00  0.00     0.091 A 
ATOM     43  F   UNL A   1      37.932  30.705  37.025  1.00  0.00    -0.205 F 
ATOM     44  C   UNL A   1      38.477  34.089  38.306  1.00  0.00     0.022 A 
BRANCH  42  45
ATOM     45  S   UNL A   1      36.875  32.213  39.497  1.00  0.00     0.127 S 
ATOM     46  O   UNL A   1      37.123  33.198  40.549  1.00  0.00    -0.237 OA
ATOM     47  O   UNL A   1      35.569  32.327  38.850  1.00  0.00    -0.237 OA
ATOM     48  O   UNL A   1      37.280  30.849  39.808  1.00  0.00    -0.744 OA
ENDBRANCH  42  45
ENDBRANCH  24  38
BRANCH  25  49
ATOM     49  C   UNL A   1      41.093  27.145  27.870  1.00  0.00     0.023 A 
ATOM     50  C   UNL A   1      41.713  27.721  26.744  1.00  0.00     0.012 A 
ATOM     51  C   UNL A   1      40.801  25.766  27.857  1.00  0.00     0.148 A 
ATOM     52  C   UNL A   1      42.039  26.938  25.634  1.00  0.00     0.002 A 
ATOM     53  C   UNL A   1      41.195  24.980  26.782  1.00  0.00     0.091 A 
ATOM     54  F   UNL A   1      40.179  25.242  28.924  1.00  0.00    -0.205 F 
ATOM     55  C   UNL A   1      41.800  25.566  25.661  1.00  0.00     0.022 A 
BRANCH  53  56
ATOM     56  S   UNL A   1      41.084  23.186  26.813  1.00  0.00     0.127 S 
ATOM     57  O   UNL A   1      41.863  22.816  25.634  1.00  0.00    -0.237 OA
ATOM     58  O   UNL A   1      41.714  22.867  28.095  1.00  0.00    -0.237 OA
ATOM     59  O   UNL A   1      39.662  22.878  26.752  1.00  0.00    -0.744 OA
ENDBRANCH  53  56
ENDBRANCH  25  49
BRANCH  37  60
ATOM     60  C   UNL A   1      44.145  27.711  34.162  1.00  0.00     0.023 A 
ATOM     61  C   UNL A   1      45.368  28.408  34.130  1.00  0.00     0.012 A 
ATOM     62  C   UNL A   1      44.040  26.524  34.913  1.00  0.00     0.148 A 
ATOM     63  C   UNL A   1      46.471  27.930  34.836  1.00  0.00     0.002 A 
ATOM     64  C   UNL A   1      45.129  26.081  35.653  1.00  0.00     0.091 A 
ATOM     65  F   UNL A   1      42.868  25.871  34.915  1.00  0.00    -0.205 F 
ATOM     66  C   UNL A   1      46.347  26.779  35.610  1.00  0.00     0.022 A 
BRANCH  64  67
ATOM     67  S   UNL A   1      45.032  24.674  36.766  1.00  0.00     0.127 S 
ATOM     68  O   UNL A   1      46.401  24.603  37.276  1.00  0.00    -0.237 OA
ATOM     69  O   UNL A   1      44.039  25.121  37.743  1.00  0.00    -0.237 OA
ATOM     70  O   UNL A   1      44.615  23.541  35.952  1.00  0.00    -0.744 OA
ENDBRANCH  64  67
ENDBRANCH  37  60
ENDBRANCH  11  12
ENDBRANCH   4   6
ENDBRANCH   3   4
ENDBRANCH   2   3
ENDBRANCH   1   2
BRANCH   1  71
ATOM     71  O   UNL A   1      32.793  30.239  27.011  1.00  0.00    -0.374 OA
BRANCH  71  72
ATOM     72  C   UNL A   1      34.015  29.717  26.477  1.00  0.00     0.202 C 
BRANCH  72  73
ATOM     73  C   UNL A   1      33.989  28.205  26.675  1.00  0.00     0.261 C 
BRANCH  73  74
ATOM     74  O   UNL A   1      33.949  27.625  25.360  1.00  0.00    -0.459 OA
BRANCH  74  75
ATOM     75  C   UNL A   1      33.300  26.432  25.245  1.00  0.00     0.345 C 
ATOM     76  O   UNL A   1      33.024  25.668  26.147  1.00  0.00    -0.246 OA
BRANCH  75  77
ATOM     77  C   UNL A   1      32.985  26.236  23.817  1.00  0.00     0.138 A 
ATOM     78  C   UNL A   1      31.849  26.941  23.366  1.00  0.00     0.141 A 
ATOM     79  C   UNL A   1      33.647  25.387  22.917  1.00  0.00     0.144 A 
ATOM     80  F   UNL A   1      31.215  27.815  24.165  1.00  0.00    -0.206 F 
ATOM     81  C   UNL A   1      31.317  26.765  22.092  1.00  0.00     0.040 A 
ATOM     82  C   UNL A   1      33.096  25.241  21.619  1.00  0.00     0.048 A 
ATOM     83  C   UNL A   1      31.939  25.901  21.213  1.00  0.00     0.007 A 
BRANCH  79  84
ATOM     84  O   UNL A   1      34.711  24.527  23.021  1.00  0.00    -0.456 OA
BRANCH  84  85
ATOM     85  C   UNL A   1      34.695  23.267  23.540  1.00  0.00     0.128 A 
ATOM     86  C   UNL A   1      35.948  22.720  23.839  1.00  0.00     0.047 A 
ATOM     87  C   UNL A   1      33.544  22.665  24.040  1.00  0.00     0.067 A 
ATOM     88  C   UNL A   1      36.052  21.531  24.559  1.00  0.00     0.005 A 
ATOM     89  C   UNL A   1      33.650  21.459  24.739  1.00  0.00     0.044 A 
ATOM     90  C   UNL A   1      34.897  20.887  24.995  1.00  0.00     0.021 A 
ATOM     91  Cl  UNL A   1      32.229  20.689  25.333  1.00  0.00    -0.084 Cl
ENDBRANCH  84  85
ENDBRANCH  79  84
ENDBRANCH  75  77
ENDBRANCH  74  75
ENDBRANCH  73  74
ENDBRANCH  72  73
ENDBRANCH  71  72
ENDBRANCH   1  71
TORSDOF 19
ENDMDL
MODEL 2
REMARK VINA RESULT:     -10.9      5.712     11.066
REMARK SMILES O=C(OCCOCCOC(=O)c1c(F)cccc1Oc1cccc(Cl)c1)c1ccc(-c2c3nc(c(-c4cccc(S(=O)(=O)[O-])c4F)c4ccc([nH]4)c(-c4cccc(S(=O)(=O)[O-])c4F)c4nc(c(-c5cccc(S(=O)(=O)[O-])c5F)c5ccc2[nH]5)C=C4)C=C3)cc1
REMARK SMILES IDX 5 1 4 2 3 3 2 4 1 5 27 6 28 7 89 8 29 9 88 10 30 11 31 12
REMARK SMILES IDX 32 13 82 14 33 15 87 16 81 17 83 18 34 19 86 20 80 21 79 22
REMARK SMILES IDX 35 24 67 25 47 26 66 27 48 28 51 29 65 30 84 31 49 32 50 33
REMARK SMILES IDX 64 35 85 36 52 37 36 38 37 39 45 40 38 41 40 42 46 43 39 44
REMARK SMILES IDX 41 45 42 46 43 47 44 48 68 49 69 50 77 51 70 52 72 53 78 54
REMARK SMILES IDX 71 55 73 56 74 57 75 58 76 59 53 60 54 61 62 62 55 63 57 64
REMARK SMILES IDX 63 65 56 66 58 67 59 68 60 69 61 70 6 71 7 72 8 73 9 74
REMARK SMILES IDX 10 75 11 76 12 77 13 78 18 79 14 80 15 81 17 82 16 83 19 84
REMARK SMILES IDX 20 85 21 86 26 87 22 88 24 89 23 90 25 91
REMARK H PARENT 83 23 51 34
REMARK Flexibility Score: inf
ROOT
ATOM      1  C   UNL A   1      38.534  20.490  25.127  1.00  0.00     0.202 C 
ENDROOT
BRANCH   1   2
ATOM      2  C   UNL A   1      39.142  19.265  25.806  1.00  0.00     0.261 C 
BRANCH   2   3
ATOM      3  O   UNL A   1      40.547  19.213  25.481  1.00  0.00    -0.460 OA
BRANCH   3   4
ATOM      4  C   UNL A   1      41.601  19.525  26.271  1.00  0.00     0.338 C 
ATOM      5  O   UNL A   1      42.288  18.622  26.742  1.00  0.00    -0.246 OA
BRANCH   4   6
ATOM      6  C   UNL A   1      41.982  20.932  26.566  1.00  0.00     0.060 A 
ATOM      7  C   UNL A   1      41.920  21.944  25.617  1.00  0.00     0.016 A 
ATOM      8  C   UNL A   1      42.291  21.285  27.886  1.00  0.00     0.016 A 
ATOM      9  C   UNL A   1      42.254  23.254  25.933  1.00  0.00     0.010 A 
ATOM     10  C   UNL A   1      42.550  22.622  28.227  1.00  0.00     0.010 A 
ATOM     11  C   UNL A   1      42.553  23.621  27.243  1.00  0.00    -0.014 A 
BRANCH  11  12
ATOM     12  C   UNL A   1      42.884  25.044  27.522  1.00  0.00     0.031 A 
ATOM     13  C   UNL A   1      44.175  25.628  27.026  1.00  0.00     0.074 A 
ATOM     14  C   UNL A   1      41.979  25.841  28.129  1.00  0.00     0.049 A 
ATOM     15  N   UNL A   1      44.656  26.829  27.205  1.00  0.00    -0.248 NA
ATOM     16  C   UNL A   1      45.042  24.749  26.224  1.00  0.00     0.031 C 
ATOM     17  C   UNL A   1      40.663  25.409  28.603  1.00  0.00     0.029 A 
ATOM     18  N   UNL A   1      42.002  27.185  28.411  1.00  0.00    -0.354 N 
ATOM     19  C   UNL A   1      45.914  26.824  26.619  1.00  0.00     0.074 A 
ATOM     20  C   UNL A   1      46.112  25.510  26.049  1.00  0.00     0.031 C 
ATOM     21  C   UNL A   1      39.972  26.475  29.029  1.00  0.00     0.029 A 
ATOM     22  C   UNL A   1      40.833  27.652  28.971  1.00  0.00     0.049 A 
ATOM     23  H   UNL A   1      42.780  27.761  28.231  1.00  0.00     0.167 HD
ATOM     24  C   UNL A   1      46.823  27.825  26.570  1.00  0.00     0.034 A 
ATOM     25  C   UNL A   1      40.496  28.879  29.419  1.00  0.00     0.034 A 
ATOM     26  C   UNL A   1      46.591  29.146  27.081  1.00  0.00     0.049 A 
ATOM     27  C   UNL A   1      41.520  29.977  29.347  1.00  0.00     0.074 A 
ATOM     28  C   UNL A   1      47.455  30.227  27.089  1.00  0.00     0.029 A 
ATOM     29  N   UNL A   1      45.408  29.574  27.666  1.00  0.00    -0.354 N 
ATOM     30  N   UNL A   1      42.716  29.950  28.809  1.00  0.00    -0.248 NA
ATOM     31  C   UNL A   1      41.163  31.267  29.954  1.00  0.00     0.031 C 
ATOM     32  C   UNL A   1      46.801  31.301  27.699  1.00  0.00     0.029 A 
ATOM     33  C   UNL A   1      45.520  30.900  28.043  1.00  0.00     0.049 A 
ATOM     34  H   UNL A   1      44.607  29.016  27.793  1.00  0.00     0.167 HD
ATOM     35  C   UNL A   1      43.254  31.214  29.009  1.00  0.00     0.074 A 
ATOM     36  C   UNL A   1      42.242  31.995  29.691  1.00  0.00     0.031 C 
ATOM     37  C   UNL A   1      44.485  31.675  28.681  1.00  0.00     0.034 A 
BRANCH  24  38
ATOM     38  C   UNL A   1      48.165  27.516  25.964  1.00  0.00     0.023 A 
ATOM     39  C   UNL A   1      49.233  27.090  26.777  1.00  0.00     0.012 A 
ATOM     40  C   UNL A   1      48.352  27.620  24.571  1.00  0.00     0.148 A 
ATOM     41  C   UNL A   1      50.477  26.802  26.216  1.00  0.00     0.002 A 
ATOM     42  C   UNL A   1      49.580  27.287  24.015  1.00  0.00     0.091 A 
ATOM     43  F   UNL A   1      47.331  28.054  23.819  1.00  0.00    -0.205 F 
ATOM     44  C   UNL A   1      50.648  26.890  24.837  1.00  0.00     0.022 A 
BRANCH  42  45
ATOM     45  S   UNL A   1      49.869  27.297  22.243  1.00  0.00     0.127 S 
ATOM     46  O   UNL A   1      49.628  28.701  21.913  1.00  0.00    -0.237 OA
ATOM     47  O   UNL A   1      51.268  26.881  22.155  1.00  0.00    -0.237 OA
ATOM     48  O   UNL A   1      48.919  26.349  21.676  1.00  0.00    -0.744 OA
ENDBRANCH  42  45
ENDBRANCH  24  38
BRANCH  25  49
ATOM     49  C   UNL A   1      39.127  29.117  29.964  1.00  0.00     0.023 A 
ATOM     50  C   UNL A   1      38.821  28.724  31.280  1.00  0.00     0.012 A 
ATOM     51  C   UNL A   1      38.155  29.815  29.217  1.00  0.00     0.148 A 
ATOM     52  C   UNL A   1      37.578  29.023  31.842  1.00  0.00     0.002 A 
ATOM     53  C   UNL A   1      36.950  30.175  29.807  1.00  0.00     0.091 A 
ATOM     54  F   UNL A   1      38.450  30.152  27.953  1.00  0.00    -0.205 F 
ATOM     55  C   UNL A   1      36.651  29.766  31.114  1.00  0.00     0.022 A 
BRANCH  53  56
ATOM     56  S   UNL A   1      35.780  31.278  29.003  1.00  0.00     0.127 S 
ATOM     57  O   UNL A   1      35.086  31.865  30.146  1.00  0.00    -0.237 OA
ATOM     58  O   UNL A   1      36.671  32.191  28.286  1.00  0.00    -0.237 OA
ATOM     59  O   UNL A   1      34.970  30.431  28.139  1.00  0.00    -0.744 OA
ENDBRANCH  53  56
ENDBRANCH  25  49
BRANCH  37  60
ATOM     60  C   UNL A   1      44.831  33.095  29.037  1.00  0.00     0.023 A 
ATOM     61  C   UNL A   1      45.441  33.370  30.277  1.00  0.00     0.012 A 
ATOM     62  C   UNL A   1      44.702  34.122  28.082  1.00  0.00     0.148 A 
ATOM     63  C   UNL A   1      45.914  34.650  30.561  1.00  0.00     0.002 A 
ATOM     64  C   UNL A   1      45.221  35.382  28.354  1.00  0.00     0.091 A 
ATOM     65  F   UNL A   1      44.105  33.837  26.916  1.00  0.00    -0.205 F 
ATOM     66  C   UNL A   1      45.820  35.649  29.596  1.00  0.00     0.022 A 
BRANCH  64  67
ATOM     67  S   UNL A   1      45.247  36.698  27.132  1.00  0.00     0.127 S 
ATOM     68  O   UNL A   1      46.051  36.099  26.067  1.00  0.00    -0.237 OA
ATOM     69  O   UNL A   1      43.828  36.852  26.813  1.00  0.00    -0.237 OA
ATOM     70  O   UNL A   1      45.850  37.849  27.790  1.00  0.00    -0.744 OA
ENDBRANCH  64  67
ENDBRANCH  37  60
ENDBRANCH  11  12
ENDBRANCH   4   6
ENDBRANCH   3   4
ENDBRANCH   2   3
ENDBRANCH   1   2
BRANCH   1  71
ATOM     71  O   UNL A   1      38.534  21.594  26.022  1.00  0.00    -0.374 OA
BRANCH  71  72
ATOM     72  C   UNL A   1      37.691  22.695  25.663  1.00  0.00     0.202 C 
BRANCH  72  73
ATOM     73  C   UNL A   1      36.511  22.128  24.882  1.00  0.00     0.261 C 
BRANCH  73  74
ATOM     74  O   UNL A   1      35.481  21.853  25.846  1.00  0.00    -0.459 OA
BRANCH  74  75
ATOM     75  C   UNL A   1      34.365  22.632  25.780  1.00  0.00     0.345 C 
ATOM     76  O   UNL A   1      34.014  23.465  26.592  1.00  0.00    -0.246 OA
BRANCH  75  77
ATOM     77  C   UNL A   1      33.657  22.287  24.532  1.00  0.00     0.138 A 
ATOM     78  C   UNL A   1      33.709  23.284  23.535  1.00  0.00     0.141 A 
ATOM     79  C   UNL A   1      32.903  21.130  24.284  1.00  0.00     0.144 A 
ATOM     80  F   UNL A   1      34.466  24.382  23.693  1.00  0.00    -0.206 F 
ATOM     81  C   UNL A   1      32.981  23.196  22.352  1.00  0.00     0.040 A 
ATOM     82  C   UNL A   1      32.187  21.057  23.064  1.00  0.00     0.048 A 
ATOM     83  C   UNL A   1      32.205  22.078  22.117  1.00  0.00     0.007 A 
BRANCH  79  84
ATOM     84  O   UNL A   1      32.586  20.019  25.025  1.00  0.00    -0.456 OA
BRANCH  84  85
ATOM     85  C   UNL A   1      33.094  18.764  24.873  1.00  0.00     0.128 A 
ATOM     86  C   UNL A   1      34.443  18.698  24.503  1.00  0.00     0.047 A 
ATOM     87  C   UNL A   1      32.451  17.622  25.340  1.00  0.00     0.067 A 
ATOM     88  C   UNL A   1      35.125  17.483  24.517  1.00  0.00     0.005 A 
ATOM     89  C   UNL A   1      33.130  16.400  25.328  1.00  0.00     0.044 A 
ATOM     90  C   UNL A   1      34.461  16.324  24.913  1.00  0.00     0.021 A 
ATOM     91  Cl  UNL A   1      32.334  14.975  25.874  1.00  0.00    -0.084 Cl
ENDBRANCH  84  85
ENDBRANCH  79  84
ENDBRANCH  75  77
ENDBRANCH  74  75
ENDBRANCH  73  74
ENDBRANCH  72  73
ENDBRANCH  71  72
ENDBRANCH   1  71
TORSDOF 19
ENDMDL
MODEL 3
REMARK VINA RESULT:     -10.9      5.223      8.072
REMARK SMILES O=C(OCCOCCOC(=O)c1c(F)cccc1Oc1cccc(Cl)c1)c1ccc(-c2c3nc(c(-c4cccc(S(=O)(=O)[O-])c4F)c4ccc([nH]4)c(-c4cccc(S(=O)(=O)[O-])c4F)c4nc(c(-c5cccc(S(=O)(=O)[O-])c5F)c5ccc2[nH]5)C=C4)C=C3)cc1
REMARK SMILES IDX 5 1 4 2 3 3 2 4 1 5 27 6 28 7 89 8 29 9 88 10 30 11 31 12
REMARK SMILES IDX 32 13 82 14 33 15 87 16 81 17 83 18 34 19 86 20 80 21 79 22
REMARK SMILES IDX 35 24 67 25 47 26 66 27 48 28 51 29 65 30 84 31 49 32 50 33
REMARK SMILES IDX 64 35 85 36 52 37 36 38 37 39 45 40 38 41 40 42 46 43 39 44
REMARK SMILES IDX 41 45 42 46 43 47 44 48 68 49 69 50 77 51 70 52 72 53 78 54
REMARK SMILES IDX 71 55 73 56 74 57 75 58 76 59 53 60 54 61 62 62 55 63 57 64
REMARK SMILES IDX 63 65 56 66 58 67 59 68 60 69 61 70 6 71 7 72 8 73 9 74
REMARK SMILES IDX 10 75 11 76 12 77 13 78 18 79 14 80 15 81 17 82 16 83 19 84
REMARK SMILES IDX 20 85 21 86 26 87 22 88 24 89 23 90 25 91
REMARK H PARENT 83 23 51 34
REMARK Flexibility Score: inf
ROOT
ATOM      1  C   UNL A   1      34.574  22.085  25.030  1.00  0.00     0.202 C 
ENDROOT
BRANCH   1   2
ATOM      2  C   UNL A   1      35.566  20.925  25.027  1.00  0.00     0.261 C 
BRANCH   2   3
ATOM      3  O   UNL A   1      36.584  21.192  26.015  1.00  0.00    -0.460 OA
BRANCH   3   4
ATOM      4  C   UNL A   1      37.925  21.246  25.841  1.00  0.00     0.338 C 
ATOM      5  O   UNL A   1      38.509  20.276  25.362  1.00  0.00    -0.246 OA
BRANCH   4   6
ATOM      6  C   UNL A   1      38.722  22.455  26.180  1.00  0.00     0.060 A 
ATOM      7  C   UNL A   1      38.294  23.744  25.889  1.00  0.00     0.016 A 
ATOM      8  C   UNL A   1      39.889  22.304  26.939  1.00  0.00     0.016 A 
ATOM      9  C   UNL A   1      39.048  24.854  26.246  1.00  0.00     0.010 A 
ATOM     10  C   UNL A   1      40.612  23.427  27.372  1.00  0.00     0.010 A 
ATOM     11  C   UNL A   1      40.205  24.719  27.010  1.00  0.00    -0.014 A 
BRANCH  11  12
ATOM     12  C   UNL A   1      40.959  25.948  27.376  1.00  0.00     0.031 A 
ATOM     13  C   UNL A   1      40.357  26.946  28.323  1.00  0.00     0.074 A 
ATOM     14  C   UNL A   1      42.226  26.117  26.942  1.00  0.00     0.049 A 
ATOM     15  N   UNL A   1      40.841  28.090  28.726  1.00  0.00    -0.248 NA
ATOM     16  C   UNL A   1      39.040  26.618  28.893  1.00  0.00     0.031 C 
ATOM     17  C   UNL A   1      42.945  25.189  26.068  1.00  0.00     0.029 A 
ATOM     18  N   UNL A   1      43.151  27.096  27.209  1.00  0.00    -0.354 N 
ATOM     19  C   UNL A   1      39.854  28.659  29.520  1.00  0.00     0.074 A 
ATOM     20  C   UNL A   1      38.756  27.720  29.572  1.00  0.00     0.031 C 
ATOM     21  C   UNL A   1      44.218  25.590  25.946  1.00  0.00     0.029 A 
ATOM     22  C   UNL A   1      44.381  26.866  26.633  1.00  0.00     0.049 A 
ATOM     23  H   UNL A   1      42.953  27.889  27.759  1.00  0.00     0.167 HD
ATOM     24  C   UNL A   1      39.865  29.860  30.144  1.00  0.00     0.034 A 
ATOM     25  C   UNL A   1      45.507  27.608  26.630  1.00  0.00     0.034 A 
ATOM     26  C   UNL A   1      40.986  30.756  30.141  1.00  0.00     0.049 A 
ATOM     27  C   UNL A   1      45.496  28.935  27.335  1.00  0.00     0.074 A 
ATOM     28  C   UNL A   1      41.089  32.001  30.734  1.00  0.00     0.029 A 
ATOM     29  N   UNL A   1      42.203  30.502  29.526  1.00  0.00    -0.354 N 
ATOM     30  N   UNL A   1      44.547  29.469  28.065  1.00  0.00    -0.248 NA
ATOM     31  C   UNL A   1      46.699  29.771  27.208  1.00  0.00     0.031 C 
ATOM     32  C   UNL A   1      42.361  32.510  30.458  1.00  0.00     0.029 A 
ATOM     33  C   UNL A   1      43.062  31.569  29.719  1.00  0.00     0.049 A 
ATOM     34  H   UNL A   1      42.423  29.683  29.025  1.00  0.00     0.167 HD
ATOM     35  C   UNL A   1      45.034  30.700  28.485  1.00  0.00     0.074 A 
ATOM     36  C   UNL A   1      46.376  30.821  27.954  1.00  0.00     0.031 C 
ATOM     37  C   UNL A   1      44.412  31.653  29.221  1.00  0.00     0.034 A 
BRANCH  24  38
ATOM     38  C   UNL A   1      38.610  30.283  30.858  1.00  0.00     0.023 A 
ATOM     39  C   UNL A   1      38.426  29.974  32.219  1.00  0.00     0.012 A 
ATOM     40  C   UNL A   1      37.624  31.022  30.174  1.00  0.00     0.148 A 
ATOM     41  C   UNL A   1      37.263  30.367  32.882  1.00  0.00     0.002 A 
ATOM     42  C   UNL A   1      36.491  31.450  30.852  1.00  0.00     0.091 A 
ATOM     43  F   UNL A   1      37.807  31.281  28.872  1.00  0.00    -0.205 F 
ATOM     44  C   UNL A   1      36.302  31.113  32.203  1.00  0.00     0.022 A 
BRANCH  42  45
ATOM     45  S   UNL A   1      35.237  32.479  30.081  1.00  0.00     0.127 S 
ATOM     46  O   UNL A   1      34.302  32.683  31.186  1.00  0.00    -0.237 OA
ATOM     47  O   UNL A   1      36.003  33.667  29.703  1.00  0.00    -0.237 OA
ATOM     48  O   UNL A   1      34.722  31.708  28.958  1.00  0.00    -0.744 OA
ENDBRANCH  42  45
ENDBRANCH  24  38
BRANCH  25  49
ATOM     49  C   UNL A   1      46.727  27.097  25.937  1.00  0.00     0.023 A 
ATOM     50  C   UNL A   1      46.922  27.373  24.571  1.00  0.00     0.012 A 
ATOM     51  C   UNL A   1      47.739  26.418  26.647  1.00  0.00     0.148 A 
ATOM     52  C   UNL A   1      48.100  26.987  23.927  1.00  0.00     0.002 A 
ATOM     53  C   UNL A   1      48.939  26.105  26.021  1.00  0.00     0.091 A 
ATOM     54  F   UNL A   1      47.523  26.132  27.939  1.00  0.00    -0.205 F 
ATOM     55  C   UNL A   1      49.116  26.373  24.656  1.00  0.00     0.022 A 
BRANCH  53  56
ATOM     56  S   UNL A   1      50.359  25.475  26.926  1.00  0.00     0.127 S 
ATOM     57  O   UNL A   1      51.332  25.273  25.856  1.00  0.00    -0.237 OA
ATOM     58  O   UNL A   1      50.657  26.588  27.830  1.00  0.00    -0.237 OA
ATOM     59  O   UNL A   1      49.895  24.268  27.595  1.00  0.00    -0.744 OA
ENDBRANCH  53  56
ENDBRANCH  25  49
BRANCH  37  60
ATOM     60  C   UNL A   1      45.162  32.922  29.520  1.00  0.00     0.023 A 
ATOM     61  C   UNL A   1      46.017  32.977  30.637  1.00  0.00     0.012 A 
ATOM     62  C   UNL A   1      45.142  33.994  28.605  1.00  0.00     0.148 A 
ATOM     63  C   UNL A   1      46.840  34.082  30.842  1.00  0.00     0.002 A 
ATOM     64  C   UNL A   1      46.001  35.070  28.790  1.00  0.00     0.091 A 
ATOM     65  F   UNL A   1      44.308  33.923  27.557  1.00  0.00    -0.205 F 
ATOM     66  C   UNL A   1      46.846  35.118  29.912  1.00  0.00     0.022 A 
BRANCH  64  67
ATOM     67  S   UNL A   1      46.160  36.395  27.588  1.00  0.00     0.127 S 
ATOM     68  O   UNL A   1      47.242  37.193  28.166  1.00  0.00    -0.237 OA
ATOM     69  O   UNL A   1      46.521  35.668  26.372  1.00  0.00    -0.237 OA
ATOM     70  O   UNL A   1      44.863  37.055  27.539  1.00  0.00    -0.744 OA
ENDBRANCH  64  67
ENDBRANCH  37  60
ENDBRANCH  11  12
ENDBRANCH   4   6
ENDBRANCH   3   4
ENDBRANCH   2   3
ENDBRANCH   1   2
BRANCH   1  71
ATOM     71  O   UNL A   1      33.689  21.967  26.135  1.00  0.00    -0.374 OA
BRANCH  71  72
ATOM     72  C   UNL A   1      33.514  23.144  26.931  1.00  0.00     0.202 C 
BRANCH  72  73
ATOM     73  C   UNL A   1      32.102  23.660  26.678  1.00  0.00     0.261 C 
BRANCH  73  74
ATOM     74  O   UNL A   1      32.068  25.008  27.174  1.00  0.00    -0.459 OA
BRANCH  74  75
ATOM     75  C   UNL A   1      31.390  25.915  26.415  1.00  0.00     0.345 C 
ATOM     76  O   UNL A   1      30.318  25.746  25.871  1.00  0.00    -0.246 OA
BRANCH  75  77
ATOM     77  C   UNL A   1      32.195  27.152  26.379  1.00  0.00     0.138 A 
ATOM     78  C   UNL A   1      31.721  28.183  27.217  1.00  0.00     0.141 A 
ATOM     79  C   UNL A   1      33.306  27.409  25.562  1.00  0.00     0.144 A 
ATOM     80  F   UNL A   1      30.702  27.972  28.065  1.00  0.00    -0.206 F 
ATOM     81  C   UNL A   1      32.265  29.464  27.205  1.00  0.00     0.040 A 
ATOM     82  C   UNL A   1      33.854  28.717  25.583  1.00  0.00     0.048 A 
ATOM     83  C   UNL A   1      33.334  29.738  26.375  1.00  0.00     0.007 A 
BRANCH  79  84
ATOM     84  O   UNL A   1      33.979  26.688  24.608  1.00  0.00    -0.456 OA
BRANCH  84  85
ATOM     85  C   UNL A   1      33.442  26.092  23.506  1.00  0.00     0.128 A 
ATOM     86  C   UNL A   1      33.308  26.911  22.379  1.00  0.00     0.047 A 
ATOM     87  C   UNL A   1      33.319  24.712  23.373  1.00  0.00     0.067 A 
ATOM     88  C   UNL A   1      32.968  26.369  21.142  1.00  0.00     0.005 A 
ATOM     89  C   UNL A   1      32.952  24.173  22.136  1.00  0.00     0.044 A 
ATOM     90  C   UNL A   1      32.769  24.995  21.023  1.00  0.00     0.021 A 
ATOM     91  Cl  UNL A   1      32.765  22.470  21.969  1.00  0.00    -0.084 Cl
ENDBRANCH  84  85
ENDBRANCH  79  84
ENDBRANCH  75  77
ENDBRANCH  74  75
ENDBRANCH  73  74
ENDBRANCH  72  73
ENDBRANCH  71  72
ENDBRANCH   1  71
TORSDOF 19
ENDMDL
