MODEL 1
REMARK VINA RESULT:     -11.3      0.000      0.000
REMARK SMILES CC1(C)C(CNC(=O)N2C[C@H](O)C[C@@H]2C(=O)OCCOCCOC(=O)c2ccc(-c3c4nc(c(-c5cccc(S(=O)(=O)[O-])c5F)c5ccc([nH]5)c(-c5cccc(S(=O)(=O)[O-])c5F)c5nc(c(-c6cccc(S(=O)(=O)[O-])c6F)c6ccc3[nH]6)C=C5)C=C4)cc2)C1(C)C
REMARK SMILES IDX 20 1 19 2 18 3 17 4 15 5 16 6 14 7 9 8 10 9 11 10 13 11 7 12
REMARK SMILES IDX 6 13 8 15 5 16 4 17 1 18 2 19 3 20 89 21 90 22 91 23 12 24
REMARK SMILES IDX 21 26 22 27 23 28 24 29 25 30 26 31 27 32 88 33 28 34 87 35
REMARK SMILES IDX 29 36 30 37 31 38 81 39 32 40 86 41 80 42 82 43 33 44 85 45
REMARK SMILES IDX 79 46 78 47 34 49 66 50 46 51 65 52 47 53 50 54 64 55 83 56
REMARK SMILES IDX 48 57 49 58 63 60 84 61 51 62 35 63 36 64 44 65 37 66 39 67
REMARK SMILES IDX 45 68 38 69 40 70 41 71 42 72 43 73 67 74 68 75 76 76 69 77
REMARK SMILES IDX 71 78 77 79 70 80 72 81 73 82 74 83 75 84 52 85 53 86 61 87
REMARK SMILES IDX 54 88 56 89 62 90 55 91 57 92 58 93 59 94 60 95
REMARK H PARENT 6 14 12 25 82 48 50 59
REMARK Flexibility Score: inf
ROOT
ATOM      1  O   UNL A   1      32.629  30.606  26.186  1.00  0.00    -0.374 OA
ENDROOT
BRANCH   1   2
ATOM      2  C   UNL A   1      32.820  29.493  27.066  1.00  0.00     0.202 C 
BRANCH   2   3
ATOM      3  C   UNL A   1      33.801  28.442  26.538  1.00  0.00     0.261 C 
BRANCH   3   4
ATOM      4  O   UNL A   1      33.118  27.229  26.166  1.00  0.00    -0.462 OA
BRANCH   4   5
ATOM      5  C   UNL A   1      32.580  27.198  24.916  1.00  0.00     0.329 C 
ATOM      6  O   UNL A   1      33.181  26.858  23.900  1.00  0.00    -0.250 OA
BRANCH   5   7
ATOM      7  C   UNL A   1      31.076  27.507  24.913  1.00  0.00     0.199 C 
ATOM      8  N   UNL A   1      30.178  26.420  24.498  1.00  0.00    -0.308 N 
ATOM      9  C   UNL A   1      29.176  26.942  23.577  1.00  0.00     0.154 C 
ATOM     10  C   UNL A   1      29.938  28.033  22.841  1.00  0.00     0.136 C 
ATOM     11  C   UNL A   1      30.775  28.668  23.948  1.00  0.00     0.071 C 
BRANCH   8  12
ATOM     12  C   UNL A   1      30.066  25.338  25.317  1.00  0.00     0.318 C 
ATOM     13  N   UNL A   1      30.380  24.101  24.889  1.00  0.00    -0.338 N 
ATOM     14  H   UNL A   1      29.959  23.379  25.408  1.00  0.00     0.165 HD
ATOM     15  O   UNL A   1      29.715  25.466  26.491  1.00  0.00    -0.249 OA
BRANCH  13  16
ATOM     16  C   UNL A   1      31.218  23.638  23.808  1.00  0.00     0.122 C 
BRANCH  16  17
ATOM     17  C   UNL A   1      32.059  22.493  24.262  1.00  0.00     0.021 C 
ATOM     18  C   UNL A   1      32.554  19.940  24.201  1.00  0.00     0.012 C 
ATOM     19  C   UNL A   1      32.434  21.255  23.455  1.00  0.00    -0.025 C 
ATOM     20  C   UNL A   1      31.893  21.048  22.059  1.00  0.00     0.012 C 
ATOM     21  C   UNL A   1      33.474  22.361  23.721  1.00  0.00    -0.025 C 
ATOM     22  C   UNL A   1      34.549  22.195  24.757  1.00  0.00     0.012 C 
ATOM     23  C   UNL A   1      33.957  23.243  22.587  1.00  0.00     0.012 C 
ENDBRANCH  16  17
ENDBRANCH  13  16
ENDBRANCH   8  12
BRANCH  10  24
ATOM     24  O   UNL A   1      30.787  27.468  21.843  1.00  0.00    -0.391 OA
ATOM     25  H   UNL A   1      30.365  26.678  21.469  1.00  0.00     0.211 HD
ENDBRANCH  10  24
ENDBRANCH   5   7
ENDBRANCH   4   5
ENDBRANCH   3   4
ENDBRANCH   2   3
ENDBRANCH   1   2
BRANCH   1  26
ATOM     26  C   UNL A   1      31.509  31.436  26.496  1.00  0.00     0.202 C 
BRANCH  26  27
ATOM     27  C   UNL A   1      31.877  32.853  26.943  1.00  0.00     0.261 C 
BRANCH  27  28
ATOM     28  O   UNL A   1      32.641  32.825  28.161  1.00  0.00    -0.460 OA
BRANCH  28  29
ATOM     29  C   UNL A   1      33.691  33.677  28.186  1.00  0.00     0.338 C 
ATOM     30  O   UNL A   1      33.650  34.899  28.136  1.00  0.00    -0.246 OA
BRANCH  29  31
ATOM     31  C   UNL A   1      34.941  32.931  28.425  1.00  0.00     0.060 A 
ATOM     32  C   UNL A   1      34.842  31.686  29.060  1.00  0.00     0.016 A 
ATOM     33  C   UNL A   1      36.191  33.455  28.091  1.00  0.00     0.016 A 
ATOM     34  C   UNL A   1      35.995  30.992  29.427  1.00  0.00     0.010 A 
ATOM     35  C   UNL A   1      37.343  32.751  28.458  1.00  0.00     0.010 A 
ATOM     36  C   UNL A   1      37.258  31.536  29.164  1.00  0.00    -0.014 A 
BRANCH  36  37
ATOM     37  C   UNL A   1      38.472  30.930  29.775  1.00  0.00     0.031 A 
ATOM     38  C   UNL A   1      38.880  31.374  31.157  1.00  0.00     0.074 A 
ATOM     39  C   UNL A   1      39.201  29.993  29.135  1.00  0.00     0.049 A 
ATOM     40  N   UNL A   1      39.870  30.958  31.905  1.00  0.00    -0.248 NA
ATOM     41  C   UNL A   1      38.071  32.438  31.778  1.00  0.00     0.031 C 
ATOM     42  C   UNL A   1      38.937  29.476  27.792  1.00  0.00     0.029 A 
ATOM     43  N   UNL A   1      40.331  29.319  29.530  1.00  0.00    -0.354 N 
ATOM     44  C   UNL A   1      39.807  31.715  33.069  1.00  0.00     0.074 A 
ATOM     45  C   UNL A   1      38.732  32.666  32.900  1.00  0.00     0.031 C 
ATOM     46  C   UNL A   1      39.894  28.592  27.462  1.00  0.00     0.029 A 
ATOM     47  C   UNL A   1      40.828  28.460  28.577  1.00  0.00     0.049 A 
ATOM     48  H   UNL A   1      40.748  29.441  30.413  1.00  0.00     0.167 HD
ATOM     49  C   UNL A   1      40.531  31.598  34.206  1.00  0.00     0.034 A 
ATOM     50  C   UNL A   1      41.901  27.643  28.607  1.00  0.00     0.034 A 
ATOM     51  C   UNL A   1      41.565  30.622  34.401  1.00  0.00     0.049 A 
ATOM     52  C   UNL A   1      42.701  27.530  29.880  1.00  0.00     0.074 A 
ATOM     53  C   UNL A   1      42.315  30.374  35.536  1.00  0.00     0.029 A 
ATOM     54  N   UNL A   1      41.994  29.727  33.433  1.00  0.00    -0.354 N 
ATOM     55  N   UNL A   1      42.523  28.144  31.025  1.00  0.00    -0.248 NA
ATOM     56  C   UNL A   1      43.810  26.564  29.885  1.00  0.00     0.031 C 
ATOM     57  C   UNL A   1      43.207  29.335  35.249  1.00  0.00     0.029 A 
ATOM     58  C   UNL A   1      42.998  28.925  33.942  1.00  0.00     0.049 A 
ATOM     59  H   UNL A   1      41.636  29.672  32.517  1.00  0.00     0.167 HD
ATOM     60  C   UNL A   1      43.451  27.592  31.903  1.00  0.00     0.074 A 
ATOM     61  C   UNL A   1      44.189  26.594  31.156  1.00  0.00     0.031 C 
ATOM     62  C   UNL A   1      43.673  27.885  33.208  1.00  0.00     0.034 A 
BRANCH  49  63
ATOM     63  C   UNL A   1      40.168  32.517  35.342  1.00  0.00     0.023 A 
ATOM     64  C   UNL A   1      40.856  33.741  35.488  1.00  0.00     0.012 A 
ATOM     65  C   UNL A   1      39.166  32.175  36.267  1.00  0.00     0.148 A 
ATOM     66  C   UNL A   1      40.591  34.582  36.567  1.00  0.00     0.002 A 
ATOM     67  C   UNL A   1      38.873  33.041  37.314  1.00  0.00     0.091 A 
ATOM     68  F   UNL A   1      38.541  30.996  36.130  1.00  0.00    -0.205 F 
ATOM     69  C   UNL A   1      39.595  34.236  37.474  1.00  0.00     0.022 A 
BRANCH  67  70
ATOM     70  S   UNL A   1      37.557  32.716  38.492  1.00  0.00     0.127 S 
ATOM     71  O   UNL A   1      37.911  33.616  39.587  1.00  0.00    -0.237 OA
ATOM     72  O   UNL A   1      36.364  33.110  37.741  1.00  0.00    -0.237 OA
ATOM     73  O   UNL A   1      37.637  31.294  38.791  1.00  0.00    -0.744 OA
ENDBRANCH  67  70
ENDBRANCH  49  63
BRANCH  50  74
ATOM     74  C   UNL A   1      42.214  26.770  27.439  1.00  0.00     0.023 A 
ATOM     75  C   UNL A   1      42.827  27.339  26.304  1.00  0.00     0.012 A 
ATOM     76  C   UNL A   1      41.915  25.394  27.440  1.00  0.00     0.148 A 
ATOM     77  C   UNL A   1      43.103  26.563  25.178  1.00  0.00     0.002 A 
ATOM     78  C   UNL A   1      42.233  24.617  26.331  1.00  0.00     0.091 A 
ATOM     79  F   UNL A   1      41.325  24.874  28.525  1.00  0.00    -0.205 F 
ATOM     80  C   UNL A   1      42.812  25.202  25.194  1.00  0.00     0.022 A 
BRANCH  78  81
ATOM     81  S   UNL A   1      41.990  22.837  26.292  1.00  0.00     0.127 S 
ATOM     82  O   UNL A   1      40.533  22.733  26.308  1.00  0.00    -0.237 OA
ATOM     83  O   UNL A   1      42.620  22.475  25.022  1.00  0.00    -0.237 OA
ATOM     84  O   UNL A   1      42.672  22.319  27.470  1.00  0.00    -0.744 OA
ENDBRANCH  78  81
ENDBRANCH  50  74
BRANCH  62  85
ATOM     85  C   UNL A   1      44.712  27.080  33.943  1.00  0.00     0.023 A 
ATOM     86  C   UNL A   1      46.045  27.532  33.998  1.00  0.00     0.012 A 
ATOM     87  C   UNL A   1      44.347  25.916  34.649  1.00  0.00     0.148 A 
ATOM     88  C   UNL A   1      47.005  26.820  34.716  1.00  0.00     0.002 A 
ATOM     89  C   UNL A   1      45.298  25.238  35.403  1.00  0.00     0.091 A 
ATOM     90  F   UNL A   1      43.078  25.489  34.568  1.00  0.00    -0.205 F 
ATOM     91  C   UNL A   1      46.630  25.681  35.428  1.00  0.00     0.022 A 
BRANCH  89  92
ATOM     92  S   UNL A   1      44.873  23.827  36.430  1.00  0.00     0.127 S 
ATOM     93  O   UNL A   1      46.192  23.285  36.752  1.00  0.00    -0.237 OA
ATOM     94  O   UNL A   1      44.180  24.455  37.556  1.00  0.00    -0.237 OA
ATOM     95  O   UNL A   1      44.025  22.978  35.602  1.00  0.00    -0.744 OA
ENDBRANCH  89  92
ENDBRANCH  62  85
ENDBRANCH  36  37
ENDBRANCH  29  31
ENDBRANCH  28  29
ENDBRANCH  27  28
ENDBRANCH  26  27
ENDBRANCH   1  26
TORSDOF 21
ENDMDL
MODEL 2
REMARK VINA RESULT:     -10.9      1.251      1.535
REMARK SMILES CC1(C)C(CNC(=O)N2C[C@H](O)C[C@@H]2C(=O)OCCOCCOC(=O)c2ccc(-c3c4nc(c(-c5cccc(S(=O)(=O)[O-])c5F)c5ccc([nH]5)c(-c5cccc(S(=O)(=O)[O-])c5F)c5nc(c(-c6cccc(S(=O)(=O)[O-])c6F)c6ccc3[nH]6)C=C5)C=C4)cc2)C1(C)C
REMARK SMILES IDX 20 1 19 2 18 3 17 4 15 5 16 6 14 7 9 8 10 9 11 10 13 11 7 12
REMARK SMILES IDX 6 13 8 15 5 16 4 17 1 18 2 19 3 20 89 21 90 22 91 23 12 24
REMARK SMILES IDX 21 26 22 27 23 28 24 29 25 30 26 31 27 32 88 33 28 34 87 35
REMARK SMILES IDX 29 36 30 37 31 38 81 39 32 40 86 41 80 42 82 43 33 44 85 45
REMARK SMILES IDX 79 46 78 47 34 49 66 50 46 51 65 52 47 53 50 54 64 55 83 56
REMARK SMILES IDX 48 57 49 58 63 60 84 61 51 62 35 63 36 64 44 65 37 66 39 67
REMARK SMILES IDX 45 68 38 69 40 70 41 71 42 72 43 73 67 74 68 75 76 76 69 77
REMARK SMILES IDX 71 78 77 79 70 80 72 81 73 82 74 83 75 84 52 85 53 86 61 87
REMARK SMILES IDX 54 88 56 89 62 90 55 91 57 92 58 93 59 94 60 95
REMARK H PARENT 6 14 12 25 82 48 50 59
REMARK Flexibility Score: inf
ROOT
ATOM      1  O   UNL A   1      32.081  29.951  27.289  1.00  0.00    -0.374 OA
ENDROOT
BRANCH   1   2
ATOM      2  C   UNL A   1      33.394  29.381  27.247  1.00  0.00     0.202 C 
BRANCH   2   3
ATOM      3  C   UNL A   1      33.441  27.966  26.664  1.00  0.00     0.261 C 
BRANCH   3   4
ATOM      4  O   UNL A   1      33.696  27.992  25.246  1.00  0.00    -0.462 OA
BRANCH   4   5
ATOM      5  C   UNL A   1      32.875  27.231  24.470  1.00  0.00     0.329 C 
ATOM      6  O   UNL A   1      33.233  26.255  23.816  1.00  0.00    -0.250 OA
BRANCH   5   7
ATOM      7  C   UNL A   1      31.400  27.635  24.599  1.00  0.00     0.199 C 
ATOM      8  N   UNL A   1      30.402  26.583  24.366  1.00  0.00    -0.308 N 
ATOM      9  C   UNL A   1      29.338  27.101  23.515  1.00  0.00     0.154 C 
ATOM     10  C   UNL A   1      30.076  28.085  22.621  1.00  0.00     0.136 C 
ATOM     11  C   UNL A   1      31.063  28.742  23.583  1.00  0.00     0.071 C 
BRANCH   8  12
ATOM     12  C   UNL A   1      30.318  25.572  25.274  1.00  0.00     0.318 C 
ATOM     13  N   UNL A   1      30.454  24.285  24.903  1.00  0.00    -0.338 N 
ATOM     14  H   UNL A   1      30.054  23.643  25.531  1.00  0.00     0.165 HD
ATOM     15  O   UNL A   1      30.157  25.809  26.473  1.00  0.00    -0.249 OA
BRANCH  13  16
ATOM     16  C   UNL A   1      31.079  23.673  23.754  1.00  0.00     0.122 C 
BRANCH  16  17
ATOM     17  C   UNL A   1      32.020  22.601  24.189  1.00  0.00     0.021 C 
ATOM     18  C   UNL A   1      32.652  20.078  24.218  1.00  0.00     0.012 C 
ATOM     19  C   UNL A   1      32.392  21.339  23.418  1.00  0.00    -0.025 C 
ATOM     20  C   UNL A   1      31.741  21.024  22.091  1.00  0.00     0.012 C 
ATOM     21  C   UNL A   1      33.387  22.511  23.527  1.00  0.00    -0.025 C 
ATOM     22  C   UNL A   1      34.557  22.461  24.467  1.00  0.00     0.012 C 
ATOM     23  C   UNL A   1      33.717  23.349  22.308  1.00  0.00     0.012 C 
ENDBRANCH  16  17
ENDBRANCH  13  16
ENDBRANCH   8  12
BRANCH  10  24
ATOM     24  O   UNL A   1      30.780  27.396  21.588  1.00  0.00    -0.391 OA
ATOM     25  H   UNL A   1      30.665  27.869  20.748  1.00  0.00     0.211 HD
ENDBRANCH  10  24
ENDBRANCH   5   7
ENDBRANCH   4   5
ENDBRANCH   3   4
ENDBRANCH   2   3
ENDBRANCH   1   2
BRANCH   1  26
ATOM     26  C   UNL A   1      31.869  31.046  26.398  1.00  0.00     0.202 C 
BRANCH  26  27
ATOM     27  C   UNL A   1      31.637  32.390  27.092  1.00  0.00     0.261 C 
BRANCH  27  28
ATOM     28  O   UNL A   1      32.765  33.263  26.911  1.00  0.00    -0.460 OA
BRANCH  28  29
ATOM     29  C   UNL A   1      33.320  33.712  28.059  1.00  0.00     0.338 C 
ATOM     30  O   UNL A   1      32.845  34.528  28.839  1.00  0.00    -0.246 OA
BRANCH  29  31
ATOM     31  C   UNL A   1      34.565  32.972  28.342  1.00  0.00     0.060 A 
ATOM     32  C   UNL A   1      34.462  31.791  29.086  1.00  0.00     0.016 A 
ATOM     33  C   UNL A   1      35.815  33.446  27.942  1.00  0.00     0.016 A 
ATOM     34  C   UNL A   1      35.612  31.115  29.494  1.00  0.00     0.010 A 
ATOM     35  C   UNL A   1      36.965  32.762  28.350  1.00  0.00     0.010 A 
ATOM     36  C   UNL A   1      36.876  31.615  29.163  1.00  0.00    -0.014 A 
BRANCH  36  37
ATOM     37  C   UNL A   1      38.094  31.048  29.804  1.00  0.00     0.031 A 
ATOM     38  C   UNL A   1      38.440  31.488  31.204  1.00  0.00     0.074 A 
ATOM     39  C   UNL A   1      38.879  30.150  29.175  1.00  0.00     0.049 A 
ATOM     40  N   UNL A   1      39.421  31.100  31.978  1.00  0.00    -0.248 NA
ATOM     41  C   UNL A   1      37.571  32.510  31.813  1.00  0.00     0.031 C 
ATOM     42  C   UNL A   1      38.679  29.643  27.817  1.00  0.00     0.029 A 
ATOM     43  N   UNL A   1      40.022  29.516  29.597  1.00  0.00    -0.354 N 
ATOM     44  C   UNL A   1      39.292  31.837  33.149  1.00  0.00     0.074 A 
ATOM     45  C   UNL A   1      38.186  32.747  32.958  1.00  0.00     0.031 C 
ATOM     46  C   UNL A   1      39.680  28.802  27.507  1.00  0.00     0.029 A 
ATOM     47  C   UNL A   1      40.583  28.690  28.650  1.00  0.00     0.049 A 
ATOM     48  H   UNL A   1      40.405  29.640  30.495  1.00  0.00     0.167 HD
ATOM     49  C   UNL A   1      39.984  31.732  34.307  1.00  0.00     0.034 A 
ATOM     50  C   UNL A   1      41.685  27.915  28.704  1.00  0.00     0.034 A 
ATOM     51  C   UNL A   1      41.049  30.794  34.523  1.00  0.00     0.049 A 
ATOM     52  C   UNL A   1      42.448  27.815  30.000  1.00  0.00     0.074 A 
ATOM     53  C   UNL A   1      41.772  30.560  35.678  1.00  0.00     0.029 A 
ATOM     54  N   UNL A   1      41.543  29.931  33.557  1.00  0.00    -0.354 N 
ATOM     55  N   UNL A   1      42.210  28.405  31.147  1.00  0.00    -0.248 NA
ATOM     56  C   UNL A   1      43.594  26.893  30.027  1.00  0.00     0.031 C 
ATOM     57  C   UNL A   1      42.713  29.561  35.406  1.00  0.00     0.029 A 
ATOM     58  C   UNL A   1      42.562  29.161  34.088  1.00  0.00     0.049 A 
ATOM     59  H   UNL A   1      41.217  29.875  32.630  1.00  0.00     0.167 HD
ATOM     60  C   UNL A   1      43.131  27.877  32.047  1.00  0.00     0.074 A 
ATOM     61  C   UNL A   1      43.931  26.919  31.310  1.00  0.00     0.031 C 
ATOM     62  C   UNL A   1      43.300  28.160  33.362  1.00  0.00     0.034 A 
BRANCH  49  63
ATOM     63  C   UNL A   1      39.549  32.619  35.443  1.00  0.00     0.023 A 
ATOM     64  C   UNL A   1      38.513  32.188  36.299  1.00  0.00     0.012 A 
ATOM     65  C   UNL A   1      40.148  33.873  35.662  1.00  0.00     0.148 A 
ATOM     66  C   UNL A   1      38.040  33.014  37.317  1.00  0.00     0.002 A 
ATOM     67  C   UNL A   1      39.704  34.672  36.710  1.00  0.00     0.091 A 
ATOM     68  F   UNL A   1      41.113  34.279  34.824  1.00  0.00    -0.205 F 
ATOM     69  C   UNL A   1      38.642  34.251  37.528  1.00  0.00     0.022 A 
BRANCH  67  70
ATOM     70  S   UNL A   1      40.466  36.249  37.105  1.00  0.00     0.127 S 
ATOM     71  O   UNL A   1      39.549  36.776  38.114  1.00  0.00    -0.237 OA
ATOM     72  O   UNL A   1      41.773  35.843  37.622  1.00  0.00    -0.237 OA
ATOM     73  O   UNL A   1      40.518  36.988  35.852  1.00  0.00    -0.744 OA
ENDBRANCH  67  70
ENDBRANCH  49  63
BRANCH  50  74
ATOM     74  C   UNL A   1      42.069  27.073  27.534  1.00  0.00     0.023 A 
ATOM     75  C   UNL A   1      42.715  27.677  26.437  1.00  0.00     0.012 A 
ATOM     76  C   UNL A   1      41.805  25.690  27.498  1.00  0.00     0.148 A 
ATOM     77  C   UNL A   1      43.058  26.929  25.310  1.00  0.00     0.002 A 
ATOM     78  C   UNL A   1      42.189  24.942  26.390  1.00  0.00     0.091 A 
ATOM     79  F   UNL A   1      41.182  25.135  28.548  1.00  0.00    -0.205 F 
ATOM     80  C   UNL A   1      42.801  25.562  25.289  1.00  0.00     0.022 A 
BRANCH  78  81
ATOM     81  S   UNL A   1      41.992  23.157  26.309  1.00  0.00     0.127 S 
ATOM     82  O   UNL A   1      40.541  23.012  26.379  1.00  0.00    -0.237 OA
ATOM     83  O   UNL A   1      42.581  22.849  25.005  1.00  0.00    -0.237 OA
ATOM     84  O   UNL A   1      42.735  22.626  27.444  1.00  0.00    -0.744 OA
ENDBRANCH  78  81
ENDBRANCH  50  74
BRANCH  62  85
ATOM     85  C   UNL A   1      44.346  27.385  34.119  1.00  0.00     0.023 A 
ATOM     86  C   UNL A   1      45.611  27.958  34.360  1.00  0.00     0.012 A 
ATOM     87  C   UNL A   1      44.046  26.120  34.663  1.00  0.00     0.148 A 
ATOM     88  C   UNL A   1      46.570  27.269  35.101  1.00  0.00     0.002 A 
ATOM     89  C   UNL A   1      44.989  25.461  35.442  1.00  0.00     0.091 A 
ATOM     90  F   UNL A   1      42.845  25.581  34.406  1.00  0.00    -0.205 F 
ATOM     91  C   UNL A   1      46.256  26.028  35.652  1.00  0.00     0.022 A 
BRANCH  89  92
ATOM     92  S   UNL A   1      44.625  23.910  36.272  1.00  0.00     0.127 S 
ATOM     93  O   UNL A   1      43.208  24.068  36.593  1.00  0.00    -0.237 OA
ATOM     94  O   UNL A   1      44.908  22.921  35.230  1.00  0.00    -0.237 OA
ATOM     95  O   UNL A   1      45.529  23.852  37.414  1.00  0.00    -0.744 OA
ENDBRANCH  89  92
ENDBRANCH  62  85
ENDBRANCH  36  37
ENDBRANCH  29  31
ENDBRANCH  28  29
ENDBRANCH  27  28
ENDBRANCH  26  27
ENDBRANCH   1  26
TORSDOF 21
ENDMDL
MODEL 3
REMARK VINA RESULT:     -10.6      1.434      3.451
REMARK SMILES CC1(C)C(CNC(=O)N2C[C@H](O)C[C@@H]2C(=O)OCCOCCOC(=O)c2ccc(-c3c4nc(c(-c5cccc(S(=O)(=O)[O-])c5F)c5ccc([nH]5)c(-c5cccc(S(=O)(=O)[O-])c5F)c5nc(c(-c6cccc(S(=O)(=O)[O-])c6F)c6ccc3[nH]6)C=C5)C=C4)cc2)C1(C)C
REMARK SMILES IDX 20 1 19 2 18 3 17 4 15 5 16 6 14 7 9 8 10 9 11 10 13 11 7 12
REMARK SMILES IDX 6 13 8 15 5 16 4 17 1 18 2 19 3 20 89 21 90 22 91 23 12 24
REMARK SMILES IDX 21 26 22 27 23 28 24 29 25 30 26 31 27 32 88 33 28 34 87 35
REMARK SMILES IDX 29 36 30 37 31 38 81 39 32 40 86 41 80 42 82 43 33 44 85 45
REMARK SMILES IDX 79 46 78 47 34 49 66 50 46 51 65 52 47 53 50 54 64 55 83 56
REMARK SMILES IDX 48 57 49 58 63 60 84 61 51 62 35 63 36 64 44 65 37 66 39 67
REMARK SMILES IDX 45 68 38 69 40 70 41 71 42 72 43 73 67 74 68 75 76 76 69 77
REMARK SMILES IDX 71 78 77 79 70 80 72 81 73 82 74 83 75 84 52 85 53 86 61 87
REMARK SMILES IDX 54 88 56 89 62 90 55 91 57 92 58 93 59 94 60 95
REMARK H PARENT 6 14 12 25 82 48 50 59
REMARK Flexibility Score: inf
ROOT
ATOM      1  O   UNL A   1      32.273  30.505  26.362  1.00  0.00    -0.374 OA
ENDROOT
BRANCH   1   2
ATOM      2  C   UNL A   1      31.849  29.304  27.017  1.00  0.00     0.202 C 
BRANCH   2   3
ATOM      3  C   UNL A   1      32.715  28.082  26.702  1.00  0.00     0.261 C 
BRANCH   3   4
ATOM      4  O   UNL A   1      31.904  26.928  26.402  1.00  0.00    -0.462 OA
BRANCH   4   5
ATOM      5  C   UNL A   1      31.474  26.810  25.117  1.00  0.00     0.329 C 
ATOM      6  O   UNL A   1      30.304  26.904  24.756  1.00  0.00    -0.250 OA
BRANCH   5   7
ATOM      7  C   UNL A   1      32.631  26.677  24.117  1.00  0.00     0.199 C 
ATOM      8  N   UNL A   1      32.523  27.450  22.872  1.00  0.00    -0.308 N 
ATOM      9  C   UNL A   1      32.893  26.607  21.742  1.00  0.00     0.154 C 
ATOM     10  C   UNL A   1      32.420  25.232  22.184  1.00  0.00     0.136 C 
ATOM     11  C   UNL A   1      32.778  25.211  23.668  1.00  0.00     0.071 C 
BRANCH   8  12
ATOM     12  C   UNL A   1      32.607  28.807  22.956  1.00  0.00     0.318 C 
ATOM     13  N   UNL A   1      31.614  29.597  22.507  1.00  0.00    -0.338 N 
ATOM     14  H   UNL A   1      31.897  30.517  22.302  1.00  0.00     0.165 HD
ATOM     15  O   UNL A   1      33.577  29.350  23.486  1.00  0.00    -0.249 OA
BRANCH  13  16
ATOM     16  C   UNL A   1      30.212  29.345  22.271  1.00  0.00     0.122 C 
BRANCH  16  17
ATOM     17  C   UNL A   1      29.414  30.575  22.546  1.00  0.00     0.021 C 
ATOM     18  C   UNL A   1      28.220  32.698  21.634  1.00  0.00     0.012 C 
ATOM     19  C   UNL A   1      28.336  31.187  21.658  1.00  0.00    -0.025 C 
ATOM     20  C   UNL A   1      28.016  30.588  20.307  1.00  0.00     0.012 C 
ATOM     21  C   UNL A   1      27.953  30.429  22.944  1.00  0.00    -0.025 C 
ATOM     22  C   UNL A   1      27.549  31.159  24.193  1.00  0.00     0.012 C 
ATOM     23  C   UNL A   1      27.256  29.086  22.861  1.00  0.00     0.012 C 
ENDBRANCH  16  17
ENDBRANCH  13  16
ENDBRANCH   8  12
BRANCH  10  24
ATOM     24  O   UNL A   1      31.009  25.106  22.016  1.00  0.00    -0.391 OA
ATOM     25  H   UNL A   1      30.813  24.299  21.514  1.00  0.00     0.211 HD
ENDBRANCH  10  24
ENDBRANCH   5   7
ENDBRANCH   4   5
ENDBRANCH   3   4
ENDBRANCH   2   3
ENDBRANCH   1   2
BRANCH   1  26
ATOM     26  C   UNL A   1      31.375  31.608  26.481  1.00  0.00     0.202 C 
BRANCH  26  27
ATOM     27  C   UNL A   1      32.022  32.897  26.992  1.00  0.00     0.261 C 
BRANCH  27  28
ATOM     28  O   UNL A   1      32.931  32.623  28.072  1.00  0.00    -0.460 OA
BRANCH  28  29
ATOM     29  C   UNL A   1      33.935  33.519  28.205  1.00  0.00     0.338 C 
ATOM     30  O   UNL A   1      33.834  34.738  28.257  1.00  0.00    -0.246 OA
BRANCH  29  31
ATOM     31  C   UNL A   1      35.214  32.816  28.421  1.00  0.00     0.060 A 
ATOM     32  C   UNL A   1      35.158  31.461  28.770  1.00  0.00     0.016 A 
ATOM     33  C   UNL A   1      36.443  33.473  28.343  1.00  0.00     0.016 A 
ATOM     34  C   UNL A   1      36.323  30.775  29.111  1.00  0.00     0.010 A 
ATOM     35  C   UNL A   1      37.609  32.779  28.682  1.00  0.00     0.010 A 
ATOM     36  C   UNL A   1      37.556  31.437  29.108  1.00  0.00    -0.014 A 
BRANCH  36  37
ATOM     37  C   UNL A   1      38.753  30.789  29.711  1.00  0.00     0.031 A 
ATOM     38  C   UNL A   1      39.210  31.248  31.072  1.00  0.00     0.074 A 
ATOM     39  C   UNL A   1      39.422  29.802  29.081  1.00  0.00     0.049 A 
ATOM     40  N   UNL A   1      40.193  30.803  31.812  1.00  0.00    -0.248 NA
ATOM     41  C   UNL A   1      38.466  32.365  31.681  1.00  0.00     0.031 C 
ATOM     42  C   UNL A   1      39.107  29.265  27.757  1.00  0.00     0.029 A 
ATOM     43  N   UNL A   1      40.528  29.085  29.472  1.00  0.00    -0.354 N 
ATOM     44  C   UNL A   1      40.191  31.592  32.956  1.00  0.00     0.074 A 
ATOM     45  C   UNL A   1      39.159  32.588  32.783  1.00  0.00     0.031 C 
ATOM     46  C   UNL A   1      40.014  28.328  27.433  1.00  0.00     0.029 A 
ATOM     47  C   UNL A   1      40.963  28.179  28.533  1.00  0.00     0.049 A 
ATOM     48  H   UNL A   1      40.967  29.208  30.344  1.00  0.00     0.167 HD
ATOM     49  C   UNL A   1      40.932  31.469  34.082  1.00  0.00     0.034 A 
ATOM     50  C   UNL A   1      41.996  27.312  28.564  1.00  0.00     0.034 A 
ATOM     51  C   UNL A   1      41.922  30.449  34.283  1.00  0.00     0.049 A 
ATOM     52  C   UNL A   1      42.816  27.193  29.824  1.00  0.00     0.074 A 
ATOM     53  C   UNL A   1      42.682  30.194  35.409  1.00  0.00     0.029 A 
ATOM     54  N   UNL A   1      42.288  29.511  33.330  1.00  0.00    -0.354 N 
ATOM     55  N   UNL A   1      42.691  27.843  30.955  1.00  0.00    -0.248 NA
ATOM     56  C   UNL A   1      43.877  26.175  29.832  1.00  0.00     0.031 C 
ATOM     57  C   UNL A   1      43.517  29.107  35.133  1.00  0.00     0.029 A 
ATOM     58  C   UNL A   1      43.263  28.674  33.841  1.00  0.00     0.049 A 
ATOM     59  H   UNL A   1      41.908  29.449  32.424  1.00  0.00     0.167 HD
ATOM     60  C   UNL A   1      43.609  27.269  31.829  1.00  0.00     0.074 A 
ATOM     61  C   UNL A   1      44.283  26.218  31.094  1.00  0.00     0.031 C 
ATOM     62  C   UNL A   1      43.872  27.585  33.122  1.00  0.00     0.034 A 
BRANCH  49  63
ATOM     63  C   UNL A   1      40.637  32.432  35.200  1.00  0.00     0.023 A 
ATOM     64  C   UNL A   1      41.482  33.546  35.395  1.00  0.00     0.012 A 
ATOM     65  C   UNL A   1      39.542  32.239  36.062  1.00  0.00     0.148 A 
ATOM     66  C   UNL A   1      41.276  34.419  36.462  1.00  0.00     0.002 A 
ATOM     67  C   UNL A   1      39.314  33.141  37.095  1.00  0.00     0.091 A 
ATOM     68  F   UNL A   1      38.764  31.162  35.880  1.00  0.00    -0.205 F 
ATOM     69  C   UNL A   1      40.188  34.220  37.306  1.00  0.00     0.022 A 
BRANCH  67  70
ATOM     70  S   UNL A   1      37.897  33.010  38.190  1.00  0.00     0.127 S 
ATOM     71  O   UNL A   1      36.791  33.295  37.278  1.00  0.00    -0.237 OA
ATOM     72  O   UNL A   1      37.976  31.618  38.636  1.00  0.00    -0.237 OA
ATOM     73  O   UNL A   1      38.118  33.992  39.242  1.00  0.00    -0.744 OA
ENDBRANCH  67  70
ENDBRANCH  49  63
BRANCH  50  74
ATOM     74  C   UNL A   1      42.243  26.396  27.412  1.00  0.00     0.023 A 
ATOM     75  C   UNL A   1      42.855  26.907  26.250  1.00  0.00     0.012 A 
ATOM     76  C   UNL A   1      41.883  25.036  27.458  1.00  0.00     0.148 A 
ATOM     77  C   UNL A   1      43.070  26.090  25.139  1.00  0.00     0.002 A 
ATOM     78  C   UNL A   1      42.141  24.216  26.363  1.00  0.00     0.091 A 
ATOM     79  F   UNL A   1      41.295  24.570  28.569  1.00  0.00    -0.205 F 
ATOM     80  C   UNL A   1      42.719  24.744  25.198  1.00  0.00     0.022 A 
BRANCH  78  81
ATOM     81  S   UNL A   1      41.817  22.449  26.377  1.00  0.00     0.127 S 
ATOM     82  O   UNL A   1      42.677  21.978  25.294  1.00  0.00    -0.237 OA
ATOM     83  O   UNL A   1      42.257  22.073  27.721  1.00  0.00    -0.237 OA
ATOM     84  O   UNL A   1      40.385  22.307  26.153  1.00  0.00    -0.744 OA
ENDBRANCH  78  81
ENDBRANCH  50  74
BRANCH  62  85
ATOM     85  C   UNL A   1      44.886  26.749  33.858  1.00  0.00     0.023 A 
ATOM     86  C   UNL A   1      46.237  27.149  33.893  1.00  0.00     0.012 A 
ATOM     87  C   UNL A   1      44.483  25.610  34.583  1.00  0.00     0.148 A 
ATOM     88  C   UNL A   1      47.175  26.409  34.610  1.00  0.00     0.002 A 
ATOM     89  C   UNL A   1      45.415  24.906  35.336  1.00  0.00     0.091 A 
ATOM     90  F   UNL A   1      43.198  25.232  34.521  1.00  0.00    -0.205 F 
ATOM     91  C   UNL A   1      46.763  25.296  35.342  1.00  0.00     0.022 A 
BRANCH  89  92
ATOM     92  S   UNL A   1      44.945  23.526  36.388  1.00  0.00     0.127 S 
ATOM     93  O   UNL A   1      44.088  24.181  37.374  1.00  0.00    -0.237 OA
ATOM     94  O   UNL A   1      44.239  22.646  35.455  1.00  0.00    -0.237 OA
ATOM     95  O   UNL A   1      46.194  22.978  36.901  1.00  0.00    -0.744 OA
ENDBRANCH  89  92
ENDBRANCH  62  85
ENDBRANCH  36  37
ENDBRANCH  29  31
ENDBRANCH  28  29
ENDBRANCH  27  28
ENDBRANCH  26  27
ENDBRANCH   1  26
TORSDOF 21
ENDMDL
