MODEL 1
REMARK VINA RESULT:     -10.4      0.000      0.000
REMARK SMILES Cc1nn(-c2cccc(C(=O)OCCOCCOC(=O)c3ccc(-c4c5nc(c(-c6cccc(S(=O)(=O)[O-])c6F)c6ccc([nH]6)c(-c6cccc(S(=O)(=O)[O-])c6F)c6nc(c(-c7cccc(S(=O)(=O)[O-])c7F)c7ccc4[nH]7)C=C6)C=C5)cc3)c2)c(C)c1Cl
REMARK SMILES IDX 16 1 15 2 14 3 13 4 12 5 10 6 11 7 9 8 5 9 6 10 84 11 7 12
REMARK SMILES IDX 8 13 4 14 1 15 2 16 3 17 87 18 85 19 88 20 86 21 17 22 18 23
REMARK SMILES IDX 19 24 20 25 21 26 22 27 83 28 23 29 82 30 24 31 25 32 26 33
REMARK SMILES IDX 76 34 27 35 81 36 75 37 77 38 28 39 80 40 74 41 73 42 29 44
REMARK SMILES IDX 61 45 41 46 60 47 42 48 45 49 59 50 78 51 43 52 44 53 58 55
REMARK SMILES IDX 79 56 46 57 30 58 31 59 39 60 32 61 34 62 40 63 33 64 35 65
REMARK SMILES IDX 36 66 37 67 38 68 62 69 63 70 71 71 64 72 66 73 72 74 65 75
REMARK SMILES IDX 67 76 68 77 69 78 70 79 47 80 48 81 56 82 49 83 51 84 57 85
REMARK SMILES IDX 50 86 52 87 53 88 54 89 55 90
REMARK H PARENT 77 43 45 54
REMARK Flexibility Score: inf
ROOT
ATOM      1  C   UNL A   1      33.810  34.644  29.281  1.00  0.00     0.202 C 
ENDROOT
BRANCH   1   2
ATOM      2  O   UNL A   1      32.932  35.746  29.483  1.00  0.00    -0.374 OA
BRANCH   2   3
ATOM      3  C   UNL A   1      32.950  36.430  30.736  1.00  0.00     0.202 C 
BRANCH   3   4
ATOM      4  C   UNL A   1      32.129  35.829  31.880  1.00  0.00     0.261 C 
BRANCH   4   5
ATOM      5  O   UNL A   1      32.904  34.933  32.695  1.00  0.00    -0.460 OA
BRANCH   5   6
ATOM      6  C   UNL A   1      34.131  35.387  33.055  1.00  0.00     0.338 C 
ATOM      7  O   UNL A   1      34.399  36.460  33.565  1.00  0.00    -0.246 OA
BRANCH   6   8
ATOM      8  C   UNL A   1      35.129  34.307  32.890  1.00  0.00     0.062 A 
ATOM      9  C   UNL A   1      37.355  33.417  33.184  1.00  0.00     0.066 A 
ATOM     10  C   UNL A   1      36.950  32.211  32.592  1.00  0.00     0.028 A 
ATOM     11  C   UNL A   1      36.458  34.488  33.271  1.00  0.00     0.044 A 
ATOM     12  C   UNL A   1      35.621  32.042  32.196  1.00  0.00     0.003 A 
ATOM     13  C   UNL A   1      34.704  33.078  32.372  1.00  0.00     0.016 A 
BRANCH   9  14
ATOM     14  N   UNL A   1      38.660  33.521  33.738  1.00  0.00    -0.236 N 
ATOM     15  C   UNL A   1      41.883  35.016  33.624  1.00  0.00     0.070 C 
ATOM     16  C   UNL A   1      40.660  34.236  33.938  1.00  0.00     0.079 A 
ATOM     17  N   UNL A   1      39.630  34.205  33.082  1.00  0.00    -0.171 NA
ATOM     18  C   UNL A   1      40.420  33.414  35.057  1.00  0.00     0.085 A 
ATOM     19  C   UNL A   1      39.153  32.903  34.881  1.00  0.00     0.060 A 
ATOM     20  Cl  UNL A   1      41.517  33.062  36.303  1.00  0.00    -0.080 Cl
ATOM     21  C   UNL A   1      38.448  31.839  35.640  1.00  0.00     0.068 C 
ENDBRANCH   9  14
ENDBRANCH   6   8
ENDBRANCH   5   6
ENDBRANCH   4   5
ENDBRANCH   3   4
ENDBRANCH   2   3
ENDBRANCH   1   2
BRANCH   1  22
ATOM     22  C   UNL A   1      33.695  33.850  27.989  1.00  0.00     0.261 C 
BRANCH  22  23
ATOM     23  O   UNL A   1      34.866  33.110  27.685  1.00  0.00    -0.460 OA
BRANCH  23  24
ATOM     24  C   UNL A   1      34.696  31.772  27.807  1.00  0.00     0.338 C 
ATOM     25  O   UNL A   1      33.732  31.117  27.452  1.00  0.00    -0.246 OA
BRANCH  24  26
ATOM     26  C   UNL A   1      35.810  31.225  28.585  1.00  0.00     0.060 A 
ATOM     27  C   UNL A   1      36.912  32.064  28.776  1.00  0.00     0.016 A 
ATOM     28  C   UNL A   1      35.856  29.853  28.875  1.00  0.00     0.016 A 
ATOM     29  C   UNL A   1      38.120  31.491  29.098  1.00  0.00     0.010 A 
ATOM     30  C   UNL A   1      37.066  29.281  29.179  1.00  0.00     0.010 A 
ATOM     31  C   UNL A   1      38.192  30.100  29.219  1.00  0.00    -0.014 A 
BRANCH  31  32
ATOM     32  C   UNL A   1      39.484  29.514  29.482  1.00  0.00     0.031 A 
ATOM     33  C   UNL A   1      39.906  29.662  30.891  1.00  0.00     0.074 A 
ATOM     34  C   UNL A   1      40.156  28.817  28.548  1.00  0.00     0.049 A 
ATOM     35  N   UNL A   1      40.863  30.396  31.354  1.00  0.00    -0.248 NA
ATOM     36  C   UNL A   1      39.041  29.074  31.925  1.00  0.00     0.031 C 
ATOM     37  C   UNL A   1      39.666  28.364  27.243  1.00  0.00     0.029 A 
ATOM     38  N   UNL A   1      41.380  28.235  28.639  1.00  0.00    -0.354 N 
ATOM     39  C   UNL A   1      40.868  30.155  32.723  1.00  0.00     0.074 A 
ATOM     40  C   UNL A   1      39.607  29.542  33.036  1.00  0.00     0.031 C 
ATOM     41  C   UNL A   1      40.474  27.380  26.789  1.00  0.00     0.029 A 
ATOM     42  C   UNL A   1      41.591  27.229  27.705  1.00  0.00     0.049 A 
ATOM     43  H   UNL A   1      42.055  28.501  29.305  1.00  0.00     0.167 HD
ATOM     44  C   UNL A   1      42.023  30.204  33.438  1.00  0.00     0.034 A 
ATOM     45  C   UNL A   1      42.561  26.282  27.757  1.00  0.00     0.034 A 
ATOM     46  C   UNL A   1      43.060  30.897  32.718  1.00  0.00     0.049 A 
ATOM     47  C   UNL A   1      43.604  26.767  28.692  1.00  0.00     0.074 A 
ATOM     48  C   UNL A   1      43.201  32.161  32.181  1.00  0.00     0.029 A 
ATOM     49  N   UNL A   1      44.026  30.120  32.127  1.00  0.00    -0.354 N 
ATOM     50  N   UNL A   1      44.373  27.792  28.450  1.00  0.00    -0.248 NA
ATOM     51  C   UNL A   1      43.508  26.373  30.089  1.00  0.00     0.031 C 
ATOM     52  C   UNL A   1      43.937  31.970  30.976  1.00  0.00     0.029 A 
ATOM     53  C   UNL A   1      44.252  30.614  30.871  1.00  0.00     0.049 A 
ATOM     54  H   UNL A   1      44.476  29.345  32.535  1.00  0.00     0.167 HD
ATOM     55  C   UNL A   1      44.480  28.439  29.674  1.00  0.00     0.074 A 
ATOM     56  C   UNL A   1      44.031  27.460  30.662  1.00  0.00     0.031 C 
ATOM     57  C   UNL A   1      44.634  29.794  29.741  1.00  0.00     0.034 A 
BRANCH  44  58
ATOM     58  C   UNL A   1      42.344  29.294  34.602  1.00  0.00     0.023 A 
ATOM     59  C   UNL A   1      42.985  29.878  35.715  1.00  0.00     0.012 A 
ATOM     60  C   UNL A   1      42.307  27.880  34.555  1.00  0.00     0.148 A 
ATOM     61  C   UNL A   1      43.607  29.098  36.696  1.00  0.00     0.002 A 
ATOM     62  C   UNL A   1      42.846  27.110  35.577  1.00  0.00     0.091 A 
ATOM     63  F   UNL A   1      41.877  27.251  33.459  1.00  0.00    -0.205 F 
ATOM     64  C   UNL A   1      43.530  27.713  36.632  1.00  0.00     0.022 A 
BRANCH  62  65
ATOM     65  S   UNL A   1      42.719  25.317  35.568  1.00  0.00     0.127 S 
ATOM     66  O   UNL A   1      43.489  24.974  34.377  1.00  0.00    -0.237 OA
ATOM     67  O   UNL A   1      43.353  24.968  36.840  1.00  0.00    -0.237 OA
ATOM     68  O   UNL A   1      41.292  25.025  35.516  1.00  0.00    -0.744 OA
ENDBRANCH  62  65
ENDBRANCH  44  58
BRANCH  45  69
ATOM     69  C   UNL A   1      42.534  24.877  27.288  1.00  0.00     0.023 A 
ATOM     70  C   UNL A   1      41.312  24.175  27.279  1.00  0.00     0.012 A 
ATOM     71  C   UNL A   1      43.628  24.318  26.593  1.00  0.00     0.148 A 
ATOM     72  C   UNL A   1      41.174  22.975  26.570  1.00  0.00     0.002 A 
ATOM     73  C   UNL A   1      43.490  23.120  25.898  1.00  0.00     0.091 A 
ATOM     74  F   UNL A   1      44.775  25.005  26.530  1.00  0.00    -0.205 F 
ATOM     75  C   UNL A   1      42.260  22.451  25.873  1.00  0.00     0.022 A 
BRANCH  73  76
ATOM     76  S   UNL A   1      44.841  22.399  24.954  1.00  0.00     0.127 S 
ATOM     77  O   UNL A   1      45.893  22.294  25.965  1.00  0.00    -0.237 OA
ATOM     78  O   UNL A   1      44.268  21.125  24.531  1.00  0.00    -0.237 OA
ATOM     79  O   UNL A   1      45.131  23.349  23.887  1.00  0.00    -0.744 OA
ENDBRANCH  73  76
ENDBRANCH  45  69
BRANCH  57  80
ATOM     80  C   UNL A   1      44.976  30.534  28.472  1.00  0.00     0.023 A 
ATOM     81  C   UNL A   1      43.993  30.959  27.553  1.00  0.00     0.012 A 
ATOM     82  C   UNL A   1      46.301  30.964  28.295  1.00  0.00     0.148 A 
ATOM     83  C   UNL A   1      44.331  31.776  26.472  1.00  0.00     0.002 A 
ATOM     84  C   UNL A   1      46.624  31.817  27.250  1.00  0.00     0.091 A 
ATOM     85  F   UNL A   1      47.223  30.552  29.179  1.00  0.00    -0.205 F 
ATOM     86  C   UNL A   1      45.644  32.218  26.328  1.00  0.00     0.022 A 
BRANCH  84  87
ATOM     87  S   UNL A   1      48.266  32.526  27.096  1.00  0.00     0.127 S 
ATOM     88  O   UNL A   1      49.088  31.343  26.849  1.00  0.00    -0.237 OA
ATOM     89  O   UNL A   1      48.118  33.419  25.945  1.00  0.00    -0.237 OA
ATOM     90  O   UNL A   1      48.521  33.218  28.353  1.00  0.00    -0.744 OA
ENDBRANCH  84  87
ENDBRANCH  57  80
ENDBRANCH  31  32
ENDBRANCH  24  26
ENDBRANCH  23  24
ENDBRANCH  22  23
ENDBRANCH   1  22
TORSDOF 18
ENDMDL
MODEL 2
REMARK VINA RESULT:     -10.1      2.066      2.853
REMARK SMILES Cc1nn(-c2cccc(C(=O)OCCOCCOC(=O)c3ccc(-c4c5nc(c(-c6cccc(S(=O)(=O)[O-])c6F)c6ccc([nH]6)c(-c6cccc(S(=O)(=O)[O-])c6F)c6nc(c(-c7cccc(S(=O)(=O)[O-])c7F)c7ccc4[nH]7)C=C6)C=C5)cc3)c2)c(C)c1Cl
REMARK SMILES IDX 16 1 15 2 14 3 13 4 12 5 10 6 11 7 9 8 5 9 6 10 84 11 7 12
REMARK SMILES IDX 8 13 4 14 1 15 2 16 3 17 87 18 85 19 88 20 86 21 17 22 18 23
REMARK SMILES IDX 19 24 20 25 21 26 22 27 83 28 23 29 82 30 24 31 25 32 26 33
REMARK SMILES IDX 76 34 27 35 81 36 75 37 77 38 28 39 80 40 74 41 73 42 29 44
REMARK SMILES IDX 61 45 41 46 60 47 42 48 45 49 59 50 78 51 43 52 44 53 58 55
REMARK SMILES IDX 79 56 46 57 30 58 31 59 39 60 32 61 34 62 40 63 33 64 35 65
REMARK SMILES IDX 36 66 37 67 38 68 62 69 63 70 71 71 64 72 66 73 72 74 65 75
REMARK SMILES IDX 67 76 68 77 69 78 70 79 47 80 48 81 56 82 49 83 51 84 57 85
REMARK SMILES IDX 50 86 52 87 53 88 54 89 55 90
REMARK H PARENT 77 43 45 54
REMARK Flexibility Score: inf
ROOT
ATOM      1  C   UNL A   1      34.028  34.833  29.229  1.00  0.00     0.202 C 
ENDROOT
BRANCH   1   2
ATOM      2  O   UNL A   1      33.671  33.984  30.314  1.00  0.00    -0.374 OA
BRANCH   2   3
ATOM      3  C   UNL A   1      34.462  34.004  31.503  1.00  0.00     0.202 C 
BRANCH   3   4
ATOM      4  C   UNL A   1      34.879  32.655  32.094  1.00  0.00     0.261 C 
BRANCH   4   5
ATOM      5  O   UNL A   1      36.302  32.455  32.047  1.00  0.00    -0.460 OA
BRANCH   5   6
ATOM      6  C   UNL A   1      36.735  31.247  32.487  1.00  0.00     0.338 C 
ATOM      7  O   UNL A   1      36.268  30.154  32.221  1.00  0.00    -0.246 OA
BRANCH   6   8
ATOM      8  C   UNL A   1      38.000  31.416  33.237  1.00  0.00     0.062 A 
ATOM      9  C   UNL A   1      40.161  32.451  33.540  1.00  0.00     0.066 A 
ATOM     10  C   UNL A   1      40.344  31.722  34.724  1.00  0.00     0.028 A 
ATOM     11  C   UNL A   1      39.016  32.246  32.762  1.00  0.00     0.044 A 
ATOM     12  C   UNL A   1      39.330  30.879  35.185  1.00  0.00     0.003 A 
ATOM     13  C   UNL A   1      38.147  30.748  34.458  1.00  0.00     0.016 A 
BRANCH   9  14
ATOM     14  N   UNL A   1      41.120  33.433  33.167  1.00  0.00    -0.236 N 
ATOM     15  C   UNL A   1      43.486  34.596  30.783  1.00  0.00     0.070 C 
ATOM     16  C   UNL A   1      42.583  34.386  31.942  1.00  0.00     0.079 A 
ATOM     17  N   UNL A   1      41.932  33.226  32.101  1.00  0.00    -0.171 NA
ATOM     18  C   UNL A   1      42.332  35.264  33.015  1.00  0.00     0.085 A 
ATOM     19  C   UNL A   1      41.440  34.609  33.834  1.00  0.00     0.060 A 
ATOM     20  Cl  UNL A   1      43.065  36.773  33.275  1.00  0.00    -0.080 Cl
ATOM     21  C   UNL A   1      40.967  34.966  35.196  1.00  0.00     0.068 C 
ENDBRANCH   9  14
ENDBRANCH   6   8
ENDBRANCH   5   6
ENDBRANCH   4   5
ENDBRANCH   3   4
ENDBRANCH   2   3
ENDBRANCH   1   2
BRANCH   1  22
ATOM     22  C   UNL A   1      34.762  34.227  28.043  1.00  0.00     0.261 C 
BRANCH  22  23
ATOM     23  O   UNL A   1      35.880  33.441  28.421  1.00  0.00    -0.460 OA
BRANCH  23  24
ATOM     24  C   UNL A   1      35.789  32.153  28.013  1.00  0.00     0.338 C 
ATOM     25  O   UNL A   1      34.945  31.673  27.277  1.00  0.00    -0.246 OA
BRANCH  24  26
ATOM     26  C   UNL A   1      36.797  31.362  28.721  1.00  0.00     0.060 A 
ATOM     27  C   UNL A   1      37.943  32.042  29.143  1.00  0.00     0.016 A 
ATOM     28  C   UNL A   1      36.715  29.962  28.721  1.00  0.00     0.016 A 
ATOM     29  C   UNL A   1      39.076  31.308  29.407  1.00  0.00     0.010 A 
ATOM     30  C   UNL A   1      37.852  29.232  28.967  1.00  0.00     0.010 A 
ATOM     31  C   UNL A   1      39.031  29.920  29.239  1.00  0.00    -0.014 A 
BRANCH  31  32
ATOM     32  C   UNL A   1      40.252  29.179  29.446  1.00  0.00     0.031 A 
ATOM     33  C   UNL A   1      40.496  28.861  30.869  1.00  0.00     0.074 A 
ATOM     34  C   UNL A   1      41.006  28.743  28.421  1.00  0.00     0.049 A 
ATOM     35  N   UNL A   1      41.418  29.340  31.636  1.00  0.00    -0.248 NA
ATOM     36  C   UNL A   1      39.480  28.062  31.571  1.00  0.00     0.031 C 
ATOM     37  C   UNL A   1      40.666  28.745  26.995  1.00  0.00     0.029 A 
ATOM     38  N   UNL A   1      42.181  28.062  28.460  1.00  0.00    -0.354 N 
ATOM     39  C   UNL A   1      41.237  28.698  32.857  1.00  0.00     0.074 A 
ATOM     40  C   UNL A   1      39.920  28.125  32.827  1.00  0.00     0.031 C 
ATOM     41  C   UNL A   1      41.481  27.880  26.350  1.00  0.00     0.029 A 
ATOM     42  C   UNL A   1      42.464  27.370  27.289  1.00  0.00     0.049 A 
ATOM     43  H   UNL A   1      42.776  28.059  29.244  1.00  0.00     0.167 HD
ATOM     44  C   UNL A   1      42.293  28.435  33.672  1.00  0.00     0.034 A 
ATOM     45  C   UNL A   1      43.376  26.375  27.151  1.00  0.00     0.034 A 
ATOM     46  C   UNL A   1      43.443  29.226  33.317  1.00  0.00     0.049 A 
ATOM     47  C   UNL A   1      44.311  26.469  28.297  1.00  0.00     0.074 A 
ATOM     48  C   UNL A   1      43.709  30.577  33.215  1.00  0.00     0.029 A 
ATOM     49  N   UNL A   1      44.441  28.586  32.624  1.00  0.00    -0.354 N 
ATOM     50  N   UNL A   1      45.150  27.452  28.467  1.00  0.00    -0.248 NA
ATOM     51  C   UNL A   1      44.020  25.682  29.485  1.00  0.00     0.031 C 
ATOM     52  C   UNL A   1      44.583  30.698  32.097  1.00  0.00     0.029 A 
ATOM     53  C   UNL A   1      44.847  29.414  31.613  1.00  0.00     0.049 A 
ATOM     54  H   UNL A   1      44.800  27.690  32.818  1.00  0.00     0.167 HD
ATOM     55  C   UNL A   1      45.128  27.690  29.836  1.00  0.00     0.074 A 
ATOM     56  C   UNL A   1      44.513  26.499  30.419  1.00  0.00     0.031 C 
ATOM     57  C   UNL A   1      45.334  28.945  30.333  1.00  0.00     0.034 A 
BRANCH  44  58
ATOM     58  C   UNL A   1      42.420  27.194  34.525  1.00  0.00     0.023 A 
ATOM     59  C   UNL A   1      42.007  27.297  35.871  1.00  0.00     0.012 A 
ATOM     60  C   UNL A   1      43.163  26.043  34.170  1.00  0.00     0.148 A 
ATOM     61  C   UNL A   1      42.366  26.335  36.823  1.00  0.00     0.002 A 
ATOM     62  C   UNL A   1      43.438  25.047  35.098  1.00  0.00     0.091 A 
ATOM     63  F   UNL A   1      43.737  25.953  32.968  1.00  0.00    -0.205 F 
ATOM     64  C   UNL A   1      43.073  25.205  36.435  1.00  0.00     0.022 A 
BRANCH  62  65
ATOM     65  S   UNL A   1      44.300  23.540  34.631  1.00  0.00     0.127 S 
ATOM     66  O   UNL A   1      44.349  22.825  35.902  1.00  0.00    -0.237 OA
ATOM     67  O   UNL A   1      43.390  22.975  33.634  1.00  0.00    -0.237 OA
ATOM     68  O   UNL A   1      45.581  23.974  34.088  1.00  0.00    -0.744 OA
ENDBRANCH  62  65
ENDBRANCH  44  58
BRANCH  45  69
ATOM     69  C   UNL A   1      43.345  25.183  26.271  1.00  0.00     0.023 A 
ATOM     70  C   UNL A   1      44.317  25.045  25.260  1.00  0.00     0.012 A 
ATOM     71  C   UNL A   1      42.557  24.057  26.595  1.00  0.00     0.148 A 
ATOM     72  C   UNL A   1      44.521  23.818  24.617  1.00  0.00     0.002 A 
ATOM     73  C   UNL A   1      42.756  22.842  25.947  1.00  0.00     0.091 A 
ATOM     74  F   UNL A   1      41.679  24.149  27.602  1.00  0.00    -0.205 F 
ATOM     75  C   UNL A   1      43.746  22.714  24.966  1.00  0.00     0.022 A 
BRANCH  73  76
ATOM     76  S   UNL A   1      41.811  21.369  26.364  1.00  0.00     0.127 S 
ATOM     77  O   UNL A   1      42.345  20.389  25.418  1.00  0.00    -0.237 OA
ATOM     78  O   UNL A   1      42.192  21.149  27.756  1.00  0.00    -0.237 OA
ATOM     79  O   UNL A   1      40.413  21.716  26.137  1.00  0.00    -0.744 OA
ENDBRANCH  73  76
ENDBRANCH  45  69
BRANCH  57  80
ATOM     80  C   UNL A   1      45.868  30.001  29.400  1.00  0.00     0.023 A 
ATOM     81  C   UNL A   1      47.249  30.208  29.198  1.00  0.00     0.012 A 
ATOM     82  C   UNL A   1      44.953  30.677  28.575  1.00  0.00     0.148 A 
ATOM     83  C   UNL A   1      47.704  31.085  28.211  1.00  0.00     0.002 A 
ATOM     84  C   UNL A   1      45.409  31.508  27.562  1.00  0.00     0.091 A 
ATOM     85  F   UNL A   1      43.643  30.469  28.779  1.00  0.00    -0.205 F 
ATOM     86  C   UNL A   1      46.785  31.724  27.382  1.00  0.00     0.022 A 
BRANCH  84  87
ATOM     87  S   UNL A   1      44.279  32.248  26.381  1.00  0.00     0.127 S 
ATOM     88  O   UNL A   1      45.177  32.624  25.292  1.00  0.00    -0.237 OA
ATOM     89  O   UNL A   1      43.374  31.139  26.072  1.00  0.00    -0.237 OA
ATOM     90  O   UNL A   1      43.640  33.357  27.081  1.00  0.00    -0.744 OA
ENDBRANCH  84  87
ENDBRANCH  57  80
ENDBRANCH  31  32
ENDBRANCH  24  26
ENDBRANCH  23  24
ENDBRANCH  22  23
ENDBRANCH   1  22
TORSDOF 18
ENDMDL
MODEL 3
REMARK VINA RESULT:      -9.9      4.182      6.899
REMARK SMILES Cc1nn(-c2cccc(C(=O)OCCOCCOC(=O)c3ccc(-c4c5nc(c(-c6cccc(S(=O)(=O)[O-])c6F)c6ccc([nH]6)c(-c6cccc(S(=O)(=O)[O-])c6F)c6nc(c(-c7cccc(S(=O)(=O)[O-])c7F)c7ccc4[nH]7)C=C6)C=C5)cc3)c2)c(C)c1Cl
REMARK SMILES IDX 16 1 15 2 14 3 13 4 12 5 10 6 11 7 9 8 5 9 6 10 84 11 7 12
REMARK SMILES IDX 8 13 4 14 1 15 2 16 3 17 87 18 85 19 88 20 86 21 17 22 18 23
REMARK SMILES IDX 19 24 20 25 21 26 22 27 83 28 23 29 82 30 24 31 25 32 26 33
REMARK SMILES IDX 76 34 27 35 81 36 75 37 77 38 28 39 80 40 74 41 73 42 29 44
REMARK SMILES IDX 61 45 41 46 60 47 42 48 45 49 59 50 78 51 43 52 44 53 58 55
REMARK SMILES IDX 79 56 46 57 30 58 31 59 39 60 32 61 34 62 40 63 33 64 35 65
REMARK SMILES IDX 36 66 37 67 38 68 62 69 63 70 71 71 64 72 66 73 72 74 65 75
REMARK SMILES IDX 67 76 68 77 69 78 70 79 47 80 48 81 56 82 49 83 51 84 57 85
REMARK SMILES IDX 50 86 52 87 53 88 54 89 55 90
REMARK H PARENT 77 43 45 54
REMARK Flexibility Score: inf
ROOT
ATOM      1  C   UNL A   1      33.737  35.363  29.360  1.00  0.00     0.202 C 
ENDROOT
BRANCH   1   2
ATOM      2  O   UNL A   1      33.403  34.096  28.806  1.00  0.00    -0.374 OA
BRANCH   2   3
ATOM      3  C   UNL A   1      34.290  32.994  29.003  1.00  0.00     0.202 C 
BRANCH   3   4
ATOM      4  C   UNL A   1      34.676  32.170  27.772  1.00  0.00     0.261 C 
BRANCH   4   5
ATOM      5  O   UNL A   1      33.672  31.200  27.428  1.00  0.00    -0.460 OA
BRANCH   5   6
ATOM      6  C   UNL A   1      34.108  29.918  27.336  1.00  0.00     0.338 C 
ATOM      7  O   UNL A   1      35.044  29.413  27.930  1.00  0.00    -0.246 OA
BRANCH   6   8
ATOM      8  C   UNL A   1      33.167  29.132  26.508  1.00  0.00     0.062 A 
ATOM      9  C   UNL A   1      32.177  27.032  25.841  1.00  0.00     0.066 A 
ATOM     10  C   UNL A   1      31.335  27.713  24.949  1.00  0.00     0.028 A 
ATOM     11  C   UNL A   1      33.140  27.739  26.571  1.00  0.00     0.044 A 
ATOM     12  C   UNL A   1      31.379  29.107  24.877  1.00  0.00     0.003 A 
ATOM     13  C   UNL A   1      32.274  29.818  25.677  1.00  0.00     0.016 A 
BRANCH   9  14
ATOM     14  N   UNL A   1      32.009  25.633  26.033  1.00  0.00    -0.236 N 
ATOM     15  C   UNL A   1      29.914  22.954  27.067  1.00  0.00     0.070 C 
ATOM     16  C   UNL A   1      31.003  23.829  26.566  1.00  0.00     0.079 A 
ATOM     17  N   UNL A   1      30.930  25.159  26.704  1.00  0.00    -0.171 NA
ATOM     18  C   UNL A   1      32.222  23.443  25.974  1.00  0.00     0.085 A 
ATOM     19  C   UNL A   1      32.892  24.614  25.699  1.00  0.00     0.060 A 
ATOM     20  Cl  UNL A   1      32.774  21.854  25.748  1.00  0.00    -0.080 Cl
ATOM     21  C   UNL A   1      34.293  24.820  25.250  1.00  0.00     0.068 C 
ENDBRANCH   9  14
ENDBRANCH   6   8
ENDBRANCH   5   6
ENDBRANCH   4   5
ENDBRANCH   3   4
ENDBRANCH   2   3
ENDBRANCH   1   2
BRANCH   1  22
ATOM     22  C   UNL A   1      32.732  36.043  30.276  1.00  0.00     0.261 C 
BRANCH  22  23
ATOM     23  O   UNL A   1      33.200  36.187  31.607  1.00  0.00    -0.460 OA
BRANCH  23  24
ATOM     24  C   UNL A   1      32.969  35.094  32.373  1.00  0.00     0.338 C 
ATOM     25  O   UNL A   1      31.898  34.717  32.814  1.00  0.00    -0.246 OA
BRANCH  24  26
ATOM     26  C   UNL A   1      34.255  34.491  32.732  1.00  0.00     0.060 A 
ATOM     27  C   UNL A   1      35.324  35.369  32.929  1.00  0.00     0.016 A 
ATOM     28  C   UNL A   1      34.437  33.105  32.611  1.00  0.00     0.016 A 
ATOM     29  C   UNL A   1      36.603  34.870  32.834  1.00  0.00     0.010 A 
ATOM     30  C   UNL A   1      35.714  32.613  32.498  1.00  0.00     0.010 A 
ATOM     31  C   UNL A   1      36.775  33.513  32.544  1.00  0.00    -0.014 A 
BRANCH  31  32
ATOM     32  C   UNL A   1      38.123  33.028  32.372  1.00  0.00     0.031 A 
ATOM     33  C   UNL A   1      38.913  33.073  33.621  1.00  0.00     0.074 A 
ATOM     34  C   UNL A   1      38.548  32.494  31.213  1.00  0.00     0.049 A 
ATOM     35  N   UNL A   1      39.913  33.843  33.893  1.00  0.00    -0.248 NA
ATOM     36  C   UNL A   1      38.410  32.305  34.771  1.00  0.00     0.031 C 
ATOM     37  C   UNL A   1      37.741  32.131  30.045  1.00  0.00     0.029 A 
ATOM     38  N   UNL A   1      39.783  32.023  30.897  1.00  0.00    -0.354 N 
ATOM     39  C   UNL A   1      40.317  33.467  35.170  1.00  0.00     0.074 A 
ATOM     40  C   UNL A   1      39.235  32.710  35.735  1.00  0.00     0.031 C 
ATOM     41  C   UNL A   1      38.449  31.277  29.272  1.00  0.00     0.029 A 
ATOM     42  C   UNL A   1      39.785  31.140  29.824  1.00  0.00     0.049 A 
ATOM     43  H   UNL A   1      40.599  32.283  31.382  1.00  0.00     0.167 HD
ATOM     44  C   UNL A   1      41.621  33.552  35.545  1.00  0.00     0.034 A 
ATOM     45  C   UNL A   1      40.788  30.288  29.495  1.00  0.00     0.034 A 
ATOM     46  C   UNL A   1      42.369  34.408  34.660  1.00  0.00     0.049 A 
ATOM     47  C   UNL A   1      42.019  30.773  30.165  1.00  0.00     0.074 A 
ATOM     48  C   UNL A   1      42.275  35.727  34.265  1.00  0.00     0.029 A 
ATOM     49  N   UNL A   1      43.177  33.788  33.739  1.00  0.00    -0.354 N 
ATOM     50  N   UNL A   1      42.624  31.884  29.850  1.00  0.00    -0.248 NA
ATOM     51  C   UNL A   1      42.343  30.233  31.475  1.00  0.00     0.031 C 
ATOM     52  C   UNL A   1      42.654  35.728  32.891  1.00  0.00     0.029 A 
ATOM     53  C   UNL A   1      43.011  34.424  32.540  1.00  0.00     0.049 A 
ATOM     54  H   UNL A   1      43.771  33.022  33.911  1.00  0.00     0.167 HD
ATOM     55  C   UNL A   1      43.029  32.412  31.069  1.00  0.00     0.074 A 
ATOM     56  C   UNL A   1      42.937  31.301  32.014  1.00  0.00     0.031 C 
ATOM     57  C   UNL A   1      43.111  33.762  31.256  1.00  0.00     0.034 A 
BRANCH  44  58
ATOM     58  C   UNL A   1      42.310  32.564  36.457  1.00  0.00     0.023 A 
ATOM     59  C   UNL A   1      43.073  33.096  37.519  1.00  0.00     0.012 A 
ATOM     60  C   UNL A   1      42.479  31.187  36.176  1.00  0.00     0.148 A 
ATOM     61  C   UNL A   1      43.996  32.314  38.222  1.00  0.00     0.002 A 
ATOM     62  C   UNL A   1      43.330  30.395  36.936  1.00  0.00     0.091 A 
ATOM     63  F   UNL A   1      41.932  30.648  35.084  1.00  0.00    -0.205 F 
ATOM     64  C   UNL A   1      44.119  30.961  37.937  1.00  0.00     0.022 A 
BRANCH  62  65
ATOM     65  S   UNL A   1      43.478  28.627  36.643  1.00  0.00     0.127 S 
ATOM     66  O   UNL A   1      44.184  28.600  35.366  1.00  0.00    -0.237 OA
ATOM     67  O   UNL A   1      44.266  28.199  37.799  1.00  0.00    -0.237 OA
ATOM     68  O   UNL A   1      42.113  28.116  36.632  1.00  0.00    -0.744 OA
ENDBRANCH  62  65
ENDBRANCH  44  58
BRANCH  45  69
ATOM     69  C   UNL A   1      40.718  28.940  28.883  1.00  0.00     0.023 A 
ATOM     70  C   UNL A   1      39.636  28.094  29.198  1.00  0.00     0.012 A 
ATOM     71  C   UNL A   1      41.540  28.592  27.789  1.00  0.00     0.148 A 
ATOM     72  C   UNL A   1      39.361  26.958  28.427  1.00  0.00     0.002 A 
ATOM     73  C   UNL A   1      41.269  27.456  27.031  1.00  0.00     0.091 A 
ATOM     74  F   UNL A   1      42.527  29.422  27.431  1.00  0.00    -0.205 F 
ATOM     75  C   UNL A   1      40.172  26.643  27.339  1.00  0.00     0.022 A 
BRANCH  73  76
ATOM     76  S   UNL A   1      42.257  27.004  25.598  1.00  0.00     0.127 S 
ATOM     77  O   UNL A   1      42.209  28.228  24.799  1.00  0.00    -0.237 OA
ATOM     78  O   UNL A   1      43.553  26.716  26.204  1.00  0.00    -0.237 OA
ATOM     79  O   UNL A   1      41.576  25.866  24.990  1.00  0.00    -0.744 OA
ENDBRANCH  73  76
ENDBRANCH  45  69
BRANCH  57  80
ATOM     80  C   UNL A   1      43.037  34.654  30.043  1.00  0.00     0.023 A 
ATOM     81  C   UNL A   1      41.811  35.084  29.491  1.00  0.00     0.012 A 
ATOM     82  C   UNL A   1      44.232  35.213  29.561  1.00  0.00     0.148 A 
ATOM     83  C   UNL A   1      41.783  36.033  28.466  1.00  0.00     0.002 A 
ATOM     84  C   UNL A   1      44.197  36.194  28.580  1.00  0.00     0.091 A 
ATOM     85  F   UNL A   1      45.388  34.795  30.098  1.00  0.00    -0.205 F 
ATOM     86  C   UNL A   1      42.975  36.600  28.021  1.00  0.00     0.022 A 
BRANCH  84  87
ATOM     87  S   UNL A   1      45.685  37.054  28.066  1.00  0.00     0.127 S 
ATOM     88  O   UNL A   1      45.258  37.689  26.821  1.00  0.00    -0.237 OA
ATOM     89  O   UNL A   1      45.915  37.980  29.177  1.00  0.00    -0.237 OA
ATOM     90  O   UNL A   1      46.712  36.028  27.928  1.00  0.00    -0.744 OA
ENDBRANCH  84  87
ENDBRANCH  57  80
ENDBRANCH  31  32
ENDBRANCH  24  26
ENDBRANCH  23  24
ENDBRANCH  22  23
ENDBRANCH   1  22
TORSDOF 18
ENDMDL
