MODEL 1
REMARK VINA RESULT:     -10.5      0.000      0.000
REMARK SMILES CCCc1cc(OC(F)(F)F)cc2c1O[C@@H](C(F)(F)F)C(C(=O)OCCOCCOC(=O)c1ccc(-c3c4nc(c(-c5cccc(S(=O)(=O)[O-])c5F)c5ccc([nH]5)c(-c5cccc(S(=O)(=O)[O-])c5F)c5nc(c(-c6cccc(S(=O)(=O)[O-])c6F)c6ccc3[nH]6)C=C5)C=C4)cc1)=C2
REMARK SMILES IDX 28 1 27 2 26 3 25 4 24 5 22 6 23 7 21 8 4 9 5 10 14 11 6 12
REMARK SMILES IDX 13 13 15 14 12 15 96 16 16 17 3 18 2 19 1 20 7 21 8 22 9 23
REMARK SMILES IDX 10 24 11 25 17 26 18 27 19 28 20 29 29 30 30 31 31 32 32 33
REMARK SMILES IDX 33 34 34 35 95 36 35 37 94 38 36 39 37 40 38 41 88 42 39 43
REMARK SMILES IDX 93 44 87 45 89 46 40 47 92 48 86 49 85 50 41 52 73 53 53 54
REMARK SMILES IDX 72 55 54 56 57 57 71 58 90 59 55 60 56 61 70 63 91 64 58 65
REMARK SMILES IDX 42 66 43 67 51 68 44 69 46 70 52 71 45 72 47 73 48 74 49 75
REMARK SMILES IDX 50 76 74 77 75 78 83 79 76 80 78 81 84 82 77 83 79 84 80 85
REMARK SMILES IDX 81 86 82 87 59 88 60 89 68 90 61 91 63 92 69 93 62 94 64 95
REMARK SMILES IDX 65 96 66 97 67 98
REMARK H PARENT 89 51 57 62
REMARK Flexibility Score: inf
ROOT
ATOM      1  C   UNL A   1      31.284  31.981  26.506  1.00  0.00     0.202 C 
ENDROOT
BRANCH   1   2
ATOM      2  O   UNL A   1      31.897  30.708  26.316  1.00  0.00    -0.374 OA
BRANCH   2   3
ATOM      3  C   UNL A   1      33.087  30.410  27.041  1.00  0.00     0.202 C 
BRANCH   3   4
ATOM      4  C   UNL A   1      33.678  29.001  26.924  1.00  0.00     0.261 C 
BRANCH   4   5
ATOM      5  O   UNL A   1      32.796  28.096  26.244  1.00  0.00    -0.460 OA
BRANCH   5   6
ATOM      6  C   UNL A   1      33.123  27.858  24.954  1.00  0.00     0.338 C 
ATOM      7  O   UNL A   1      33.316  28.687  24.078  1.00  0.00    -0.246 OA
BRANCH   6   8
ATOM      8  C   UNL A   1      33.400  26.433  24.744  1.00  0.00     0.087 C 
ATOM      9  C   UNL A   1      33.382  22.275  25.127  1.00  0.00    -0.002 A 
ATOM     10  C   UNL A   1      34.599  21.627  25.426  1.00  0.00     0.054 A 
ATOM     11  C   UNL A   1      33.408  23.667  24.976  1.00  0.00     0.131 A 
ATOM     12  C   UNL A   1      35.788  22.342  25.611  1.00  0.00     0.130 A 
ATOM     13  C   UNL A   1      34.595  24.406  25.172  1.00  0.00     0.021 A 
ATOM     14  O   UNL A   1      32.227  24.310  24.706  1.00  0.00    -0.475 OA
ATOM     15  C   UNL A   1      35.781  23.732  25.470  1.00  0.00     0.058 A 
ATOM     16  C   UNL A   1      34.528  25.872  25.206  1.00  0.00     0.027 C 
ATOM     17  C   UNL A   1      32.362  25.590  24.051  1.00  0.00     0.316 C 
BRANCH   9  18
ATOM     18  C   UNL A   1      32.155  21.391  24.957  1.00  0.00     0.039 C 
BRANCH  18  19
ATOM     19  C   UNL A   1      32.064  20.456  23.743  1.00  0.00     0.001 C 
ATOM     20  C   UNL A   1      31.991  21.212  22.422  1.00  0.00     0.004 C 
ENDBRANCH  18  19
ENDBRANCH   9  18
BRANCH  12  21
ATOM     21  O   UNL A   1      37.001  21.805  25.939  1.00  0.00    -0.406 OA
BRANCH  21  22
ATOM     22  C   UNL A   1      37.676  21.055  24.943  1.00  0.00     0.573 C 
ATOM     23  F   UNL A   1      37.563  21.630  23.726  1.00  0.00    -0.132 F 
ATOM     24  F   UNL A   1      38.985  20.916  25.249  1.00  0.00    -0.132 F 
ATOM     25  F   UNL A   1      37.133  19.820  24.875  1.00  0.00    -0.132 F 
ENDBRANCH  21  22
ENDBRANCH  12  21
BRANCH  17  26
ATOM     26  C   UNL A   1      30.957  26.179  23.826  1.00  0.00     0.430 C 
ATOM     27  F   UNL A   1      30.986  27.250  22.999  1.00  0.00    -0.167 F 
ATOM     28  F   UNL A   1      30.167  25.264  23.201  1.00  0.00    -0.167 F 
ATOM     29  F   UNL A   1      30.327  26.526  24.965  1.00  0.00    -0.167 F 
ENDBRANCH  17  26
ENDBRANCH   6   8
ENDBRANCH   5   6
ENDBRANCH   4   5
ENDBRANCH   3   4
ENDBRANCH   2   3
ENDBRANCH   1   2
BRANCH   1  30
ATOM     30  C   UNL A   1      32.172  33.207  26.747  1.00  0.00     0.261 C 
BRANCH  30  31
ATOM     31  O   UNL A   1      32.196  33.627  28.120  1.00  0.00    -0.460 OA
BRANCH  31  32
ATOM     32  C   UNL A   1      33.186  34.501  28.423  1.00  0.00     0.338 C 
ATOM     33  O   UNL A   1      33.097  35.718  28.507  1.00  0.00    -0.246 OA
BRANCH  32  34
ATOM     34  C   UNL A   1      34.388  33.765  28.844  1.00  0.00     0.060 A 
ATOM     35  C   UNL A   1      34.213  32.626  29.642  1.00  0.00     0.016 A 
ATOM     36  C   UNL A   1      35.666  34.231  28.534  1.00  0.00     0.016 A 
ATOM     37  C   UNL A   1      35.318  31.966  30.165  1.00  0.00     0.010 A 
ATOM     38  C   UNL A   1      36.775  33.575  29.073  1.00  0.00     0.010 A 
ATOM     39  C   UNL A   1      36.604  32.462  29.917  1.00  0.00    -0.014 A 
BRANCH  39  40
ATOM     40  C   UNL A   1      37.758  31.898  30.652  1.00  0.00     0.031 A 
ATOM     41  C   UNL A   1      38.625  30.874  29.973  1.00  0.00     0.074 A 
ATOM     42  C   UNL A   1      38.029  32.298  31.907  1.00  0.00     0.049 A 
ATOM     43  N   UNL A   1      39.652  30.218  30.443  1.00  0.00    -0.248 NA
ATOM     44  C   UNL A   1      38.284  30.541  28.579  1.00  0.00     0.031 C 
ATOM     45  C   UNL A   1      37.265  33.293  32.658  1.00  0.00     0.029 A 
ATOM     46  N   UNL A   1      39.008  31.894  32.778  1.00  0.00    -0.354 N 
ATOM     47  C   UNL A   1      40.061  29.372  29.419  1.00  0.00     0.074 A 
ATOM     48  C   UNL A   1      39.165  29.589  28.305  1.00  0.00     0.031 C 
ATOM     49  C   UNL A   1      37.787  33.400  33.892  1.00  0.00     0.029 A 
ATOM     50  C   UNL A   1      38.899  32.460  34.025  1.00  0.00     0.049 A 
ATOM     51  H   UNL A   1      39.720  31.259  32.534  1.00  0.00     0.167 HD
ATOM     52  C   UNL A   1      41.098  28.502  29.405  1.00  0.00     0.034 A 
ATOM     53  C   UNL A   1      39.598  32.224  35.152  1.00  0.00     0.034 A 
ATOM     54  C   UNL A   1      41.994  28.303  30.512  1.00  0.00     0.049 A 
ATOM     55  C   UNL A   1      40.726  31.228  35.119  1.00  0.00     0.074 A 
ATOM     56  C   UNL A   1      43.103  27.479  30.582  1.00  0.00     0.029 A 
ATOM     57  N   UNL A   1      41.877  28.922  31.746  1.00  0.00    -0.354 N 
ATOM     58  N   UNL A   1      41.170  30.514  34.111  1.00  0.00    -0.248 NA
ATOM     59  C   UNL A   1      41.473  31.027  36.369  1.00  0.00     0.031 C 
ATOM     60  C   UNL A   1      43.635  27.572  31.872  1.00  0.00     0.029 A 
ATOM     61  C   UNL A   1      42.883  28.487  32.592  1.00  0.00     0.049 A 
ATOM     62  H   UNL A   1      41.180  29.575  31.987  1.00  0.00     0.167 HD
ATOM     63  C   UNL A   1      42.270  29.813  34.595  1.00  0.00     0.074 A 
ATOM     64  C   UNL A   1      42.434  30.201  35.980  1.00  0.00     0.031 C 
ATOM     65  C   UNL A   1      43.065  28.921  33.953  1.00  0.00     0.034 A 
BRANCH  52  66
ATOM     66  C   UNL A   1      41.327  27.704  28.148  1.00  0.00     0.023 A 
ATOM     67  C   UNL A   1      41.983  28.298  27.050  1.00  0.00     0.012 A 
ATOM     68  C   UNL A   1      40.947  26.350  28.077  1.00  0.00     0.148 A 
ATOM     69  C   UNL A   1      42.227  27.565  25.888  1.00  0.00     0.002 A 
ATOM     70  C   UNL A   1      41.235  25.613  26.934  1.00  0.00     0.091 A 
ATOM     71  F   UNL A   1      40.305  25.810  29.122  1.00  0.00    -0.205 F 
ATOM     72  C   UNL A   1      41.863  26.222  25.834  1.00  0.00     0.022 A 
BRANCH  70  73
ATOM     73  S   UNL A   1      40.880  23.858  26.798  1.00  0.00     0.127 S 
ATOM     74  O   UNL A   1      41.405  23.352  28.065  1.00  0.00    -0.237 OA
ATOM     75  O   UNL A   1      39.420  23.849  26.696  1.00  0.00    -0.237 OA
ATOM     76  O   UNL A   1      41.576  23.397  25.606  1.00  0.00    -0.744 OA
ENDBRANCH  70  73
ENDBRANCH  52  66
BRANCH  53  77
ATOM     77  C   UNL A   1      39.265  32.959  36.405  1.00  0.00     0.023 A 
ATOM     78  C   UNL A   1      39.752  34.266  36.598  1.00  0.00     0.012 A 
ATOM     79  C   UNL A   1      38.459  32.373  37.400  1.00  0.00     0.148 A 
ATOM     80  C   UNL A   1      39.472  34.962  37.774  1.00  0.00     0.002 A 
ATOM     81  C   UNL A   1      38.137  33.093  38.544  1.00  0.00     0.091 A 
ATOM     82  F   UNL A   1      38.017  31.123  37.203  1.00  0.00    -0.205 F 
ATOM     83  C   UNL A   1      38.658  34.381  38.742  1.00  0.00     0.022 A 
BRANCH  81  84
ATOM     84  S   UNL A   1      36.991  32.473  39.781  1.00  0.00     0.127 S 
ATOM     85  O   UNL A   1      37.339  31.055  39.827  1.00  0.00    -0.237 OA
ATOM     86  O   UNL A   1      37.379  33.243  40.962  1.00  0.00    -0.237 OA
ATOM     87  O   UNL A   1      35.660  32.781  39.274  1.00  0.00    -0.744 OA
ENDBRANCH  81  84
ENDBRANCH  53  77
BRANCH  65  88
ATOM     88  C   UNL A   1      44.221  28.334  34.722  1.00  0.00     0.023 A 
ATOM     89  C   UNL A   1      45.472  28.981  34.721  1.00  0.00     0.012 A 
ATOM     90  C   UNL A   1      44.041  27.177  35.508  1.00  0.00     0.148 A 
ATOM     91  C   UNL A   1      46.537  28.466  35.461  1.00  0.00     0.002 A 
ATOM     92  C   UNL A   1      45.090  26.701  36.285  1.00  0.00     0.091 A 
ATOM     93  F   UNL A   1      42.847  26.568  35.483  1.00  0.00    -0.205 F 
ATOM     94  C   UNL A   1      46.343  27.335  36.251  1.00  0.00     0.022 A 
BRANCH  92  95
ATOM     95  S   UNL A   1      44.904  25.313  37.409  1.00  0.00     0.127 S 
ATOM     96  O   UNL A   1      46.100  25.441  38.241  1.00  0.00    -0.237 OA
ATOM     97  O   UNL A   1      43.650  25.633  38.091  1.00  0.00    -0.237 OA
ATOM     98  O   UNL A   1      44.851  24.121  36.573  1.00  0.00    -0.744 OA
ENDBRANCH  92  95
ENDBRANCH  65  88
ENDBRANCH  39  40
ENDBRANCH  32  34
ENDBRANCH  31  32
ENDBRANCH  30  31
ENDBRANCH   1  30
TORSDOF 22
ENDMDL
MODEL 2
REMARK VINA RESULT:      -9.7      3.081      8.040
REMARK SMILES CCCc1cc(OC(F)(F)F)cc2c1O[C@@H](C(F)(F)F)C(C(=O)OCCOCCOC(=O)c1ccc(-c3c4nc(c(-c5cccc(S(=O)(=O)[O-])c5F)c5ccc([nH]5)c(-c5cccc(S(=O)(=O)[O-])c5F)c5nc(c(-c6cccc(S(=O)(=O)[O-])c6F)c6ccc3[nH]6)C=C5)C=C4)cc1)=C2
REMARK SMILES IDX 28 1 27 2 26 3 25 4 24 5 22 6 23 7 21 8 4 9 5 10 14 11 6 12
REMARK SMILES IDX 13 13 15 14 12 15 96 16 16 17 3 18 2 19 1 20 7 21 8 22 9 23
REMARK SMILES IDX 10 24 11 25 17 26 18 27 19 28 20 29 29 30 30 31 31 32 32 33
REMARK SMILES IDX 33 34 34 35 95 36 35 37 94 38 36 39 37 40 38 41 88 42 39 43
REMARK SMILES IDX 93 44 87 45 89 46 40 47 92 48 86 49 85 50 41 52 73 53 53 54
REMARK SMILES IDX 72 55 54 56 57 57 71 58 90 59 55 60 56 61 70 63 91 64 58 65
REMARK SMILES IDX 42 66 43 67 51 68 44 69 46 70 52 71 45 72 47 73 48 74 49 75
REMARK SMILES IDX 50 76 74 77 75 78 83 79 76 80 78 81 84 82 77 83 79 84 80 85
REMARK SMILES IDX 81 86 82 87 59 88 60 89 68 90 61 91 63 92 69 93 62 94 64 95
REMARK SMILES IDX 65 96 66 97 67 98
REMARK H PARENT 89 51 57 62
REMARK Flexibility Score: inf
ROOT
ATOM      1  C   UNL A   1      31.928  30.165  26.916  1.00  0.00     0.202 C 
ENDROOT
BRANCH   1   2
ATOM      2  O   UNL A   1      31.672  28.992  27.684  1.00  0.00    -0.374 OA
BRANCH   2   3
ATOM      3  C   UNL A   1      31.289  27.801  27.003  1.00  0.00     0.202 C 
BRANCH   3   4
ATOM      4  C   UNL A   1      32.312  27.129  26.080  1.00  0.00     0.261 C 
BRANCH   4   5
ATOM      5  O   UNL A   1      31.688  26.418  25.002  1.00  0.00    -0.460 OA
BRANCH   5   6
ATOM      6  C   UNL A   1      32.459  26.280  23.900  1.00  0.00     0.338 C 
ATOM      7  O   UNL A   1      32.609  27.093  23.000  1.00  0.00    -0.246 OA
BRANCH   6   8
ATOM      8  C   UNL A   1      33.269  25.060  23.984  1.00  0.00     0.087 C 
ATOM      9  C   UNL A   1      34.903  21.449  25.295  1.00  0.00    -0.002 A 
ATOM     10  C   UNL A   1      36.285  21.404  25.572  1.00  0.00     0.054 A 
ATOM     11  C   UNL A   1      34.373  22.660  24.831  1.00  0.00     0.131 A 
ATOM     12  C   UNL A   1      37.102  22.532  25.435  1.00  0.00     0.130 A 
ATOM     13  C   UNL A   1      35.178  23.811  24.699  1.00  0.00     0.021 A 
ATOM     14  O   UNL A   1      33.027  22.721  24.578  1.00  0.00    -0.475 OA
ATOM     15  C   UNL A   1      36.543  23.732  24.985  1.00  0.00     0.058 A 
ATOM     16  C   UNL A   1      34.540  25.102  24.410  1.00  0.00     0.027 C 
ATOM     17  C   UNL A   1      32.626  23.742  23.639  1.00  0.00     0.316 C 
BRANCH   9  18
ATOM     18  C   UNL A   1      34.120  20.159  25.490  1.00  0.00     0.039 C 
BRANCH  18  19
ATOM     19  C   UNL A   1      33.891  19.229  24.289  1.00  0.00     0.001 C 
ATOM     20  C   UNL A   1      32.513  18.579  24.303  1.00  0.00     0.004 C 
ENDBRANCH  18  19
ENDBRANCH   9  18
BRANCH  12  21
ATOM     21  O   UNL A   1      38.438  22.592  25.715  1.00  0.00    -0.406 OA
BRANCH  21  22
ATOM     22  C   UNL A   1      38.871  23.586  26.629  1.00  0.00     0.573 C 
ATOM     23  F   UNL A   1      39.655  24.507  26.027  1.00  0.00    -0.132 F 
ATOM     24  F   UNL A   1      37.815  24.208  27.200  1.00  0.00    -0.132 F 
ATOM     25  F   UNL A   1      39.589  23.001  27.612  1.00  0.00    -0.132 F 
ENDBRANCH  21  22
ENDBRANCH  12  21
BRANCH  17  26
ATOM     26  C   UNL A   1      31.096  23.685  23.471  1.00  0.00     0.430 C 
ATOM     27  F   UNL A   1      30.645  24.648  22.635  1.00  0.00    -0.167 F 
ATOM     28  F   UNL A   1      30.739  22.507  22.888  1.00  0.00    -0.167 F 
ATOM     29  F   UNL A   1      30.421  23.765  24.634  1.00  0.00    -0.167 F 
ENDBRANCH  17  26
ENDBRANCH   6   8
ENDBRANCH   5   6
ENDBRANCH   4   5
ENDBRANCH   3   4
ENDBRANCH   2   3
ENDBRANCH   1   2
BRANCH   1  30
ATOM     30  C   UNL A   1      33.375  30.513  26.546  1.00  0.00     0.261 C 
BRANCH  30  31
ATOM     31  O   UNL A   1      34.318  30.182  27.577  1.00  0.00    -0.460 OA
BRANCH  31  32
ATOM     32  C   UNL A   1      34.958  31.247  28.116  1.00  0.00     0.338 C 
ATOM     33  O   UNL A   1      34.562  32.404  28.160  1.00  0.00    -0.246 OA
BRANCH  32  34
ATOM     34  C   UNL A   1      36.154  30.794  28.843  1.00  0.00     0.060 A 
ATOM     35  C   UNL A   1      37.344  31.510  28.656  1.00  0.00     0.016 A 
ATOM     36  C   UNL A   1      36.129  29.639  29.625  1.00  0.00     0.016 A 
ATOM     37  C   UNL A   1      38.528  31.053  29.224  1.00  0.00     0.010 A 
ATOM     38  C   UNL A   1      37.322  29.173  30.183  1.00  0.00     0.010 A 
ATOM     39  C   UNL A   1      38.530  29.859  29.956  1.00  0.00    -0.014 A 
BRANCH  39  40
ATOM     40  C   UNL A   1      39.819  29.258  30.367  1.00  0.00     0.031 A 
ATOM     41  C   UNL A   1      40.504  29.774  31.601  1.00  0.00     0.074 A 
ATOM     42  C   UNL A   1      40.367  28.262  29.647  1.00  0.00     0.049 A 
ATOM     43  N   UNL A   1      41.653  29.428  32.115  1.00  0.00    -0.248 NA
ATOM     44  C   UNL A   1      39.800  30.826  32.355  1.00  0.00     0.031 C 
ATOM     45  C   UNL A   1      39.786  27.675  28.441  1.00  0.00     0.029 A 
ATOM     46  N   UNL A   1      41.550  27.590  29.816  1.00  0.00    -0.354 N 
ATOM     47  C   UNL A   1      41.829  30.238  33.230  1.00  0.00     0.074 A 
ATOM     48  C   UNL A   1      40.672  31.102  33.314  1.00  0.00     0.031 C 
ATOM     49  C   UNL A   1      40.631  26.747  27.959  1.00  0.00     0.029 A 
ATOM     50  C   UNL A   1      41.822  26.700  28.805  1.00  0.00     0.049 A 
ATOM     51  H   UNL A   1      42.146  27.730  30.586  1.00  0.00     0.167 HD
ATOM     52  C   UNL A   1      42.856  30.252  34.112  1.00  0.00     0.034 A 
ATOM     53  C   UNL A   1      42.921  25.955  28.573  1.00  0.00     0.034 A 
ATOM     54  C   UNL A   1      43.996  29.378  34.031  1.00  0.00     0.049 A 
ATOM     55  C   UNL A   1      44.063  26.012  29.552  1.00  0.00     0.074 A 
ATOM     56  C   UNL A   1      45.068  29.281  34.900  1.00  0.00     0.029 A 
ATOM     57  N   UNL A   1      44.221  28.463  33.015  1.00  0.00    -0.354 N 
ATOM     58  N   UNL A   1      44.168  26.704  30.662  1.00  0.00    -0.248 NA
ATOM     59  C   UNL A   1      45.227  25.161  29.267  1.00  0.00     0.031 C 
ATOM     60  C   UNL A   1      45.959  28.332  34.389  1.00  0.00     0.029 A 
ATOM     61  C   UNL A   1      45.422  27.807  33.224  1.00  0.00     0.049 A 
ATOM     62  H   UNL A   1      43.615  28.302  32.254  1.00  0.00     0.167 HD
ATOM     63  C   UNL A   1      45.387  26.342  31.225  1.00  0.00     0.074 A 
ATOM     64  C   UNL A   1      45.976  25.356  30.343  1.00  0.00     0.031 C 
ATOM     65  C   UNL A   1      45.971  26.792  32.364  1.00  0.00     0.034 A 
BRANCH  52  66
ATOM     66  C   UNL A   1      42.790  31.236  35.250  1.00  0.00     0.023 A 
ATOM     67  C   UNL A   1      42.274  30.833  36.498  1.00  0.00     0.012 A 
ATOM     68  C   UNL A   1      43.295  32.542  35.100  1.00  0.00     0.148 A 
ATOM     69  C   UNL A   1      42.231  31.725  37.570  1.00  0.00     0.002 A 
ATOM     70  C   UNL A   1      43.293  33.411  36.186  1.00  0.00     0.091 A 
ATOM     71  F   UNL A   1      43.762  32.913  33.900  1.00  0.00    -0.205 F 
ATOM     72  C   UNL A   1      42.749  33.007  37.417  1.00  0.00     0.022 A 
BRANCH  70  73
ATOM     73  S   UNL A   1      44.009  35.056  36.113  1.00  0.00     0.127 S 
ATOM     74  O   UNL A   1      45.440  34.754  36.112  1.00  0.00    -0.237 OA
ATOM     75  O   UNL A   1      43.492  35.558  34.839  1.00  0.00    -0.237 OA
ATOM     76  O   UNL A   1      43.522  35.761  37.289  1.00  0.00    -0.744 OA
ENDBRANCH  70  73
ENDBRANCH  52  66
BRANCH  53  77
ATOM     77  C   UNL A   1      42.987  25.075  27.373  1.00  0.00     0.023 A 
ATOM     78  C   UNL A   1      43.415  25.605  26.141  1.00  0.00     0.012 A 
ATOM     79  C   UNL A   1      42.635  23.713  27.450  1.00  0.00     0.148 A 
ATOM     80  C   UNL A   1      43.459  24.804  25.000  1.00  0.00     0.002 A 
ATOM     81  C   UNL A   1      42.737  22.908  26.322  1.00  0.00     0.091 A 
ATOM     82  F   UNL A   1      42.216  23.232  28.628  1.00  0.00    -0.205 F 
ATOM     83  C   UNL A   1      43.130  23.455  25.092  1.00  0.00     0.022 A 
BRANCH  81  84
ATOM     84  S   UNL A   1      42.458  21.134  26.379  1.00  0.00     0.127 S 
ATOM     85  O   UNL A   1      41.224  21.000  25.608  1.00  0.00    -0.237 OA
ATOM     86  O   UNL A   1      43.658  20.620  25.718  1.00  0.00    -0.237 OA
ATOM     87  O   UNL A   1      42.360  20.795  27.792  1.00  0.00    -0.744 OA
ENDBRANCH  81  84
ENDBRANCH  53  77
BRANCH  65  88
ATOM     88  C   UNL A   1      47.296  26.189  32.756  1.00  0.00     0.023 A 
ATOM     89  C   UNL A   1      48.499  26.816  32.376  1.00  0.00     0.012 A 
ATOM     90  C   UNL A   1      47.343  25.037  33.568  1.00  0.00     0.148 A 
ATOM     91  C   UNL A   1      49.728  26.287  32.767  1.00  0.00     0.002 A 
ATOM     92  C   UNL A   1      48.570  24.547  33.999  1.00  0.00     0.091 A 
ATOM     93  F   UNL A   1      46.189  24.447  33.906  1.00  0.00    -0.205 F 
ATOM     94  C   UNL A   1      49.764  25.161  33.587  1.00  0.00     0.022 A 
BRANCH  92  95
ATOM     95  S   UNL A   1      48.710  23.165  35.137  1.00  0.00     0.127 S 
ATOM     96  O   UNL A   1      50.136  22.853  35.053  1.00  0.00    -0.237 OA
ATOM     97  O   UNL A   1      48.290  23.764  36.404  1.00  0.00    -0.237 OA
ATOM     98  O   UNL A   1      47.816  22.132  34.630  1.00  0.00    -0.744 OA
ENDBRANCH  92  95
ENDBRANCH  65  88
ENDBRANCH  39  40
ENDBRANCH  32  34
ENDBRANCH  31  32
ENDBRANCH  30  31
ENDBRANCH   1  30
TORSDOF 22
ENDMDL
MODEL 3
REMARK VINA RESULT:      -9.7      3.321      8.314
REMARK SMILES CCCc1cc(OC(F)(F)F)cc2c1O[C@@H](C(F)(F)F)C(C(=O)OCCOCCOC(=O)c1ccc(-c3c4nc(c(-c5cccc(S(=O)(=O)[O-])c5F)c5ccc([nH]5)c(-c5cccc(S(=O)(=O)[O-])c5F)c5nc(c(-c6cccc(S(=O)(=O)[O-])c6F)c6ccc3[nH]6)C=C5)C=C4)cc1)=C2
REMARK SMILES IDX 28 1 27 2 26 3 25 4 24 5 22 6 23 7 21 8 4 9 5 10 14 11 6 12
REMARK SMILES IDX 13 13 15 14 12 15 96 16 16 17 3 18 2 19 1 20 7 21 8 22 9 23
REMARK SMILES IDX 10 24 11 25 17 26 18 27 19 28 20 29 29 30 30 31 31 32 32 33
REMARK SMILES IDX 33 34 34 35 95 36 35 37 94 38 36 39 37 40 38 41 88 42 39 43
REMARK SMILES IDX 93 44 87 45 89 46 40 47 92 48 86 49 85 50 41 52 73 53 53 54
REMARK SMILES IDX 72 55 54 56 57 57 71 58 90 59 55 60 56 61 70 63 91 64 58 65
REMARK SMILES IDX 42 66 43 67 51 68 44 69 46 70 52 71 45 72 47 73 48 74 49 75
REMARK SMILES IDX 50 76 74 77 75 78 83 79 76 80 78 81 84 82 77 83 79 84 80 85
REMARK SMILES IDX 81 86 82 87 59 88 60 89 68 90 61 91 63 92 69 93 62 94 64 95
REMARK SMILES IDX 65 96 66 97 67 98
REMARK H PARENT 89 51 57 62
REMARK Flexibility Score: inf
ROOT
ATOM      1  C   UNL A   1      31.367  27.811  27.382  1.00  0.00     0.202 C 
ENDROOT
BRANCH   1   2
ATOM      2  O   UNL A   1      31.150  26.584  26.691  1.00  0.00    -0.374 OA
BRANCH   2   3
ATOM      3  C   UNL A   1      30.270  26.580  25.571  1.00  0.00     0.202 C 
BRANCH   3   4
ATOM      4  C   UNL A   1      30.308  25.379  24.618  1.00  0.00     0.261 C 
BRANCH   4   5
ATOM      5  O   UNL A   1      30.424  25.778  23.245  1.00  0.00    -0.460 OA
BRANCH   5   6
ATOM      6  C   UNL A   1      31.438  25.186  22.573  1.00  0.00     0.338 C 
ATOM      7  O   UNL A   1      31.879  25.502  21.479  1.00  0.00    -0.246 OA
BRANCH   6   8
ATOM      8  C   UNL A   1      32.096  24.178  23.411  1.00  0.00     0.087 C 
ATOM      9  C   UNL A   1      34.858  21.419  24.892  1.00  0.00    -0.002 A 
ATOM     10  C   UNL A   1      34.454  20.074  25.022  1.00  0.00     0.054 A 
ATOM     11  C   UNL A   1      33.913  22.338  24.419  1.00  0.00     0.131 A 
ATOM     12  C   UNL A   1      33.171  19.651  24.653  1.00  0.00     0.130 A 
ATOM     13  C   UNL A   1      32.620  21.928  24.030  1.00  0.00     0.021 A 
ATOM     14  O   UNL A   1      34.302  23.644  24.269  1.00  0.00    -0.475 OA
ATOM     15  C   UNL A   1      32.254  20.588  24.168  1.00  0.00     0.058 A 
ATOM     16  C   UNL A   1      31.740  22.886  23.349  1.00  0.00     0.027 C 
ATOM     17  C   UNL A   1      33.229  24.611  24.305  1.00  0.00     0.316 C 
BRANCH   9  18
ATOM     18  C   UNL A   1      36.280  21.754  25.319  1.00  0.00     0.039 C 
BRANCH  18  19
ATOM     19  C   UNL A   1      36.944  23.032  24.787  1.00  0.00     0.001 C 
ATOM     20  C   UNL A   1      37.822  23.716  25.828  1.00  0.00     0.004 C 
ENDBRANCH  18  19
ENDBRANCH   9  18
BRANCH  12  21
ATOM     21  O   UNL A   1      32.706  18.368  24.708  1.00  0.00    -0.406 OA
BRANCH  21  22
ATOM     22  C   UNL A   1      33.239  17.438  23.779  1.00  0.00     0.573 C 
ATOM     23  F   UNL A   1      34.555  17.651  23.563  1.00  0.00    -0.132 F 
ATOM     24  F   UNL A   1      33.058  16.170  24.211  1.00  0.00    -0.132 F 
ATOM     25  F   UNL A   1      32.593  17.571  22.600  1.00  0.00    -0.132 F 
ENDBRANCH  21  22
ENDBRANCH  12  21
BRANCH  17  26
ATOM     26  C   UNL A   1      33.826  26.018  24.117  1.00  0.00     0.430 C 
ATOM     27  F   UNL A   1      34.424  26.154  22.911  1.00  0.00    -0.167 F 
ATOM     28  F   UNL A   1      32.831  26.948  24.132  1.00  0.00    -0.167 F 
ATOM     29  F   UNL A   1      34.701  26.368  25.079  1.00  0.00    -0.167 F 
ENDBRANCH  17  26
ENDBRANCH   6   8
ENDBRANCH   5   6
ENDBRANCH   4   5
ENDBRANCH   3   4
ENDBRANCH   2   3
ENDBRANCH   1   2
BRANCH   1  30
ATOM     30  C   UNL A   1      32.378  28.816  26.817  1.00  0.00     0.261 C 
BRANCH  30  31
ATOM     31  O   UNL A   1      33.661  28.749  27.459  1.00  0.00    -0.460 OA
BRANCH  31  32
ATOM     32  C   UNL A   1      34.356  29.912  27.448  1.00  0.00     0.338 C 
ATOM     33  O   UNL A   1      33.943  31.017  27.124  1.00  0.00    -0.246 OA
BRANCH  32  34
ATOM     34  C   UNL A   1      35.669  29.714  28.082  1.00  0.00     0.060 A 
ATOM     35  C   UNL A   1      36.804  29.747  27.260  1.00  0.00     0.016 A 
ATOM     36  C   UNL A   1      35.778  29.418  29.440  1.00  0.00     0.016 A 
ATOM     37  C   UNL A   1      38.054  29.446  27.788  1.00  0.00     0.010 A 
ATOM     38  C   UNL A   1      37.033  29.102  29.966  1.00  0.00     0.010 A 
ATOM     39  C   UNL A   1      38.168  29.081  29.135  1.00  0.00    -0.014 A 
BRANCH  39  40
ATOM     40  C   UNL A   1      39.453  28.547  29.640  1.00  0.00     0.031 A 
ATOM     41  C   UNL A   1      40.088  29.190  30.842  1.00  0.00     0.074 A 
ATOM     42  C   UNL A   1      40.042  27.501  29.033  1.00  0.00     0.049 A 
ATOM     43  N   UNL A   1      41.226  28.915  31.421  1.00  0.00    -0.248 NA
ATOM     44  C   UNL A   1      39.341  30.291  31.473  1.00  0.00     0.031 C 
ATOM     45  C   UNL A   1      39.511  26.793  27.870  1.00  0.00     0.029 A 
ATOM     46  N   UNL A   1      41.230  26.871  29.301  1.00  0.00    -0.354 N 
ATOM     47  C   UNL A   1      41.350  29.829  32.461  1.00  0.00     0.074 A 
ATOM     48  C   UNL A   1      40.177  30.672  32.428  1.00  0.00     0.031 C 
ATOM     49  C   UNL A   1      40.388  25.843  27.502  1.00  0.00     0.029 A 
ATOM     50  C   UNL A   1      41.551  25.898  28.385  1.00  0.00     0.049 A 
ATOM     51  H   UNL A   1      41.799  27.095  30.073  1.00  0.00     0.167 HD
ATOM     52  C   UNL A   1      42.348  29.945  33.370  1.00  0.00     0.034 A 
ATOM     53  C   UNL A   1      42.671  25.158  28.258  1.00  0.00     0.034 A 
ATOM     54  C   UNL A   1      43.505  29.091  33.405  1.00  0.00     0.049 A 
ATOM     55  C   UNL A   1      43.779  25.328  29.263  1.00  0.00     0.074 A 
ATOM     56  C   UNL A   1      44.549  29.097  34.312  1.00  0.00     0.029 A 
ATOM     57  N   UNL A   1      43.779  28.091  32.486  1.00  0.00    -0.354 N 
ATOM     58  N   UNL A   1      43.835  26.122  30.306  1.00  0.00    -0.248 NA
ATOM     59  C   UNL A   1      44.966  24.479  29.093  1.00  0.00     0.031 C 
ATOM     60  C   UNL A   1      45.474  28.123  33.919  1.00  0.00     0.029 A 
ATOM     61  C   UNL A   1      44.984  27.482  32.793  1.00  0.00     0.049 A 
ATOM     62  H   UNL A   1      43.202  27.849  31.725  1.00  0.00     0.167 HD
ATOM     63  C   UNL A   1      45.041  25.839  30.938  1.00  0.00     0.074 A 
ATOM     64  C   UNL A   1      45.676  24.788  30.170  1.00  0.00     0.031 C 
ATOM     65  C   UNL A   1      45.579  26.403  32.048  1.00  0.00     0.034 A 
BRANCH  52  66
ATOM     66  C   UNL A   1      42.228  31.028  34.408  1.00  0.00     0.023 A 
ATOM     67  C   UNL A   1      41.770  30.711  35.704  1.00  0.00     0.012 A 
ATOM     68  C   UNL A   1      42.624  32.348  34.119  1.00  0.00     0.148 A 
ATOM     69  C   UNL A   1      41.678  31.698  36.686  1.00  0.00     0.002 A 
ATOM     70  C   UNL A   1      42.575  33.317  35.116  1.00  0.00     0.091 A 
ATOM     71  F   UNL A   1      43.036  32.634  32.877  1.00  0.00    -0.205 F 
ATOM     72  C   UNL A   1      42.090  32.996  36.395  1.00  0.00     0.022 A 
BRANCH  70  73
ATOM     73  S   UNL A   1      43.157  34.997  34.864  1.00  0.00     0.127 S 
ATOM     74  O   UNL A   1      44.366  34.774  34.071  1.00  0.00    -0.237 OA
ATOM     75  O   UNL A   1      42.047  35.598  34.126  1.00  0.00    -0.237 OA
ATOM     76  O   UNL A   1      43.377  35.550  36.192  1.00  0.00    -0.744 OA
ENDBRANCH  70  73
ENDBRANCH  52  66
BRANCH  53  77
ATOM     77  C   UNL A   1      42.791  24.173  27.147  1.00  0.00     0.023 A 
ATOM     78  C   UNL A   1      43.497  24.519  25.979  1.00  0.00     0.012 A 
ATOM     79  C   UNL A   1      42.217  22.891  27.247  1.00  0.00     0.148 A 
ATOM     80  C   UNL A   1      43.600  23.621  24.918  1.00  0.00     0.002 A 
ATOM     81  C   UNL A   1      42.372  21.980  26.210  1.00  0.00     0.091 A 
ATOM     82  F   UNL A   1      41.537  22.585  28.361  1.00  0.00    -0.205 F 
ATOM     83  C   UNL A   1      43.046  22.349  25.036  1.00  0.00     0.022 A 
BRANCH  81  84
ATOM     84  S   UNL A   1      41.805  20.279  26.329  1.00  0.00     0.127 S 
ATOM     85  O   UNL A   1      42.500  19.653  25.207  1.00  0.00    -0.237 OA
ATOM     86  O   UNL A   1      42.295  19.892  27.652  1.00  0.00    -0.237 OA
ATOM     87  O   UNL A   1      40.354  20.339  26.221  1.00  0.00    -0.744 OA
ENDBRANCH  81  84
ENDBRANCH  53  77
BRANCH  65  88
ATOM     88  C   UNL A   1      46.901  25.867  32.535  1.00  0.00     0.023 A 
ATOM     89  C   UNL A   1      48.106  26.463  32.112  1.00  0.00     0.012 A 
ATOM     90  C   UNL A   1      46.942  24.817  33.474  1.00  0.00     0.148 A 
ATOM     91  C   UNL A   1      49.331  25.997  32.587  1.00  0.00     0.002 A 
ATOM     92  C   UNL A   1      48.163  24.395  33.985  1.00  0.00     0.091 A 
ATOM     93  F   UNL A   1      45.786  24.253  33.853  1.00  0.00    -0.205 F 
ATOM     94  C   UNL A   1      49.360  24.974  33.532  1.00  0.00     0.022 A 
BRANCH  92  95
ATOM     95  S   UNL A   1      48.291  23.154  35.277  1.00  0.00     0.127 S 
ATOM     96  O   UNL A   1      49.739  23.074  35.471  1.00  0.00    -0.237 OA
ATOM     97  O   UNL A   1      47.562  23.779  36.380  1.00  0.00    -0.237 OA
ATOM     98  O   UNL A   1      47.667  21.950  34.744  1.00  0.00    -0.744 OA
ENDBRANCH  92  95
ENDBRANCH  65  88
ENDBRANCH  39  40
ENDBRANCH  32  34
ENDBRANCH  31  32
ENDBRANCH  30  31
ENDBRANCH   1  30
TORSDOF 22
ENDMDL
