MODEL 1
REMARK VINA RESULT:     -10.9      0.000      0.000
REMARK SMILES CC[NH2+][C@]1(C(=O)OCCOCCOC(=O)c2ccc(-c3c4nc(c(-c5cccc(S(=O)(=O)[O-])c5F)c5ccc([nH]5)c(-c5cccc(S(=O)(=O)[O-])c5F)c5nc(c(-c6cccc(S(=O)(=O)[O-])c6F)c6ccc3[nH]6)C=C5)C=C4)cc2)CCC[C@H]([N@@H+]2CCC[C@@H]2C(C)C)C1
REMARK SMILES IDX 11 1 10 2 9 3 8 4 7 5 5 6 6 7 4 8 79 9 91 10 80 11 82 12
REMARK SMILES IDX 81 13 3 14 2 17 1 18 83 19 84 20 87 21 85 23 86 24 88 25
REMARK SMILES IDX 89 26 90 27 12 28 13 29 14 30 15 31 16 32 17 33 78 34 18 35
REMARK SMILES IDX 77 36 19 37 20 38 21 39 71 40 22 41 76 42 70 43 72 44 23 45
REMARK SMILES IDX 75 46 69 47 68 48 24 50 56 51 36 52 55 53 37 54 40 55 54 56
REMARK SMILES IDX 73 57 38 58 39 59 53 61 74 62 41 63 25 64 26 65 34 66 27 67
REMARK SMILES IDX 29 68 35 69 28 70 30 71 31 72 32 73 33 74 57 75 58 76 66 77
REMARK SMILES IDX 59 78 61 79 67 80 60 81 62 82 63 83 64 84 65 85 42 86 43 87
REMARK SMILES IDX 51 88 44 89 46 90 52 91 45 92 47 93 48 94 49 95 50 96
REMARK H PARENT 3 15 3 16 83 22 72 49 40 60
REMARK Flexibility Score: inf
ROOT
ATOM      1  C   UNL A   1      31.526  29.580  25.337  1.00  0.00     0.202 C 
ENDROOT
BRANCH   1   2
ATOM      2  O   UNL A   1      32.640  28.696  25.237  1.00  0.00    -0.374 OA
BRANCH   2   3
ATOM      3  C   UNL A   1      33.678  28.956  24.287  1.00  0.00     0.202 C 
BRANCH   3   4
ATOM      4  C   UNL A   1      33.544  28.504  22.826  1.00  0.00     0.261 C 
BRANCH   4   5
ATOM      5  O   UNL A   1      32.589  27.449  22.667  1.00  0.00    -0.459 OA
BRANCH   5   6
ATOM      6  C   UNL A   1      33.199  26.279  22.346  1.00  0.00     0.368 C 
ATOM      7  O   UNL A   1      33.644  26.064  21.218  1.00  0.00    -0.245 OA
BRANCH   6   8
ATOM      8  C   UNL A   1      33.293  25.251  23.512  1.00  0.00     0.200 C 
ATOM      9  C   UNL A   1      34.043  24.057  22.611  1.00  0.00     0.081 C 
ATOM     10  C   UNL A   1      34.415  25.467  24.529  1.00  0.00     0.146 C 
ATOM     11  C   UNL A   1      34.972  22.935  23.141  1.00  0.00     0.013 C 
ATOM     12  C   UNL A   1      34.662  24.100  25.238  1.00  0.00     0.191 C 
ATOM     13  C   UNL A   1      35.672  23.339  24.405  1.00  0.00     0.065 C 
BRANCH   8  14
ATOM     14  N   UNL A   1      32.205  25.513  24.559  1.00  0.00    -0.332 N 
ATOM     15  H   UNL A   1      32.458  24.857  25.297  1.00  0.00     0.347 HD
ATOM     16  H   UNL A   1      32.255  26.526  24.449  1.00  0.00     0.347 HD
BRANCH  14  17
ATOM     17  C   UNL A   1      30.750  25.500  24.628  1.00  0.00     0.257 C 
ATOM     18  C   UNL A   1      30.208  25.402  26.078  1.00  0.00     0.071 C 
ENDBRANCH  14  17
ENDBRANCH   8  14
BRANCH  12  19
ATOM     19  N   UNL A   1      33.482  23.276  25.632  1.00  0.00    -0.330 N 
ATOM     20  C   UNL A   1      33.250  23.403  27.078  1.00  0.00     0.262 C 
ATOM     21  C   UNL A   1      32.965  21.895  25.202  1.00  0.00     0.187 C 
ATOM     22  H   UNL A   1      32.972  23.726  24.873  1.00  0.00     0.348 HD
ATOM     23  C   UNL A   1      33.558  22.034  27.614  1.00  0.00     0.067 C 
ATOM     24  C   UNL A   1      33.111  21.091  26.523  1.00  0.00     0.071 C 
BRANCH  21  25
ATOM     25  C   UNL A   1      33.127  20.795  23.935  1.00  0.00     0.041 C 
ATOM     26  C   UNL A   1      33.255  19.346  24.459  1.00  0.00     0.014 C 
ATOM     27  C   UNL A   1      32.150  20.564  22.731  1.00  0.00     0.014 C 
ENDBRANCH  21  25
ENDBRANCH  12  19
ENDBRANCH   6   8
ENDBRANCH   5   6
ENDBRANCH   4   5
ENDBRANCH   3   4
ENDBRANCH   2   3
ENDBRANCH   1   2
BRANCH   1  28
ATOM     28  C   UNL A   1      31.629  30.877  26.132  1.00  0.00     0.261 C 
BRANCH  28  29
ATOM     29  O   UNL A   1      32.514  30.744  27.245  1.00  0.00    -0.460 OA
BRANCH  29  30
ATOM     30  C   UNL A   1      33.262  31.849  27.449  1.00  0.00     0.338 C 
ATOM     31  O   UNL A   1      32.857  33.006  27.527  1.00  0.00    -0.246 OA
BRANCH  30  32
ATOM     32  C   UNL A   1      34.644  31.478  27.779  1.00  0.00     0.060 A 
ATOM     33  C   UNL A   1      34.905  30.111  27.944  1.00  0.00     0.016 A 
ATOM     34  C   UNL A   1      35.636  32.434  28.000  1.00  0.00     0.016 A 
ATOM     35  C   UNL A   1      36.123  29.698  28.450  1.00  0.00     0.010 A 
ATOM     36  C   UNL A   1      36.860  32.019  28.519  1.00  0.00     0.010 A 
ATOM     37  C   UNL A   1      37.074  30.659  28.809  1.00  0.00    -0.014 A 
BRANCH  37  38
ATOM     38  C   UNL A   1      38.191  30.247  29.679  1.00  0.00     0.031 A 
ATOM     39  C   UNL A   1      39.181  29.247  29.149  1.00  0.00     0.074 A 
ATOM     40  C   UNL A   1      38.341  30.799  30.894  1.00  0.00     0.049 A 
ATOM     41  N   UNL A   1      40.229  28.733  29.734  1.00  0.00    -0.248 NA
ATOM     42  C   UNL A   1      38.961  28.758  27.775  1.00  0.00     0.031 C 
ATOM     43  C   UNL A   1      37.448  31.797  31.482  1.00  0.00     0.029 A 
ATOM     44  N   UNL A   1      39.290  30.582  31.856  1.00  0.00    -0.354 N 
ATOM     45  C   UNL A   1      40.769  27.834  28.822  1.00  0.00     0.074 A 
ATOM     46  C   UNL A   1      39.930  27.864  27.645  1.00  0.00     0.031 C 
ATOM     47  C   UNL A   1      37.878  32.086  32.721  1.00  0.00     0.029 A 
ATOM     48  C   UNL A   1      39.051  31.269  33.020  1.00  0.00     0.049 A 
ATOM     49  H   UNL A   1      40.067  29.991  31.726  1.00  0.00     0.167 HD
ATOM     50  C   UNL A   1      41.872  27.063  28.953  1.00  0.00     0.034 A 
ATOM     51  C   UNL A   1      39.693  31.214  34.202  1.00  0.00     0.034 A 
ATOM     52  C   UNL A   1      42.705  27.060  30.123  1.00  0.00     0.049 A 
ATOM     53  C   UNL A   1      40.900  30.324  34.330  1.00  0.00     0.074 A 
ATOM     54  C   UNL A   1      43.872  26.353  30.346  1.00  0.00     0.029 A 
ATOM     55  N   UNL A   1      42.452  27.791  31.274  1.00  0.00    -0.354 N 
ATOM     56  N   UNL A   1      41.456  29.552  33.427  1.00  0.00    -0.248 NA
ATOM     57  C   UNL A   1      41.588  30.323  35.628  1.00  0.00     0.031 C 
ATOM     58  C   UNL A   1      44.299  26.621  31.650  1.00  0.00     0.029 A 
ATOM     59  C   UNL A   1      43.429  27.538  32.220  1.00  0.00     0.049 A 
ATOM     60  H   UNL A   1      41.689  28.400  31.400  1.00  0.00     0.167 HD
ATOM     61  C   UNL A   1      42.582  29.007  34.033  1.00  0.00     0.074 A 
ATOM     62  C   UNL A   1      42.636  29.551  35.374  1.00  0.00     0.031 C 
ATOM     63  C   UNL A   1      43.487  28.130  33.531  1.00  0.00     0.034 A 
BRANCH  50  64
ATOM     64  C   UNL A   1      42.243  26.158  27.808  1.00  0.00     0.023 A 
ATOM     65  C   UNL A   1      43.101  26.620  26.790  1.00  0.00     0.012 A 
ATOM     66  C   UNL A   1      41.789  24.824  27.775  1.00  0.00     0.148 A 
ATOM     67  C   UNL A   1      43.479  25.779  25.743  1.00  0.00     0.002 A 
ATOM     68  C   UNL A   1      42.208  23.978  26.756  1.00  0.00     0.091 A 
ATOM     69  F   UNL A   1      40.953  24.411  28.739  1.00  0.00    -0.205 F 
ATOM     70  C   UNL A   1      43.043  24.456  25.734  1.00  0.00     0.022 A 
BRANCH  68  71
ATOM     71  S   UNL A   1      41.768  22.238  26.699  1.00  0.00     0.127 S 
ATOM     72  O   UNL A   1      42.186  21.872  25.346  1.00  0.00    -0.237 OA
ATOM     73  O   UNL A   1      42.597  21.679  27.766  1.00  0.00    -0.237 OA
ATOM     74  O   UNL A   1      40.334  22.175  26.945  1.00  0.00    -0.744 OA
ENDBRANCH  68  71
ENDBRANCH  50  64
BRANCH  51  75
ATOM     75  C   UNL A   1      39.212  32.032  35.348  1.00  0.00     0.023 A 
ATOM     76  C   UNL A   1      38.263  31.499  36.240  1.00  0.00     0.012 A 
ATOM     77  C   UNL A   1      39.706  33.334  35.565  1.00  0.00     0.148 A 
ATOM     78  C   UNL A   1      37.784  32.264  37.306  1.00  0.00     0.002 A 
ATOM     79  C   UNL A   1      39.269  34.066  36.660  1.00  0.00     0.091 A 
ATOM     80  F   UNL A   1      40.602  33.825  34.697  1.00  0.00    -0.205 F 
ATOM     81  C   UNL A   1      38.293  33.542  37.520  1.00  0.00     0.022 A 
BRANCH  79  82
ATOM     82  S   UNL A   1      39.966  35.665  37.088  1.00  0.00     0.127 S 
ATOM     83  O   UNL A   1      41.381  35.342  37.246  1.00  0.00    -0.237 OA
ATOM     84  O   UNL A   1      39.642  36.461  35.904  1.00  0.00    -0.237 OA
ATOM     85  O   UNL A   1      39.275  36.085  38.300  1.00  0.00    -0.744 OA
ENDBRANCH  79  82
ENDBRANCH  51  75
BRANCH  63  86
ATOM     86  C   UNL A   1      44.647  27.745  34.411  1.00  0.00     0.023 A 
ATOM     87  C   UNL A   1      45.850  28.477  34.360  1.00  0.00     0.012 A 
ATOM     88  C   UNL A   1      44.513  26.697  35.343  1.00  0.00     0.148 A 
ATOM     89  C   UNL A   1      46.915  28.146  35.196  1.00  0.00     0.002 A 
ATOM     90  C   UNL A   1      45.557  26.411  36.213  1.00  0.00     0.091 A 
ATOM     91  F   UNL A   1      43.365  26.005  35.365  1.00  0.00    -0.205 F 
ATOM     92  C   UNL A   1      46.764  27.124  36.130  1.00  0.00     0.022 A 
BRANCH  90  93
ATOM     93  S   UNL A   1      45.416  25.183  37.515  1.00  0.00     0.127 S 
ATOM     94  O   UNL A   1      44.187  25.603  38.188  1.00  0.00    -0.237 OA
ATOM     95  O   UNL A   1      45.300  23.938  36.755  1.00  0.00    -0.237 OA
ATOM     96  O   UNL A   1      46.630  25.296  38.311  1.00  0.00    -0.744 OA
ENDBRANCH  90  93
ENDBRANCH  63  86
ENDBRANCH  37  38
ENDBRANCH  30  32
ENDBRANCH  29  30
ENDBRANCH  28  29
ENDBRANCH   1  28
TORSDOF 21
ENDMDL
MODEL 2
REMARK VINA RESULT:     -10.8      0.690      7.722
REMARK SMILES CC[NH2+][C@]1(C(=O)OCCOCCOC(=O)c2ccc(-c3c4nc(c(-c5cccc(S(=O)(=O)[O-])c5F)c5ccc([nH]5)c(-c5cccc(S(=O)(=O)[O-])c5F)c5nc(c(-c6cccc(S(=O)(=O)[O-])c6F)c6ccc3[nH]6)C=C5)C=C4)cc2)CCC[C@H]([N@@H+]2CCC[C@@H]2C(C)C)C1
REMARK SMILES IDX 11 1 10 2 9 3 8 4 7 5 5 6 6 7 4 8 79 9 91 10 80 11 82 12
REMARK SMILES IDX 81 13 3 14 2 17 1 18 83 19 84 20 87 21 85 23 86 24 88 25
REMARK SMILES IDX 89 26 90 27 12 28 13 29 14 30 15 31 16 32 17 33 78 34 18 35
REMARK SMILES IDX 77 36 19 37 20 38 21 39 71 40 22 41 76 42 70 43 72 44 23 45
REMARK SMILES IDX 75 46 69 47 68 48 24 50 56 51 36 52 55 53 37 54 40 55 54 56
REMARK SMILES IDX 73 57 38 58 39 59 53 61 74 62 41 63 25 64 26 65 34 66 27 67
REMARK SMILES IDX 29 68 35 69 28 70 30 71 31 72 32 73 33 74 57 75 58 76 66 77
REMARK SMILES IDX 59 78 61 79 67 80 60 81 62 82 63 83 64 84 65 85 42 86 43 87
REMARK SMILES IDX 51 88 44 89 46 90 52 91 45 92 47 93 48 94 49 95 50 96
REMARK H PARENT 3 15 3 16 83 22 72 49 40 60
REMARK Flexibility Score: inf
ROOT
ATOM      1  C   UNL A   1      31.695  30.041  25.453  1.00  0.00     0.202 C 
ENDROOT
BRANCH   1   2
ATOM      2  O   UNL A   1      30.625  29.913  24.519  1.00  0.00    -0.374 OA
BRANCH   2   3
ATOM      3  C   UNL A   1      30.667  28.894  23.516  1.00  0.00     0.202 C 
BRANCH   3   4
ATOM      4  C   UNL A   1      31.923  28.678  22.660  1.00  0.00     0.261 C 
BRANCH   4   5
ATOM      5  O   UNL A   1      32.827  27.737  23.248  1.00  0.00    -0.459 OA
BRANCH   5   6
ATOM      6  C   UNL A   1      32.565  26.473  22.825  1.00  0.00     0.368 C 
ATOM      7  O   UNL A   1      32.085  26.244  21.715  1.00  0.00    -0.245 OA
BRANCH   6   8
ATOM      8  C   UNL A   1      32.928  25.355  23.847  1.00  0.00     0.200 C 
ATOM      9  C   UNL A   1      33.547  24.296  22.710  1.00  0.00     0.081 C 
ATOM     10  C   UNL A   1      34.212  25.553  24.655  1.00  0.00     0.146 C 
ATOM     11  C   UNL A   1      34.612  23.194  22.947  1.00  0.00     0.013 C 
ATOM     12  C   UNL A   1      34.652  24.148  25.169  1.00  0.00     0.191 C 
ATOM     13  C   UNL A   1      35.519  23.530  24.092  1.00  0.00     0.065 C 
BRANCH   8  14
ATOM     14  N   UNL A   1      32.048  25.454  25.098  1.00  0.00    -0.332 N 
ATOM     15  H   UNL A   1      32.313  24.614  25.611  1.00  0.00     0.347 HD
ATOM     16  H   UNL A   1      32.220  26.453  25.217  1.00  0.00     0.347 HD
BRANCH  14  17
ATOM     17  C   UNL A   1      30.630  25.568  25.413  1.00  0.00     0.257 C 
ATOM     18  C   UNL A   1      30.129  24.465  26.381  1.00  0.00     0.071 C 
ENDBRANCH  14  17
ENDBRANCH   8  14
BRANCH  12  19
ATOM     19  N   UNL A   1      33.609  23.219  25.691  1.00  0.00    -0.330 N 
ATOM     20  C   UNL A   1      33.562  23.302  27.158  1.00  0.00     0.262 C 
ATOM     21  C   UNL A   1      33.156  21.805  25.295  1.00  0.00     0.187 C 
ATOM     22  H   UNL A   1      32.966  23.635  25.019  1.00  0.00     0.348 HD
ATOM     23  C   UNL A   1      34.052  21.956  27.611  1.00  0.00     0.067 C 
ATOM     24  C   UNL A   1      33.545  20.995  26.563  1.00  0.00     0.071 C 
BRANCH  21  25
ATOM     25  C   UNL A   1      33.239  20.745  23.988  1.00  0.00     0.041 C 
ATOM     26  C   UNL A   1      33.445  19.286  24.458  1.00  0.00     0.014 C 
ATOM     27  C   UNL A   1      32.171  20.520  22.863  1.00  0.00     0.014 C 
ENDBRANCH  21  25
ENDBRANCH  12  19
ENDBRANCH   6   8
ENDBRANCH   5   6
ENDBRANCH   4   5
ENDBRANCH   3   4
ENDBRANCH   2   3
ENDBRANCH   1   2
BRANCH   1  28
ATOM     28  C   UNL A   1      31.709  31.175  26.472  1.00  0.00     0.261 C 
BRANCH  28  29
ATOM     29  O   UNL A   1      32.698  30.963  27.482  1.00  0.00    -0.460 OA
BRANCH  29  30
ATOM     30  C   UNL A   1      33.517  32.025  27.637  1.00  0.00     0.338 C 
ATOM     31  O   UNL A   1      33.182  33.202  27.736  1.00  0.00    -0.246 OA
BRANCH  30  32
ATOM     32  C   UNL A   1      34.894  31.577  27.883  1.00  0.00     0.060 A 
ATOM     33  C   UNL A   1      35.107  30.193  27.918  1.00  0.00     0.016 A 
ATOM     34  C   UNL A   1      35.928  32.474  28.151  1.00  0.00     0.016 A 
ATOM     35  C   UNL A   1      36.325  29.694  28.343  1.00  0.00     0.010 A 
ATOM     36  C   UNL A   1      37.152  31.972  28.588  1.00  0.00     0.010 A 
ATOM     37  C   UNL A   1      37.323  30.585  28.751  1.00  0.00    -0.014 A 
BRANCH  37  38
ATOM     38  C   UNL A   1      38.451  30.058  29.541  1.00  0.00     0.031 A 
ATOM     39  C   UNL A   1      38.609  30.521  30.963  1.00  0.00     0.074 A 
ATOM     40  C   UNL A   1      39.281  29.147  29.009  1.00  0.00     0.049 A 
ATOM     41  N   UNL A   1      39.524  30.204  31.838  1.00  0.00    -0.248 NA
ATOM     42  C   UNL A   1      37.599  31.471  31.468  1.00  0.00     0.031 C 
ATOM     43  C   UNL A   1      39.191  28.617  27.649  1.00  0.00     0.029 A 
ATOM     44  N   UNL A   1      40.373  28.521  29.547  1.00  0.00    -0.354 N 
ATOM     45  C   UNL A   1      39.228  30.941  32.979  1.00  0.00     0.074 A 
ATOM     46  C   UNL A   1      38.053  31.729  32.686  1.00  0.00     0.031 C 
ATOM     47  C   UNL A   1      40.209  27.763  27.448  1.00  0.00     0.029 A 
ATOM     48  C   UNL A   1      41.034  27.716  28.653  1.00  0.00     0.049 A 
ATOM     49  H   UNL A   1      40.656  28.636  30.483  1.00  0.00     0.167 HD
ATOM     50  C   UNL A   1      39.875  30.948  34.166  1.00  0.00     0.034 A 
ATOM     51  C   UNL A   1      42.194  27.047  28.787  1.00  0.00     0.034 A 
ATOM     52  C   UNL A   1      41.031  30.143  34.446  1.00  0.00     0.049 A 
ATOM     53  C   UNL A   1      42.909  27.096  30.110  1.00  0.00     0.074 A 
ATOM     54  C   UNL A   1      41.739  30.036  35.629  1.00  0.00     0.029 A 
ATOM     55  N   UNL A   1      41.658  29.315  33.527  1.00  0.00    -0.354 N 
ATOM     56  N   UNL A   1      42.566  27.720  31.211  1.00  0.00    -0.248 NA
ATOM     57  C   UNL A   1      44.153  26.322  30.221  1.00  0.00     0.031 C 
ATOM     58  C   UNL A   1      42.821  29.180  35.411  1.00  0.00     0.029 A 
ATOM     59  C   UNL A   1      42.757  28.709  34.109  1.00  0.00     0.049 A 
ATOM     60  H   UNL A   1      41.365  29.179  32.597  1.00  0.00     0.167 HD
ATOM     61  C   UNL A   1      43.527  27.381  32.157  1.00  0.00     0.074 A 
ATOM     62  C   UNL A   1      44.455  26.483  31.502  1.00  0.00     0.031 C 
ATOM     63  C   UNL A   1      43.638  27.781  33.449  1.00  0.00     0.034 A 
BRANCH  50  64
ATOM     64  C   UNL A   1      39.352  31.852  35.251  1.00  0.00     0.023 A 
ATOM     65  C   UNL A   1      38.398  31.374  36.172  1.00  0.00     0.012 A 
ATOM     66  C   UNL A   1      39.855  33.160  35.395  1.00  0.00     0.148 A 
ATOM     67  C   UNL A   1      37.933  32.192  37.202  1.00  0.00     0.002 A 
ATOM     68  C   UNL A   1      39.424  33.953  36.452  1.00  0.00     0.091 A 
ATOM     69  F   UNL A   1      40.743  33.605  34.495  1.00  0.00    -0.205 F 
ATOM     70  C   UNL A   1      38.455  33.474  37.349  1.00  0.00     0.022 A 
BRANCH  68  71
ATOM     71  S   UNL A   1      40.095  35.586  36.775  1.00  0.00     0.127 S 
ATOM     72  O   UNL A   1      39.617  36.336  35.613  1.00  0.00    -0.237 OA
ATOM     73  O   UNL A   1      39.445  35.939  38.037  1.00  0.00    -0.237 OA
ATOM     74  O   UNL A   1      41.539  35.422  36.857  1.00  0.00    -0.744 OA
ENDBRANCH  68  71
ENDBRANCH  50  64
BRANCH  51  75
ATOM     75  C   UNL A   1      42.740  26.267  27.643  1.00  0.00     0.023 A 
ATOM     76  C   UNL A   1      43.671  26.862  26.771  1.00  0.00     0.012 A 
ATOM     77  C   UNL A   1      42.349  24.931  27.426  1.00  0.00     0.148 A 
ATOM     78  C   UNL A   1      44.174  26.152  25.679  1.00  0.00     0.002 A 
ATOM     79  C   UNL A   1      42.898  24.212  26.373  1.00  0.00     0.091 A 
ATOM     80  F   UNL A   1      41.454  24.387  28.263  1.00  0.00    -0.205 F 
ATOM     81  C   UNL A   1      43.794  24.826  25.486  1.00  0.00     0.022 A 
BRANCH  79  82
ATOM     82  S   UNL A   1      42.569  22.464  26.127  1.00  0.00     0.127 S 
ATOM     83  O   UNL A   1      41.122  22.457  25.928  1.00  0.00    -0.237 OA
ATOM     84  O   UNL A   1      43.358  22.175  24.929  1.00  0.00    -0.237 OA
ATOM     85  O   UNL A   1      43.043  21.799  27.333  1.00  0.00    -0.744 OA
ENDBRANCH  79  82
ENDBRANCH  51  75
BRANCH  63  86
ATOM     86  C   UNL A   1      44.769  27.207  34.261  1.00  0.00     0.023 A 
ATOM     87  C   UNL A   1      46.020  27.854  34.292  1.00  0.00     0.012 A 
ATOM     88  C   UNL A   1      44.562  26.060  35.053  1.00  0.00     0.148 A 
ATOM     89  C   UNL A   1      47.060  27.345  35.070  1.00  0.00     0.002 A 
ATOM     90  C   UNL A   1      45.584  25.592  35.869  1.00  0.00     0.091 A 
ATOM     91  F   UNL A   1      43.368  25.452  34.997  1.00  0.00    -0.205 F 
ATOM     92  C   UNL A   1      46.838  26.224  35.867  1.00  0.00     0.022 A 
BRANCH  90  93
ATOM     93  S   UNL A   1      45.357  24.220  37.005  1.00  0.00     0.127 S 
ATOM     94  O   UNL A   1      45.014  23.131  36.091  1.00  0.00    -0.237 OA
ATOM     95  O   UNL A   1      46.680  24.107  37.619  1.00  0.00    -0.237 OA
ATOM     96  O   UNL A   1      44.297  24.622  37.919  1.00  0.00    -0.744 OA
ENDBRANCH  90  93
ENDBRANCH  63  86
ENDBRANCH  37  38
ENDBRANCH  30  32
ENDBRANCH  29  30
ENDBRANCH  28  29
ENDBRANCH   1  28
TORSDOF 21
ENDMDL
MODEL 3
REMARK VINA RESULT:     -10.8      4.723      7.871
REMARK SMILES CC[NH2+][C@]1(C(=O)OCCOCCOC(=O)c2ccc(-c3c4nc(c(-c5cccc(S(=O)(=O)[O-])c5F)c5ccc([nH]5)c(-c5cccc(S(=O)(=O)[O-])c5F)c5nc(c(-c6cccc(S(=O)(=O)[O-])c6F)c6ccc3[nH]6)C=C5)C=C4)cc2)CCC[C@H]([N@@H+]2CCC[C@@H]2C(C)C)C1
REMARK SMILES IDX 11 1 10 2 9 3 8 4 7 5 5 6 6 7 4 8 79 9 91 10 80 11 82 12
REMARK SMILES IDX 81 13 3 14 2 17 1 18 83 19 84 20 87 21 85 23 86 24 88 25
REMARK SMILES IDX 89 26 90 27 12 28 13 29 14 30 15 31 16 32 17 33 78 34 18 35
REMARK SMILES IDX 77 36 19 37 20 38 21 39 71 40 22 41 76 42 70 43 72 44 23 45
REMARK SMILES IDX 75 46 69 47 68 48 24 50 56 51 36 52 55 53 37 54 40 55 54 56
REMARK SMILES IDX 73 57 38 58 39 59 53 61 74 62 41 63 25 64 26 65 34 66 27 67
REMARK SMILES IDX 29 68 35 69 28 70 30 71 31 72 32 73 33 74 57 75 58 76 66 77
REMARK SMILES IDX 59 78 61 79 67 80 60 81 62 82 63 83 64 84 65 85 42 86 43 87
REMARK SMILES IDX 51 88 44 89 46 90 52 91 45 92 47 93 48 94 49 95 50 96
REMARK H PARENT 3 15 3 16 83 22 72 49 40 60
REMARK Flexibility Score: inf
ROOT
ATOM      1  C   UNL A   1      36.070  20.685  24.931  1.00  0.00     0.202 C 
ENDROOT
BRANCH   1   2
ATOM      2  O   UNL A   1      35.073  19.704  24.656  1.00  0.00    -0.374 OA
BRANCH   2   3
ATOM      3  C   UNL A   1      33.710  19.948  25.013  1.00  0.00     0.202 C 
BRANCH   3   4
ATOM      4  C   UNL A   1      33.353  20.854  26.200  1.00  0.00     0.261 C 
BRANCH   4   5
ATOM      5  O   UNL A   1      32.746  22.081  25.786  1.00  0.00    -0.459 OA
BRANCH   5   6
ATOM      6  C   UNL A   1      33.424  23.153  26.271  1.00  0.00     0.368 C 
ATOM      7  O   UNL A   1      34.162  23.068  27.253  1.00  0.00    -0.245 OA
BRANCH   6   8
ATOM      8  C   UNL A   1      33.199  24.479  25.484  1.00  0.00     0.200 C 
ATOM      9  C   UNL A   1      31.745  24.856  26.221  1.00  0.00     0.081 C 
ATOM     10  C   UNL A   1      33.986  25.701  25.959  1.00  0.00     0.146 C 
ATOM     11  C   UNL A   1      31.137  26.269  26.412  1.00  0.00     0.013 C 
ATOM     12  C   UNL A   1      33.236  26.963  25.431  1.00  0.00     0.191 C 
ATOM     13  C   UNL A   1      32.195  27.331  26.468  1.00  0.00     0.065 C 
BRANCH   8  14
ATOM     14  N   UNL A   1      33.934  24.446  24.140  1.00  0.00    -0.332 N 
ATOM     15  H   UNL A   1      33.310  24.988  23.543  1.00  0.00     0.347 HD
ATOM     16  H   UNL A   1      34.847  24.612  24.564  1.00  0.00     0.347 HD
BRANCH  14  17
ATOM     17  C   UNL A   1      34.444  23.444  23.214  1.00  0.00     0.257 C 
ATOM     18  C   UNL A   1      33.444  23.093  22.082  1.00  0.00     0.071 C 
ENDBRANCH  14  17
ENDBRANCH   8  14
BRANCH  12  19
ATOM     19  N   UNL A   1      32.702  26.948  24.039  1.00  0.00    -0.330 N 
ATOM     20  C   UNL A   1      33.749  27.377  23.102  1.00  0.00     0.262 C 
ATOM     21  C   UNL A   1      31.347  27.325  23.421  1.00  0.00     0.187 C 
ATOM     22  H   UNL A   1      32.376  25.999  24.223  1.00  0.00     0.348 HD
ATOM     23  C   UNL A   1      33.247  28.693  22.579  1.00  0.00     0.067 C 
ATOM     24  C   UNL A   1      31.747  28.532  22.528  1.00  0.00     0.071 C 
BRANCH  21  25
ATOM     25  C   UNL A   1      29.742  27.561  23.879  1.00  0.00     0.041 C 
ATOM     26  C   UNL A   1      29.107  28.746  23.116  1.00  0.00     0.014 C 
ATOM     27  C   UNL A   1      28.563  26.530  23.813  1.00  0.00     0.014 C 
ENDBRANCH  21  25
ENDBRANCH  12  19
ENDBRANCH   6   8
ENDBRANCH   5   6
ENDBRANCH   4   5
ENDBRANCH   3   4
ENDBRANCH   2   3
ENDBRANCH   1   2
BRANCH   1  28
ATOM     28  C   UNL A   1      37.546  20.303  24.983  1.00  0.00     0.261 C 
BRANCH  28  29
ATOM     29  O   UNL A   1      38.379  21.448  25.176  1.00  0.00    -0.460 OA
BRANCH  29  30
ATOM     30  C   UNL A   1      39.398  21.212  26.030  1.00  0.00     0.338 C 
ATOM     31  O   UNL A   1      40.099  20.204  26.075  1.00  0.00    -0.246 OA
BRANCH  30  32
ATOM     32  C   UNL A   1      39.715  22.423  26.796  1.00  0.00     0.060 A 
ATOM     33  C   UNL A   1      38.957  23.566  26.507  1.00  0.00     0.016 A 
ATOM     34  C   UNL A   1      40.768  22.468  27.710  1.00  0.00     0.016 A 
ATOM     35  C   UNL A   1      39.325  24.789  27.035  1.00  0.00     0.010 A 
ATOM     36  C   UNL A   1      41.145  23.702  28.235  1.00  0.00     0.010 A 
ATOM     37  C   UNL A   1      40.466  24.869  27.840  1.00  0.00    -0.014 A 
BRANCH  37  38
ATOM     38  C   UNL A   1      41.059  26.197  28.084  1.00  0.00     0.031 A 
ATOM     39  C   UNL A   1      42.432  26.480  27.540  1.00  0.00     0.074 A 
ATOM     40  C   UNL A   1      40.358  27.141  28.732  1.00  0.00     0.049 A 
ATOM     41  N   UNL A   1      43.152  27.565  27.639  1.00  0.00    -0.248 NA
ATOM     42  C   UNL A   1      43.084  25.395  26.783  1.00  0.00     0.031 C 
ATOM     43  C   UNL A   1      39.009  26.969  29.271  1.00  0.00     0.029 A 
ATOM     44  N   UNL A   1      40.695  28.427  29.060  1.00  0.00    -0.354 N 
ATOM     45  C   UNL A   1      44.351  27.282  26.996  1.00  0.00     0.074 A 
ATOM     46  C   UNL A   1      44.269  25.922  26.516  1.00  0.00     0.031 C 
ATOM     47  C   UNL A   1      38.643  28.102  29.892  1.00  0.00     0.029 A 
ATOM     48  C   UNL A   1      39.743  29.061  29.819  1.00  0.00     0.049 A 
ATOM     49  H   UNL A   1      41.536  28.854  28.779  1.00  0.00     0.167 HD
ATOM     50  C   UNL A   1      45.419  28.092  26.815  1.00  0.00     0.034 A 
ATOM     51  C   UNL A   1      39.777  30.267  30.415  1.00  0.00     0.034 A 
ATOM     52  C   UNL A   1      45.476  29.449  27.283  1.00  0.00     0.049 A 
ATOM     53  C   UNL A   1      40.990  31.136  30.222  1.00  0.00     0.074 A 
ATOM     54  C   UNL A   1      46.489  30.375  27.115  1.00  0.00     0.029 A 
ATOM     55  N   UNL A   1      44.482  30.071  28.023  1.00  0.00    -0.354 N 
ATOM     56  N   UNL A   1      42.078  30.894  29.531  1.00  0.00    -0.248 NA
ATOM     57  C   UNL A   1      40.967  32.459  30.862  1.00  0.00     0.031 C 
ATOM     58  C   UNL A   1      46.127  31.542  27.794  1.00  0.00     0.029 A 
ATOM     59  C   UNL A   1      44.864  31.363  28.338  1.00  0.00     0.049 A 
ATOM     60  H   UNL A   1      43.629  29.655  28.286  1.00  0.00     0.167 HD
ATOM     61  C   UNL A   1      42.850  32.047  29.617  1.00  0.00     0.074 A 
ATOM     62  C   UNL A   1      42.096  32.992  30.415  1.00  0.00     0.031 C 
ATOM     63  C   UNL A   1      44.074  32.301  29.093  1.00  0.00     0.034 A 
BRANCH  50  64
ATOM     64  C   UNL A   1      46.613  27.537  26.084  1.00  0.00     0.023 A 
ATOM     65  C   UNL A   1      46.740  27.723  24.692  1.00  0.00     0.012 A 
ATOM     66  C   UNL A   1      47.642  26.882  26.789  1.00  0.00     0.148 A 
ATOM     67  C   UNL A   1      47.858  27.243  24.010  1.00  0.00     0.002 A 
ATOM     68  C   UNL A   1      48.776  26.450  26.112  1.00  0.00     0.091 A 
ATOM     69  F   UNL A   1      47.491  26.693  28.108  1.00  0.00    -0.205 F 
ATOM     70  C   UNL A   1      48.880  26.619  24.722  1.00  0.00     0.022 A 
BRANCH  68  71
ATOM     71  S   UNL A   1      50.181  25.708  26.949  1.00  0.00     0.127 S 
ATOM     72  O   UNL A   1      51.178  25.678  25.879  1.00  0.00    -0.237 OA
ATOM     73  O   UNL A   1      50.452  26.680  28.008  1.00  0.00    -0.237 OA
ATOM     74  O   UNL A   1      49.731  24.405  27.417  1.00  0.00    -0.744 OA
ENDBRANCH  68  71
ENDBRANCH  50  64
BRANCH  51  75
ATOM     75  C   UNL A   1      38.623  30.724  31.237  1.00  0.00     0.023 A 
ATOM     76  C   UNL A   1      38.621  30.501  32.627  1.00  0.00     0.012 A 
ATOM     77  C   UNL A   1      37.533  31.393  30.645  1.00  0.00     0.148 A 
ATOM     78  C   UNL A   1      37.535  30.901  33.407  1.00  0.00     0.002 A 
ATOM     79  C   UNL A   1      36.484  31.841  31.436  1.00  0.00     0.091 A 
ATOM     80  F   UNL A   1      37.552  31.586  29.319  1.00  0.00    -0.205 F 
ATOM     81  C   UNL A   1      36.472  31.578  32.814  1.00  0.00     0.022 A 
BRANCH  79  82
ATOM     82  S   UNL A   1      35.140  32.835  30.779  1.00  0.00     0.127 S 
ATOM     83  O   UNL A   1      34.726  32.049  29.620  1.00  0.00    -0.237 OA
ATOM     84  O   UNL A   1      34.194  32.835  31.895  1.00  0.00    -0.237 OA
ATOM     85  O   UNL A   1      35.721  34.138  30.484  1.00  0.00    -0.744 OA
ENDBRANCH  79  82
ENDBRANCH  51  75
BRANCH  63  86
ATOM     86  C   UNL A   1      44.656  33.673  29.311  1.00  0.00     0.023 A 
ATOM     87  C   UNL A   1      45.634  33.880  30.303  1.00  0.00     0.012 A 
ATOM     88  C   UNL A   1      44.278  34.744  28.477  1.00  0.00     0.148 A 
ATOM     89  C   UNL A   1      46.200  35.141  30.486  1.00  0.00     0.002 A 
ATOM     90  C   UNL A   1      44.887  35.982  28.627  1.00  0.00     0.091 A 
ATOM     91  F   UNL A   1      43.334  34.528  27.548  1.00  0.00    -0.205 F 
ATOM     92  C   UNL A   1      45.837  36.187  29.641  1.00  0.00     0.022 A 
BRANCH  90  93
ATOM     93  S   UNL A   1      44.559  37.357  27.519  1.00  0.00     0.127 S 
ATOM     94  O   UNL A   1      43.500  36.810  26.672  1.00  0.00    -0.237 OA
ATOM     95  O   UNL A   1      44.122  38.402  28.446  1.00  0.00    -0.237 OA
ATOM     96  O   UNL A   1      45.816  37.638  26.839  1.00  0.00    -0.744 OA
ENDBRANCH  90  93
ENDBRANCH  63  86
ENDBRANCH  37  38
ENDBRANCH  30  32
ENDBRANCH  29  30
ENDBRANCH  28  29
ENDBRANCH   1  28
TORSDOF 21
ENDMDL
