MODEL 1
REMARK VINA RESULT:      -7.2      0.000      0.000
REMARK SMILES CCOc1cc(OCC)cc(-c2ccc([C@@H](C)C(=O)OCCOCCOC(=O)c3ccc(-c4c5nc(c(-c6cccc(S(=O)(=O)[O-])c6F)c6ccc([nH]6)c(-c6cccc(S(=O)(=O)[O-])c6F)c6nc(c(-c7cccc(S(=O)(=O)[O-])c7F)c7ccc4[nH]7)C=C6)C=C5)cc3)cc2)c1
REMARK SMILES IDX 22 1 21 2 20 3 18 4 19 5 16 6 17 7 15 8 12 9 13 10 93 11
REMARK SMILES IDX 14 12 92 13 11 14 4 15 5 16 94 17 6 18 10 19 3 20 2 21 1 22
REMARK SMILES IDX 7 23 8 24 9 25 23 26 24 27 25 28 26 29 27 30 28 31 29 32
REMARK SMILES IDX 30 33 91 34 31 35 90 36 32 37 33 38 34 39 84 40 35 41 89 42
REMARK SMILES IDX 83 43 85 44 36 45 88 46 82 47 81 48 37 50 69 51 49 52 68 53
REMARK SMILES IDX 50 54 53 55 67 56 86 57 51 58 52 59 66 61 87 62 54 63 38 64
REMARK SMILES IDX 39 65 47 66 40 67 42 68 48 69 41 70 43 71 44 72 45 73 46 74
REMARK SMILES IDX 70 75 71 76 79 77 72 78 74 79 80 80 73 81 75 82 76 83 77 84
REMARK SMILES IDX 78 85 55 86 56 87 64 88 57 89 59 90 65 91 58 92 60 93 61 94
REMARK SMILES IDX 62 95 63 96
REMARK H PARENT 85 49 53 60
REMARK Flexibility Score: inf
ROOT
ATOM      1  C   UNL A   1      50.713  19.309  35.842  1.00  0.00     0.202 C 
ENDROOT
BRANCH   1   2
ATOM      2  C   UNL A   1      51.310  19.043  37.228  1.00  0.00     0.261 C 
BRANCH   2   3
ATOM      3  O   UNL A   1      50.290  19.070  38.243  1.00  0.00    -0.463 OA
BRANCH   3   4
ATOM      4  C   UNL A   1      49.844  20.295  38.621  1.00  0.00     0.313 C 
ATOM      5  O   UNL A   1      50.567  21.261  38.846  1.00  0.00    -0.252 OA
BRANCH   4   6
ATOM      6  C   UNL A   1      48.332  20.371  38.778  1.00  0.00     0.126 C 
ATOM      7  C   UNL A   1      47.746  18.963  38.792  1.00  0.00     0.025 C 
BRANCH   6   8
ATOM      8  C   UNL A   1      47.572  21.293  37.829  1.00  0.00    -0.034 A 
ATOM      9  C   UNL A   1      45.964  22.854  36.078  1.00  0.00    -0.018 A 
ATOM     10  C   UNL A   1      47.059  22.121  35.597  1.00  0.00     0.009 A 
ATOM     11  C   UNL A   1      45.719  22.836  37.458  1.00  0.00     0.009 A 
ATOM     12  C   UNL A   1      47.849  21.347  36.457  1.00  0.00     0.005 A 
ATOM     13  C   UNL A   1      46.510  22.069  38.320  1.00  0.00     0.005 A 
BRANCH   9  14
ATOM     14  C   UNL A   1      45.064  23.566  35.156  1.00  0.00    -0.011 A 
ATOM     15  C   UNL A   1      44.522  24.432  32.954  1.00  0.00     0.123 A 
ATOM     16  C   UNL A   1      43.339  24.981  33.444  1.00  0.00     0.092 A 
ATOM     17  C   UNL A   1      45.389  23.749  33.806  1.00  0.00     0.055 A 
ATOM     18  C   UNL A   1      43.006  24.837  34.793  1.00  0.00     0.123 A 
ATOM     19  C   UNL A   1      43.864  24.124  35.632  1.00  0.00     0.055 A 
BRANCH  15  20
ATOM     20  O   UNL A   1      44.870  24.700  31.658  1.00  0.00    -0.494 OA
BRANCH  20  21
ATOM     21  C   UNL A   1      44.210  23.859  30.704  1.00  0.00     0.226 C 
ATOM     22  C   UNL A   1      43.482  24.680  29.650  1.00  0.00     0.049 C 
ENDBRANCH  20  21
ENDBRANCH  15  20
BRANCH  18  23
ATOM     23  O   UNL A   1      41.826  25.419  35.172  1.00  0.00    -0.494 OA
BRANCH  23  24
ATOM     24  C   UNL A   1      41.174  24.910  36.338  1.00  0.00     0.226 C 
ATOM     25  C   UNL A   1      41.175  25.930  37.466  1.00  0.00     0.049 C 
ENDBRANCH  23  24
ENDBRANCH  18  23
ENDBRANCH   9  14
ENDBRANCH   6   8
ENDBRANCH   4   6
ENDBRANCH   3   4
ENDBRANCH   2   3
ENDBRANCH   1   2
BRANCH   1  26
ATOM     26  O   UNL A   1      51.494  18.858  34.732  1.00  0.00    -0.374 OA
BRANCH  26  27
ATOM     27  C   UNL A   1      52.877  19.214  34.729  1.00  0.00     0.202 C 
BRANCH  27  28
ATOM     28  C   UNL A   1      53.519  19.440  33.356  1.00  0.00     0.261 C 
BRANCH  28  29
ATOM     29  O   UNL A   1      53.063  20.652  32.733  1.00  0.00    -0.460 OA
BRANCH  29  30
ATOM     30  C   UNL A   1      53.535  21.787  33.296  1.00  0.00     0.338 C 
ATOM     31  O   UNL A   1      54.712  22.105  33.439  1.00  0.00    -0.246 OA
BRANCH  30  32
ATOM     32  C   UNL A   1      52.433  22.721  33.589  1.00  0.00     0.060 A 
ATOM     33  C   UNL A   1      51.132  22.217  33.483  1.00  0.00     0.016 A 
ATOM     34  C   UNL A   1      52.650  24.072  33.874  1.00  0.00     0.016 A 
ATOM     35  C   UNL A   1      50.042  23.076  33.591  1.00  0.00     0.010 A 
ATOM     36  C   UNL A   1      51.549  24.934  33.982  1.00  0.00     0.010 A 
ATOM     37  C   UNL A   1      50.243  24.449  33.796  1.00  0.00    -0.014 A 
BRANCH  37  38
ATOM     38  C   UNL A   1      49.072  25.356  33.688  1.00  0.00     0.031 A 
ATOM     39  C   UNL A   1      48.618  25.829  32.333  1.00  0.00     0.074 A 
ATOM     40  C   UNL A   1      48.368  25.693  34.784  1.00  0.00     0.049 A 
ATOM     41  N   UNL A   1      47.539  26.495  32.010  1.00  0.00    -0.248 NA
ATOM     42  C   UNL A   1      49.490  25.510  31.191  1.00  0.00     0.031 C 
ATOM     43  C   UNL A   1      48.715  25.319  36.155  1.00  0.00     0.029 A 
ATOM     44  N   UNL A   1      47.215  26.425  34.915  1.00  0.00    -0.354 N 
ATOM     45  C   UNL A   1      47.605  26.684  30.634  1.00  0.00     0.074 A 
ATOM     46  C   UNL A   1      48.844  26.085  30.187  1.00  0.00     0.031 C 
ATOM     47  C   UNL A   1      47.793  25.828  36.990  1.00  0.00     0.029 A 
ATOM     48  C   UNL A   1      46.796  26.565  36.215  1.00  0.00     0.049 A 
ATOM     49  H   UNL A   1      46.733  26.813  34.148  1.00  0.00     0.167 HD
ATOM     50  C   UNL A   1      46.706  27.277  29.813  1.00  0.00     0.034 A 
ATOM     51  C   UNL A   1      45.726  27.208  36.726  1.00  0.00     0.034 A 
ATOM     52  C   UNL A   1      45.463  27.855  30.252  1.00  0.00     0.049 A 
ATOM     53  C   UNL A   1      44.736  27.851  35.790  1.00  0.00     0.074 A 
ATOM     54  C   UNL A   1      44.461  28.425  29.486  1.00  0.00     0.029 A 
ATOM     55  N   UNL A   1      45.058  27.950  31.574  1.00  0.00    -0.354 N 
ATOM     56  N   UNL A   1      44.736  27.881  34.479  1.00  0.00    -0.248 NA
ATOM     57  C   UNL A   1      43.574  28.510  36.404  1.00  0.00     0.031 C 
ATOM     58  C   UNL A   1      43.458  28.886  30.348  1.00  0.00     0.029 A 
ATOM     59  C   UNL A   1      43.827  28.582  31.649  1.00  0.00     0.049 A 
ATOM     60  H   UNL A   1      45.569  27.617  32.346  1.00  0.00     0.167 HD
ATOM     61  C   UNL A   1      43.565  28.536  34.111  1.00  0.00     0.074 A 
ATOM     62  C   UNL A   1      42.865  28.857  35.339  1.00  0.00     0.031 C 
ATOM     63  C   UNL A   1      43.119  28.863  32.872  1.00  0.00     0.034 A 
BRANCH  50  64
ATOM     64  C   UNL A   1      47.015  27.294  28.338  1.00  0.00     0.023 A 
ATOM     65  C   UNL A   1      47.749  28.367  27.795  1.00  0.00     0.012 A 
ATOM     66  C   UNL A   1      46.630  26.227  27.503  1.00  0.00     0.148 A 
ATOM     67  C   UNL A   1      48.072  28.393  26.438  1.00  0.00     0.002 A 
ATOM     68  C   UNL A   1      46.991  26.241  26.160  1.00  0.00     0.091 A 
ATOM     69  F   UNL A   1      45.910  25.227  28.032  1.00  0.00    -0.205 F 
ATOM     70  C   UNL A   1      47.703  27.326  25.624  1.00  0.00     0.022 A 
BRANCH  68  71
ATOM     71  S   UNL A   1      46.623  24.879  25.047  1.00  0.00     0.127 S 
ATOM     72  O   UNL A   1      45.182  25.035  24.856  1.00  0.00    -0.237 OA
ATOM     73  O   UNL A   1      47.433  25.211  23.875  1.00  0.00    -0.237 OA
ATOM     74  O   UNL A   1      47.036  23.669  25.745  1.00  0.00    -0.744 OA
ENDBRANCH  68  71
ENDBRANCH  50  64
BRANCH  51  75
ATOM     75  C   UNL A   1      45.504  27.222  38.199  1.00  0.00     0.023 A 
ATOM     76  C   UNL A   1      44.836  26.146  38.815  1.00  0.00     0.012 A 
ATOM     77  C   UNL A   1      45.977  28.284  38.994  1.00  0.00     0.148 A 
ATOM     78  C   UNL A   1      44.618  26.142  40.194  1.00  0.00     0.002 A 
ATOM     79  C   UNL A   1      45.807  28.246  40.372  1.00  0.00     0.091 A 
ATOM     80  F   UNL A   1      46.592  29.308  38.386  1.00  0.00    -0.205 F 
ATOM     81  C   UNL A   1      45.112  27.185  40.973  1.00  0.00     0.022 A 
BRANCH  79  82
ATOM     82  S   UNL A   1      46.533  29.476  41.460  1.00  0.00     0.127 S 
ATOM     83  O   UNL A   1      47.910  29.528  40.977  1.00  0.00    -0.237 OA
ATOM     84  O   UNL A   1      45.729  30.661  41.159  1.00  0.00    -0.237 OA
ATOM     85  O   UNL A   1      46.352  28.960  42.810  1.00  0.00    -0.744 OA
ENDBRANCH  79  82
ENDBRANCH  51  75
BRANCH  63  86
ATOM     86  C   UNL A   1      41.807  29.599  32.778  1.00  0.00     0.023 A 
ATOM     87  C   UNL A   1      41.793  31.007  32.835  1.00  0.00     0.012 A 
ATOM     88  C   UNL A   1      40.595  28.907  32.587  1.00  0.00     0.148 A 
ATOM     89  C   UNL A   1      40.593  31.711  32.749  1.00  0.00     0.002 A 
ATOM     90  C   UNL A   1      39.407  29.618  32.453  1.00  0.00     0.091 A 
ATOM     91  F   UNL A   1      40.620  27.566  32.553  1.00  0.00    -0.205 F 
ATOM     92  C   UNL A   1      39.402  31.018  32.548  1.00  0.00     0.022 A 
BRANCH  90  93
ATOM     93  S   UNL A   1      37.844  28.805  32.101  1.00  0.00     0.127 S 
ATOM     94  O   UNL A   1      38.020  28.411  30.704  1.00  0.00    -0.237 OA
ATOM     95  O   UNL A   1      37.844  27.692  33.052  1.00  0.00    -0.237 OA
ATOM     96  O   UNL A   1      36.815  29.805  32.350  1.00  0.00    -0.744 OA
ENDBRANCH  90  93
ENDBRANCH  63  86
ENDBRANCH  37  38
ENDBRANCH  30  32
ENDBRANCH  29  30
ENDBRANCH  28  29
ENDBRANCH  27  28
ENDBRANCH  26  27
ENDBRANCH   1  26
TORSDOF 23
ENDMDL
MODEL 2
REMARK VINA RESULT:      -6.5      4.865     10.149
REMARK SMILES CCOc1cc(OCC)cc(-c2ccc([C@@H](C)C(=O)OCCOCCOC(=O)c3ccc(-c4c5nc(c(-c6cccc(S(=O)(=O)[O-])c6F)c6ccc([nH]6)c(-c6cccc(S(=O)(=O)[O-])c6F)c6nc(c(-c7cccc(S(=O)(=O)[O-])c7F)c7ccc4[nH]7)C=C6)C=C5)cc3)cc2)c1
REMARK SMILES IDX 22 1 21 2 20 3 18 4 19 5 16 6 17 7 15 8 12 9 13 10 93 11
REMARK SMILES IDX 14 12 92 13 11 14 4 15 5 16 94 17 6 18 10 19 3 20 2 21 1 22
REMARK SMILES IDX 7 23 8 24 9 25 23 26 24 27 25 28 26 29 27 30 28 31 29 32
REMARK SMILES IDX 30 33 91 34 31 35 90 36 32 37 33 38 34 39 84 40 35 41 89 42
REMARK SMILES IDX 83 43 85 44 36 45 88 46 82 47 81 48 37 50 69 51 49 52 68 53
REMARK SMILES IDX 50 54 53 55 67 56 86 57 51 58 52 59 66 61 87 62 54 63 38 64
REMARK SMILES IDX 39 65 47 66 40 67 42 68 48 69 41 70 43 71 44 72 45 73 46 74
REMARK SMILES IDX 70 75 71 76 79 77 72 78 74 79 80 80 73 81 75 82 76 83 77 84
REMARK SMILES IDX 78 85 55 86 56 87 64 88 57 89 59 90 65 91 58 92 60 93 61 94
REMARK SMILES IDX 62 95 63 96
REMARK H PARENT 85 49 53 60
REMARK Flexibility Score: inf
ROOT
ATOM      1  C   UNL A   1      44.396  19.626  24.512  1.00  0.00     0.202 C 
ENDROOT
BRANCH   1   2
ATOM      2  C   UNL A   1      43.555  19.950  25.751  1.00  0.00     0.261 C 
BRANCH   2   3
ATOM      3  O   UNL A   1      42.384  20.707  25.396  1.00  0.00    -0.463 OA
BRANCH   3   4
ATOM      4  C   UNL A   1      42.365  22.009  25.778  1.00  0.00     0.313 C 
ATOM      5  O   UNL A   1      42.740  22.946  25.078  1.00  0.00    -0.252 OA
BRANCH   4   6
ATOM      6  C   UNL A   1      41.852  22.221  27.195  1.00  0.00     0.126 C 
ATOM      7  C   UNL A   1      40.977  21.040  27.606  1.00  0.00     0.025 C 
BRANCH   6   8
ATOM      8  C   UNL A   1      41.188  23.557  27.511  1.00  0.00    -0.034 A 
ATOM      9  C   UNL A   1      39.929  25.971  28.334  1.00  0.00    -0.018 A 
ATOM     10  C   UNL A   1      39.259  25.042  27.524  1.00  0.00     0.009 A 
ATOM     11  C   UNL A   1      41.259  25.697  28.681  1.00  0.00     0.009 A 
ATOM     12  C   UNL A   1      39.875  23.851  27.122  1.00  0.00     0.005 A 
ATOM     13  C   UNL A   1      41.880  24.511  28.276  1.00  0.00     0.005 A 
BRANCH   9  14
ATOM     14  C   UNL A   1      39.238  27.162  28.855  1.00  0.00    -0.011 A 
ATOM     15  C   UNL A   1      37.943  29.188  28.522  1.00  0.00     0.123 A 
ATOM     16  C   UNL A   1      37.977  29.452  29.890  1.00  0.00     0.092 A 
ATOM     17  C   UNL A   1      38.587  28.065  28.005  1.00  0.00     0.055 A 
ATOM     18  C   UNL A   1      38.643  28.582  30.756  1.00  0.00     0.123 A 
ATOM     19  C   UNL A   1      39.257  27.442  30.233  1.00  0.00     0.055 A 
BRANCH  15  20
ATOM     20  O   UNL A   1      37.387  30.127  27.697  1.00  0.00    -0.494 OA
BRANCH  20  21
ATOM     21  C   UNL A   1      36.981  31.320  28.382  1.00  0.00     0.226 C 
ATOM     22  C   UNL A   1      35.566  31.726  27.996  1.00  0.00     0.049 C 
ENDBRANCH  20  21
ENDBRANCH  15  20
BRANCH  18  23
ATOM     23  O   UNL A   1      38.620  28.936  32.078  1.00  0.00    -0.494 OA
BRANCH  23  24
ATOM     24  C   UNL A   1      39.852  29.330  32.686  1.00  0.00     0.226 C 
ATOM     25  C   UNL A   1      39.651  29.745  34.134  1.00  0.00     0.049 C 
ENDBRANCH  23  24
ENDBRANCH  18  23
ENDBRANCH   9  14
ENDBRANCH   6   8
ENDBRANCH   4   6
ENDBRANCH   3   4
ENDBRANCH   2   3
ENDBRANCH   1   2
BRANCH   1  26
ATOM     26  O   UNL A   1      45.044  20.739  23.891  1.00  0.00    -0.374 OA
BRANCH  26  27
ATOM     27  C   UNL A   1      45.979  21.468  24.687  1.00  0.00     0.202 C 
BRANCH  27  28
ATOM     28  C   UNL A   1      46.321  22.884  24.211  1.00  0.00     0.261 C 
BRANCH  28  29
ATOM     29  O   UNL A   1      45.928  23.890  25.160  1.00  0.00    -0.460 OA
BRANCH  29  30
ATOM     30  C   UNL A   1      46.554  25.079  25.011  1.00  0.00     0.338 C 
ATOM     31  O   UNL A   1      47.429  25.353  24.195  1.00  0.00    -0.246 OA
BRANCH  30  32
ATOM     32  C   UNL A   1      45.933  26.106  25.865  1.00  0.00     0.060 A 
ATOM     33  C   UNL A   1      46.785  26.826  26.710  1.00  0.00     0.016 A 
ATOM     34  C   UNL A   1      44.551  26.309  25.912  1.00  0.00     0.016 A 
ATOM     35  C   UNL A   1      46.254  27.699  27.655  1.00  0.00     0.010 A 
ATOM     36  C   UNL A   1      44.020  27.190  26.865  1.00  0.00     0.010 A 
ATOM     37  C   UNL A   1      44.866  27.855  27.770  1.00  0.00    -0.014 A 
BRANCH  37  38
ATOM     38  C   UNL A   1      44.336  28.623  28.925  1.00  0.00     0.031 A 
ATOM     39  C   UNL A   1      44.187  27.950  30.263  1.00  0.00     0.074 A 
ATOM     40  C   UNL A   1      44.065  29.935  28.804  1.00  0.00     0.049 A 
ATOM     41  N   UNL A   1      43.890  28.476  31.425  1.00  0.00    -0.248 NA
ATOM     42  C   UNL A   1      44.401  26.493  30.302  1.00  0.00     0.031 C 
ATOM     43  C   UNL A   1      44.148  30.700  27.560  1.00  0.00     0.029 A 
ATOM     44  N   UNL A   1      43.667  30.855  29.741  1.00  0.00    -0.354 N 
ATOM     45  C   UNL A   1      43.871  27.420  32.328  1.00  0.00     0.074 A 
ATOM     46  C   UNL A   1      44.160  26.218  31.576  1.00  0.00     0.031 C 
ATOM     47  C   UNL A   1      43.806  31.976  27.811  1.00  0.00     0.029 A 
ATOM     48  C   UNL A   1      43.478  32.116  29.229  1.00  0.00     0.049 A 
ATOM     49  H   UNL A   1      43.529  30.633  30.690  1.00  0.00     0.167 HD
ATOM     50  C   UNL A   1      43.659  27.448  33.666  1.00  0.00     0.034 A 
ATOM     51  C   UNL A   1      43.093  33.258  29.834  1.00  0.00     0.034 A 
ATOM     52  C   UNL A   1      43.392  28.645  34.419  1.00  0.00     0.049 A 
ATOM     53  C   UNL A   1      42.873  33.265  31.325  1.00  0.00     0.074 A 
ATOM     54  C   UNL A   1      43.223  28.781  35.786  1.00  0.00     0.029 A 
ATOM     55  N   UNL A   1      43.240  29.909  33.871  1.00  0.00    -0.354 N 
ATOM     56  N   UNL A   1      43.016  32.287  32.186  1.00  0.00    -0.248 NA
ATOM     57  C   UNL A   1      42.484  34.547  31.931  1.00  0.00     0.031 C 
ATOM     58  C   UNL A   1      42.947  30.126  36.063  1.00  0.00     0.029 A 
ATOM     59  C   UNL A   1      42.965  30.830  34.869  1.00  0.00     0.049 A 
ATOM     60  H   UNL A   1      43.316  30.120  32.913  1.00  0.00     0.167 HD
ATOM     61  C   UNL A   1      42.760  32.840  33.437  1.00  0.00     0.074 A 
ATOM     62  C   UNL A   1      42.486  34.246  33.223  1.00  0.00     0.031 C 
ATOM     63  C   UNL A   1      42.733  32.235  34.651  1.00  0.00     0.034 A 
BRANCH  50  64
ATOM     64  C   UNL A   1      43.751  26.144  34.414  1.00  0.00     0.023 A 
ATOM     65  C   UNL A   1      42.571  25.440  34.728  1.00  0.00     0.012 A 
ATOM     66  C   UNL A   1      44.999  25.588  34.755  1.00  0.00     0.148 A 
ATOM     67  C   UNL A   1      42.630  24.216  35.396  1.00  0.00     0.002 A 
ATOM     68  C   UNL A   1      45.051  24.349  35.384  1.00  0.00     0.091 A 
ATOM     69  F   UNL A   1      46.110  26.283  34.469  1.00  0.00    -0.205 F 
ATOM     70  C   UNL A   1      43.868  23.667  35.713  1.00  0.00     0.022 A 
BRANCH  68  71
ATOM     71  S   UNL A   1      46.601  23.524  35.769  1.00  0.00     0.127 S 
ATOM     72  O   UNL A   1      47.120  23.235  34.433  1.00  0.00    -0.237 OA
ATOM     73  O   UNL A   1      47.331  24.564  36.495  1.00  0.00    -0.237 OA
ATOM     74  O   UNL A   1      46.246  22.361  36.569  1.00  0.00    -0.744 OA
ENDBRANCH  68  71
ENDBRANCH  50  64
BRANCH  51  75
ATOM     75  C   UNL A   1      42.948  34.507  29.035  1.00  0.00     0.023 A 
ATOM     76  C   UNL A   1      41.665  34.955  28.665  1.00  0.00     0.012 A 
ATOM     77  C   UNL A   1      44.074  35.265  28.663  1.00  0.00     0.148 A 
ATOM     78  C   UNL A   1      41.509  36.122  27.915  1.00  0.00     0.002 A 
ATOM     79  C   UNL A   1      43.908  36.456  27.966  1.00  0.00     0.091 A 
ATOM     80  F   UNL A   1      45.288  34.811  29.007  1.00  0.00    -0.205 F 
ATOM     81  C   UNL A   1      42.628  36.878  27.576  1.00  0.00     0.022 A 
BRANCH  79  82
ATOM     82  S   UNL A   1      45.282  37.557  27.613  1.00  0.00     0.127 S 
ATOM     83  O   UNL A   1      46.111  36.732  26.738  1.00  0.00    -0.237 OA
ATOM     84  O   UNL A   1      44.612  38.677  26.951  1.00  0.00    -0.237 OA
ATOM     85  O   UNL A   1      45.860  37.889  28.908  1.00  0.00    -0.744 OA
ENDBRANCH  79  82
ENDBRANCH  51  75
BRANCH  63  86
ATOM     86  C   UNL A   1      42.403  33.092  35.847  1.00  0.00     0.023 A 
ATOM     87  C   UNL A   1      43.426  33.828  36.478  1.00  0.00     0.012 A 
ATOM     88  C   UNL A   1      41.082  33.207  36.319  1.00  0.00     0.148 A 
ATOM     89  C   UNL A   1      43.147  34.630  37.585  1.00  0.00     0.002 A 
ATOM     90  C   UNL A   1      40.802  34.045  37.394  1.00  0.00     0.091 A 
ATOM     91  F   UNL A   1      40.121  32.485  35.723  1.00  0.00    -0.205 F 
ATOM     92  C   UNL A   1      41.835  34.746  38.036  1.00  0.00     0.022 A 
BRANCH  90  93
ATOM     93  S   UNL A   1      39.126  34.321  37.978  1.00  0.00     0.127 S 
ATOM     94  O   UNL A   1      38.968  33.243  38.954  1.00  0.00    -0.237 OA
ATOM     95  O   UNL A   1      39.209  35.661  38.559  1.00  0.00    -0.237 OA
ATOM     96  O   UNL A   1      38.278  34.232  36.797  1.00  0.00    -0.744 OA
ENDBRANCH  90  93
ENDBRANCH  63  86
ENDBRANCH  37  38
ENDBRANCH  30  32
ENDBRANCH  29  30
ENDBRANCH  28  29
ENDBRANCH  27  28
ENDBRANCH  26  27
ENDBRANCH   1  26
TORSDOF 23
ENDMDL
MODEL 3
REMARK VINA RESULT:      -6.4      8.039     12.010
REMARK SMILES CCOc1cc(OCC)cc(-c2ccc([C@@H](C)C(=O)OCCOCCOC(=O)c3ccc(-c4c5nc(c(-c6cccc(S(=O)(=O)[O-])c6F)c6ccc([nH]6)c(-c6cccc(S(=O)(=O)[O-])c6F)c6nc(c(-c7cccc(S(=O)(=O)[O-])c7F)c7ccc4[nH]7)C=C6)C=C5)cc3)cc2)c1
REMARK SMILES IDX 22 1 21 2 20 3 18 4 19 5 16 6 17 7 15 8 12 9 13 10 93 11
REMARK SMILES IDX 14 12 92 13 11 14 4 15 5 16 94 17 6 18 10 19 3 20 2 21 1 22
REMARK SMILES IDX 7 23 8 24 9 25 23 26 24 27 25 28 26 29 27 30 28 31 29 32
REMARK SMILES IDX 30 33 91 34 31 35 90 36 32 37 33 38 34 39 84 40 35 41 89 42
REMARK SMILES IDX 83 43 85 44 36 45 88 46 82 47 81 48 37 50 69 51 49 52 68 53
REMARK SMILES IDX 50 54 53 55 67 56 86 57 51 58 52 59 66 61 87 62 54 63 38 64
REMARK SMILES IDX 39 65 47 66 40 67 42 68 48 69 41 70 43 71 44 72 45 73 46 74
REMARK SMILES IDX 70 75 71 76 79 77 72 78 74 79 80 80 73 81 75 82 76 83 77 84
REMARK SMILES IDX 78 85 55 86 56 87 64 88 57 89 59 90 65 91 58 92 60 93 61 94
REMARK SMILES IDX 62 95 63 96
REMARK H PARENT 85 49 53 60
REMARK Flexibility Score: inf
ROOT
ATOM      1  C   UNL A   1      41.883  19.311  26.153  1.00  0.00     0.202 C 
ENDROOT
BRANCH   1   2
ATOM      2  C   UNL A   1      41.605  19.861  27.555  1.00  0.00     0.261 C 
BRANCH   2   3
ATOM      3  O   UNL A   1      40.525  20.811  27.533  1.00  0.00    -0.463 OA
BRANCH   3   4
ATOM      4  C   UNL A   1      40.858  22.113  27.722  1.00  0.00     0.313 C 
ATOM      5  O   UNL A   1      41.525  22.532  28.665  1.00  0.00    -0.252 OA
BRANCH   4   6
ATOM      6  C   UNL A   1      40.301  23.046  26.657  1.00  0.00     0.126 C 
ATOM      7  C   UNL A   1      40.478  24.495  27.101  1.00  0.00     0.025 C 
BRANCH   6   8
ATOM      8  C   UNL A   1      38.887  22.775  26.153  1.00  0.00    -0.034 A 
ATOM      9  C   UNL A   1      36.180  22.256  25.452  1.00  0.00    -0.018 A 
ATOM     10  C   UNL A   1      37.179  21.290  25.256  1.00  0.00     0.009 A 
ATOM     11  C   UNL A   1      36.567  23.505  25.956  1.00  0.00     0.009 A 
ATOM     12  C   UNL A   1      38.511  21.541  25.605  1.00  0.00     0.005 A 
ATOM     13  C   UNL A   1      37.899  23.762  26.300  1.00  0.00     0.005 A 
BRANCH   9  14
ATOM     14  C   UNL A   1      34.764  21.945  25.199  1.00  0.00    -0.011 A 
ATOM     15  C   UNL A   1      32.518  22.611  24.562  1.00  0.00     0.123 A 
ATOM     16  C   UNL A   1      32.056  21.314  24.779  1.00  0.00     0.092 A 
ATOM     17  C   UNL A   1      33.856  22.930  24.791  1.00  0.00     0.055 A 
ATOM     18  C   UNL A   1      32.935  20.320  25.212  1.00  0.00     0.123 A 
ATOM     19  C   UNL A   1      34.280  20.641  25.408  1.00  0.00     0.055 A 
BRANCH  15  20
ATOM     20  O   UNL A   1      31.602  23.580  24.257  1.00  0.00    -0.494 OA
BRANCH  20  21
ATOM     21  C   UNL A   1      31.645  24.706  25.144  1.00  0.00     0.226 C 
ATOM     22  C   UNL A   1      30.391  24.783  26.001  1.00  0.00     0.049 C 
ENDBRANCH  20  21
ENDBRANCH  15  20
BRANCH  18  23
ATOM     23  O   UNL A   1      32.378  19.084  25.400  1.00  0.00    -0.494 OA
BRANCH  23  24
ATOM     24  C   UNL A   1      32.549  18.110  24.368  1.00  0.00     0.226 C 
ATOM     25  C   UNL A   1      34.017  17.904  24.033  1.00  0.00     0.049 C 
ENDBRANCH  23  24
ENDBRANCH  18  23
ENDBRANCH   9  14
ENDBRANCH   6   8
ENDBRANCH   4   6
ENDBRANCH   3   4
ENDBRANCH   2   3
ENDBRANCH   1   2
BRANCH   1  26
ATOM     26  O   UNL A   1      43.241  18.955  25.882  1.00  0.00    -0.374 OA
BRANCH  26  27
ATOM     27  C   UNL A   1      43.961  19.796  24.981  1.00  0.00     0.202 C 
BRANCH  27  28
ATOM     28  C   UNL A   1      44.664  21.011  25.598  1.00  0.00     0.261 C 
BRANCH  28  29
ATOM     29  O   UNL A   1      43.807  22.162  25.667  1.00  0.00    -0.460 OA
BRANCH  29  30
ATOM     30  C   UNL A   1      44.281  23.256  25.031  1.00  0.00     0.338 C 
ATOM     31  O   UNL A   1      44.772  23.300  23.906  1.00  0.00    -0.246 OA
BRANCH  30  32
ATOM     32  C   UNL A   1      43.987  24.477  25.801  1.00  0.00     0.060 A 
ATOM     33  C   UNL A   1      43.581  25.601  25.074  1.00  0.00     0.016 A 
ATOM     34  C   UNL A   1      44.182  24.559  27.183  1.00  0.00     0.016 A 
ATOM     35  C   UNL A   1      43.437  26.829  25.714  1.00  0.00     0.010 A 
ATOM     36  C   UNL A   1      44.036  25.798  27.823  1.00  0.00     0.010 A 
ATOM     37  C   UNL A   1      43.707  26.947  27.084  1.00  0.00    -0.014 A 
BRANCH  37  38
ATOM     38  C   UNL A   1      43.753  28.307  27.679  1.00  0.00     0.031 A 
ATOM     39  C   UNL A   1      42.501  28.911  28.257  1.00  0.00     0.074 A 
ATOM     40  C   UNL A   1      44.920  28.969  27.775  1.00  0.00     0.049 A 
ATOM     41  N   UNL A   1      42.359  30.011  28.951  1.00  0.00    -0.248 NA
ATOM     42  C   UNL A   1      41.243  28.181  28.025  1.00  0.00     0.031 C 
ATOM     43  C   UNL A   1      46.198  28.505  27.238  1.00  0.00     0.029 A 
ATOM     44  N   UNL A   1      45.218  30.173  28.363  1.00  0.00    -0.354 N 
ATOM     45  C   UNL A   1      41.001  30.112  29.231  1.00  0.00     0.074 A 
ATOM     46  C   UNL A   1      40.357  28.976  28.609  1.00  0.00     0.031 C 
ATOM     47  C   UNL A   1      47.145  29.417  27.517  1.00  0.00     0.029 A 
ATOM     48  C   UNL A   1      46.540  30.529  28.250  1.00  0.00     0.049 A 
ATOM     49  H   UNL A   1      44.547  30.729  28.822  1.00  0.00     0.167 HD
ATOM     50  C   UNL A   1      40.351  31.050  29.961  1.00  0.00     0.034 A 
ATOM     51  C   UNL A   1      47.193  31.623  28.691  1.00  0.00     0.034 A 
ATOM     52  C   UNL A   1      40.991  32.170  30.599  1.00  0.00     0.049 A 
ATOM     53  C   UNL A   1      46.449  32.646  29.510  1.00  0.00     0.074 A 
ATOM     54  C   UNL A   1      40.425  33.139  31.409  1.00  0.00     0.029 A 
ATOM     55  N   UNL A   1      42.337  32.480  30.489  1.00  0.00    -0.354 N 
ATOM     56  N   UNL A   1      45.196  32.642  29.898  1.00  0.00    -0.248 NA
ATOM     57  C   UNL A   1      47.221  33.801  29.990  1.00  0.00     0.031 C 
ATOM     58  C   UNL A   1      41.425  34.049  31.770  1.00  0.00     0.029 A 
ATOM     59  C   UNL A   1      42.619  33.634  31.203  1.00  0.00     0.049 A 
ATOM     60  H   UNL A   1      42.996  31.958  29.978  1.00  0.00     0.167 HD
ATOM     61  C   UNL A   1      45.038  33.777  30.688  1.00  0.00     0.074 A 
ATOM     62  C   UNL A   1      46.331  34.426  30.749  1.00  0.00     0.031 C 
ATOM     63  C   UNL A   1      43.918  34.251  31.290  1.00  0.00     0.034 A 
BRANCH  50  64
ATOM     64  C   UNL A   1      38.865  30.881  30.148  1.00  0.00     0.023 A 
ATOM     65  C   UNL A   1      38.386  29.920  31.060  1.00  0.00     0.012 A 
ATOM     66  C   UNL A   1      37.949  31.706  29.468  1.00  0.00     0.148 A 
ATOM     67  C   UNL A   1      37.016  29.762  31.272  1.00  0.00     0.002 A 
ATOM     68  C   UNL A   1      36.587  31.571  29.715  1.00  0.00     0.091 A 
ATOM     69  F   UNL A   1      38.423  32.598  28.586  1.00  0.00    -0.205 F 
ATOM     70  C   UNL A   1      36.118  30.594  30.609  1.00  0.00     0.022 A 
BRANCH  68  71
ATOM     71  S   UNL A   1      35.357  32.644  28.963  1.00  0.00     0.127 S 
ATOM     72  O   UNL A   1      35.707  32.546  27.547  1.00  0.00    -0.237 OA
ATOM     73  O   UNL A   1      34.105  31.982  29.330  1.00  0.00    -0.237 OA
ATOM     74  O   UNL A   1      35.549  33.956  29.567  1.00  0.00    -0.744 OA
ENDBRANCH  68  71
ENDBRANCH  50  64
BRANCH  51  75
ATOM     75  C   UNL A   1      48.649  31.777  28.418  1.00  0.00     0.023 A 
ATOM     76  C   UNL A   1      49.589  31.220  29.308  1.00  0.00     0.012 A 
ATOM     77  C   UNL A   1      49.105  32.448  27.267  1.00  0.00     0.148 A 
ATOM     78  C   UNL A   1      50.958  31.355  29.069  1.00  0.00     0.002 A 
ATOM     79  C   UNL A   1      50.467  32.528  27.007  1.00  0.00     0.091 A 
ATOM     80  F   UNL A   1      48.195  32.988  26.445  1.00  0.00    -0.205 F 
ATOM     81  C   UNL A   1      51.397  31.998  27.915  1.00  0.00     0.022 A 
BRANCH  79  82
ATOM     82  S   UNL A   1      51.110  33.215  25.477  1.00  0.00     0.127 S 
ATOM     83  O   UNL A   1      52.306  33.913  25.939  1.00  0.00    -0.237 OA
ATOM     84  O   UNL A   1      51.366  32.010  24.687  1.00  0.00    -0.237 OA
ATOM     85  O   UNL A   1      50.045  34.058  24.949  1.00  0.00    -0.744 OA
ENDBRANCH  79  82
ENDBRANCH  51  75
BRANCH  63  86
ATOM     86  C   UNL A   1      44.042  35.531  32.077  1.00  0.00     0.023 A 
ATOM     87  C   UNL A   1      43.914  36.769  31.416  1.00  0.00     0.012 A 
ATOM     88  C   UNL A   1      44.238  35.513  33.472  1.00  0.00     0.148 A 
ATOM     89  C   UNL A   1      44.023  37.967  32.121  1.00  0.00     0.002 A 
ATOM     90  C   UNL A   1      44.299  36.711  34.176  1.00  0.00     0.091 A 
ATOM     91  F   UNL A   1      44.378  34.329  34.085  1.00  0.00    -0.205 F 
ATOM     92  C   UNL A   1      44.205  37.938  33.502  1.00  0.00     0.022 A 
BRANCH  90  93
ATOM     93  S   UNL A   1      44.439  36.758  35.967  1.00  0.00     0.127 S 
ATOM     94  O   UNL A   1      43.280  35.968  36.379  1.00  0.00    -0.237 OA
ATOM     95  O   UNL A   1      45.731  36.110  36.200  1.00  0.00    -0.237 OA
ATOM     96  O   UNL A   1      44.403  38.168  36.328  1.00  0.00    -0.744 OA
ENDBRANCH  90  93
ENDBRANCH  63  86
ENDBRANCH  37  38
ENDBRANCH  30  32
ENDBRANCH  29  30
ENDBRANCH  28  29
ENDBRANCH  27  28
ENDBRANCH  26  27
ENDBRANCH   1  26
TORSDOF 23
ENDMDL
