MODEL 1
REMARK VINA RESULT:     -11.4      0.000      0.000
REMARK SMILES NS(=O)(=O)c1ccc(-n2nc(C(F)(F)F)cc2-c2ccc(CC(=O)OCCOCCOC(=O)c3ccc(-c4c5nc(c(-c6cccc(S(=O)(=O)[O-])c6F)c6ccc([nH]6)c(-c6cccc(S(=O)(=O)[O-])c6F)c6nc(c(-c7cccc(S(=O)(=O)[O-])c7F)c7ccc4[nH]7)C=C6)C=C5)cc3)cc2)cc1
REMARK SMILES IDX 27 1 26 2 25 3 23 4 24 5 22 6 21 7 18 8 19 9 98 10 20 11
REMARK SMILES IDX 97 12 17 13 9 14 10 15 11 16 16 17 8 18 5 19 6 20 100 21
REMARK SMILES IDX 7 22 99 23 2 24 3 25 4 26 1 27 12 30 13 31 14 32 15 33 28 34
REMARK SMILES IDX 29 35 30 36 31 37 32 38 33 39 34 40 35 41 96 42 36 43 95 44
REMARK SMILES IDX 37 45 38 46 39 47 89 48 40 49 94 50 88 51 90 52 41 53 93 54
REMARK SMILES IDX 87 55 86 56 42 58 74 59 54 60 73 61 55 62 58 63 72 64 91 65
REMARK SMILES IDX 56 66 57 67 71 69 92 70 59 71 43 72 44 73 52 74 45 75 47 76
REMARK SMILES IDX 53 77 46 78 48 79 49 80 50 81 51 82 75 83 76 84 84 85 77 86
REMARK SMILES IDX 79 87 85 88 78 89 80 90 81 91 82 92 83 93 60 94 61 95 69 96
REMARK SMILES IDX 62 97 64 98 70 99 63 100 65 101 66 102 67 103 68 104
REMARK H PARENT 1 28 1 29 90 57 58 68
REMARK Flexibility Score: inf
ROOT
ATOM      1  C   UNL A   1      34.375  33.884  29.340  1.00  0.00     0.202 C 
ENDROOT
BRANCH   1   2
ATOM      2  C   UNL A   1      35.196  33.256  28.209  1.00  0.00     0.261 C 
BRANCH   2   3
ATOM      3  O   UNL A   1      34.780  31.943  27.802  1.00  0.00    -0.463 OA
BRANCH   3   4
ATOM      4  C   UNL A   1      35.242  30.934  28.585  1.00  0.00     0.310 C 
ATOM      5  O   UNL A   1      35.603  31.070  29.752  1.00  0.00    -0.252 OA
BRANCH   4   6
ATOM      6  C   UNL A   1      35.333  29.592  27.906  1.00  0.00     0.158 C 
BRANCH   6   7
ATOM      7  C   UNL A   1      34.203  29.117  27.028  1.00  0.00    -0.037 A 
ATOM      8  C   UNL A   1      32.036  28.577  25.330  1.00  0.00     0.000 A 
ATOM      9  C   UNL A   1      33.330  28.633  24.812  1.00  0.00     0.010 A 
ATOM     10  C   UNL A   1      31.831  28.756  26.703  1.00  0.00     0.010 A 
ATOM     11  C   UNL A   1      34.407  28.895  25.657  1.00  0.00     0.005 A 
ATOM     12  C   UNL A   1      32.908  29.016  27.548  1.00  0.00     0.005 A 
BRANCH   8  13
ATOM     13  C   UNL A   1      30.877  28.434  24.460  1.00  0.00     0.075 A 
ATOM     14  N   UNL A   1      30.346  27.272  23.894  1.00  0.00    -0.233 N 
ATOM     15  N   UNL A   1      29.275  27.559  23.112  1.00  0.00    -0.163 NA
ATOM     16  C   UNL A   1      29.128  28.900  23.160  1.00  0.00     0.167 A 
ATOM     17  C   UNL A   1      30.161  29.476  23.923  1.00  0.00     0.064 A 
BRANCH  14  18
ATOM     18  C   UNL A   1      30.825  25.935  24.073  1.00  0.00     0.065 A 
ATOM     19  C   UNL A   1      31.611  23.219  24.352  1.00  0.00     0.082 A 
ATOM     20  C   UNL A   1      31.195  23.736  23.137  1.00  0.00     0.024 A 
ATOM     21  C   UNL A   1      31.605  24.064  25.466  1.00  0.00     0.024 A 
ATOM     22  C   UNL A   1      30.815  25.067  22.989  1.00  0.00     0.030 A 
ATOM     23  C   UNL A   1      31.255  25.439  25.314  1.00  0.00     0.030 A 
BRANCH  19  24
ATOM     24  S   UNL A   1      32.269  21.552  24.336  1.00  0.00     0.238 S 
ATOM     25  O   UNL A   1      32.270  21.077  22.962  1.00  0.00    -0.207 OA
ATOM     26  O   UNL A   1      31.645  20.800  25.387  1.00  0.00    -0.207 OA
BRANCH  24  27
ATOM     27  N   UNL A   1      33.891  21.707  24.734  1.00  0.00    -0.225 NA
ATOM     28  H   UNL A   1      33.990  21.734  25.748  1.00  0.00     0.137 HD
ATOM     29  H   UNL A   1      34.258  22.570  24.333  1.00  0.00     0.137 HD
ENDBRANCH  24  27
ENDBRANCH  19  24
ENDBRANCH  14  18
BRANCH  16  30
ATOM     30  C   UNL A   1      28.039  29.742  22.528  1.00  0.00     0.435 C 
ATOM     31  F   UNL A   1      28.480  30.776  21.781  1.00  0.00    -0.164 F 
ATOM     32  F   UNL A   1      27.109  29.011  21.870  1.00  0.00    -0.164 F 
ATOM     33  F   UNL A   1      27.321  30.353  23.541  1.00  0.00    -0.164 F 
ENDBRANCH  16  30
ENDBRANCH   8  13
ENDBRANCH   6   7
ENDBRANCH   4   6
ENDBRANCH   3   4
ENDBRANCH   2   3
ENDBRANCH   1   2
BRANCH   1  34
ATOM     34  O   UNL A   1      33.268  34.711  29.013  1.00  0.00    -0.374 OA
BRANCH  34  35
ATOM     35  C   UNL A   1      33.347  36.094  29.335  1.00  0.00     0.202 C 
BRANCH  35  36
ATOM     36  C   UNL A   1      32.862  36.564  30.701  1.00  0.00     0.261 C 
BRANCH  36  37
ATOM     37  O   UNL A   1      33.702  36.193  31.806  1.00  0.00    -0.460 OA
BRANCH  37  38
ATOM     38  C   UNL A   1      33.312  35.068  32.477  1.00  0.00     0.338 C 
ATOM     39  O   UNL A   1      32.167  34.759  32.763  1.00  0.00    -0.246 OA
BRANCH  38  40
ATOM     40  C   UNL A   1      34.509  34.425  33.068  1.00  0.00     0.060 A 
ATOM     41  C   UNL A   1      35.642  35.238  33.158  1.00  0.00     0.016 A 
ATOM     42  C   UNL A   1      34.632  33.035  33.083  1.00  0.00     0.016 A 
ATOM     43  C   UNL A   1      36.894  34.674  32.943  1.00  0.00     0.010 A 
ATOM     44  C   UNL A   1      35.885  32.490  32.823  1.00  0.00     0.010 A 
ATOM     45  C   UNL A   1      37.000  33.319  32.613  1.00  0.00    -0.014 A 
BRANCH  45  46
ATOM     46  C   UNL A   1      38.326  32.707  32.427  1.00  0.00     0.031 A 
ATOM     47  C   UNL A   1      39.036  32.822  33.701  1.00  0.00     0.074 A 
ATOM     48  C   UNL A   1      38.931  32.114  31.368  1.00  0.00     0.049 A 
ATOM     49  N   UNL A   1      39.793  33.825  34.003  1.00  0.00    -0.248 NA
ATOM     50  C   UNL A   1      38.621  31.997  34.839  1.00  0.00     0.031 C 
ATOM     51  C   UNL A   1      38.417  31.903  30.041  1.00  0.00     0.029 A 
ATOM     52  N   UNL A   1      40.157  31.514  31.250  1.00  0.00    -0.354 N 
ATOM     53  C   UNL A   1      40.214  33.529  35.280  1.00  0.00     0.074 A 
ATOM     54  C   UNL A   1      39.209  32.661  35.836  1.00  0.00     0.031 C 
ATOM     55  C   UNL A   1      39.133  30.997  29.346  1.00  0.00     0.029 A 
ATOM     56  C   UNL A   1      40.296  30.680  30.128  1.00  0.00     0.049 A 
ATOM     57  H   UNL A   1      40.883  31.657  31.900  1.00  0.00     0.167 HD
ATOM     58  C   UNL A   1      41.539  33.616  35.567  1.00  0.00     0.034 A 
ATOM     59  C   UNL A   1      41.317  29.859  29.766  1.00  0.00     0.034 A 
ATOM     60  C   UNL A   1      42.238  34.440  34.602  1.00  0.00     0.049 A 
ATOM     61  C   UNL A   1      42.517  30.418  30.410  1.00  0.00     0.074 A 
ATOM     62  C   UNL A   1      42.047  35.702  34.068  1.00  0.00     0.029 A 
ATOM     63  N   UNL A   1      43.097  33.800  33.742  1.00  0.00    -0.354 N 
ATOM     64  N   UNL A   1      43.062  31.537  30.026  1.00  0.00    -0.248 NA
ATOM     65  C   UNL A   1      42.798  30.001  31.771  1.00  0.00     0.031 C 
ATOM     66  C   UNL A   1      42.444  35.603  32.702  1.00  0.00     0.029 A 
ATOM     67  C   UNL A   1      42.932  34.315  32.485  1.00  0.00     0.049 A 
ATOM     68  H   UNL A   1      43.729  33.087  33.989  1.00  0.00     0.167 HD
ATOM     69  C   UNL A   1      43.286  32.207  31.217  1.00  0.00     0.074 A 
ATOM     70  C   UNL A   1      43.206  31.176  32.256  1.00  0.00     0.031 C 
ATOM     71  C   UNL A   1      43.200  33.567  31.278  1.00  0.00     0.034 A 
BRANCH  58  72
ATOM     72  C   UNL A   1      42.251  32.595  36.425  1.00  0.00     0.023 A 
ATOM     73  C   UNL A   1      43.101  33.094  37.427  1.00  0.00     0.012 A 
ATOM     74  C   UNL A   1      42.334  31.206  36.152  1.00  0.00     0.148 A 
ATOM     75  C   UNL A   1      44.010  32.263  38.089  1.00  0.00     0.002 A 
ATOM     76  C   UNL A   1      43.161  30.366  36.880  1.00  0.00     0.091 A 
ATOM     77  F   UNL A   1      41.735  30.679  35.084  1.00  0.00    -0.205 F 
ATOM     78  C   UNL A   1      44.031  30.897  37.827  1.00  0.00     0.022 A 
BRANCH  76  79
ATOM     79  S   UNL A   1      43.167  28.590  36.596  1.00  0.00     0.127 S 
ATOM     80  O   UNL A   1      41.743  28.277  36.677  1.00  0.00    -0.237 OA
ATOM     81  O   UNL A   1      43.750  28.510  35.257  1.00  0.00    -0.237 OA
ATOM     82  O   UNL A   1      44.006  28.020  37.644  1.00  0.00    -0.744 OA
ENDBRANCH  76  79
ENDBRANCH  58  72
BRANCH  59  83
ATOM     83  C   UNL A   1      41.356  28.574  29.014  1.00  0.00     0.023 A 
ATOM     84  C   UNL A   1      40.366  27.598  29.276  1.00  0.00     0.012 A 
ATOM     85  C   UNL A   1      42.125  28.415  27.842  1.00  0.00     0.148 A 
ATOM     86  C   UNL A   1      40.080  26.573  28.365  1.00  0.00     0.002 A 
ATOM     87  C   UNL A   1      41.843  27.382  26.946  1.00  0.00     0.091 A 
ATOM     88  F   UNL A   1      43.066  29.321  27.549  1.00  0.00    -0.205 F 
ATOM     89  C   UNL A   1      40.804  26.480  27.186  1.00  0.00     0.022 A 
BRANCH  87  90
ATOM     90  S   UNL A   1      42.711  27.232  25.387  1.00  0.00     0.127 S 
ATOM     91  O   UNL A   1      42.207  25.968  24.848  1.00  0.00    -0.237 OA
ATOM     92  O   UNL A   1      42.232  28.419  24.688  1.00  0.00    -0.237 OA
ATOM     93  O   UNL A   1      44.123  27.196  25.747  1.00  0.00    -0.744 OA
ENDBRANCH  87  90
ENDBRANCH  59  83
BRANCH  71  94
ATOM     94  C   UNL A   1      43.193  34.345  29.985  1.00  0.00     0.023 A 
ATOM     95  C   UNL A   1      42.015  34.747  29.320  1.00  0.00     0.012 A 
ATOM     96  C   UNL A   1      44.431  34.817  29.518  1.00  0.00     0.148 A 
ATOM     97  C   UNL A   1      42.079  35.593  28.206  1.00  0.00     0.002 A 
ATOM     98  C   UNL A   1      44.488  35.692  28.444  1.00  0.00     0.091 A 
ATOM     99  F   UNL A   1      45.539  34.413  30.158  1.00  0.00    -0.205 F 
ATOM    100  C   UNL A   1      43.315  36.079  27.778  1.00  0.00     0.022 A 
BRANCH  98 101
ATOM    101  S   UNL A   1      46.038  36.439  27.934  1.00  0.00     0.127 S 
ATOM    102  O   UNL A   1      46.501  37.058  29.174  1.00  0.00    -0.237 OA
ATOM    103  O   UNL A   1      46.815  35.276  27.500  1.00  0.00    -0.237 OA
ATOM    104  O   UNL A   1      45.703  37.363  26.858  1.00  0.00    -0.744 OA
ENDBRANCH  98 101
ENDBRANCH  71  94
ENDBRANCH  45  46
ENDBRANCH  38  40
ENDBRANCH  37  38
ENDBRANCH  36  37
ENDBRANCH  35  36
ENDBRANCH  34  35
ENDBRANCH   1  34
TORSDOF 23
ENDMDL
MODEL 2
REMARK VINA RESULT:     -10.8      4.517      8.450
REMARK SMILES NS(=O)(=O)c1ccc(-n2nc(C(F)(F)F)cc2-c2ccc(CC(=O)OCCOCCOC(=O)c3ccc(-c4c5nc(c(-c6cccc(S(=O)(=O)[O-])c6F)c6ccc([nH]6)c(-c6cccc(S(=O)(=O)[O-])c6F)c6nc(c(-c7cccc(S(=O)(=O)[O-])c7F)c7ccc4[nH]7)C=C6)C=C5)cc3)cc2)cc1
REMARK SMILES IDX 27 1 26 2 25 3 23 4 24 5 22 6 21 7 18 8 19 9 98 10 20 11
REMARK SMILES IDX 97 12 17 13 9 14 10 15 11 16 16 17 8 18 5 19 6 20 100 21
REMARK SMILES IDX 7 22 99 23 2 24 3 25 4 26 1 27 12 30 13 31 14 32 15 33 28 34
REMARK SMILES IDX 29 35 30 36 31 37 32 38 33 39 34 40 35 41 96 42 36 43 95 44
REMARK SMILES IDX 37 45 38 46 39 47 89 48 40 49 94 50 88 51 90 52 41 53 93 54
REMARK SMILES IDX 87 55 86 56 42 58 74 59 54 60 73 61 55 62 58 63 72 64 91 65
REMARK SMILES IDX 56 66 57 67 71 69 92 70 59 71 43 72 44 73 52 74 45 75 47 76
REMARK SMILES IDX 53 77 46 78 48 79 49 80 50 81 51 82 75 83 76 84 84 85 77 86
REMARK SMILES IDX 79 87 85 88 78 89 80 90 81 91 82 92 83 93 60 94 61 95 69 96
REMARK SMILES IDX 62 97 64 98 70 99 63 100 65 101 66 102 67 103 68 104
REMARK H PARENT 1 28 1 29 90 57 58 68
REMARK Flexibility Score: inf
ROOT
ATOM      1  C   UNL A   1      34.564  33.569  30.226  1.00  0.00     0.202 C 
ENDROOT
BRANCH   1   2
ATOM      2  C   UNL A   1      34.799  32.470  29.183  1.00  0.00     0.261 C 
BRANCH   2   3
ATOM      3  O   UNL A   1      34.094  32.637  27.943  1.00  0.00    -0.463 OA
BRANCH   3   4
ATOM      4  C   UNL A   1      33.332  31.574  27.577  1.00  0.00     0.310 C 
ATOM      5  O   UNL A   1      32.271  31.659  26.962  1.00  0.00    -0.252 OA
BRANCH   4   6
ATOM      6  C   UNL A   1      33.857  30.232  28.019  1.00  0.00     0.158 C 
BRANCH   6   7
ATOM      7  C   UNL A   1      33.550  29.001  27.204  1.00  0.00    -0.037 A 
ATOM      8  C   UNL A   1      32.798  26.927  25.471  1.00  0.00     0.000 A 
ATOM      9  C   UNL A   1      34.005  27.597  25.273  1.00  0.00     0.010 A 
ATOM     10  C   UNL A   1      31.984  27.272  26.557  1.00  0.00     0.010 A 
ATOM     11  C   UNL A   1      34.382  28.623  26.138  1.00  0.00     0.005 A 
ATOM     12  C   UNL A   1      32.360  28.296  27.422  1.00  0.00     0.005 A 
BRANCH   8  13
ATOM     13  C   UNL A   1      32.313  25.940  24.516  1.00  0.00     0.075 A 
ATOM     14  N   UNL A   1      31.378  26.101  23.490  1.00  0.00    -0.233 N 
ATOM     15  N   UNL A   1      31.169  24.930  22.837  1.00  0.00    -0.163 NA
ATOM     16  C   UNL A   1      31.951  24.017  23.451  1.00  0.00     0.167 A 
ATOM     17  C   UNL A   1      32.609  24.599  24.550  1.00  0.00     0.064 A 
BRANCH  14  18
ATOM     18  C   UNL A   1      30.697  27.308  23.133  1.00  0.00     0.065 A 
ATOM     19  C   UNL A   1      29.213  29.595  22.334  1.00  0.00     0.082 A 
ATOM     20  C   UNL A   1      28.626  28.552  23.029  1.00  0.00     0.024 A 
ATOM     21  C   UNL A   1      30.565  29.485  21.996  1.00  0.00     0.024 A 
ATOM     22  C   UNL A   1      29.346  27.431  23.431  1.00  0.00     0.030 A 
ATOM     23  C   UNL A   1      31.320  28.358  22.439  1.00  0.00     0.030 A 
BRANCH  19  24
ATOM     24  S   UNL A   1      28.209  31.058  22.076  1.00  0.00     0.238 S 
ATOM     25  O   UNL A   1      27.257  31.154  23.170  1.00  0.00    -0.207 OA
ATOM     26  O   UNL A   1      27.781  31.088  20.706  1.00  0.00    -0.207 OA
BRANCH  24  27
ATOM     27  N   UNL A   1      29.246  32.357  22.299  1.00  0.00    -0.225 NA
ATOM     28  H   UNL A   1      29.693  32.282  23.212  1.00  0.00     0.137 HD
ATOM     29  H   UNL A   1      28.717  33.227  22.250  1.00  0.00     0.137 HD
ENDBRANCH  24  27
ENDBRANCH  19  24
ENDBRANCH  14  18
BRANCH  16  30
ATOM     30  C   UNL A   1      32.160  22.564  23.074  1.00  0.00     0.435 C 
ATOM     31  F   UNL A   1      31.051  21.922  22.649  1.00  0.00    -0.164 F 
ATOM     32  F   UNL A   1      33.202  22.372  22.233  1.00  0.00    -0.164 F 
ATOM     33  F   UNL A   1      32.522  21.869  24.214  1.00  0.00    -0.164 F 
ENDBRANCH  16  30
ENDBRANCH   8  13
ENDBRANCH   6   7
ENDBRANCH   4   6
ENDBRANCH   3   4
ENDBRANCH   2   3
ENDBRANCH   1   2
BRANCH   1  34
ATOM     34  O   UNL A   1      35.279  33.522  31.452  1.00  0.00    -0.374 OA
BRANCH  34  35
ATOM     35  C   UNL A   1      35.073  32.403  32.304  1.00  0.00     0.202 C 
BRANCH  35  36
ATOM     36  C   UNL A   1      36.239  31.461  32.584  1.00  0.00     0.261 C 
BRANCH  36  37
ATOM     37  O   UNL A   1      36.393  30.387  31.641  1.00  0.00    -0.460 OA
BRANCH  37  38
ATOM     38  C   UNL A   1      36.974  29.257  32.142  1.00  0.00     0.338 C 
ATOM     39  O   UNL A   1      36.964  28.896  33.307  1.00  0.00    -0.246 OA
BRANCH  38  40
ATOM     40  C   UNL A   1      37.874  28.685  31.112  1.00  0.00     0.060 A 
ATOM     41  C   UNL A   1      38.864  27.824  31.594  1.00  0.00     0.016 A 
ATOM     42  C   UNL A   1      38.022  29.312  29.875  1.00  0.00     0.016 A 
ATOM     43  C   UNL A   1      40.119  27.840  30.997  1.00  0.00     0.010 A 
ATOM     44  C   UNL A   1      39.295  29.355  29.315  1.00  0.00     0.010 A 
ATOM     45  C   UNL A   1      40.382  28.732  29.952  1.00  0.00    -0.014 A 
BRANCH  45  46
ATOM     46  C   UNL A   1      41.696  28.724  29.288  1.00  0.00     0.031 A 
ATOM     47  C   UNL A   1      41.921  27.363  28.799  1.00  0.00     0.074 A 
ATOM     48  C   UNL A   1      42.633  29.680  29.080  1.00  0.00     0.049 A 
ATOM     49  N   UNL A   1      42.520  26.451  29.492  1.00  0.00    -0.248 NA
ATOM     50  C   UNL A   1      41.147  26.865  27.659  1.00  0.00     0.031 C 
ATOM     51  C   UNL A   1      42.610  31.064  29.476  1.00  0.00     0.029 A 
ATOM     52  N   UNL A   1      43.829  29.640  28.414  1.00  0.00    -0.354 N 
ATOM     53  C   UNL A   1      42.477  25.349  28.666  1.00  0.00     0.074 A 
ATOM     54  C   UNL A   1      41.350  25.552  27.795  1.00  0.00     0.031 C 
ATOM     55  C   UNL A   1      43.529  31.804  28.826  1.00  0.00     0.029 A 
ATOM     56  C   UNL A   1      44.354  30.899  28.074  1.00  0.00     0.049 A 
ATOM     57  H   UNL A   1      44.286  28.797  28.192  1.00  0.00     0.167 HD
ATOM     58  C   UNL A   1      43.621  24.648  28.454  1.00  0.00     0.034 A 
ATOM     59  C   UNL A   1      45.444  31.223  27.330  1.00  0.00     0.034 A 
ATOM     60  C   UNL A   1      44.603  24.910  29.487  1.00  0.00     0.049 A 
ATOM     61  C   UNL A   1      46.344  30.062  27.425  1.00  0.00     0.074 A 
ATOM     62  C   UNL A   1      44.597  24.904  30.871  1.00  0.00     0.029 A 
ATOM     63  N   UNL A   1      45.711  25.636  29.124  1.00  0.00    -0.354 N 
ATOM     64  N   UNL A   1      46.978  29.754  28.520  1.00  0.00    -0.248 NA
ATOM     65  C   UNL A   1      46.142  28.984  26.475  1.00  0.00     0.031 C 
ATOM     66  C   UNL A   1      45.442  25.985  31.261  1.00  0.00     0.029 A 
ATOM     67  C   UNL A   1      45.985  26.548  30.107  1.00  0.00     0.049 A 
ATOM     68  H   UNL A   1      46.225  25.519  28.293  1.00  0.00     0.167 HD
ATOM     69  C   UNL A   1      46.773  28.389  28.634  1.00  0.00     0.074 A 
ATOM     70  C   UNL A   1      46.348  27.954  27.301  1.00  0.00     0.031 C 
ATOM     71  C   UNL A   1      46.659  27.802  29.861  1.00  0.00     0.034 A 
BRANCH  58  72
ATOM     72  C   UNL A   1      44.002  24.113  27.093  1.00  0.00     0.023 A 
ATOM     73  C   UNL A   1      44.143  25.057  26.060  1.00  0.00     0.012 A 
ATOM     74  C   UNL A   1      43.985  22.747  26.712  1.00  0.00     0.148 A 
ATOM     75  C   UNL A   1      44.218  24.661  24.721  1.00  0.00     0.002 A 
ATOM     76  C   UNL A   1      44.165  22.354  25.396  1.00  0.00     0.091 A 
ATOM     77  F   UNL A   1      43.643  21.796  27.580  1.00  0.00    -0.205 F 
ATOM     78  C   UNL A   1      44.245  23.310  24.388  1.00  0.00     0.022 A 
BRANCH  76  79
ATOM     79  S   UNL A   1      44.255  20.614  24.948  1.00  0.00     0.127 S 
ATOM     80  O   UNL A   1      44.479  20.695  23.508  1.00  0.00    -0.237 OA
ATOM     81  O   UNL A   1      45.404  20.168  25.736  1.00  0.00    -0.237 OA
ATOM     82  O   UNL A   1      42.986  20.028  25.364  1.00  0.00    -0.744 OA
ENDBRANCH  76  79
ENDBRANCH  58  72
BRANCH  59  83
ATOM     83  C   UNL A   1      45.751  32.384  26.448  1.00  0.00     0.023 A 
ATOM     84  C   UNL A   1      44.681  33.080  25.837  1.00  0.00     0.012 A 
ATOM     85  C   UNL A   1      47.014  33.013  26.451  1.00  0.00     0.148 A 
ATOM     86  C   UNL A   1      44.833  34.385  25.348  1.00  0.00     0.002 A 
ATOM     87  C   UNL A   1      47.159  34.308  25.949  1.00  0.00     0.091 A 
ATOM     88  F   UNL A   1      48.051  32.395  27.028  1.00  0.00    -0.205 F 
ATOM     89  C   UNL A   1      46.068  35.008  25.427  1.00  0.00     0.022 A 
BRANCH  87  90
ATOM     90  S   UNL A   1      48.716  35.185  26.059  1.00  0.00     0.127 S 
ATOM     91  O   UNL A   1      49.597  34.406  25.187  1.00  0.00    -0.237 OA
ATOM     92  O   UNL A   1      48.337  36.488  25.523  1.00  0.00    -0.237 OA
ATOM     93  O   UNL A   1      49.081  35.125  27.468  1.00  0.00    -0.744 OA
ENDBRANCH  87  90
ENDBRANCH  59  83
BRANCH  71  94
ATOM     94  C   UNL A   1      47.091  28.587  31.075  1.00  0.00     0.023 A 
ATOM     95  C   UNL A   1      46.242  29.462  31.785  1.00  0.00     0.012 A 
ATOM     96  C   UNL A   1      48.362  28.299  31.601  1.00  0.00     0.148 A 
ATOM     97  C   UNL A   1      46.662  30.043  32.988  1.00  0.00     0.002 A 
ATOM     98  C   UNL A   1      48.756  28.838  32.817  1.00  0.00     0.091 A 
ATOM     99  F   UNL A   1      49.158  27.472  30.905  1.00  0.00    -0.205 F 
ATOM    100  C   UNL A   1      47.914  29.718  33.512  1.00  0.00     0.022 A 
BRANCH  98 101
ATOM    101  S   UNL A   1      50.302  28.355  33.591  1.00  0.00     0.127 S 
ATOM    102  O   UNL A   1      50.404  29.311  34.690  1.00  0.00    -0.237 OA
ATOM    103  O   UNL A   1      50.027  26.976  33.999  1.00  0.00    -0.237 OA
ATOM    104  O   UNL A   1      51.322  28.476  32.557  1.00  0.00    -0.744 OA
ENDBRANCH  98 101
ENDBRANCH  71  94
ENDBRANCH  45  46
ENDBRANCH  38  40
ENDBRANCH  37  38
ENDBRANCH  36  37
ENDBRANCH  35  36
ENDBRANCH  34  35
ENDBRANCH   1  34
TORSDOF 23
ENDMDL
MODEL 3
REMARK VINA RESULT:     -10.6      5.898     10.437
REMARK SMILES NS(=O)(=O)c1ccc(-n2nc(C(F)(F)F)cc2-c2ccc(CC(=O)OCCOCCOC(=O)c3ccc(-c4c5nc(c(-c6cccc(S(=O)(=O)[O-])c6F)c6ccc([nH]6)c(-c6cccc(S(=O)(=O)[O-])c6F)c6nc(c(-c7cccc(S(=O)(=O)[O-])c7F)c7ccc4[nH]7)C=C6)C=C5)cc3)cc2)cc1
REMARK SMILES IDX 27 1 26 2 25 3 23 4 24 5 22 6 21 7 18 8 19 9 98 10 20 11
REMARK SMILES IDX 97 12 17 13 9 14 10 15 11 16 16 17 8 18 5 19 6 20 100 21
REMARK SMILES IDX 7 22 99 23 2 24 3 25 4 26 1 27 12 30 13 31 14 32 15 33 28 34
REMARK SMILES IDX 29 35 30 36 31 37 32 38 33 39 34 40 35 41 96 42 36 43 95 44
REMARK SMILES IDX 37 45 38 46 39 47 89 48 40 49 94 50 88 51 90 52 41 53 93 54
REMARK SMILES IDX 87 55 86 56 42 58 74 59 54 60 73 61 55 62 58 63 72 64 91 65
REMARK SMILES IDX 56 66 57 67 71 69 92 70 59 71 43 72 44 73 52 74 45 75 47 76
REMARK SMILES IDX 53 77 46 78 48 79 49 80 50 81 51 82 75 83 76 84 84 85 77 86
REMARK SMILES IDX 79 87 85 88 78 89 80 90 81 91 82 92 83 93 60 94 61 95 69 96
REMARK SMILES IDX 62 97 64 98 70 99 63 100 65 101 66 102 67 103 68 104
REMARK H PARENT 1 28 1 29 90 57 58 68
REMARK Flexibility Score: inf
ROOT
ATOM      1  C   UNL A   1      39.937  28.067  29.378  1.00  0.00     0.202 C 
ENDROOT
BRANCH   1   2
ATOM      2  C   UNL A   1      39.571  27.133  28.220  1.00  0.00     0.261 C 
BRANCH   2   3
ATOM      3  O   UNL A   1      39.221  25.792  28.598  1.00  0.00    -0.463 OA
BRANCH   3   4
ATOM      4  C   UNL A   1      39.722  24.825  27.786  1.00  0.00     0.310 C 
ATOM      5  O   UNL A   1      40.658  24.086  28.084  1.00  0.00    -0.252 OA
BRANCH   4   6
ATOM      6  C   UNL A   1      39.071  24.731  26.431  1.00  0.00     0.158 C 
BRANCH   6   7
ATOM      7  C   UNL A   1      37.959  23.740  26.199  1.00  0.00    -0.037 A 
ATOM      8  C   UNL A   1      35.865  22.032  25.441  1.00  0.00     0.000 A 
ATOM      9  C   UNL A   1      37.190  21.632  25.265  1.00  0.00     0.010 A 
ATOM     10  C   UNL A   1      35.590  23.273  26.029  1.00  0.00     0.010 A 
ATOM     11  C   UNL A   1      38.230  22.477  25.648  1.00  0.00     0.005 A 
ATOM     12  C   UNL A   1      36.629  24.118  26.412  1.00  0.00     0.005 A 
BRANCH   8  13
ATOM     13  C   UNL A   1      34.758  21.232  24.937  1.00  0.00     0.075 A 
ATOM     14  N   UNL A   1      33.626  21.651  24.233  1.00  0.00    -0.233 N 
ATOM     15  N   UNL A   1      32.805  20.604  23.968  1.00  0.00    -0.163 NA
ATOM     16  C   UNL A   1      33.397  19.520  24.514  1.00  0.00     0.167 A 
ATOM     17  C   UNL A   1      34.570  19.897  25.194  1.00  0.00     0.064 A 
BRANCH  14  18
ATOM     18  C   UNL A   1      33.316  22.987  23.824  1.00  0.00     0.065 A 
ATOM     19  C   UNL A   1      32.514  25.596  23.033  1.00  0.00     0.082 A 
ATOM     20  C   UNL A   1      32.091  25.034  24.225  1.00  0.00     0.024 A 
ATOM     21  C   UNL A   1      33.330  24.830  22.195  1.00  0.00     0.024 A 
ATOM     22  C   UNL A   1      32.484  23.759  24.625  1.00  0.00     0.030 A 
ATOM     23  C   UNL A   1      33.770  23.539  22.615  1.00  0.00     0.030 A 
BRANCH  19  24
ATOM     24  S   UNL A   1      32.098  27.318  22.762  1.00  0.00     0.238 S 
ATOM     25  O   UNL A   1      32.105  27.996  24.048  1.00  0.00    -0.207 OA
ATOM     26  O   UNL A   1      30.962  27.385  21.888  1.00  0.00    -0.207 OA
BRANCH  24  27
ATOM     27  N   UNL A   1      33.401  27.967  21.930  1.00  0.00    -0.225 NA
ATOM     28  H   UNL A   1      33.178  28.021  20.937  1.00  0.00     0.137 HD
ATOM     29  H   UNL A   1      34.219  27.373  22.063  1.00  0.00     0.137 HD
ENDBRANCH  24  27
ENDBRANCH  19  24
ENDBRANCH  14  18
BRANCH  16  30
ATOM     30  C   UNL A   1      32.943  18.076  24.445  1.00  0.00     0.435 C 
ATOM     31  F   UNL A   1      31.918  17.842  23.598  1.00  0.00    -0.164 F 
ATOM     32  F   UNL A   1      33.959  17.202  24.255  1.00  0.00    -0.164 F 
ATOM     33  F   UNL A   1      32.431  17.724  25.682  1.00  0.00    -0.164 F 
ENDBRANCH  16  30
ENDBRANCH   8  13
ENDBRANCH   6   7
ENDBRANCH   4   6
ENDBRANCH   3   4
ENDBRANCH   2   3
ENDBRANCH   1   2
BRANCH   1  34
ATOM     34  O   UNL A   1      40.054  29.461  29.130  1.00  0.00    -0.374 OA
BRANCH  34  35
ATOM     35  C   UNL A   1      40.015  30.344  30.243  1.00  0.00     0.202 C 
BRANCH  35  36
ATOM     36  C   UNL A   1      39.305  31.686  30.099  1.00  0.00     0.261 C 
BRANCH  36  37
ATOM     37  O   UNL A   1      39.885  32.765  30.849  1.00  0.00    -0.460 OA
BRANCH  37  38
ATOM     38  C   UNL A   1      39.675  34.011  30.328  1.00  0.00     0.338 C 
ATOM     39  O   UNL A   1      38.631  34.640  30.362  1.00  0.00    -0.246 OA
BRANCH  38  40
ATOM     40  C   UNL A   1      40.819  34.362  29.454  1.00  0.00     0.060 A 
ATOM     41  C   UNL A   1      42.061  34.428  30.091  1.00  0.00     0.016 A 
ATOM     42  C   UNL A   1      40.608  35.025  28.244  1.00  0.00     0.016 A 
ATOM     43  C   UNL A   1      42.973  35.398  29.690  1.00  0.00     0.010 A 
ATOM     44  C   UNL A   1      41.509  36.021  27.882  1.00  0.00     0.010 A 
ATOM     45  C   UNL A   1      42.627  36.306  28.684  1.00  0.00    -0.014 A 
BRANCH  45  46
ATOM     46  C   UNL A   1      43.604  37.307  28.226  1.00  0.00     0.031 A 
ATOM     47  C   UNL A   1      44.862  36.599  27.982  1.00  0.00     0.074 A 
ATOM     48  C   UNL A   1      43.530  38.644  28.017  1.00  0.00     0.049 A 
ATOM     49  N   UNL A   1      45.778  36.450  28.881  1.00  0.00    -0.248 NA
ATOM     50  C   UNL A   1      44.976  35.703  26.828  1.00  0.00     0.031 C 
ATOM     51  C   UNL A   1      42.404  39.522  28.197  1.00  0.00     0.029 A 
ATOM     52  N   UNL A   1      44.457  39.535  27.545  1.00  0.00    -0.354 N 
ATOM     53  C   UNL A   1      46.741  35.712  28.229  1.00  0.00     0.074 A 
ATOM     54  C   UNL A   1      46.054  35.001  27.184  1.00  0.00     0.031 C 
ATOM     55  C   UNL A   1      42.570  40.710  27.584  1.00  0.00     0.029 A 
ATOM     56  C   UNL A   1      43.923  40.758  27.102  1.00  0.00     0.049 A 
ATOM     57  H   UNL A   1      45.420  39.336  27.518  1.00  0.00     0.167 HD
ATOM     58  C   UNL A   1      48.033  36.127  28.291  1.00  0.00     0.034 A 
ATOM     59  C   UNL A   1      44.527  41.807  26.484  1.00  0.00     0.034 A 
ATOM     60  C   UNL A   1      48.248  37.028  29.405  1.00  0.00     0.049 A 
ATOM     61  C   UNL A   1      45.943  41.732  26.878  1.00  0.00     0.074 A 
ATOM     62  C   UNL A   1      47.963  37.001  30.759  1.00  0.00     0.029 A 
ATOM     63  N   UNL A   1      48.486  38.347  29.104  1.00  0.00    -0.354 N 
ATOM     64  N   UNL A   1      46.349  41.998  28.087  1.00  0.00    -0.248 NA
ATOM     65  C   UNL A   1      46.814  40.890  26.080  1.00  0.00     0.031 C 
ATOM     66  C   UNL A   1      47.614  38.340  31.103  1.00  0.00     0.029 A 
ATOM     67  C   UNL A   1      47.778  39.135  29.970  1.00  0.00     0.049 A 
ATOM     68  H   UNL A   1      49.071  38.673  28.382  1.00  0.00     0.167 HD
ATOM     69  C   UNL A   1      47.211  40.952  28.371  1.00  0.00     0.074 A 
ATOM     70  C   UNL A   1      47.541  40.365  27.070  1.00  0.00     0.031 C 
ATOM     71  C   UNL A   1      47.323  40.466  29.642  1.00  0.00     0.034 A 
BRANCH  58  72
ATOM     72  C   UNL A   1      48.955  36.087  27.094  1.00  0.00     0.023 A 
ATOM     73  C   UNL A   1      48.768  37.084  26.120  1.00  0.00     0.012 A 
ATOM     74  C   UNL A   1      49.807  35.008  26.747  1.00  0.00     0.148 A 
ATOM     75  C   UNL A   1      49.364  36.988  24.859  1.00  0.00     0.002 A 
ATOM     76  C   UNL A   1      50.478  34.967  25.536  1.00  0.00     0.091 A 
ATOM     77  F   UNL A   1      49.876  33.916  27.508  1.00  0.00    -0.205 F 
ATOM     78  C   UNL A   1      50.231  35.938  24.570  1.00  0.00     0.022 A 
BRANCH  76  79
ATOM     79  S   UNL A   1      51.643  33.649  25.161  1.00  0.00     0.127 S 
ATOM     80  O   UNL A   1      52.178  34.089  23.876  1.00  0.00    -0.237 OA
ATOM     81  O   UNL A   1      52.568  33.746  26.290  1.00  0.00    -0.237 OA
ATOM     82  O   UNL A   1      50.860  32.418  25.138  1.00  0.00    -0.744 OA
ENDBRANCH  76  79
ENDBRANCH  58  72
BRANCH  59  83
ATOM     83  C   UNL A   1      44.039  42.807  25.494  1.00  0.00     0.023 A 
ATOM     84  C   UNL A   1      44.696  44.058  25.406  1.00  0.00     0.012 A 
ATOM     85  C   UNL A   1      43.177  42.454  24.435  1.00  0.00     0.148 A 
ATOM     86  C   UNL A   1      44.587  44.871  24.270  1.00  0.00     0.002 A 
ATOM     87  C   UNL A   1      43.063  43.277  23.313  1.00  0.00     0.091 A 
ATOM     88  F   UNL A   1      42.543  41.276  24.472  1.00  0.00    -0.205 F 
ATOM     89  C   UNL A   1      43.788  44.467  23.212  1.00  0.00     0.022 A 
BRANCH  87  90
ATOM     90  S   UNL A   1      42.082  42.795  21.894  1.00  0.00     0.127 S 
ATOM     91  O   UNL A   1      40.721  42.756  22.431  1.00  0.00    -0.237 OA
ATOM     92  O   UNL A   1      42.341  43.908  20.988  1.00  0.00    -0.237 OA
ATOM     93  O   UNL A   1      42.599  41.489  21.509  1.00  0.00    -0.744 OA
ENDBRANCH  87  90
ENDBRANCH  59  83
BRANCH  71  94
ATOM     94  C   UNL A   1      46.762  41.288  30.776  1.00  0.00     0.023 A 
ATOM     95  C   UNL A   1      47.475  42.318  31.424  1.00  0.00     0.012 A 
ATOM     96  C   UNL A   1      45.403  41.106  31.084  1.00  0.00     0.148 A 
ATOM     97  C   UNL A   1      46.844  43.139  32.366  1.00  0.00     0.002 A 
ATOM     98  C   UNL A   1      44.769  41.950  31.983  1.00  0.00     0.091 A 
ATOM     99  F   UNL A   1      44.746  40.113  30.465  1.00  0.00    -0.205 F 
ATOM    100  C   UNL A   1      45.485  42.965  32.634  1.00  0.00     0.022 A 
BRANCH  98 101
ATOM    101  S   UNL A   1      43.000  41.845  32.267  1.00  0.00     0.127 S 
ATOM    102  O   UNL A   1      42.863  40.510  32.845  1.00  0.00    -0.237 OA
ATOM    103  O   UNL A   1      42.770  42.946  33.205  1.00  0.00    -0.237 OA
ATOM    104  O   UNL A   1      42.373  42.033  30.966  1.00  0.00    -0.744 OA
ENDBRANCH  98 101
ENDBRANCH  71  94
ENDBRANCH  45  46
ENDBRANCH  38  40
ENDBRANCH  37  38
ENDBRANCH  36  37
ENDBRANCH  35  36
ENDBRANCH  34  35
ENDBRANCH   1  34
TORSDOF 23
ENDMDL
