MODEL 1
REMARK VINA RESULT:     -11.2      0.000      0.000
REMARK SMILES COc1ccc(-c2nc(NCC(=O)OCCOCCOC(=O)c3ccc(-c4c5nc(c(-c6cccc(S(=O)(=O)[O-])c6F)c6ccc([nH]6)c(-c6cccc(S(=O)(=O)[O-])c6F)c6nc(c(-c7cccc(S(=O)(=O)[O-])c7F)c7ccc4[nH]7)C=C6)C=C5)cc3)sc2-c2ccc(OC)cc2)cc1
REMARK SMILES IDX 16 1 15 2 14 3 12 4 13 5 11 6 10 7 9 9 7 10 8 11 87 12 86 13
REMARK SMILES IDX 6 14 3 15 4 16 97 17 5 18 96 19 2 20 1 21 88 22 89 23 95 24
REMARK SMILES IDX 90 25 94 26 91 27 92 28 93 29 17 30 18 31 19 32 20 33 21 34
REMARK SMILES IDX 22 35 23 36 24 37 85 38 25 39 84 40 26 41 27 42 28 43 78 44
REMARK SMILES IDX 29 45 83 46 77 47 79 48 30 49 82 50 76 51 75 52 31 54 63 55
REMARK SMILES IDX 43 56 62 57 44 58 47 59 61 60 80 61 45 62 46 63 60 65 81 66
REMARK SMILES IDX 48 67 32 68 33 69 41 70 34 71 36 72 42 73 35 74 37 75 38 76
REMARK SMILES IDX 39 77 40 78 64 79 65 80 73 81 66 82 68 83 74 84 67 85 69 86
REMARK SMILES IDX 70 87 71 88 72 89 49 90 50 91 58 92 51 93 53 94 59 95 52 96
REMARK SMILES IDX 54 97 55 98 56 99 57 100
REMARK H PARENT 10 8 79 53 47 64
REMARK Flexibility Score: inf
ROOT
ATOM      1  C   UNL A   1      32.320  29.693  25.443  1.00  0.00     0.202 C 
ENDROOT
BRANCH   1   2
ATOM      2  C   UNL A   1      31.960  28.235  25.139  1.00  0.00     0.261 C 
BRANCH   2   3
ATOM      3  O   UNL A   1      31.093  28.161  23.996  1.00  0.00    -0.462 OA
BRANCH   3   4
ATOM      4  C   UNL A   1      31.703  28.022  22.789  1.00  0.00     0.325 C 
ATOM      5  O   UNL A   1      32.592  28.756  22.365  1.00  0.00    -0.250 OA
BRANCH   4   6
ATOM      6  C   UNL A   1      31.266  26.771  22.035  1.00  0.00     0.238 C 
BRANCH   6   7
ATOM      7  N   UNL A   1      30.707  25.701  22.854  1.00  0.00    -0.351 N 
ATOM      8  H   UNL A   1      29.762  25.770  23.118  1.00  0.00     0.163 HD
BRANCH   7   9
ATOM      9  C   UNL A   1      31.402  24.623  23.270  1.00  0.00     0.184 A 
ATOM     10  C   UNL A   1      33.144  23.483  24.036  1.00  0.00     0.091 A 
ATOM     11  N   UNL A   1      32.614  24.738  23.764  1.00  0.00    -0.220 NA
ATOM     12  C   UNL A   1      32.283  22.422  23.809  1.00  0.00     0.064 A 
ATOM     13  S   UNL A   1      30.800  23.015  23.202  1.00  0.00    -0.096 S 
BRANCH  10  14
ATOM     14  C   UNL A   1      34.509  23.317  24.520  1.00  0.00     0.002 A 
ATOM     15  C   UNL A   1      37.174  23.172  25.408  1.00  0.00     0.118 A 
ATOM     16  C   UNL A   1      36.159  23.552  26.286  1.00  0.00     0.047 A 
ATOM     17  C   UNL A   1      36.850  22.816  24.097  1.00  0.00     0.047 A 
ATOM     18  C   UNL A   1      34.835  23.630  25.846  1.00  0.00     0.014 A 
ATOM     19  C   UNL A   1      35.519  22.882  23.656  1.00  0.00     0.014 A 
BRANCH  15  20
ATOM     20  O   UNL A   1      38.430  23.152  25.949  1.00  0.00    -0.497 OA
ATOM     21  C   UNL A   1      38.788  24.297  26.716  1.00  0.00     0.278 C 
ENDBRANCH  15  20
ENDBRANCH  10  14
BRANCH  12  22
ATOM     22  C   UNL A   1      32.433  20.990  24.037  1.00  0.00    -0.006 A 
ATOM     23  C   UNL A   1      32.274  20.076  22.990  1.00  0.00     0.013 A 
ATOM     24  C   UNL A   1      32.736  20.515  25.318  1.00  0.00     0.013 A 
ATOM     25  C   UNL A   1      32.412  18.708  23.226  1.00  0.00     0.047 A 
ATOM     26  C   UNL A   1      32.869  19.143  25.552  1.00  0.00     0.047 A 
ATOM     27  C   UNL A   1      32.707  18.235  24.507  1.00  0.00     0.118 A 
BRANCH  27  28
ATOM     28  O   UNL A   1      32.813  16.874  24.603  1.00  0.00    -0.497 OA
ATOM     29  C   UNL A   1      33.952  16.379  25.299  1.00  0.00     0.278 C 
ENDBRANCH  27  28
ENDBRANCH  12  22
ENDBRANCH   7   9
ENDBRANCH   6   7
ENDBRANCH   4   6
ENDBRANCH   3   4
ENDBRANCH   2   3
ENDBRANCH   1   2
BRANCH   1  30
ATOM     30  O   UNL A   1      31.517  30.345  26.431  1.00  0.00    -0.374 OA
BRANCH  30  31
ATOM     31  C   UNL A   1      31.105  31.685  26.168  1.00  0.00     0.202 C 
BRANCH  31  32
ATOM     32  C   UNL A   1      31.851  32.805  26.903  1.00  0.00     0.261 C 
BRANCH  32  33
ATOM     33  O   UNL A   1      32.944  32.318  27.700  1.00  0.00    -0.460 OA
BRANCH  33  34
ATOM     34  C   UNL A   1      33.904  33.238  27.957  1.00  0.00     0.338 C 
ATOM     35  O   UNL A   1      33.745  34.448  28.082  1.00  0.00    -0.246 OA
BRANCH  34  36
ATOM     36  C   UNL A   1      35.194  32.587  28.252  1.00  0.00     0.060 A 
ATOM     37  C   UNL A   1      35.164  31.220  28.559  1.00  0.00     0.016 A 
ATOM     38  C   UNL A   1      36.393  33.300  28.316  1.00  0.00     0.016 A 
ATOM     39  C   UNL A   1      36.320  30.576  28.991  1.00  0.00     0.010 A 
ATOM     40  C   UNL A   1      37.554  32.650  28.756  1.00  0.00     0.010 A 
ATOM     41  C   UNL A   1      37.514  31.296  29.134  1.00  0.00    -0.014 A 
BRANCH  41  42
ATOM     42  C   UNL A   1      38.675  30.647  29.794  1.00  0.00     0.031 A 
ATOM     43  C   UNL A   1      39.002  30.996  31.221  1.00  0.00     0.074 A 
ATOM     44  C   UNL A   1      39.409  29.729  29.141  1.00  0.00     0.049 A 
ATOM     45  N   UNL A   1      39.938  30.511  31.997  1.00  0.00    -0.248 NA
ATOM     46  C   UNL A   1      38.164  32.023  31.861  1.00  0.00     0.031 C 
ATOM     47  C   UNL A   1      39.198  29.310  27.755  1.00  0.00     0.029 A 
ATOM     48  N   UNL A   1      40.490  28.992  29.555  1.00  0.00    -0.354 N 
ATOM     49  C   UNL A   1      39.817  31.186  33.206  1.00  0.00     0.074 A 
ATOM     50  C   UNL A   1      38.727  32.127  33.057  1.00  0.00     0.031 C 
ATOM     51  C   UNL A   1      40.135  28.404  27.427  1.00  0.00     0.029 A 
ATOM     52  C   UNL A   1      41.016  28.187  28.573  1.00  0.00     0.049 A 
ATOM     53  H   UNL A   1      40.854  29.036  30.468  1.00  0.00     0.167 HD
ATOM     54  C   UNL A   1      40.532  31.023  34.345  1.00  0.00     0.034 A 
ATOM     55  C   UNL A   1      42.091  27.374  28.594  1.00  0.00     0.034 A 
ATOM     56  C   UNL A   1      41.598  30.071  34.503  1.00  0.00     0.049 A 
ATOM     57  C   UNL A   1      42.871  27.213  29.873  1.00  0.00     0.074 A 
ATOM     58  C   UNL A   1      42.352  29.802  35.633  1.00  0.00     0.029 A 
ATOM     59  N   UNL A   1      42.072  29.238  33.502  1.00  0.00    -0.354 N 
ATOM     60  N   UNL A   1      42.659  27.762  31.045  1.00  0.00    -0.248 NA
ATOM     61  C   UNL A   1      44.013  26.287  29.844  1.00  0.00     0.031 C 
ATOM     62  C   UNL A   1      43.292  28.818  35.309  1.00  0.00     0.029 A 
ATOM     63  C   UNL A   1      43.110  28.459  33.983  1.00  0.00     0.049 A 
ATOM     64  H   UNL A   1      41.721  29.205  32.582  1.00  0.00     0.167 HD
ATOM     65  C   UNL A   1      43.616  27.222  31.899  1.00  0.00     0.074 A 
ATOM     66  C   UNL A   1      44.394  26.286  31.114  1.00  0.00     0.031 C 
ATOM     67  C   UNL A   1      43.841  27.489  33.209  1.00  0.00     0.034 A 
BRANCH  54  68
ATOM     68  C   UNL A   1      40.157  31.869  35.532  1.00  0.00     0.023 A 
ATOM     69  C   UNL A   1      40.800  33.109  35.732  1.00  0.00     0.012 A 
ATOM     70  C   UNL A   1      39.132  31.472  36.413  1.00  0.00     0.148 A 
ATOM     71  C   UNL A   1      40.445  33.929  36.802  1.00  0.00     0.002 A 
ATOM     72  C   UNL A   1      38.756  32.314  37.454  1.00  0.00     0.091 A 
ATOM     73  F   UNL A   1      38.550  30.281  36.220  1.00  0.00    -0.205 F 
ATOM     74  C   UNL A   1      39.417  33.536  37.656  1.00  0.00     0.022 A 
BRANCH  72  75
ATOM     75  S   UNL A   1      37.396  31.931  38.564  1.00  0.00     0.127 S 
ATOM     76  O   UNL A   1      37.120  30.536  38.223  1.00  0.00    -0.237 OA
ATOM     77  O   UNL A   1      38.005  32.128  39.879  1.00  0.00    -0.237 OA
ATOM     78  O   UNL A   1      36.336  32.875  38.239  1.00  0.00    -0.744 OA
ENDBRANCH  72  75
ENDBRANCH  54  68
BRANCH  55  79
ATOM     79  C   UNL A   1      42.467  26.607  27.373  1.00  0.00     0.023 A 
ATOM     80  C   UNL A   1      42.948  27.291  26.240  1.00  0.00     0.012 A 
ATOM     81  C   UNL A   1      42.361  25.203  27.334  1.00  0.00     0.148 A 
ATOM     82  C   UNL A   1      43.288  26.594  25.080  1.00  0.00     0.002 A 
ATOM     83  C   UNL A   1      42.752  24.510  26.194  1.00  0.00     0.091 A 
ATOM     84  F   UNL A   1      41.881  24.572  28.415  1.00  0.00    -0.205 F 
ATOM     85  C   UNL A   1      43.201  25.205  25.061  1.00  0.00     0.022 A 
BRANCH  83  86
ATOM     86  S   UNL A   1      42.792  22.716  26.131  1.00  0.00     0.127 S 
ATOM     87  O   UNL A   1      41.438  22.372  26.554  1.00  0.00    -0.237 OA
ATOM     88  O   UNL A   1      43.080  22.468  24.718  1.00  0.00    -0.237 OA
ATOM     89  O   UNL A   1      43.861  22.318  27.038  1.00  0.00    -0.744 OA
ENDBRANCH  83  86
ENDBRANCH  55  79
BRANCH  67  90
ATOM     90  C   UNL A   1      44.951  26.737  33.895  1.00  0.00     0.023 A 
ATOM     91  C   UNL A   1      46.281  27.189  33.778  1.00  0.00     0.012 A 
ATOM     92  C   UNL A   1      44.672  25.619  34.708  1.00  0.00     0.148 A 
ATOM     93  C   UNL A   1      47.318  26.521  34.428  1.00  0.00     0.002 A 
ATOM     94  C   UNL A   1      45.706  24.987  35.390  1.00  0.00     0.091 A 
ATOM     95  F   UNL A   1      43.406  25.189  34.793  1.00  0.00    -0.205 F 
ATOM     96  C   UNL A   1      47.030  25.429  35.242  1.00  0.00     0.022 A 
BRANCH  94  97
ATOM     97  S   UNL A   1      45.409  23.631  36.531  1.00  0.00     0.127 S 
ATOM     98  O   UNL A   1      44.818  22.624  35.652  1.00  0.00    -0.237 OA
ATOM     99  O   UNL A   1      46.759  23.315  37.001  1.00  0.00    -0.237 OA
ATOM    100  O   UNL A   1      44.527  24.166  37.561  1.00  0.00    -0.744 OA
ENDBRANCH  94  97
ENDBRANCH  67  90
ENDBRANCH  41  42
ENDBRANCH  34  36
ENDBRANCH  33  34
ENDBRANCH  32  33
ENDBRANCH  31  32
ENDBRANCH  30  31
ENDBRANCH   1  30
TORSDOF 23
ENDMDL
MODEL 2
REMARK VINA RESULT:     -10.5      1.330      2.949
REMARK SMILES COc1ccc(-c2nc(NCC(=O)OCCOCCOC(=O)c3ccc(-c4c5nc(c(-c6cccc(S(=O)(=O)[O-])c6F)c6ccc([nH]6)c(-c6cccc(S(=O)(=O)[O-])c6F)c6nc(c(-c7cccc(S(=O)(=O)[O-])c7F)c7ccc4[nH]7)C=C6)C=C5)cc3)sc2-c2ccc(OC)cc2)cc1
REMARK SMILES IDX 16 1 15 2 14 3 12 4 13 5 11 6 10 7 9 9 7 10 8 11 87 12 86 13
REMARK SMILES IDX 6 14 3 15 4 16 97 17 5 18 96 19 2 20 1 21 88 22 89 23 95 24
REMARK SMILES IDX 90 25 94 26 91 27 92 28 93 29 17 30 18 31 19 32 20 33 21 34
REMARK SMILES IDX 22 35 23 36 24 37 85 38 25 39 84 40 26 41 27 42 28 43 78 44
REMARK SMILES IDX 29 45 83 46 77 47 79 48 30 49 82 50 76 51 75 52 31 54 63 55
REMARK SMILES IDX 43 56 62 57 44 58 47 59 61 60 80 61 45 62 46 63 60 65 81 66
REMARK SMILES IDX 48 67 32 68 33 69 41 70 34 71 36 72 42 73 35 74 37 75 38 76
REMARK SMILES IDX 39 77 40 78 64 79 65 80 73 81 66 82 68 83 74 84 67 85 69 86
REMARK SMILES IDX 70 87 71 88 72 89 49 90 50 91 58 92 51 93 53 94 59 95 52 96
REMARK SMILES IDX 54 97 55 98 56 99 57 100
REMARK H PARENT 10 8 79 53 47 64
REMARK Flexibility Score: inf
ROOT
ATOM      1  C   UNL A   1      32.245  28.929  24.952  1.00  0.00     0.202 C 
ENDROOT
BRANCH   1   2
ATOM      2  C   UNL A   1      31.902  27.454  24.723  1.00  0.00     0.261 C 
BRANCH   2   3
ATOM      3  O   UNL A   1      31.124  27.301  23.525  1.00  0.00    -0.462 OA
BRANCH   3   4
ATOM      4  C   UNL A   1      31.818  27.302  22.356  1.00  0.00     0.325 C 
ATOM      5  O   UNL A   1      32.525  28.226  21.962  1.00  0.00    -0.250 OA
BRANCH   4   6
ATOM      6  C   UNL A   1      31.743  25.974  21.610  1.00  0.00     0.238 C 
BRANCH   6   7
ATOM      7  N   UNL A   1      31.385  24.814  22.418  1.00  0.00    -0.351 N 
ATOM      8  H   UNL A   1      30.428  24.629  22.558  1.00  0.00     0.163 HD
BRANCH   7   9
ATOM      9  C   UNL A   1      32.279  23.978  22.983  1.00  0.00     0.184 A 
ATOM     10  C   UNL A   1      33.034  22.098  23.887  1.00  0.00     0.091 A 
ATOM     11  N   UNL A   1      31.982  22.721  23.227  1.00  0.00    -0.220 NA
ATOM     12  C   UNL A   1      34.158  22.885  24.072  1.00  0.00     0.064 A 
ATOM     13  S   UNL A   1      33.867  24.447  23.443  1.00  0.00    -0.096 S 
BRANCH  10  14
ATOM     14  C   UNL A   1      32.939  20.718  24.347  1.00  0.00     0.002 A 
ATOM     15  C   UNL A   1      32.940  18.053  25.246  1.00  0.00     0.118 A 
ATOM     16  C   UNL A   1      32.869  19.104  26.160  1.00  0.00     0.047 A 
ATOM     17  C   UNL A   1      32.961  18.333  23.878  1.00  0.00     0.047 A 
ATOM     18  C   UNL A   1      32.873  20.428  25.716  1.00  0.00     0.014 A 
ATOM     19  C   UNL A   1      32.954  19.663  23.430  1.00  0.00     0.014 A 
BRANCH  15  20
ATOM     20  O   UNL A   1      32.949  16.802  25.801  1.00  0.00    -0.497 OA
ATOM     21  C   UNL A   1      32.965  15.719  24.877  1.00  0.00     0.278 C 
ENDBRANCH  15  20
ENDBRANCH  10  14
BRANCH  12  22
ATOM     22  C   UNL A   1      35.466  22.584  24.642  1.00  0.00    -0.006 A 
ATOM     23  C   UNL A   1      36.008  21.297  24.555  1.00  0.00     0.013 A 
ATOM     24  C   UNL A   1      36.192  23.588  25.292  1.00  0.00     0.013 A 
ATOM     25  C   UNL A   1      37.256  21.023  25.114  1.00  0.00     0.047 A 
ATOM     26  C   UNL A   1      37.440  23.309  25.855  1.00  0.00     0.047 A 
ATOM     27  C   UNL A   1      37.977  22.025  25.769  1.00  0.00     0.118 A 
BRANCH  27  28
ATOM     28  O   UNL A   1      39.183  21.624  26.274  1.00  0.00    -0.497 OA
ATOM     29  C   UNL A   1      39.944  22.619  26.952  1.00  0.00     0.278 C 
ENDBRANCH  27  28
ENDBRANCH  12  22
ENDBRANCH   7   9
ENDBRANCH   6   7
ENDBRANCH   4   6
ENDBRANCH   3   4
ENDBRANCH   2   3
ENDBRANCH   1   2
BRANCH   1  30
ATOM     30  O   UNL A   1      31.498  29.597  25.972  1.00  0.00    -0.374 OA
BRANCH  30  31
ATOM     31  C   UNL A   1      31.107  30.947  25.728  1.00  0.00     0.202 C 
BRANCH  31  32
ATOM     32  C   UNL A   1      31.663  32.018  26.675  1.00  0.00     0.261 C 
BRANCH  32  33
ATOM     33  O   UNL A   1      32.860  31.600  27.352  1.00  0.00    -0.460 OA
BRANCH  33  34
ATOM     34  C   UNL A   1      33.731  32.600  27.621  1.00  0.00     0.338 C 
ATOM     35  O   UNL A   1      33.477  33.799  27.679  1.00  0.00    -0.246 OA
BRANCH  34  36
ATOM     36  C   UNL A   1      35.045  32.063  28.019  1.00  0.00     0.060 A 
ATOM     37  C   UNL A   1      35.102  30.708  28.371  1.00  0.00     0.016 A 
ATOM     38  C   UNL A   1      36.179  32.871  28.136  1.00  0.00     0.016 A 
ATOM     39  C   UNL A   1      36.273  30.170  28.898  1.00  0.00     0.010 A 
ATOM     40  C   UNL A   1      37.355  32.329  28.671  1.00  0.00     0.010 A 
ATOM     41  C   UNL A   1      37.395  30.987  29.091  1.00  0.00    -0.014 A 
BRANCH  41  42
ATOM     42  C   UNL A   1      38.556  30.452  29.846  1.00  0.00     0.031 A 
ATOM     43  C   UNL A   1      38.690  30.764  31.313  1.00  0.00     0.074 A 
ATOM     44  C   UNL A   1      39.464  29.667  29.240  1.00  0.00     0.049 A 
ATOM     45  N   UNL A   1      39.597  30.359  32.164  1.00  0.00    -0.248 NA
ATOM     46  C   UNL A   1      37.668  31.647  31.899  1.00  0.00     0.031 C 
ATOM     47  C   UNL A   1      39.450  29.297  27.825  1.00  0.00     0.029 A 
ATOM     48  N   UNL A   1      40.583  29.047  29.739  1.00  0.00    -0.354 N 
ATOM     49  C   UNL A   1      39.270  30.950  33.379  1.00  0.00     0.074 A 
ATOM     50  C   UNL A   1      38.090  31.757  33.151  1.00  0.00     0.031 C 
ATOM     51  C   UNL A   1      40.522  28.531  27.564  1.00  0.00     0.029 A 
ATOM     52  C   UNL A   1      41.304  28.365  28.788  1.00  0.00     0.049 A 
ATOM     53  H   UNL A   1      40.844  29.089  30.687  1.00  0.00     0.167 HD
ATOM     54  C   UNL A   1      39.880  30.818  34.581  1.00  0.00     0.034 A 
ATOM     55  C   UNL A   1      42.466  27.690  28.893  1.00  0.00     0.034 A 
ATOM     56  C   UNL A   1      41.038  29.997  34.815  1.00  0.00     0.049 A 
ATOM     57  C   UNL A   1      43.126  27.560  30.241  1.00  0.00     0.074 A 
ATOM     58  C   UNL A   1      41.702  29.765  36.008  1.00  0.00     0.029 A 
ATOM     59  N   UNL A   1      41.713  29.282  33.839  1.00  0.00    -0.354 N 
ATOM     60  N   UNL A   1      42.729  28.018  31.404  1.00  0.00    -0.248 NA
ATOM     61  C   UNL A   1      44.375  26.784  30.298  1.00  0.00     0.031 C 
ATOM     62  C   UNL A   1      42.788  28.922  35.748  1.00  0.00     0.029 A 
ATOM     63  C   UNL A   1      42.788  28.612  34.398  1.00  0.00     0.049 A 
ATOM     64  H   UNL A   1      41.464  29.253  32.886  1.00  0.00     0.167 HD
ATOM     65  C   UNL A   1      43.656  27.556  32.333  1.00  0.00     0.074 A 
ATOM     66  C   UNL A   1      44.622  26.764  31.601  1.00  0.00     0.031 C 
ATOM     67  C   UNL A   1      43.711  27.780  33.669  1.00  0.00     0.034 A 
BRANCH  54  68
ATOM     68  C   UNL A   1      39.283  31.549  35.753  1.00  0.00     0.023 A 
ATOM     69  C   UNL A   1      38.258  30.937  36.504  1.00  0.00     0.012 A 
ATOM     70  C   UNL A   1      39.774  32.808  36.151  1.00  0.00     0.148 A 
ATOM     71  C   UNL A   1      37.714  31.576  37.617  1.00  0.00     0.002 A 
ATOM     72  C   UNL A   1      39.255  33.421  37.286  1.00  0.00     0.091 A 
ATOM     73  F   UNL A   1      40.732  33.383  35.411  1.00  0.00    -0.205 F 
ATOM     74  C   UNL A   1      38.219  32.812  38.013  1.00  0.00     0.022 A 
BRANCH  72  75
ATOM     75  S   UNL A   1      39.888  34.979  37.919  1.00  0.00     0.127 S 
ATOM     76  O   UNL A   1      41.270  34.629  38.237  1.00  0.00    -0.237 OA
ATOM     77  O   UNL A   1      39.734  35.866  36.766  1.00  0.00    -0.237 OA
ATOM     78  O   UNL A   1      39.049  35.317  39.061  1.00  0.00    -0.744 OA
ENDBRANCH  72  75
ENDBRANCH  54  68
BRANCH  55  79
ATOM     79  C   UNL A   1      43.058  27.039  27.691  1.00  0.00     0.023 A 
ATOM     80  C   UNL A   1      43.663  27.831  26.695  1.00  0.00     0.012 A 
ATOM     81  C   UNL A   1      43.035  25.640  27.535  1.00  0.00     0.148 A 
ATOM     82  C   UNL A   1      44.207  27.243  25.552  1.00  0.00     0.002 A 
ATOM     83  C   UNL A   1      43.626  25.056  26.420  1.00  0.00     0.091 A 
ATOM     84  F   UNL A   1      42.435  24.904  28.482  1.00  0.00    -0.205 F 
ATOM     85  C   UNL A   1      44.199  25.857  25.420  1.00  0.00     0.022 A 
BRANCH  83  86
ATOM     86  S   UNL A   1      43.772  23.276  26.234  1.00  0.00     0.127 S 
ATOM     87  O   UNL A   1      43.397  22.805  27.565  1.00  0.00    -0.237 OA
ATOM     88  O   UNL A   1      42.793  22.999  25.183  1.00  0.00    -0.237 OA
ATOM     89  O   UNL A   1      45.155  23.037  25.842  1.00  0.00    -0.744 OA
ENDBRANCH  83  86
ENDBRANCH  55  79
BRANCH  67  90
ATOM     90  C   UNL A   1      44.833  27.136  34.441  1.00  0.00     0.023 A 
ATOM     91  C   UNL A   1      46.089  27.771  34.514  1.00  0.00     0.012 A 
ATOM     92  C   UNL A   1      44.627  25.933  35.147  1.00  0.00     0.148 A 
ATOM     93  C   UNL A   1      47.131  27.203  35.245  1.00  0.00     0.002 A 
ATOM     94  C   UNL A   1      45.657  25.397  35.911  1.00  0.00     0.091 A 
ATOM     95  F   UNL A   1      43.434  25.330  35.050  1.00  0.00    -0.205 F 
ATOM     96  C   UNL A   1      46.912  26.023  35.952  1.00  0.00     0.022 A 
BRANCH  94  97
ATOM     97  S   UNL A   1      45.430  23.931  36.926  1.00  0.00     0.127 S 
ATOM     98  O   UNL A   1      44.839  22.995  35.972  1.00  0.00    -0.237 OA
ATOM     99  O   UNL A   1      46.801  23.611  37.326  1.00  0.00    -0.237 OA
ATOM    100  O   UNL A   1      44.566  24.341  38.026  1.00  0.00    -0.744 OA
ENDBRANCH  94  97
ENDBRANCH  67  90
ENDBRANCH  41  42
ENDBRANCH  34  36
ENDBRANCH  33  34
ENDBRANCH  32  33
ENDBRANCH  31  32
ENDBRANCH  30  31
ENDBRANCH   1  30
TORSDOF 23
ENDMDL
MODEL 3
REMARK VINA RESULT:     -10.3      5.427     11.105
REMARK SMILES COc1ccc(-c2nc(NCC(=O)OCCOCCOC(=O)c3ccc(-c4c5nc(c(-c6cccc(S(=O)(=O)[O-])c6F)c6ccc([nH]6)c(-c6cccc(S(=O)(=O)[O-])c6F)c6nc(c(-c7cccc(S(=O)(=O)[O-])c7F)c7ccc4[nH]7)C=C6)C=C5)cc3)sc2-c2ccc(OC)cc2)cc1
REMARK SMILES IDX 16 1 15 2 14 3 12 4 13 5 11 6 10 7 9 9 7 10 8 11 87 12 86 13
REMARK SMILES IDX 6 14 3 15 4 16 97 17 5 18 96 19 2 20 1 21 88 22 89 23 95 24
REMARK SMILES IDX 90 25 94 26 91 27 92 28 93 29 17 30 18 31 19 32 20 33 21 34
REMARK SMILES IDX 22 35 23 36 24 37 85 38 25 39 84 40 26 41 27 42 28 43 78 44
REMARK SMILES IDX 29 45 83 46 77 47 79 48 30 49 82 50 76 51 75 52 31 54 63 55
REMARK SMILES IDX 43 56 62 57 44 58 47 59 61 60 80 61 45 62 46 63 60 65 81 66
REMARK SMILES IDX 48 67 32 68 33 69 41 70 34 71 36 72 42 73 35 74 37 75 38 76
REMARK SMILES IDX 39 77 40 78 64 79 65 80 73 81 66 82 68 83 74 84 67 85 69 86
REMARK SMILES IDX 70 87 71 88 72 89 49 90 50 91 58 92 51 93 53 94 59 95 52 96
REMARK SMILES IDX 54 97 55 98 56 99 57 100
REMARK H PARENT 10 8 79 53 47 64
REMARK Flexibility Score: inf
ROOT
ATOM      1  C   UNL A   1      32.675  35.995  28.778  1.00  0.00     0.202 C 
ENDROOT
BRANCH   1   2
ATOM      2  C   UNL A   1      33.341  36.515  30.055  1.00  0.00     0.261 C 
BRANCH   2   3
ATOM      3  O   UNL A   1      32.347  36.936  31.003  1.00  0.00    -0.462 OA
BRANCH   3   4
ATOM      4  C   UNL A   1      32.451  36.413  32.253  1.00  0.00     0.325 C 
ATOM      5  O   UNL A   1      32.457  37.071  33.290  1.00  0.00    -0.250 OA
BRANCH   4   6
ATOM      6  C   UNL A   1      32.435  34.888  32.269  1.00  0.00     0.238 C 
BRANCH   6   7
ATOM      7  N   UNL A   1      33.278  34.257  33.278  1.00  0.00    -0.351 N 
ATOM      8  H   UNL A   1      32.861  34.002  34.132  1.00  0.00     0.163 HD
BRANCH   7   9
ATOM      9  C   UNL A   1      34.591  33.998  33.115  1.00  0.00     0.184 A 
ATOM     10  C   UNL A   1      36.558  33.061  33.532  1.00  0.00     0.091 A 
ATOM     11  N   UNL A   1      35.200  33.073  33.822  1.00  0.00    -0.220 NA
ATOM     12  C   UNL A   1      36.953  33.941  32.538  1.00  0.00     0.064 A 
ATOM     13  S   UNL A   1      35.597  34.829  31.996  1.00  0.00    -0.096 S 
BRANCH  10  14
ATOM     14  C   UNL A   1      37.484  32.181  34.234  1.00  0.00     0.002 A 
ATOM     15  C   UNL A   1      39.124  30.396  35.661  1.00  0.00     0.118 A 
ATOM     16  C   UNL A   1      38.709  30.088  34.366  1.00  0.00     0.047 A 
ATOM     17  C   UNL A   1      38.759  31.619  36.227  1.00  0.00     0.047 A 
ATOM     18  C   UNL A   1      37.890  30.971  33.657  1.00  0.00     0.014 A 
ATOM     19  C   UNL A   1      37.946  32.513  35.512  1.00  0.00     0.014 A 
BRANCH  15  20
ATOM     20  O   UNL A   1      39.905  29.446  36.260  1.00  0.00    -0.497 OA
ATOM     21  C   UNL A   1      41.292  29.498  35.942  1.00  0.00     0.278 C 
ENDBRANCH  15  20
ENDBRANCH  10  14
BRANCH  12  22
ATOM     22  C   UNL A   1      38.247  34.172  31.908  1.00  0.00    -0.006 A 
ATOM     23  C   UNL A   1      39.414  34.258  32.677  1.00  0.00     0.013 A 
ATOM     24  C   UNL A   1      38.332  34.315  30.519  1.00  0.00     0.013 A 
ATOM     25  C   UNL A   1      40.644  34.488  32.060  1.00  0.00     0.047 A 
ATOM     26  C   UNL A   1      39.566  34.549  29.905  1.00  0.00     0.047 A 
ATOM     27  C   UNL A   1      40.726  34.638  30.673  1.00  0.00     0.118 A 
BRANCH  27  28
ATOM     28  O   UNL A   1      41.989  34.861  30.197  1.00  0.00    -0.497 OA
ATOM     29  C   UNL A   1      42.581  33.796  29.460  1.00  0.00     0.278 C 
ENDBRANCH  27  28
ENDBRANCH  12  22
ENDBRANCH   7   9
ENDBRANCH   6   7
ENDBRANCH   4   6
ENDBRANCH   3   4
ENDBRANCH   2   3
ENDBRANCH   1   2
BRANCH   1  30
ATOM     30  O   UNL A   1      32.753  34.583  28.559  1.00  0.00    -0.374 OA
BRANCH  30  31
ATOM     31  C   UNL A   1      34.047  33.983  28.582  1.00  0.00     0.202 C 
BRANCH  31  32
ATOM     32  C   UNL A   1      34.113  32.473  28.843  1.00  0.00     0.261 C 
BRANCH  32  33
ATOM     33  O   UNL A   1      35.395  32.046  29.333  1.00  0.00    -0.460 OA
BRANCH  33  34
ATOM     34  C   UNL A   1      35.738  30.784  28.981  1.00  0.00     0.338 C 
ATOM     35  O   UNL A   1      35.145  30.056  28.191  1.00  0.00    -0.246 OA
BRANCH  34  36
ATOM     36  C   UNL A   1      37.052  30.419  29.542  1.00  0.00     0.060 A 
ATOM     37  C   UNL A   1      38.148  31.205  29.167  1.00  0.00     0.016 A 
ATOM     38  C   UNL A   1      37.234  29.288  30.341  1.00  0.00     0.016 A 
ATOM     39  C   UNL A   1      39.437  30.831  29.538  1.00  0.00     0.010 A 
ATOM     40  C   UNL A   1      38.532  28.911  30.709  1.00  0.00     0.010 A 
ATOM     41  C   UNL A   1      39.642  29.658  30.276  1.00  0.00    -0.014 A 
BRANCH  41  42
ATOM     42  C   UNL A   1      41.028  29.165  30.478  1.00  0.00     0.031 A 
ATOM     43  C   UNL A   1      41.530  28.014  29.647  1.00  0.00     0.074 A 
ATOM     44  C   UNL A   1      41.844  29.759  31.366  1.00  0.00     0.049 A 
ATOM     45  N   UNL A   1      42.717  27.462  29.631  1.00  0.00    -0.248 NA
ATOM     46  C   UNL A   1      40.572  27.404  28.711  1.00  0.00     0.031 C 
ATOM     47  C   UNL A   1      41.475  30.876  32.235  1.00  0.00     0.029 A 
ATOM     48  N   UNL A   1      43.150  29.495  31.694  1.00  0.00    -0.354 N 
ATOM     49  C   UNL A   1      42.645  26.431  28.701  1.00  0.00     0.074 A 
ATOM     50  C   UNL A   1      41.292  26.422  28.187  1.00  0.00     0.031 C 
ATOM     51  C   UNL A   1      42.525  31.189  33.012  1.00  0.00     0.029 A 
ATOM     52  C   UNL A   1      43.635  30.290  32.705  1.00  0.00     0.049 A 
ATOM     53  H   UNL A   1      43.688  28.801  31.248  1.00  0.00     0.167 HD
ATOM     54  C   UNL A   1      43.619  25.583  28.295  1.00  0.00     0.034 A 
ATOM     55  C   UNL A   1      44.837  30.286  33.318  1.00  0.00     0.034 A 
ATOM     56  C   UNL A   1      44.971  25.607  28.787  1.00  0.00     0.049 A 
ATOM     57  C   UNL A   1      45.902  29.330  32.848  1.00  0.00     0.074 A 
ATOM     58  C   UNL A   1      46.041  24.817  28.404  1.00  0.00     0.029 A 
ATOM     59  N   UNL A   1      45.439  26.458  29.776  1.00  0.00    -0.354 N 
ATOM     60  N   UNL A   1      45.855  28.450  31.877  1.00  0.00    -0.248 NA
ATOM     61  C   UNL A   1      47.203  29.396  33.534  1.00  0.00     0.031 C 
ATOM     62  C   UNL A   1      47.151  25.179  29.174  1.00  0.00     0.029 A 
ATOM     63  C   UNL A   1      46.779  26.209  30.021  1.00  0.00     0.049 A 
ATOM     64  H   UNL A   1      44.899  27.140  30.237  1.00  0.00     0.167 HD
ATOM     65  C   UNL A   1      47.125  27.886  31.811  1.00  0.00     0.074 A 
ATOM     66  C   UNL A   1      47.925  28.539  32.825  1.00  0.00     0.031 C 
ATOM     67  C   UNL A   1      47.582  26.904  30.994  1.00  0.00     0.034 A 
BRANCH  54  68
ATOM     68  C   UNL A   1      43.272  24.576  27.232  1.00  0.00     0.023 A 
ATOM     69  C   UNL A   1      43.703  24.789  25.907  1.00  0.00     0.012 A 
ATOM     70  C   UNL A   1      42.576  23.393  27.552  1.00  0.00     0.148 A 
ATOM     71  C   UNL A   1      43.427  23.852  24.911  1.00  0.00     0.002 A 
ATOM     72  C   UNL A   1      42.341  22.446  26.562  1.00  0.00     0.091 A 
ATOM     73  F   UNL A   1      42.154  23.221  28.812  1.00  0.00    -0.205 F 
ATOM     74  C   UNL A   1      42.756  22.678  25.241  1.00  0.00     0.022 A 
BRANCH  72  75
ATOM     75  S   UNL A   1      41.548  20.869  26.902  1.00  0.00     0.127 S 
ATOM     76  O   UNL A   1      41.532  20.255  25.576  1.00  0.00    -0.237 OA
ATOM     77  O   UNL A   1      42.478  20.253  27.848  1.00  0.00    -0.237 OA
ATOM     78  O   UNL A   1      40.241  21.190  27.458  1.00  0.00    -0.744 OA
ENDBRANCH  72  75
ENDBRANCH  54  68
BRANCH  55  79
ATOM     79  C   UNL A   1      45.114  31.256  34.414  1.00  0.00     0.023 A 
ATOM     80  C   UNL A   1      44.945  30.861  35.755  1.00  0.00     0.012 A 
ATOM     81  C   UNL A   1      45.556  32.563  34.134  1.00  0.00     0.148 A 
ATOM     82  C   UNL A   1      45.182  31.759  36.797  1.00  0.00     0.002 A 
ATOM     83  C   UNL A   1      45.842  33.437  35.177  1.00  0.00     0.091 A 
ATOM     84  F   UNL A   1      45.690  32.928  32.851  1.00  0.00    -0.205 F 
ATOM     85  C   UNL A   1      45.641  33.042  36.508  1.00  0.00     0.022 A 
BRANCH  83  86
ATOM     86  S   UNL A   1      46.557  35.061  34.898  1.00  0.00     0.127 S 
ATOM     87  O   UNL A   1      47.858  34.721  34.330  1.00  0.00    -0.237 OA
ATOM     88  O   UNL A   1      45.608  35.653  33.955  1.00  0.00    -0.237 OA
ATOM     89  O   UNL A   1      46.583  35.704  36.205  1.00  0.00    -0.744 OA
ENDBRANCH  83  86
ENDBRANCH  55  79
BRANCH  67  90
ATOM     90  C   UNL A   1      49.024  26.493  31.135  1.00  0.00     0.023 A 
ATOM     91  C   UNL A   1      50.023  27.183  30.417  1.00  0.00     0.012 A 
ATOM     92  C   UNL A   1      49.400  25.466  32.024  1.00  0.00     0.148 A 
ATOM     93  C   UNL A   1      51.366  26.834  30.555  1.00  0.00     0.002 A 
ATOM     94  C   UNL A   1      50.744  25.155  32.191  1.00  0.00     0.091 A 
ATOM     95  F   UNL A   1      48.437  24.806  32.684  1.00  0.00    -0.205 F 
ATOM     96  C   UNL A   1      51.727  25.829  31.449  1.00  0.00     0.022 A 
BRANCH  94  97
ATOM     97  S   UNL A   1      51.303  23.939  33.390  1.00  0.00     0.127 S 
ATOM     98  O   UNL A   1      51.276  22.708  32.602  1.00  0.00    -0.237 OA
ATOM     99  O   UNL A   1      52.644  24.419  33.724  1.00  0.00    -0.237 OA
ATOM    100  O   UNL A   1      50.351  24.003  34.492  1.00  0.00    -0.744 OA
ENDBRANCH  94  97
ENDBRANCH  67  90
ENDBRANCH  41  42
ENDBRANCH  34  36
ENDBRANCH  33  34
ENDBRANCH  32  33
ENDBRANCH  31  32
ENDBRANCH  30  31
ENDBRANCH   1  30
TORSDOF 23
ENDMDL
