MODEL 1
REMARK VINA RESULT:     -12.2      0.000      0.000
REMARK SMILES CC(C)c1cc(N2CCC(C(=O)OCCOCCOC(=O)c3ccc(-c4c5nc(c(-c6cccc(S(=O)(=O)[O-])c6F)c6ccc([nH]6)c(-c6cccc(S(=O)(=O)[O-])c6F)c6nc(c(-c7cccc(S(=O)(=O)[O-])c7F)c7ccc4[nH]7)C=C6)C=C5)cc3)CC2)nc(-c2ccc(F)cc2)n1
REMARK SMILES IDX 17 1 16 2 15 3 14 4 13 5 11 6 12 7 10 8 7 9 8 10 86 11 9 12
REMARK SMILES IDX 85 13 6 14 4 15 5 16 96 17 88 18 87 19 2 20 1 21 3 22 89 23
REMARK SMILES IDX 90 24 95 25 91 26 94 27 92 28 93 29 18 30 19 31 20 32 21 33
REMARK SMILES IDX 22 34 23 35 84 36 24 37 83 38 25 39 26 40 27 41 77 42 28 43
REMARK SMILES IDX 82 44 76 45 78 46 29 47 81 48 75 49 74 50 30 52 62 53 42 54
REMARK SMILES IDX 61 55 43 56 46 57 60 58 79 59 44 60 45 61 59 63 80 64 47 65
REMARK SMILES IDX 31 66 32 67 40 68 33 69 35 70 41 71 34 72 36 73 37 74 38 75
REMARK SMILES IDX 39 76 63 77 64 78 72 79 65 80 67 81 73 82 66 83 68 84 69 85
REMARK SMILES IDX 70 86 71 87 48 88 49 89 57 90 50 91 52 92 58 93 51 94 53 95
REMARK SMILES IDX 54 96 55 97 56 98
REMARK H PARENT 78 51 46 62
REMARK Flexibility Score: inf
ROOT
ATOM      1  C   UNL A   1      35.929  20.152  24.988  1.00  0.00     0.202 C 
ENDROOT
BRANCH   1   2
ATOM      2  O   UNL A   1      35.599  18.791  24.719  1.00  0.00    -0.374 OA
BRANCH   2   3
ATOM      3  C   UNL A   1      34.221  18.497  24.468  1.00  0.00     0.202 C 
BRANCH   3   4
ATOM      4  C   UNL A   1      33.211  19.157  25.413  1.00  0.00     0.261 C 
BRANCH   4   5
ATOM      5  O   UNL A   1      32.054  19.607  24.685  1.00  0.00    -0.463 OA
BRANCH   5   6
ATOM      6  C   UNL A   1      32.223  20.681  23.875  1.00  0.00     0.309 C 
ATOM      7  O   UNL A   1      32.082  20.681  22.657  1.00  0.00    -0.252 OA
BRANCH   6   8
ATOM      8  C   UNL A   1      32.613  21.930  24.639  1.00  0.00     0.103 C 
ATOM      9  N   UNL A   1      32.506  24.669  25.333  1.00  0.00    -0.356 N 
ATOM     10  C   UNL A   1      33.700  24.205  24.654  1.00  0.00     0.119 C 
ATOM     11  C   UNL A   1      31.727  23.747  26.134  1.00  0.00     0.119 C 
ATOM     12  C   UNL A   1      33.368  22.982  23.812  1.00  0.00     0.037 C 
ATOM     13  C   UNL A   1      31.363  22.535  25.279  1.00  0.00     0.037 C 
BRANCH   9  14
ATOM     14  C   UNL A   1      32.311  26.027  25.405  1.00  0.00     0.132 A 
ATOM     15  C   UNL A   1      32.730  28.151  26.354  1.00  0.00     0.049 A 
ATOM     16  C   UNL A   1      32.937  26.785  26.374  1.00  0.00     0.071 A 
ATOM     17  N   UNL A   1      31.935  28.731  25.434  1.00  0.00    -0.233 NA
ATOM     18  C   UNL A   1      31.331  27.911  24.554  1.00  0.00     0.161 A 
ATOM     19  N   UNL A   1      31.514  26.584  24.486  1.00  0.00    -0.211 NA
BRANCH  15  20
ATOM     20  C   UNL A   1      33.420  29.084  27.326  1.00  0.00     0.032 C 
ATOM     21  C   UNL A   1      34.938  29.167  27.134  1.00  0.00     0.014 C 
ATOM     22  C   UNL A   1      32.788  30.475  27.249  1.00  0.00     0.014 C 
ENDBRANCH  15  20
BRANCH  18  23
ATOM     23  C   UNL A   1      30.373  28.503  23.618  1.00  0.00     0.019 A 
ATOM     24  C   UNL A   1      30.774  29.475  22.683  1.00  0.00     0.015 A 
ATOM     25  C   UNL A   1      29.017  28.121  23.639  1.00  0.00     0.015 A 
ATOM     26  C   UNL A   1      29.853  30.043  21.800  1.00  0.00     0.040 A 
ATOM     27  C   UNL A   1      28.090  28.703  22.769  1.00  0.00     0.040 A 
ATOM     28  C   UNL A   1      28.518  29.657  21.856  1.00  0.00     0.123 A 
ATOM     29  F   UNL A   1      27.637  30.219  21.020  1.00  0.00    -0.207 F 
ENDBRANCH  18  23
ENDBRANCH   9  14
ENDBRANCH   6   8
ENDBRANCH   5   6
ENDBRANCH   4   5
ENDBRANCH   3   4
ENDBRANCH   2   3
ENDBRANCH   1   2
BRANCH   1  30
ATOM     30  C   UNL A   1      37.384  20.569  24.735  1.00  0.00     0.261 C 
BRANCH  30  31
ATOM     31  O   UNL A   1      37.831  21.605  25.627  1.00  0.00    -0.460 OA
BRANCH  31  32
ATOM     32  C   UNL A   1      39.085  21.428  26.105  1.00  0.00     0.338 C 
ATOM     33  O   UNL A   1      39.819  20.464  25.904  1.00  0.00    -0.246 OA
BRANCH  32  34
ATOM     34  C   UNL A   1      39.567  22.641  26.790  1.00  0.00     0.060 A 
ATOM     35  C   UNL A   1      38.938  23.848  26.462  1.00  0.00     0.016 A 
ATOM     36  C   UNL A   1      40.662  22.627  27.659  1.00  0.00     0.016 A 
ATOM     37  C   UNL A   1      39.437  25.051  26.953  1.00  0.00     0.010 A 
ATOM     38  C   UNL A   1      41.164  23.841  28.149  1.00  0.00     0.010 A 
ATOM     39  C   UNL A   1      40.578  25.062  27.767  1.00  0.00    -0.014 A 
BRANCH  39  40
ATOM     40  C   UNL A   1      41.200  26.367  28.108  1.00  0.00     0.031 A 
ATOM     41  C   UNL A   1      42.578  26.691  27.592  1.00  0.00     0.074 A 
ATOM     42  C   UNL A   1      40.516  27.282  28.818  1.00  0.00     0.049 A 
ATOM     43  N   UNL A   1      43.256  27.805  27.694  1.00  0.00    -0.248 NA
ATOM     44  C   UNL A   1      43.282  25.624  26.863  1.00  0.00     0.031 C 
ATOM     45  C   UNL A   1      39.180  27.088  29.381  1.00  0.00     0.029 A 
ATOM     46  N   UNL A   1      40.856  28.558  29.193  1.00  0.00    -0.354 N 
ATOM     47  C   UNL A   1      44.466  27.575  27.050  1.00  0.00     0.074 A 
ATOM     48  C   UNL A   1      44.440  26.205  26.581  1.00  0.00     0.031 C 
ATOM     49  C   UNL A   1      38.819  28.201  30.041  1.00  0.00     0.029 A 
ATOM     50  C   UNL A   1      39.898  29.184  29.956  1.00  0.00     0.049 A 
ATOM     51  H   UNL A   1      41.706  28.985  28.939  1.00  0.00     0.167 HD
ATOM     52  C   UNL A   1      45.495  28.431  26.843  1.00  0.00     0.034 A 
ATOM     53  C   UNL A   1      39.894  30.406  30.522  1.00  0.00     0.034 A 
ATOM     54  C   UNL A   1      45.518  29.798  27.291  1.00  0.00     0.049 A 
ATOM     55  C   UNL A   1      41.059  31.333  30.285  1.00  0.00     0.074 A 
ATOM     56  C   UNL A   1      46.503  30.751  27.098  1.00  0.00     0.029 A 
ATOM     57  N   UNL A   1      44.516  30.404  28.031  1.00  0.00    -0.354 N 
ATOM     58  N   UNL A   1      42.131  31.143  29.555  1.00  0.00    -0.248 NA
ATOM     59  C   UNL A   1      40.993  32.659  30.919  1.00  0.00     0.031 C 
ATOM     60  C   UNL A   1      46.101  31.931  27.732  1.00  0.00     0.029 A 
ATOM     61  C   UNL A   1      44.860  31.717  28.308  1.00  0.00     0.049 A 
ATOM     62  H   UNL A   1      43.682  29.967  28.318  1.00  0.00     0.167 HD
ATOM     63  C   UNL A   1      42.851  32.332  29.617  1.00  0.00     0.074 A 
ATOM     64  C   UNL A   1      42.075  33.248  30.429  1.00  0.00     0.031 C 
ATOM     65  C   UNL A   1      44.055  32.635  29.072  1.00  0.00     0.034 A 
BRANCH  52  66
ATOM     66  C   UNL A   1      46.673  27.932  26.045  1.00  0.00     0.023 A 
ATOM     67  C   UNL A   1      46.608  27.958  24.637  1.00  0.00     0.012 A 
ATOM     68  C   UNL A   1      47.860  27.517  26.677  1.00  0.00     0.148 A 
ATOM     69  C   UNL A   1      47.703  27.561  23.869  1.00  0.00     0.002 A 
ATOM     70  C   UNL A   1      48.960  27.157  25.905  1.00  0.00     0.091 A 
ATOM     71  F   UNL A   1      47.893  27.482  28.017  1.00  0.00    -0.205 F 
ATOM     72  C   UNL A   1      48.879  27.171  24.502  1.00  0.00     0.022 A 
BRANCH  70  73
ATOM     73  S   UNL A   1      50.544  26.706  26.620  1.00  0.00     0.127 S 
ATOM     74  O   UNL A   1      51.337  26.421  25.425  1.00  0.00    -0.237 OA
ATOM     75  O   UNL A   1      50.923  27.932  27.324  1.00  0.00    -0.237 OA
ATOM     76  O   UNL A   1      50.286  25.563  27.485  1.00  0.00    -0.744 OA
ENDBRANCH  70  73
ENDBRANCH  52  66
BRANCH  53  77
ATOM     77  C   UNL A   1      38.724  30.852  31.332  1.00  0.00     0.023 A 
ATOM     78  C   UNL A   1      38.735  30.675  32.729  1.00  0.00     0.012 A 
ATOM     79  C   UNL A   1      37.601  31.448  30.726  1.00  0.00     0.148 A 
ATOM     80  C   UNL A   1      37.635  31.049  33.502  1.00  0.00     0.002 A 
ATOM     81  C   UNL A   1      36.534  31.871  31.508  1.00  0.00     0.091 A 
ATOM     82  F   UNL A   1      37.596  31.585  29.391  1.00  0.00    -0.205 F 
ATOM     83  C   UNL A   1      36.540  31.657  32.894  1.00  0.00     0.022 A 
BRANCH  81  84
ATOM     84  S   UNL A   1      35.150  32.781  30.812  1.00  0.00     0.127 S 
ATOM     85  O   UNL A   1      34.786  31.948  29.671  1.00  0.00    -0.237 OA
ATOM     86  O   UNL A   1      34.188  32.770  31.915  1.00  0.00    -0.237 OA
ATOM     87  O   UNL A   1      35.680  34.102  30.500  1.00  0.00    -0.744 OA
ENDBRANCH  81  84
ENDBRANCH  53  77
BRANCH  65  88
ATOM     88  C   UNL A   1      44.604  34.016  29.320  1.00  0.00     0.023 A 
ATOM     89  C   UNL A   1      45.280  34.290  30.526  1.00  0.00     0.012 A 
ATOM     90  C   UNL A   1      44.496  35.029  28.346  1.00  0.00     0.148 A 
ATOM     91  C   UNL A   1      45.805  35.557  30.776  1.00  0.00     0.002 A 
ATOM     92  C   UNL A   1      45.061  36.278  28.583  1.00  0.00     0.091 A 
ATOM     93  F   UNL A   1      43.832  34.760  27.212  1.00  0.00    -0.205 F 
ATOM     94  C   UNL A   1      45.704  36.547  29.801  1.00  0.00     0.022 A 
BRANCH  92  95
ATOM     95  S   UNL A   1      45.053  37.579  27.344  1.00  0.00     0.127 S 
ATOM     96  O   UNL A   1      45.569  38.717  28.101  1.00  0.00    -0.237 OA
ATOM     97  O   UNL A   1      45.970  37.056  26.330  1.00  0.00    -0.237 OA
ATOM     98  O   UNL A   1      43.670  37.692  26.899  1.00  0.00    -0.744 OA
ENDBRANCH  92  95
ENDBRANCH  65  88
ENDBRANCH  39  40
ENDBRANCH  32  34
ENDBRANCH  31  32
ENDBRANCH  30  31
ENDBRANCH   1  30
TORSDOF 20
ENDMDL
MODEL 2
REMARK VINA RESULT:     -12.0      1.557      2.702
REMARK SMILES CC(C)c1cc(N2CCC(C(=O)OCCOCCOC(=O)c3ccc(-c4c5nc(c(-c6cccc(S(=O)(=O)[O-])c6F)c6ccc([nH]6)c(-c6cccc(S(=O)(=O)[O-])c6F)c6nc(c(-c7cccc(S(=O)(=O)[O-])c7F)c7ccc4[nH]7)C=C6)C=C5)cc3)CC2)nc(-c2ccc(F)cc2)n1
REMARK SMILES IDX 17 1 16 2 15 3 14 4 13 5 11 6 12 7 10 8 7 9 8 10 86 11 9 12
REMARK SMILES IDX 85 13 6 14 4 15 5 16 96 17 88 18 87 19 2 20 1 21 3 22 89 23
REMARK SMILES IDX 90 24 95 25 91 26 94 27 92 28 93 29 18 30 19 31 20 32 21 33
REMARK SMILES IDX 22 34 23 35 84 36 24 37 83 38 25 39 26 40 27 41 77 42 28 43
REMARK SMILES IDX 82 44 76 45 78 46 29 47 81 48 75 49 74 50 30 52 62 53 42 54
REMARK SMILES IDX 61 55 43 56 46 57 60 58 79 59 44 60 45 61 59 63 80 64 47 65
REMARK SMILES IDX 31 66 32 67 40 68 33 69 35 70 41 71 34 72 36 73 37 74 38 75
REMARK SMILES IDX 39 76 63 77 64 78 72 79 65 80 67 81 73 82 66 83 68 84 69 85
REMARK SMILES IDX 70 86 71 87 48 88 49 89 57 90 50 91 52 92 58 93 51 94 53 95
REMARK SMILES IDX 54 96 55 97 56 98
REMARK H PARENT 78 51 46 62
REMARK Flexibility Score: inf
ROOT
ATOM      1  C   UNL A   1      35.758  22.358  25.794  1.00  0.00     0.202 C 
ENDROOT
BRANCH   1   2
ATOM      2  O   UNL A   1      34.515  21.993  26.389  1.00  0.00    -0.374 OA
BRANCH   2   3
ATOM      3  C   UNL A   1      34.009  20.690  26.082  1.00  0.00     0.202 C 
BRANCH   3   4
ATOM      4  C   UNL A   1      33.385  20.522  24.692  1.00  0.00     0.261 C 
BRANCH   4   5
ATOM      5  O   UNL A   1      33.041  21.802  24.133  1.00  0.00    -0.463 OA
BRANCH   5   6
ATOM      6  C   UNL A   1      32.327  21.792  22.979  1.00  0.00     0.309 C 
ATOM      7  O   UNL A   1      32.141  20.811  22.268  1.00  0.00    -0.252 OA
BRANCH   6   8
ATOM      8  C   UNL A   1      31.755  23.153  22.637  1.00  0.00     0.103 C 
ATOM      9  N   UNL A   1      31.287  25.918  22.994  1.00  0.00    -0.356 N 
ATOM     10  C   UNL A   1      30.159  25.027  23.180  1.00  0.00     0.119 C 
ATOM     11  C   UNL A   1      32.375  25.534  22.117  1.00  0.00     0.119 C 
ATOM     12  C   UNL A   1      30.657  23.649  23.589  1.00  0.00     0.037 C 
ATOM     13  C   UNL A   1      32.898  24.166  22.548  1.00  0.00     0.037 C 
BRANCH   9  14
ATOM     14  C   UNL A   1      31.153  27.207  23.451  1.00  0.00     0.132 A 
ATOM     15  C   UNL A   1      30.082  29.314  23.476  1.00  0.00     0.049 A 
ATOM     16  C   UNL A   1      30.188  28.048  22.934  1.00  0.00     0.071 A 
ATOM     17  N   UNL A   1      30.897  29.729  24.465  1.00  0.00    -0.233 NA
ATOM     18  C   UNL A   1      31.837  28.858  24.879  1.00  0.00     0.161 A 
ATOM     19  N   UNL A   1      31.974  27.603  24.430  1.00  0.00    -0.211 NA
BRANCH  15  20
ATOM     20  C   UNL A   1      29.015  30.293  23.032  1.00  0.00     0.032 C 
ATOM     21  C   UNL A   1      27.597  29.715  23.051  1.00  0.00     0.014 C 
ATOM     22  C   UNL A   1      29.094  31.565  23.879  1.00  0.00     0.014 C 
ENDBRANCH  15  20
BRANCH  18  23
ATOM     23  C   UNL A   1      32.808  29.325  25.872  1.00  0.00     0.019 A 
ATOM     24  C   UNL A   1      32.717  30.614  26.428  1.00  0.00     0.015 A 
ATOM     25  C   UNL A   1      33.867  28.495  26.287  1.00  0.00     0.015 A 
ATOM     26  C   UNL A   1      33.653  31.056  27.367  1.00  0.00     0.040 A 
ATOM     27  C   UNL A   1      34.815  28.943  27.211  1.00  0.00     0.040 A 
ATOM     28  C   UNL A   1      34.696  30.219  27.744  1.00  0.00     0.123 A 
ATOM     29  F   UNL A   1      35.600  30.656  28.630  1.00  0.00    -0.207 F 
ENDBRANCH  18  23
ENDBRANCH   9  14
ENDBRANCH   6   8
ENDBRANCH   5   6
ENDBRANCH   4   5
ENDBRANCH   3   4
ENDBRANCH   2   3
ENDBRANCH   1   2
BRANCH   1  30
ATOM     30  C   UNL A   1      36.721  21.212  25.455  1.00  0.00     0.261 C 
BRANCH  30  31
ATOM     31  O   UNL A   1      38.025  21.676  25.065  1.00  0.00    -0.460 OA
BRANCH  31  32
ATOM     32  C   UNL A   1      39.007  21.392  25.952  1.00  0.00     0.338 C 
ATOM     33  O   UNL A   1      39.562  20.308  26.112  1.00  0.00    -0.246 OA
BRANCH  32  34
ATOM     34  C   UNL A   1      39.481  22.613  26.628  1.00  0.00     0.060 A 
ATOM     35  C   UNL A   1      39.009  23.835  26.134  1.00  0.00     0.016 A 
ATOM     36  C   UNL A   1      40.430  22.583  27.654  1.00  0.00     0.016 A 
ATOM     37  C   UNL A   1      39.527  25.032  26.622  1.00  0.00     0.010 A 
ATOM     38  C   UNL A   1      40.952  23.791  28.140  1.00  0.00     0.010 A 
ATOM     39  C   UNL A   1      40.532  25.019  27.599  1.00  0.00    -0.014 A 
BRANCH  39  40
ATOM     40  C   UNL A   1      41.202  26.297  27.951  1.00  0.00     0.031 A 
ATOM     41  C   UNL A   1      42.602  26.562  27.462  1.00  0.00     0.074 A 
ATOM     42  C   UNL A   1      40.544  27.242  28.647  1.00  0.00     0.049 A 
ATOM     43  N   UNL A   1      43.325  27.647  27.576  1.00  0.00    -0.248 NA
ATOM     44  C   UNL A   1      43.274  25.465  26.748  1.00  0.00     0.031 C 
ATOM     45  C   UNL A   1      39.190  27.105  29.184  1.00  0.00     0.029 A 
ATOM     46  N   UNL A   1      40.930  28.503  29.028  1.00  0.00    -0.354 N 
ATOM     47  C   UNL A   1      44.536  27.364  26.956  1.00  0.00     0.074 A 
ATOM     48  C   UNL A   1      44.462  25.996  26.487  1.00  0.00     0.031 C 
ATOM     49  C   UNL A   1      38.864  28.234  29.836  1.00  0.00     0.029 A 
ATOM     50  C   UNL A   1      39.985  29.169  29.772  1.00  0.00     0.049 A 
ATOM     51  H   UNL A   1      41.802  28.893  28.790  1.00  0.00     0.167 HD
ATOM     52  C   UNL A   1      45.605  28.175  26.768  1.00  0.00     0.034 A 
ATOM     53  C   UNL A   1      40.022  30.392  30.336  1.00  0.00     0.034 A 
ATOM     54  C   UNL A   1      45.677  29.541  27.216  1.00  0.00     0.049 A 
ATOM     55  C   UNL A   1      41.230  31.268  30.122  1.00  0.00     0.074 A 
ATOM     56  C   UNL A   1      46.705  30.451  27.041  1.00  0.00     0.029 A 
ATOM     57  N   UNL A   1      44.688  30.191  27.936  1.00  0.00    -0.354 N 
ATOM     58  N   UNL A   1      42.307  31.032  29.412  1.00  0.00    -0.248 NA
ATOM     59  C   UNL A   1      41.208  32.596  30.753  1.00  0.00     0.031 C 
ATOM     60  C   UNL A   1      46.342  31.648  27.667  1.00  0.00     0.029 A 
ATOM     61  C   UNL A   1      45.081  31.488  28.219  1.00  0.00     0.049 A 
ATOM     62  H   UNL A   1      43.830  29.789  28.207  1.00  0.00     0.167 HD
ATOM     63  C   UNL A   1      43.075  32.190  29.488  1.00  0.00     0.074 A 
ATOM     64  C   UNL A   1      42.323  33.138  30.284  1.00  0.00     0.031 C 
ATOM     65  C   UNL A   1      44.301  32.440  28.967  1.00  0.00     0.034 A 
BRANCH  52  66
ATOM     66  C   UNL A   1      46.775  27.626  25.993  1.00  0.00     0.023 A 
ATOM     67  C   UNL A   1      46.870  27.892  24.612  1.00  0.00     0.012 A 
ATOM     68  C   UNL A   1      47.811  26.922  26.637  1.00  0.00     0.148 A 
ATOM     69  C   UNL A   1      47.971  27.451  23.879  1.00  0.00     0.002 A 
ATOM     70  C   UNL A   1      48.923  26.516  25.906  1.00  0.00     0.091 A 
ATOM     71  F   UNL A   1      47.691  26.663  27.947  1.00  0.00    -0.205 F 
ATOM     72  C   UNL A   1      48.999  26.773  24.526  1.00  0.00     0.022 A 
BRANCH  70  73
ATOM     73  S   UNL A   1      50.334  25.698  26.657  1.00  0.00     0.127 S 
ATOM     74  O   UNL A   1      51.219  25.521  25.507  1.00  0.00    -0.237 OA
ATOM     75  O   UNL A   1      50.788  26.697  27.626  1.00  0.00    -0.237 OA
ATOM     76  O   UNL A   1      49.822  24.469  27.245  1.00  0.00    -0.744 OA
ENDBRANCH  70  73
ENDBRANCH  52  66
BRANCH  53  77
ATOM     77  C   UNL A   1      38.857  30.889  31.123  1.00  0.00     0.023 A 
ATOM     78  C   UNL A   1      38.716  30.513  32.474  1.00  0.00     0.012 A 
ATOM     79  C   UNL A   1      37.887  31.727  30.541  1.00  0.00     0.148 A 
ATOM     80  C   UNL A   1      37.613  30.934  33.218  1.00  0.00     0.002 A 
ATOM     81  C   UNL A   1      36.822  32.190  31.303  1.00  0.00     0.091 A 
ATOM     82  F   UNL A   1      38.022  32.054  29.247  1.00  0.00    -0.205 F 
ATOM     83  C   UNL A   1      36.673  31.781  32.637  1.00  0.00     0.022 A 
BRANCH  81  84
ATOM     84  S   UNL A   1      35.647  33.388  30.663  1.00  0.00     0.127 S 
ATOM     85  O   UNL A   1      34.417  32.605  30.611  1.00  0.00    -0.237 OA
ATOM     86  O   UNL A   1      35.673  34.427  31.694  1.00  0.00    -0.237 OA
ATOM     87  O   UNL A   1      36.194  33.811  29.380  1.00  0.00    -0.744 OA
ENDBRANCH  81  84
ENDBRANCH  53  77
BRANCH  65  88
ATOM     88  C   UNL A   1      44.904  33.798  29.224  1.00  0.00     0.023 A 
ATOM     89  C   UNL A   1      45.619  34.026  30.416  1.00  0.00     0.012 A 
ATOM     90  C   UNL A   1      44.806  34.830  28.270  1.00  0.00     0.148 A 
ATOM     91  C   UNL A   1      46.193  35.270  30.675  1.00  0.00     0.002 A 
ATOM     92  C   UNL A   1      45.419  36.055  28.514  1.00  0.00     0.091 A 
ATOM     93  F   UNL A   1      44.104  34.605  27.149  1.00  0.00    -0.205 F 
ATOM     94  C   UNL A   1      46.102  36.280  29.720  1.00  0.00     0.022 A 
BRANCH  92  95
ATOM     95  S   UNL A   1      45.425  37.378  27.299  1.00  0.00     0.127 S 
ATOM     96  O   UNL A   1      43.996  37.621  27.113  1.00  0.00    -0.237 OA
ATOM     97  O   UNL A   1      46.139  38.447  27.999  1.00  0.00    -0.237 OA
ATOM     98  O   UNL A   1      46.131  36.846  26.140  1.00  0.00    -0.744 OA
ENDBRANCH  92  95
ENDBRANCH  65  88
ENDBRANCH  39  40
ENDBRANCH  32  34
ENDBRANCH  31  32
ENDBRANCH  30  31
ENDBRANCH   1  30
TORSDOF 20
ENDMDL
MODEL 3
REMARK VINA RESULT:     -12.0      5.461      8.847
REMARK SMILES CC(C)c1cc(N2CCC(C(=O)OCCOCCOC(=O)c3ccc(-c4c5nc(c(-c6cccc(S(=O)(=O)[O-])c6F)c6ccc([nH]6)c(-c6cccc(S(=O)(=O)[O-])c6F)c6nc(c(-c7cccc(S(=O)(=O)[O-])c7F)c7ccc4[nH]7)C=C6)C=C5)cc3)CC2)nc(-c2ccc(F)cc2)n1
REMARK SMILES IDX 17 1 16 2 15 3 14 4 13 5 11 6 12 7 10 8 7 9 8 10 86 11 9 12
REMARK SMILES IDX 85 13 6 14 4 15 5 16 96 17 88 18 87 19 2 20 1 21 3 22 89 23
REMARK SMILES IDX 90 24 95 25 91 26 94 27 92 28 93 29 18 30 19 31 20 32 21 33
REMARK SMILES IDX 22 34 23 35 84 36 24 37 83 38 25 39 26 40 27 41 77 42 28 43
REMARK SMILES IDX 82 44 76 45 78 46 29 47 81 48 75 49 74 50 30 52 62 53 42 54
REMARK SMILES IDX 61 55 43 56 46 57 60 58 79 59 44 60 45 61 59 63 80 64 47 65
REMARK SMILES IDX 31 66 32 67 40 68 33 69 35 70 41 71 34 72 36 73 37 74 38 75
REMARK SMILES IDX 39 76 63 77 64 78 72 79 65 80 67 81 73 82 66 83 68 84 69 85
REMARK SMILES IDX 70 86 71 87 48 88 49 89 57 90 50 91 52 92 58 93 51 94 53 95
REMARK SMILES IDX 54 96 55 97 56 98
REMARK H PARENT 78 51 46 62
REMARK Flexibility Score: inf
ROOT
ATOM      1  C   UNL A   1      31.280  30.947  25.899  1.00  0.00     0.202 C 
ENDROOT
BRANCH   1   2
ATOM      2  O   UNL A   1      32.415  30.092  25.786  1.00  0.00    -0.374 OA
BRANCH   2   3
ATOM      3  C   UNL A   1      32.449  29.207  24.662  1.00  0.00     0.202 C 
BRANCH   3   4
ATOM      4  C   UNL A   1      31.089  28.730  24.142  1.00  0.00     0.261 C 
BRANCH   4   5
ATOM      5  O   UNL A   1      30.711  27.491  24.768  1.00  0.00    -0.463 OA
BRANCH   5   6
ATOM      6  C   UNL A   1      29.850  26.699  24.082  1.00  0.00     0.309 C 
ATOM      7  O   UNL A   1      28.840  27.083  23.503  1.00  0.00    -0.252 OA
BRANCH   6   8
ATOM      8  C   UNL A   1      30.265  25.241  24.094  1.00  0.00     0.103 C 
ATOM      9  N   UNL A   1      32.012  23.061  24.524  1.00  0.00    -0.356 N 
ATOM     10  C   UNL A   1      31.693  23.392  23.149  1.00  0.00     0.119 C 
ATOM     11  C   UNL A   1      31.074  23.382  25.580  1.00  0.00     0.119 C 
ATOM     12  C   UNL A   1      31.324  24.864  23.049  1.00  0.00     0.037 C 
ATOM     13  C   UNL A   1      30.731  24.867  25.502  1.00  0.00     0.037 C 
BRANCH   9  14
ATOM     14  C   UNL A   1      33.075  22.215  24.737  1.00  0.00     0.132 A 
ATOM     15  C   UNL A   1      35.363  21.802  25.163  1.00  0.00     0.049 A 
ATOM     16  C   UNL A   1      34.353  22.709  24.906  1.00  0.00     0.071 A 
ATOM     17  N   UNL A   1      35.121  20.478  25.234  1.00  0.00    -0.233 NA
ATOM     18  C   UNL A   1      33.854  20.083  25.013  1.00  0.00     0.161 A 
ATOM     19  N   UNL A   1      32.817  20.904  24.799  1.00  0.00    -0.211 NA
BRANCH  15  20
ATOM     20  C   UNL A   1      36.787  22.239  25.432  1.00  0.00     0.032 C 
ATOM     21  C   UNL A   1      37.843  21.367  24.746  1.00  0.00     0.014 C 
ATOM     22  C   UNL A   1      36.961  23.708  25.044  1.00  0.00     0.014 C 
ENDBRANCH  15  20
BRANCH  18  23
ATOM     23  C   UNL A   1      33.588  18.643  24.971  1.00  0.00     0.019 A 
ATOM     24  C   UNL A   1      32.512  18.080  25.681  1.00  0.00     0.015 A 
ATOM     25  C   UNL A   1      34.415  17.781  24.223  1.00  0.00     0.015 A 
ATOM     26  C   UNL A   1      32.270  16.705  25.644  1.00  0.00     0.040 A 
ATOM     27  C   UNL A   1      34.186  16.402  24.201  1.00  0.00     0.040 A 
ATOM     28  C   UNL A   1      33.114  15.878  24.910  1.00  0.00     0.123 A 
ATOM     29  F   UNL A   1      32.888  14.559  24.894  1.00  0.00    -0.207 F 
ENDBRANCH  18  23
ENDBRANCH   9  14
ENDBRANCH   6   8
ENDBRANCH   5   6
ENDBRANCH   4   5
ENDBRANCH   3   4
ENDBRANCH   2   3
ENDBRANCH   1   2
BRANCH   1  30
ATOM     30  C   UNL A   1      31.452  32.209  26.756  1.00  0.00     0.261 C 
BRANCH  30  31
ATOM     31  O   UNL A   1      32.712  32.866  26.534  1.00  0.00    -0.460 OA
BRANCH  31  32
ATOM     32  C   UNL A   1      33.206  33.507  27.619  1.00  0.00     0.338 C 
ATOM     33  O   UNL A   1      32.659  34.404  28.255  1.00  0.00    -0.246 OA
BRANCH  32  34
ATOM     34  C   UNL A   1      34.458  32.881  28.081  1.00  0.00     0.060 A 
ATOM     35  C   UNL A   1      34.394  31.532  28.449  1.00  0.00     0.016 A 
ATOM     36  C   UNL A   1      35.644  33.604  28.243  1.00  0.00     0.016 A 
ATOM     37  C   UNL A   1      35.496  30.915  29.035  1.00  0.00     0.010 A 
ATOM     38  C   UNL A   1      36.751  32.980  28.837  1.00  0.00     0.010 A 
ATOM     39  C   UNL A   1      36.669  31.645  29.272  1.00  0.00    -0.014 A 
BRANCH  39  40
ATOM     40  C   UNL A   1      37.750  31.019  30.075  1.00  0.00     0.031 A 
ATOM     41  C   UNL A   1      38.664  30.008  29.433  1.00  0.00     0.074 A 
ATOM     42  C   UNL A   1      37.957  31.397  31.350  1.00  0.00     0.049 A 
ATOM     43  N   UNL A   1      39.723  29.420  29.928  1.00  0.00    -0.248 NA
ATOM     44  C   UNL A   1      38.348  29.610  28.051  1.00  0.00     0.031 C 
ATOM     45  C   UNL A   1      37.139  32.358  32.089  1.00  0.00     0.029 A 
ATOM     46  N   UNL A   1      38.918  31.011  32.252  1.00  0.00    -0.354 N 
ATOM     47  C   UNL A   1      40.196  28.581  28.926  1.00  0.00     0.074 A 
ATOM     48  C   UNL A   1      39.295  28.716  27.801  1.00  0.00     0.031 C 
ATOM     49  C   UNL A   1      37.625  32.477  33.336  1.00  0.00     0.029 A 
ATOM     50  C   UNL A   1      38.782  31.596  33.488  1.00  0.00     0.049 A 
ATOM     51  H   UNL A   1      39.637  30.374  32.032  1.00  0.00     0.167 HD
ATOM     52  C   UNL A   1      41.296  27.789  28.930  1.00  0.00     0.034 A 
ATOM     53  C   UNL A   1      39.507  31.438  34.613  1.00  0.00     0.034 A 
ATOM     54  C   UNL A   1      42.204  27.665  30.038  1.00  0.00     0.049 A 
ATOM     55  C   UNL A   1      40.717  30.540  34.591  1.00  0.00     0.074 A 
ATOM     56  C   UNL A   1      43.364  26.914  30.121  1.00  0.00     0.029 A 
ATOM     57  N   UNL A   1      42.052  28.299  31.261  1.00  0.00    -0.354 N 
ATOM     58  N   UNL A   1      41.228  29.864  33.590  1.00  0.00    -0.248 NA
ATOM     59  C   UNL A   1      41.475  30.416  35.845  1.00  0.00     0.031 C 
ATOM     60  C   UNL A   1      43.906  27.084  31.400  1.00  0.00     0.029 A 
ATOM     61  C   UNL A   1      43.092  27.953  32.108  1.00  0.00     0.049 A 
ATOM     62  H   UNL A   1      41.313  28.907  31.494  1.00  0.00     0.167 HD
ATOM     63  C   UNL A   1      42.379  29.260  34.085  1.00  0.00     0.074 A 
ATOM     64  C   UNL A   1      42.509  29.678  35.465  1.00  0.00     0.031 C 
ATOM     65  C   UNL A   1      43.240  28.417  33.462  1.00  0.00     0.034 A 
BRANCH  52  66
ATOM     66  C   UNL A   1      41.615  27.028  27.669  1.00  0.00     0.023 A 
ATOM     67  C   UNL A   1      42.079  27.732  26.539  1.00  0.00     0.012 A 
ATOM     68  C   UNL A   1      41.535  25.622  27.625  1.00  0.00     0.148 A 
ATOM     69  C   UNL A   1      42.442  27.052  25.378  1.00  0.00     0.002 A 
ATOM     70  C   UNL A   1      41.932  24.948  26.475  1.00  0.00     0.091 A 
ATOM     71  F   UNL A   1      41.073  24.974  28.703  1.00  0.00    -0.205 F 
ATOM     72  C   UNL A   1      42.378  25.662  25.349  1.00  0.00     0.022 A 
BRANCH  70  73
ATOM     73  S   UNL A   1      41.955  23.156  26.358  1.00  0.00     0.127 S 
ATOM     74  O   UNL A   1      42.758  22.795  27.525  1.00  0.00    -0.237 OA
ATOM     75  O   UNL A   1      40.535  22.823  26.470  1.00  0.00    -0.237 OA
ATOM     76  O   UNL A   1      42.554  22.843  25.068  1.00  0.00    -0.744 OA
ENDBRANCH  70  73
ENDBRANCH  52  66
BRANCH  53  77
ATOM     77  C   UNL A   1      39.140  32.184  35.850  1.00  0.00     0.023 A 
ATOM     78  C   UNL A   1      39.615  33.498  36.040  1.00  0.00     0.012 A 
ATOM     79  C   UNL A   1      38.329  31.600  36.841  1.00  0.00     0.148 A 
ATOM     80  C   UNL A   1      39.317  34.200  37.209  1.00  0.00     0.002 A 
ATOM     81  C   UNL A   1      37.988  32.326  37.976  1.00  0.00     0.091 A 
ATOM     82  F   UNL A   1      37.907  30.340  36.658  1.00  0.00    -0.205 F 
ATOM     83  C   UNL A   1      38.495  33.619  38.170  1.00  0.00     0.022 A 
BRANCH  81  84
ATOM     84  S   UNL A   1      36.827  31.694  39.193  1.00  0.00     0.127 S 
ATOM     85  O   UNL A   1      35.618  32.446  38.874  1.00  0.00    -0.237 OA
ATOM     86  O   UNL A   1      36.773  30.270  38.859  1.00  0.00    -0.237 OA
ATOM     87  O   UNL A   1      37.437  31.977  40.485  1.00  0.00    -0.744 OA
ENDBRANCH  81  84
ENDBRANCH  53  77
BRANCH  65  88
ATOM     88  C   UNL A   1      44.409  27.902  34.261  1.00  0.00     0.023 A 
ATOM     89  C   UNL A   1      45.623  28.616  34.256  1.00  0.00     0.012 A 
ATOM     90  C   UNL A   1      44.295  26.742  35.053  1.00  0.00     0.148 A 
ATOM     91  C   UNL A   1      46.718  28.166  34.993  1.00  0.00     0.002 A 
ATOM     92  C   UNL A   1      45.377  26.322  35.822  1.00  0.00     0.091 A 
ATOM     93  F   UNL A   1      43.140  26.060  35.032  1.00  0.00    -0.205 F 
ATOM     94  C   UNL A   1      46.591  27.025  35.784  1.00  0.00     0.022 A 
BRANCH  92  95
ATOM     95  S   UNL A   1      45.268  24.916  36.935  1.00  0.00     0.127 S 
ATOM     96  O   UNL A   1      44.164  25.309  37.807  1.00  0.00    -0.237 OA
ATOM     97  O   UNL A   1      44.961  23.813  36.022  1.00  0.00    -0.237 OA
ATOM     98  O   UNL A   1      46.574  24.817  37.574  1.00  0.00    -0.744 OA
ENDBRANCH  92  95
ENDBRANCH  65  88
ENDBRANCH  39  40
ENDBRANCH  32  34
ENDBRANCH  31  32
ENDBRANCH  30  31
ENDBRANCH   1  30
TORSDOF 20
ENDMDL
