MODEL 1
REMARK VINA RESULT:     -11.1      0.000      0.000
REMARK SMILES CC(C)[NH2+][C@@]1(C(=O)OCCOCCOC(=O)c2ccc(-c3c4nc(c(-c5cccc(S(=O)(=O)[O-])c5F)c5ccc([nH]5)c(-c5cccc(S(=O)(=O)[O-])c5F)c5nc(c(-c6cccc(S(=O)(=O)[O-])c6F)c6ccc3[nH]6)C=C5)C=C4)cc2)CCC[C@@H]1CCOC1CCOCC1
REMARK SMILES IDX 10 1 9 2 8 3 6 4 7 5 5 6 80 7 83 8 81 9 82 10 4 11 2 14 1 15
REMARK SMILES IDX 3 16 84 17 85 18 86 19 87 20 88 21 92 22 89 23 91 24 90 25
REMARK SMILES IDX 11 26 12 27 13 28 14 29 15 30 16 31 17 32 18 33 79 34 19 35
REMARK SMILES IDX 78 36 20 37 21 38 22 39 72 40 23 41 77 42 71 43 73 44 24 45
REMARK SMILES IDX 76 46 70 47 69 48 25 50 57 51 37 52 56 53 38 54 41 55 55 56
REMARK SMILES IDX 74 57 39 58 40 59 54 61 75 62 42 63 26 64 27 65 35 66 28 67
REMARK SMILES IDX 30 68 36 69 29 70 31 71 32 72 33 73 34 74 58 75 59 76 67 77
REMARK SMILES IDX 60 78 62 79 68 80 61 81 63 82 64 83 65 84 66 85 43 86 44 87
REMARK SMILES IDX 52 88 45 89 47 90 53 91 46 92 48 93 49 94 50 95 51 96
REMARK H PARENT 4 12 4 13 73 49 41 60
REMARK Flexibility Score: inf
ROOT
ATOM      1  C   UNL A   1      31.788  29.268  26.384  1.00  0.00     0.202 C 
ENDROOT
BRANCH   1   2
ATOM      2  C   UNL A   1      32.173  28.112  27.318  1.00  0.00     0.261 C 
BRANCH   2   3
ATOM      3  O   UNL A   1      31.233  27.025  27.120  1.00  0.00    -0.459 OA
BRANCH   3   4
ATOM      4  C   UNL A   1      31.526  25.829  26.591  1.00  0.00     0.368 C 
ATOM      5  O   UNL A   1      31.448  24.818  27.295  1.00  0.00    -0.245 OA
BRANCH   4   6
ATOM      6  C   UNL A   1      32.163  25.794  24.874  1.00  0.00     0.197 C 
ATOM      7  C   UNL A   1      33.663  27.101  23.953  1.00  0.00     0.081 C 
ATOM      8  C   UNL A   1      30.970  25.360  23.394  1.00  0.00     0.065 C 
ATOM      9  C   UNL A   1      33.348  27.001  21.961  1.00  0.00     0.008 C 
ATOM     10  C   UNL A   1      31.812  25.868  21.716  1.00  0.00     0.011 C 
BRANCH   6  11
ATOM     11  N   UNL A   1      32.482  24.152  25.171  1.00  0.00    -0.330 N 
ATOM     12  H   UNL A   1      32.414  24.073  26.185  1.00  0.00     0.347 HD
ATOM     13  H   UNL A   1      31.849  23.779  24.464  1.00  0.00     0.347 HD
BRANCH  11  14
ATOM     14  C   UNL A   1      33.621  23.314  24.837  1.00  0.00     0.176 C 
ATOM     15  C   UNL A   1      34.514  23.254  26.093  1.00  0.00     0.075 C 
ATOM     16  C   UNL A   1      33.413  21.890  24.345  1.00  0.00     0.075 C 
ENDBRANCH  11  14
ENDBRANCH   6  11
BRANCH   8  17
ATOM     17  C   UNL A   1      29.558  25.996  23.548  1.00  0.00     0.039 C 
BRANCH  17  18
ATOM     18  C   UNL A   1      29.382  27.481  23.165  1.00  0.00     0.161 C 
BRANCH  18  19
ATOM     19  O   UNL A   1      30.060  28.207  22.113  1.00  0.00    -0.378 OA
BRANCH  19  20
ATOM     20  C   UNL A   1      29.940  29.618  21.907  1.00  0.00     0.122 C 
ATOM     21  C   UNL A   1      30.276  30.309  23.368  1.00  0.00     0.060 C 
ATOM     22  C   UNL A   1      28.735  30.486  20.885  1.00  0.00     0.060 C 
ATOM     23  C   UNL A   1      28.908  31.735  24.281  1.00  0.00     0.163 C 
ATOM     24  C   UNL A   1      27.636  31.753  21.524  1.00  0.00     0.163 C 
ATOM     25  O   UNL A   1      27.660  32.336  23.078  1.00  0.00    -0.381 OA
ENDBRANCH  19  20
ENDBRANCH  18  19
ENDBRANCH  17  18
ENDBRANCH   8  17
ENDBRANCH   4   6
ENDBRANCH   3   4
ENDBRANCH   2   3
ENDBRANCH   1   2
BRANCH   1  26
ATOM     26  O   UNL A   1      32.352  30.523  26.781  1.00  0.00    -0.374 OA
BRANCH  26  27
ATOM     27  C   UNL A   1      31.441  31.618  26.797  1.00  0.00     0.202 C 
BRANCH  27  28
ATOM     28  C   UNL A   1      32.110  32.997  26.761  1.00  0.00     0.261 C 
BRANCH  28  29
ATOM     29  O   UNL A   1      32.386  33.519  28.075  1.00  0.00    -0.460 OA
BRANCH  29  30
ATOM     30  C   UNL A   1      33.522  34.254  28.161  1.00  0.00     0.338 C 
ATOM     31  O   UNL A   1      33.601  35.472  28.139  1.00  0.00    -0.246 OA
BRANCH  30  32
ATOM     32  C   UNL A   1      34.703  33.396  28.402  1.00  0.00     0.060 A 
ATOM     33  C   UNL A   1      34.458  32.111  28.901  1.00  0.00     0.016 A 
ATOM     34  C   UNL A   1      36.018  33.850  28.253  1.00  0.00     0.016 A 
ATOM     35  C   UNL A   1      35.513  31.325  29.358  1.00  0.00     0.010 A 
ATOM     36  C   UNL A   1      37.082  33.042  28.682  1.00  0.00     0.010 A 
ATOM     37  C   UNL A   1      36.826  31.813  29.317  1.00  0.00    -0.014 A 
BRANCH  37  38
ATOM     38  C   UNL A   1      37.849  31.157  30.180  1.00  0.00     0.031 A 
ATOM     39  C   UNL A   1      38.754  30.117  29.559  1.00  0.00     0.074 A 
ATOM     40  C   UNL A   1      38.059  31.541  31.453  1.00  0.00     0.049 A 
ATOM     41  N   UNL A   1      39.779  29.491  30.076  1.00  0.00    -0.248 NA
ATOM     42  C   UNL A   1      38.464  29.732  28.166  1.00  0.00     0.031 C 
ATOM     43  C   UNL A   1      37.276  32.539  32.179  1.00  0.00     0.029 A 
ATOM     44  N   UNL A   1      39.008  31.133  32.360  1.00  0.00    -0.354 N 
ATOM     45  C   UNL A   1      40.237  28.628  29.087  1.00  0.00     0.074 A 
ATOM     46  C   UNL A   1      39.360  28.783  27.950  1.00  0.00     0.031 C 
ATOM     47  C   UNL A   1      37.775  32.664  33.422  1.00  0.00     0.029 A 
ATOM     48  C   UNL A   1      38.904  31.748  33.586  1.00  0.00     0.049 A 
ATOM     49  H   UNL A   1      39.699  30.463  32.152  1.00  0.00     0.167 HD
ATOM     50  C   UNL A   1      41.309  27.801  29.099  1.00  0.00     0.034 A 
ATOM     51  C   UNL A   1      39.634  31.592  34.709  1.00  0.00     0.034 A 
ATOM     52  C   UNL A   1      42.214  27.665  30.208  1.00  0.00     0.049 A 
ATOM     53  C   UNL A   1      40.818  30.656  34.704  1.00  0.00     0.074 A 
ATOM     54  C   UNL A   1      43.349  26.879  30.299  1.00  0.00     0.029 A 
ATOM     55  N   UNL A   1      42.084  28.325  31.418  1.00  0.00    -0.354 N 
ATOM     56  N   UNL A   1      41.300  29.935  33.721  1.00  0.00    -0.248 NA
ATOM     57  C   UNL A   1      41.586  30.547  35.955  1.00  0.00     0.031 C 
ATOM     58  C   UNL A   1      43.893  27.044  31.577  1.00  0.00     0.029 A 
ATOM     59  C   UNL A   1      43.115  27.960  32.267  1.00  0.00     0.049 A 
ATOM     60  H   UNL A   1      41.366  28.959  31.643  1.00  0.00     0.167 HD
ATOM     61  C   UNL A   1      42.448  29.324  34.220  1.00  0.00     0.074 A 
ATOM     62  C   UNL A   1      42.599  29.775  35.587  1.00  0.00     0.031 C 
ATOM     63  C   UNL A   1      43.293  28.460  33.605  1.00  0.00     0.034 A 
BRANCH  50  64
ATOM     64  C   UNL A   1      41.578  26.993  27.857  1.00  0.00     0.023 A 
ATOM     65  C   UNL A   1      42.124  27.620  26.717  1.00  0.00     0.012 A 
ATOM     66  C   UNL A   1      41.327  25.608  27.831  1.00  0.00     0.148 A 
ATOM     67  C   UNL A   1      42.382  26.888  25.560  1.00  0.00     0.002 A 
ATOM     68  C   UNL A   1      41.633  24.876  26.691  1.00  0.00     0.091 A 
ATOM     69  F   UNL A   1      40.785  25.036  28.915  1.00  0.00    -0.205 F 
ATOM     70  C   UNL A   1      42.147  25.515  25.550  1.00  0.00     0.022 A 
BRANCH  68  71
ATOM     71  S   UNL A   1      41.440  23.093  26.608  1.00  0.00     0.127 S 
ATOM     72  O   UNL A   1      39.988  22.956  26.505  1.00  0.00    -0.237 OA
ATOM     73  O   UNL A   1      42.172  22.760  25.385  1.00  0.00    -0.237 OA
ATOM     74  O   UNL A   1      42.033  22.568  27.831  1.00  0.00    -0.744 OA
ENDBRANCH  68  71
ENDBRANCH  50  64
BRANCH  51  75
ATOM     75  C   UNL A   1      39.297  32.373  35.935  1.00  0.00     0.023 A 
ATOM     76  C   UNL A   1      39.851  33.654  36.125  1.00  0.00     0.012 A 
ATOM     77  C   UNL A   1      38.435  31.846  36.917  1.00  0.00     0.148 A 
ATOM     78  C   UNL A   1      39.582  34.381  37.287  1.00  0.00     0.002 A 
ATOM     79  C   UNL A   1      38.126  32.598  38.043  1.00  0.00     0.091 A 
ATOM     80  F   UNL A   1      37.935  30.616  36.727  1.00  0.00    -0.205 F 
ATOM     81  C   UNL A   1      38.712  33.857  38.239  1.00  0.00     0.022 A 
BRANCH  79  82
ATOM     82  S   UNL A   1      36.919  32.057  39.258  1.00  0.00     0.127 S 
ATOM     83  O   UNL A   1      37.394  32.723  40.469  1.00  0.00    -0.237 OA
ATOM     84  O   UNL A   1      35.675  32.595  38.706  1.00  0.00    -0.237 OA
ATOM     85  O   UNL A   1      36.991  30.603  39.266  1.00  0.00    -0.744 OA
ENDBRANCH  79  82
ENDBRANCH  51  75
BRANCH  63  86
ATOM     86  C   UNL A   1      44.496  27.978  34.378  1.00  0.00     0.023 A 
ATOM     87  C   UNL A   1      45.702  28.706  34.336  1.00  0.00     0.012 A 
ATOM     88  C   UNL A   1      44.408  26.838  35.203  1.00  0.00     0.148 A 
ATOM     89  C   UNL A   1      46.813  28.283  35.066  1.00  0.00     0.002 A 
ATOM     90  C   UNL A   1      45.503  26.452  35.968  1.00  0.00     0.091 A 
ATOM     91  F   UNL A   1      43.259  26.147  35.220  1.00  0.00    -0.205 F 
ATOM     92  C   UNL A   1      46.710  27.164  35.890  1.00  0.00     0.022 A 
BRANCH  90  93
ATOM     93  S   UNL A   1      45.426  25.084  37.129  1.00  0.00     0.127 S 
ATOM     94  O   UNL A   1      46.507  25.415  38.055  1.00  0.00    -0.237 OA
ATOM     95  O   UNL A   1      44.081  25.223  37.689  1.00  0.00    -0.237 OA
ATOM     96  O   UNL A   1      45.624  23.877  36.336  1.00  0.00    -0.744 OA
ENDBRANCH  90  93
ENDBRANCH  63  86
ENDBRANCH  37  38
ENDBRANCH  30  32
ENDBRANCH  29  30
ENDBRANCH  28  29
ENDBRANCH  27  28
ENDBRANCH  26  27
ENDBRANCH   1  26
TORSDOF 23
ENDMDL
MODEL 2
REMARK VINA RESULT:     -10.5      5.267      9.459
REMARK SMILES CC(C)[NH2+][C@@]1(C(=O)OCCOCCOC(=O)c2ccc(-c3c4nc(c(-c5cccc(S(=O)(=O)[O-])c5F)c5ccc([nH]5)c(-c5cccc(S(=O)(=O)[O-])c5F)c5nc(c(-c6cccc(S(=O)(=O)[O-])c6F)c6ccc3[nH]6)C=C5)C=C4)cc2)CCC[C@@H]1CCOC1CCOCC1
REMARK SMILES IDX 10 1 9 2 8 3 6 4 7 5 5 6 80 7 83 8 81 9 82 10 4 11 2 14 1 15
REMARK SMILES IDX 3 16 84 17 85 18 86 19 87 20 88 21 92 22 89 23 91 24 90 25
REMARK SMILES IDX 11 26 12 27 13 28 14 29 15 30 16 31 17 32 18 33 79 34 19 35
REMARK SMILES IDX 78 36 20 37 21 38 22 39 72 40 23 41 77 42 71 43 73 44 24 45
REMARK SMILES IDX 76 46 70 47 69 48 25 50 57 51 37 52 56 53 38 54 41 55 55 56
REMARK SMILES IDX 74 57 39 58 40 59 54 61 75 62 42 63 26 64 27 65 35 66 28 67
REMARK SMILES IDX 30 68 36 69 29 70 31 71 32 72 33 73 34 74 58 75 59 76 67 77
REMARK SMILES IDX 60 78 62 79 68 80 61 81 63 82 64 83 65 84 66 85 43 86 44 87
REMARK SMILES IDX 52 88 45 89 47 90 53 91 46 92 48 93 49 94 50 95 51 96
REMARK H PARENT 4 12 4 13 73 49 41 60
REMARK Flexibility Score: inf
ROOT
ATOM      1  C   UNL A   1      38.767  22.235  26.222  1.00  0.00     0.202 C 
ENDROOT
BRANCH   1   2
ATOM      2  C   UNL A   1      37.318  22.154  25.720  1.00  0.00     0.261 C 
BRANCH   2   3
ATOM      3  O   UNL A   1      36.918  23.465  25.246  1.00  0.00    -0.459 OA
BRANCH   3   4
ATOM      4  C   UNL A   1      36.014  23.704  24.288  1.00  0.00     0.368 C 
ATOM      5  O   UNL A   1      36.300  23.470  23.110  1.00  0.00    -0.245 OA
BRANCH   4   6
ATOM      6  C   UNL A   1      34.441  24.503  24.785  1.00  0.00     0.197 C 
ATOM      7  C   UNL A   1      34.063  26.622  25.194  1.00  0.00     0.081 C 
ATOM      8  C   UNL A   1      33.211  23.582  25.985  1.00  0.00     0.065 C 
ATOM      9  C   UNL A   1      32.410  26.685  26.352  1.00  0.00     0.008 C 
ATOM     10  C   UNL A   1      31.913  24.855  26.678  1.00  0.00     0.011 C 
BRANCH   6  11
ATOM     11  N   UNL A   1      33.778  23.731  23.424  1.00  0.00    -0.330 N 
ATOM     12  H   UNL A   1      34.595  23.470  22.873  1.00  0.00     0.347 HD
ATOM     13  H   UNL A   1      33.139  23.122  23.933  1.00  0.00     0.347 HD
BRANCH  11  14
ATOM     14  C   UNL A   1      32.822  24.184  22.427  1.00  0.00     0.176 C 
ATOM     15  C   UNL A   1      32.912  23.198  21.244  1.00  0.00     0.075 C 
ATOM     16  C   UNL A   1      31.354  24.349  22.787  1.00  0.00     0.075 C 
ENDBRANCH  11  14
ENDBRANCH   6  11
BRANCH   8  17
ATOM     17  C   UNL A   1      33.939  22.818  27.129  1.00  0.00     0.039 C 
BRANCH  17  18
ATOM     18  C   UNL A   1      33.938  21.276  27.091  1.00  0.00     0.161 C 
BRANCH  18  19
ATOM     19  O   UNL A   1      34.111  20.422  25.936  1.00  0.00    -0.378 OA
BRANCH  19  20
ATOM     20  C   UNL A   1      33.032  19.826  25.209  1.00  0.00     0.122 C 
ATOM     21  C   UNL A   1      33.207  18.197  25.411  1.00  0.00     0.060 C 
ATOM     22  C   UNL A   1      32.341  20.354  23.629  1.00  0.00     0.060 C 
ATOM     23  C   UNL A   1      33.259  16.850  23.702  1.00  0.00     0.163 C 
ATOM     24  C   UNL A   1      32.244  19.282  22.193  1.00  0.00     0.163 C 
ATOM     25  O   UNL A   1      32.677  17.680  22.172  1.00  0.00    -0.381 OA
ENDBRANCH  19  20
ENDBRANCH  18  19
ENDBRANCH  17  18
ENDBRANCH   8  17
ENDBRANCH   4   6
ENDBRANCH   3   4
ENDBRANCH   2   3
ENDBRANCH   1   2
BRANCH   1  26
ATOM     26  O   UNL A   1      39.501  21.023  26.021  1.00  0.00    -0.374 OA
BRANCH  26  27
ATOM     27  C   UNL A   1      40.654  20.870  26.843  1.00  0.00     0.202 C 
BRANCH  27  28
ATOM     28  C   UNL A   1      41.973  20.765  26.067  1.00  0.00     0.261 C 
BRANCH  28  29
ATOM     29  O   UNL A   1      43.051  21.483  26.699  1.00  0.00    -0.460 OA
BRANCH  29  30
ATOM     30  C   UNL A   1      43.407  22.630  26.071  1.00  0.00     0.338 C 
ATOM     31  O   UNL A   1      43.964  22.721  24.988  1.00  0.00    -0.246 OA
BRANCH  30  32
ATOM     32  C   UNL A   1      42.940  23.821  26.814  1.00  0.00     0.060 A 
ATOM     33  C   UNL A   1      42.498  24.908  26.051  1.00  0.00     0.016 A 
ATOM     34  C   UNL A   1      43.023  23.931  28.207  1.00  0.00     0.016 A 
ATOM     35  C   UNL A   1      42.250  26.136  26.660  1.00  0.00     0.010 A 
ATOM     36  C   UNL A   1      42.739  25.160  28.822  1.00  0.00     0.010 A 
ATOM     37  C   UNL A   1      42.437  26.290  28.040  1.00  0.00    -0.014 A 
BRANCH  37  38
ATOM     38  C   UNL A   1      42.583  27.671  28.581  1.00  0.00     0.031 A 
ATOM     39  C   UNL A   1      43.956  28.303  28.579  1.00  0.00     0.074 A 
ATOM     40  C   UNL A   1      41.518  28.402  28.965  1.00  0.00     0.049 A 
ATOM     41  N   UNL A   1      44.312  29.521  28.898  1.00  0.00    -0.248 NA
ATOM     42  C   UNL A   1      45.080  27.448  28.158  1.00  0.00     0.031 C 
ATOM     43  C   UNL A   1      40.136  27.930  29.008  1.00  0.00     0.029 A 
ATOM     44  N   UNL A   1      41.443  29.707  29.389  1.00  0.00    -0.354 N 
ATOM     45  C   UNL A   1      45.692  29.568  28.740  1.00  0.00     0.074 A 
ATOM     46  C   UNL A   1      46.117  28.249  28.331  1.00  0.00     0.031 C 
ATOM     47  C   UNL A   1      39.348  28.932  29.438  1.00  0.00     0.029 A 
ATOM     48  C   UNL A   1      40.168  30.111  29.712  1.00  0.00     0.049 A 
ATOM     49  H   UNL A   1      42.227  30.298  29.454  1.00  0.00     0.167 HD
ATOM     50  C   UNL A   1      46.537  30.615  28.887  1.00  0.00     0.034 A 
ATOM     51  C   UNL A   1      39.716  31.295  30.175  1.00  0.00     0.034 A 
ATOM     52  C   UNL A   1      46.125  31.942  29.255  1.00  0.00     0.049 A 
ATOM     53  C   UNL A   1      40.677  32.446  30.342  1.00  0.00     0.074 A 
ATOM     54  C   UNL A   1      46.904  33.076  29.394  1.00  0.00     0.029 A 
ATOM     55  N   UNL A   1      44.823  32.312  29.549  1.00  0.00    -0.354 N 
ATOM     56  N   UNL A   1      41.960  32.499  30.079  1.00  0.00    -0.248 NA
ATOM     57  C   UNL A   1      40.116  33.716  30.831  1.00  0.00     0.031 C 
ATOM     58  C   UNL A   1      46.076  34.129  29.797  1.00  0.00     0.029 A 
ATOM     59  C   UNL A   1      44.777  33.656  29.875  1.00  0.00     0.049 A 
ATOM     60  H   UNL A   1      44.046  31.708  29.529  1.00  0.00     0.167 HD
ATOM     61  C   UNL A   1      42.350  33.813  30.326  1.00  0.00     0.074 A 
ATOM     62  C   UNL A   1      41.161  34.528  30.743  1.00  0.00     0.031 C 
ATOM     63  C   UNL A   1      43.580  34.374  30.229  1.00  0.00     0.034 A 
BRANCH  50  64
ATOM     64  C   UNL A   1      48.000  30.371  28.622  1.00  0.00     0.023 A 
ATOM     65  C   UNL A   1      48.523  30.586  27.330  1.00  0.00     0.012 A 
ATOM     66  C   UNL A   1      48.861  29.968  29.660  1.00  0.00     0.148 A 
ATOM     67  C   UNL A   1      49.875  30.369  27.067  1.00  0.00     0.002 A 
ATOM     68  C   UNL A   1      50.216  29.801  29.401  1.00  0.00     0.091 A 
ATOM     69  F   UNL A   1      48.340  29.745  30.874  1.00  0.00    -0.205 F 
ATOM     70  C   UNL A   1      50.722  29.987  28.104  1.00  0.00     0.022 A 
BRANCH  68  71
ATOM     71  S   UNL A   1      51.401  29.389  30.686  1.00  0.00     0.127 S 
ATOM     72  O   UNL A   1      51.233  27.940  30.789  1.00  0.00    -0.237 OA
ATOM     73  O   UNL A   1      52.666  29.814  30.087  1.00  0.00    -0.237 OA
ATOM     74  O   UNL A   1      51.000  30.150  31.861  1.00  0.00    -0.744 OA
ENDBRANCH  68  71
ENDBRANCH  50  64
BRANCH  51  75
ATOM     75  C   UNL A   1      38.266  31.475  30.478  1.00  0.00     0.023 A 
ATOM     76  C   UNL A   1      37.803  31.338  31.801  1.00  0.00     0.012 A 
ATOM     77  C   UNL A   1      37.344  31.776  29.456  1.00  0.00     0.148 A 
ATOM     78  C   UNL A   1      36.443  31.461  32.095  1.00  0.00     0.002 A 
ATOM     79  C   UNL A   1      36.002  31.954  29.765  1.00  0.00     0.091 A 
ATOM     80  F   UNL A   1      37.802  31.883  28.200  1.00  0.00    -0.205 F 
ATOM     81  C   UNL A   1      35.546  31.778  31.080  1.00  0.00     0.022 A 
BRANCH  79  82
ATOM     82  S   UNL A   1      34.797  32.488  28.544  1.00  0.00     0.127 S 
ATOM     83  O   UNL A   1      33.801  33.156  29.378  1.00  0.00    -0.237 OA
ATOM     84  O   UNL A   1      35.596  33.380  27.703  1.00  0.00    -0.237 OA
ATOM     85  O   UNL A   1      34.350  31.274  27.875  1.00  0.00    -0.744 OA
ENDBRANCH  79  82
ENDBRANCH  51  75
BRANCH  63  86
ATOM     86  C   UNL A   1      43.710  35.849  30.522  1.00  0.00     0.023 A 
ATOM     87  C   UNL A   1      43.668  36.785  29.471  1.00  0.00     0.012 A 
ATOM     88  C   UNL A   1      43.804  36.310  31.852  1.00  0.00     0.148 A 
ATOM     89  C   UNL A   1      43.762  38.152  29.733  1.00  0.00     0.002 A 
ATOM     90  C   UNL A   1      43.845  37.675  32.109  1.00  0.00     0.091 A 
ATOM     91  F   UNL A   1      43.859  35.405  32.840  1.00  0.00    -0.205 F 
ATOM     92  C   UNL A   1      43.840  38.597  31.051  1.00  0.00     0.022 A 
BRANCH  90  93
ATOM     93  S   UNL A   1      43.845  38.336  33.779  1.00  0.00     0.127 S 
ATOM     94  O   UNL A   1      43.957  39.772  33.533  1.00  0.00    -0.237 OA
ATOM     95  O   UNL A   1      42.542  37.904  34.287  1.00  0.00    -0.237 OA
ATOM     96  O   UNL A   1      44.984  37.722  34.451  1.00  0.00    -0.744 OA
ENDBRANCH  90  93
ENDBRANCH  63  86
ENDBRANCH  37  38
ENDBRANCH  30  32
ENDBRANCH  29  30
ENDBRANCH  28  29
ENDBRANCH  27  28
ENDBRANCH  26  27
ENDBRANCH   1  26
TORSDOF 23
ENDMDL
MODEL 3
REMARK VINA RESULT:     -10.4      5.336      9.088
REMARK SMILES CC(C)[NH2+][C@@]1(C(=O)OCCOCCOC(=O)c2ccc(-c3c4nc(c(-c5cccc(S(=O)(=O)[O-])c5F)c5ccc([nH]5)c(-c5cccc(S(=O)(=O)[O-])c5F)c5nc(c(-c6cccc(S(=O)(=O)[O-])c6F)c6ccc3[nH]6)C=C5)C=C4)cc2)CCC[C@@H]1CCOC1CCOCC1
REMARK SMILES IDX 10 1 9 2 8 3 6 4 7 5 5 6 80 7 83 8 81 9 82 10 4 11 2 14 1 15
REMARK SMILES IDX 3 16 84 17 85 18 86 19 87 20 88 21 92 22 89 23 91 24 90 25
REMARK SMILES IDX 11 26 12 27 13 28 14 29 15 30 16 31 17 32 18 33 79 34 19 35
REMARK SMILES IDX 78 36 20 37 21 38 22 39 72 40 23 41 77 42 71 43 73 44 24 45
REMARK SMILES IDX 76 46 70 47 69 48 25 50 57 51 37 52 56 53 38 54 41 55 55 56
REMARK SMILES IDX 74 57 39 58 40 59 54 61 75 62 42 63 26 64 27 65 35 66 28 67
REMARK SMILES IDX 30 68 36 69 29 70 31 71 32 72 33 73 34 74 58 75 59 76 67 77
REMARK SMILES IDX 60 78 62 79 68 80 61 81 63 82 64 83 65 84 66 85 43 86 44 87
REMARK SMILES IDX 52 88 45 89 47 90 53 91 46 92 48 93 49 94 50 95 51 96
REMARK H PARENT 4 12 4 13 73 49 41 60
REMARK Flexibility Score: inf
ROOT
ATOM      1  C   UNL A   1      38.857  21.624  25.881  1.00  0.00     0.202 C 
ENDROOT
BRANCH   1   2
ATOM      2  C   UNL A   1      37.700  21.154  24.989  1.00  0.00     0.261 C 
BRANCH   2   3
ATOM      3  O   UNL A   1      36.640  22.143  25.046  1.00  0.00    -0.459 OA
BRANCH   3   4
ATOM      4  C   UNL A   1      35.549  22.070  25.818  1.00  0.00     0.368 C 
ATOM      5  O   UNL A   1      35.675  21.976  27.043  1.00  0.00    -0.245 OA
BRANCH   4   6
ATOM      6  C   UNL A   1      33.921  21.978  24.981  1.00  0.00     0.197 C 
ATOM      7  C   UNL A   1      33.392  22.643  22.961  1.00  0.00     0.081 C 
ATOM      8  C   UNL A   1      32.280  22.257  25.996  1.00  0.00     0.065 C 
ATOM      9  C   UNL A   1      31.392  22.921  22.967  1.00  0.00     0.008 C 
ATOM     10  C   UNL A   1      30.805  22.565  24.765  1.00  0.00     0.011 C 
BRANCH   6  11
ATOM     11  N   UNL A   1      33.958  20.329  25.389  1.00  0.00    -0.330 N 
ATOM     12  H   UNL A   1      34.893  20.197  25.775  1.00  0.00     0.347 HD
ATOM     13  H   UNL A   1      33.064  20.309  25.880  1.00  0.00     0.347 HD
BRANCH  11  14
ATOM     14  C   UNL A   1      33.742  19.132  24.594  1.00  0.00     0.176 C 
ATOM     15  C   UNL A   1      35.094  18.393  24.524  1.00  0.00     0.075 C 
ATOM     16  C   UNL A   1      32.678  18.122  24.994  1.00  0.00     0.075 C 
ENDBRANCH  11  14
ENDBRANCH   6  11
BRANCH   8  17
ATOM     17  C   UNL A   1      32.404  23.399  27.046  1.00  0.00     0.039 C 
BRANCH  17  18
ATOM     18  C   UNL A   1      32.381  24.858  26.543  1.00  0.00     0.161 C 
BRANCH  18  19
ATOM     19  O   UNL A   1      31.515  25.930  26.983  1.00  0.00    -0.378 OA
BRANCH  19  20
ATOM     20  C   UNL A   1      31.022  26.966  26.127  1.00  0.00     0.122 C 
ATOM     21  C   UNL A   1      30.271  26.189  24.879  1.00  0.00     0.060 C 
ATOM     22  C   UNL A   1      31.820  28.530  25.715  1.00  0.00     0.060 C 
ATOM     23  C   UNL A   1      30.773  26.637  22.809  1.00  0.00     0.163 C 
ATOM     24  C   UNL A   1      32.179  29.036  24.031  1.00  0.00     0.163 C 
ATOM     25  O   UNL A   1      31.743  28.188  22.672  1.00  0.00    -0.381 OA
ENDBRANCH  19  20
ENDBRANCH  18  19
ENDBRANCH  17  18
ENDBRANCH   8  17
ENDBRANCH   4   6
ENDBRANCH   3   4
ENDBRANCH   2   3
ENDBRANCH   1   2
BRANCH   1  26
ATOM     26  O   UNL A   1      39.523  20.549  26.552  1.00  0.00    -0.374 OA
BRANCH  26  27
ATOM     27  C   UNL A   1      40.541  19.902  25.796  1.00  0.00     0.202 C 
BRANCH  27  28
ATOM     28  C   UNL A   1      41.614  19.208  26.645  1.00  0.00     0.261 C 
BRANCH  28  29
ATOM     29  O   UNL A   1      42.620  20.120  27.127  1.00  0.00    -0.460 OA
BRANCH  29  30
ATOM     30  C   UNL A   1      42.859  21.176  26.311  1.00  0.00     0.338 C 
ATOM     31  O   UNL A   1      43.237  21.126  25.152  1.00  0.00    -0.246 OA
BRANCH  30  32
ATOM     32  C   UNL A   1      42.498  22.454  26.964  1.00  0.00     0.060 A 
ATOM     33  C   UNL A   1      42.178  23.525  26.121  1.00  0.00     0.016 A 
ATOM     34  C   UNL A   1      42.569  22.650  28.347  1.00  0.00     0.016 A 
ATOM     35  C   UNL A   1      42.042  24.810  26.641  1.00  0.00     0.010 A 
ATOM     36  C   UNL A   1      42.397  23.940  28.874  1.00  0.00     0.010 A 
ATOM     37  C   UNL A   1      42.220  25.038  28.012  1.00  0.00    -0.014 A 
BRANCH  37  38
ATOM     38  C   UNL A   1      42.492  26.431  28.465  1.00  0.00     0.031 A 
ATOM     39  C   UNL A   1      43.894  26.976  28.315  1.00  0.00     0.074 A 
ATOM     40  C   UNL A   1      41.508  27.245  28.896  1.00  0.00     0.049 A 
ATOM     41  N   UNL A   1      44.346  28.183  28.538  1.00  0.00    -0.248 NA
ATOM     42  C   UNL A   1      44.926  26.033  27.849  1.00  0.00     0.031 C 
ATOM     43  C   UNL A   1      40.110  26.863  29.079  1.00  0.00     0.029 A 
ATOM     44  N   UNL A   1      41.545  28.572  29.253  1.00  0.00    -0.354 N 
ATOM     45  C   UNL A   1      45.708  28.137  28.264  1.00  0.00     0.074 A 
ATOM     46  C   UNL A   1      46.019  26.776  27.892  1.00  0.00     0.031 C 
ATOM     47  C   UNL A   1      39.421  27.932  29.517  1.00  0.00     0.029 A 
ATOM     48  C   UNL A   1      40.329  29.070  29.659  1.00  0.00     0.049 A 
ATOM     49  H   UNL A   1      42.365  29.116  29.222  1.00  0.00     0.167 HD
ATOM     50  C   UNL A   1      46.622  29.135  28.284  1.00  0.00     0.034 A 
ATOM     51  C   UNL A   1      39.987  30.300  30.094  1.00  0.00     0.034 A 
ATOM     52  C   UNL A   1      46.320  30.501  28.614  1.00  0.00     0.049 A 
ATOM     53  C   UNL A   1      41.024  31.396  30.119  1.00  0.00     0.074 A 
ATOM     54  C   UNL A   1      47.173  31.590  28.626  1.00  0.00     0.029 A 
ATOM     55  N   UNL A   1      45.072  30.965  28.994  1.00  0.00    -0.354 N 
ATOM     56  N   UNL A   1      42.281  31.356  29.748  1.00  0.00    -0.248 NA
ATOM     57  C   UNL A   1      40.582  32.721  30.584  1.00  0.00     0.031 C 
ATOM     58  C   UNL A   1      46.445  32.711  29.040  1.00  0.00     0.029 A 
ATOM     59  C   UNL A   1      45.132  32.324  29.250  1.00  0.00     0.049 A 
ATOM     60  H   UNL A   1      44.262  30.411  29.071  1.00  0.00     0.167 HD
ATOM     61  C   UNL A   1      42.766  32.654  29.891  1.00  0.00     0.074 A 
ATOM     62  C   UNL A   1      41.661  33.461  30.366  1.00  0.00     0.031 C 
ATOM     63  C   UNL A   1      44.014  33.132  29.662  1.00  0.00     0.034 A 
BRANCH  50  64
ATOM     64  C   UNL A   1      48.039  28.788  27.913  1.00  0.00     0.023 A 
ATOM     65  C   UNL A   1      48.453  28.878  26.567  1.00  0.00     0.012 A 
ATOM     66  C   UNL A   1      48.970  28.412  28.899  1.00  0.00     0.148 A 
ATOM     67  C   UNL A   1      49.762  28.564  26.205  1.00  0.00     0.002 A 
ATOM     68  C   UNL A   1      50.285  28.147  28.537  1.00  0.00     0.091 A 
ATOM     69  F   UNL A   1      48.551  28.307  30.167  1.00  0.00    -0.205 F 
ATOM     70  C   UNL A   1      50.680  28.209  27.190  1.00  0.00     0.022 A 
BRANCH  68  71
ATOM     71  S   UNL A   1      51.560  27.761  29.742  1.00  0.00     0.127 S 
ATOM     72  O   UNL A   1      52.623  27.233  28.889  1.00  0.00    -0.237 OA
ATOM     73  O   UNL A   1      51.841  29.073  30.325  1.00  0.00    -0.237 OA
ATOM     74  O   UNL A   1      50.963  26.802  30.663  1.00  0.00    -0.744 OA
ENDBRANCH  68  71
ENDBRANCH  50  64
BRANCH  51  75
ATOM     75  C   UNL A   1      38.582  30.585  30.505  1.00  0.00     0.023 A 
ATOM     76  C   UNL A   1      38.142  30.228  31.795  1.00  0.00     0.012 A 
ATOM     77  C   UNL A   1      37.678  31.204  29.619  1.00  0.00     0.148 A 
ATOM     78  C   UNL A   1      36.818  30.448  32.181  1.00  0.00     0.002 A 
ATOM     79  C   UNL A   1      36.379  31.472  30.030  1.00  0.00     0.091 A 
ATOM     80  F   UNL A   1      38.110  31.518  28.389  1.00  0.00    -0.205 F 
ATOM     81  C   UNL A   1      35.941  31.078  31.304  1.00  0.00     0.022 A 
BRANCH  79  82
ATOM     82  S   UNL A   1      35.219  32.392  29.013  1.00  0.00     0.127 S 
ATOM     83  O   UNL A   1      36.002  33.574  28.659  1.00  0.00    -0.237 OA
ATOM     84  O   UNL A   1      34.979  31.458  27.912  1.00  0.00    -0.237 OA
ATOM     85  O   UNL A   1      34.058  32.633  29.859  1.00  0.00    -0.744 OA
ENDBRANCH  79  82
ENDBRANCH  51  75
BRANCH  63  86
ATOM     86  C   UNL A   1      44.254  34.608  29.865  1.00  0.00     0.023 A 
ATOM     87  C   UNL A   1      44.683  35.090  31.117  1.00  0.00     0.012 A 
ATOM     88  C   UNL A   1      44.117  35.510  28.790  1.00  0.00     0.148 A 
ATOM     89  C   UNL A   1      44.931  36.449  31.308  1.00  0.00     0.002 A 
ATOM     90  C   UNL A   1      44.415  36.855  28.974  1.00  0.00     0.091 A 
ATOM     91  F   UNL A   1      43.691  35.039  27.609  1.00  0.00    -0.205 F 
ATOM     92  C   UNL A   1      44.808  37.329  30.235  1.00  0.00     0.022 A 
BRANCH  90  93
ATOM     93  S   UNL A   1      44.379  38.038  27.622  1.00  0.00     0.127 S 
ATOM     94  O   UNL A   1      44.768  39.275  28.297  1.00  0.00    -0.237 OA
ATOM     95  O   UNL A   1      45.386  37.500  26.708  1.00  0.00    -0.237 OA
ATOM     96  O   UNL A   1      43.018  38.007  27.102  1.00  0.00    -0.744 OA
ENDBRANCH  90  93
ENDBRANCH  63  86
ENDBRANCH  37  38
ENDBRANCH  30  32
ENDBRANCH  29  30
ENDBRANCH  28  29
ENDBRANCH  27  28
ENDBRANCH  26  27
ENDBRANCH   1  26
TORSDOF 23
ENDMDL
