MODEL 1
REMARK VINA RESULT:     -11.1      0.000      0.000
REMARK SMILES O=C(Nc1ccccc1C(=O)OCCOCCOC(=O)c1ccc(-c2c3nc(c(-c4cccc(S(=O)(=O)[O-])c4F)c4ccc([nH]4)c(-c4cccc(S(=O)(=O)[O-])c4F)c4nc(c(-c5cccc(S(=O)(=O)[O-])c5F)c5ccc2[nH]5)C=C4)C=C3)cc1)c1ccncc1
REMARK SMILES IDX 16 1 15 2 14 3 13 4 12 5 10 6 11 7 9 8 4 9 5 10 6 11 8 12
REMARK SMILES IDX 7 13 3 14 1 15 2 16 84 18 85 19 89 20 86 21 88 22 87 23
REMARK SMILES IDX 17 24 18 25 19 26 20 27 21 28 22 29 83 30 23 31 82 32 24 33
REMARK SMILES IDX 25 34 26 35 76 36 27 37 81 38 75 39 77 40 28 41 80 42 74 43
REMARK SMILES IDX 73 44 29 46 61 47 41 48 60 49 42 50 45 51 59 52 78 53 43 54
REMARK SMILES IDX 44 55 58 57 79 58 46 59 30 60 31 61 39 62 32 63 34 64 40 65
REMARK SMILES IDX 33 66 35 67 36 68 37 69 38 70 62 71 63 72 71 73 64 74 66 75
REMARK SMILES IDX 72 76 65 77 67 78 68 79 69 80 70 81 47 82 48 83 56 84 49 85
REMARK SMILES IDX 51 86 57 87 50 88 52 89 53 90 54 91 55 92
REMARK H PARENT 3 17 77 45 45 56
REMARK Flexibility Score: inf
ROOT
ATOM      1  C   UNL A   1      31.132  29.776  25.047  1.00  0.00     0.202 C 
ENDROOT
BRANCH   1   2
ATOM      2  O   UNL A   1      30.488  30.056  23.807  1.00  0.00    -0.374 OA
BRANCH   2   3
ATOM      3  C   UNL A   1      29.393  29.237  23.420  1.00  0.00     0.202 C 
BRANCH   3   4
ATOM      4  C   UNL A   1      29.691  27.862  22.810  1.00  0.00     0.261 C 
BRANCH   4   5
ATOM      5  O   UNL A   1      29.550  26.756  23.714  1.00  0.00    -0.460 OA
BRANCH   5   6
ATOM      6  C   UNL A   1      30.507  25.802  23.599  1.00  0.00     0.340 C 
ATOM      7  O   UNL A   1      30.503  24.860  22.817  1.00  0.00    -0.246 OA
BRANCH   6   8
ATOM      8  C   UNL A   1      31.691  26.106  24.438  1.00  0.00     0.083 A 
ATOM      9  C   UNL A   1      31.836  25.846  25.812  1.00  0.00     0.056 A 
ATOM     10  C   UNL A   1      32.977  26.350  26.466  1.00  0.00     0.027 A 
ATOM     11  C   UNL A   1      33.991  27.012  25.766  1.00  0.00     0.002 A 
ATOM     12  C   UNL A   1      32.724  26.770  23.742  1.00  0.00     0.018 A 
ATOM     13  C   UNL A   1      33.871  27.209  24.399  1.00  0.00     0.001 A 
BRANCH   9  14
ATOM     14  N   UNL A   1      30.968  25.114  26.649  1.00  0.00    -0.321 N 
ATOM     15  O   UNL A   1      29.742  23.393  27.404  1.00  0.00    -0.269 OA
ATOM     16  C   UNL A   1      30.779  23.770  26.862  1.00  0.00     0.255 C 
ATOM     17  H   UNL A   1      30.377  25.683  27.191  1.00  0.00     0.170 HD
BRANCH  16  18
ATOM     18  C   UNL A   1      31.814  22.762  26.536  1.00  0.00     0.043 A 
ATOM     19  C   UNL A   1      32.828  22.552  27.472  1.00  0.00     0.034 A 
ATOM     20  C   UNL A   1      31.814  22.041  25.344  1.00  0.00     0.034 A 
ATOM     21  C   UNL A   1      33.745  21.551  27.218  1.00  0.00     0.112 A 
ATOM     22  C   UNL A   1      32.770  21.054  25.193  1.00  0.00     0.112 A 
ATOM     23  N   UNL A   1      33.728  20.784  26.108  1.00  0.00    -0.265 NA
ENDBRANCH  16  18
ENDBRANCH   9  14
ENDBRANCH   6   8
ENDBRANCH   5   6
ENDBRANCH   4   5
ENDBRANCH   3   4
ENDBRANCH   2   3
ENDBRANCH   1   2
BRANCH   1  24
ATOM     24  C   UNL A   1      31.406  30.933  26.017  1.00  0.00     0.261 C 
BRANCH  24  25
ATOM     25  O   UNL A   1      32.431  30.665  26.993  1.00  0.00    -0.460 OA
BRANCH  25  26
ATOM     26  C   UNL A   1      33.193  31.739  27.317  1.00  0.00     0.338 C 
ATOM     27  O   UNL A   1      32.818  32.898  27.437  1.00  0.00    -0.246 OA
BRANCH  26  28
ATOM     28  C   UNL A   1      34.573  31.343  27.638  1.00  0.00     0.060 A 
ATOM     29  C   UNL A   1      34.829  29.998  27.935  1.00  0.00     0.016 A 
ATOM     30  C   UNL A   1      35.551  32.317  27.845  1.00  0.00     0.016 A 
ATOM     31  C   UNL A   1      36.054  29.630  28.493  1.00  0.00     0.010 A 
ATOM     32  C   UNL A   1      36.776  31.944  28.408  1.00  0.00     0.010 A 
ATOM     33  C   UNL A   1      37.018  30.608  28.775  1.00  0.00    -0.014 A 
BRANCH  33  34
ATOM     34  C   UNL A   1      38.220  30.262  29.575  1.00  0.00     0.031 A 
ATOM     35  C   UNL A   1      39.223  29.287  29.014  1.00  0.00     0.074 A 
ATOM     36  C   UNL A   1      38.411  30.798  30.794  1.00  0.00     0.049 A 
ATOM     37  N   UNL A   1      40.297  28.791  29.571  1.00  0.00    -0.248 NA
ATOM     38  C   UNL A   1      38.981  28.805  27.644  1.00  0.00     0.031 C 
ATOM     39  C   UNL A   1      37.513  31.749  31.447  1.00  0.00     0.029 A 
ATOM     40  N   UNL A   1      39.408  30.589  31.713  1.00  0.00    -0.354 N 
ATOM     41  C   UNL A   1      40.849  27.924  28.633  1.00  0.00     0.074 A 
ATOM     42  C   UNL A   1      39.981  27.950  27.474  1.00  0.00     0.031 C 
ATOM     43  C   UNL A   1      37.980  32.013  32.679  1.00  0.00     0.029 A 
ATOM     44  C   UNL A   1      39.193  31.233  32.910  1.00  0.00     0.049 A 
ATOM     45  H   UNL A   1      40.201  30.033  31.534  1.00  0.00     0.167 HD
ATOM     46  C   UNL A   1      41.984  27.190  28.717  1.00  0.00     0.034 A 
ATOM     47  C   UNL A   1      39.882  31.174  34.067  1.00  0.00     0.034 A 
ATOM     48  C   UNL A   1      42.855  27.176  29.861  1.00  0.00     0.049 A 
ATOM     49  C   UNL A   1      41.129  30.331  34.142  1.00  0.00     0.074 A 
ATOM     50  C   UNL A   1      44.037  26.476  30.035  1.00  0.00     0.029 A 
ATOM     51  N   UNL A   1      42.642  27.895  31.026  1.00  0.00    -0.354 N 
ATOM     52  N   UNL A   1      41.691  29.599  33.210  1.00  0.00    -0.248 NA
ATOM     53  C   UNL A   1      41.858  30.332  35.420  1.00  0.00     0.031 C 
ATOM     54  C   UNL A   1      44.533  26.764  31.311  1.00  0.00     0.029 A 
ATOM     55  C   UNL A   1      43.670  27.658  31.923  1.00  0.00     0.049 A 
ATOM     56  H   UNL A   1      41.872  28.486  31.192  1.00  0.00     0.167 HD
ATOM     57  C   UNL A   1      42.853  29.084  33.776  1.00  0.00     0.074 A 
ATOM     58  C   UNL A   1      42.929  29.607  35.124  1.00  0.00     0.031 C 
ATOM     59  C   UNL A   1      43.766  28.239  33.238  1.00  0.00     0.034 A 
BRANCH  46  60
ATOM     60  C   UNL A   1      42.381  26.372  27.515  1.00  0.00     0.023 A 
ATOM     61  C   UNL A   1      43.141  26.977  26.492  1.00  0.00     0.012 A 
ATOM     62  C   UNL A   1      42.074  25.001  27.429  1.00  0.00     0.148 A 
ATOM     63  C   UNL A   1      43.568  26.237  25.392  1.00  0.00     0.002 A 
ATOM     64  C   UNL A   1      42.537  24.259  26.346  1.00  0.00     0.091 A 
ATOM     65  F   UNL A   1      41.337  24.447  28.402  1.00  0.00    -0.205 F 
ATOM     66  C   UNL A   1      43.275  24.878  25.323  1.00  0.00     0.022 A 
BRANCH  64  67
ATOM     67  S   UNL A   1      42.275  22.488  26.198  1.00  0.00     0.127 S 
ATOM     68  O   UNL A   1      40.816  22.406  26.167  1.00  0.00    -0.237 OA
ATOM     69  O   UNL A   1      42.929  22.186  24.924  1.00  0.00    -0.237 OA
ATOM     70  O   UNL A   1      42.908  21.888  27.364  1.00  0.00    -0.744 OA
ENDBRANCH  64  67
ENDBRANCH  46  60
BRANCH  47  71
ATOM     71  C   UNL A   1      39.422  31.955  35.250  1.00  0.00     0.023 A 
ATOM     72  C   UNL A   1      38.540  31.362  36.174  1.00  0.00     0.012 A 
ATOM     73  C   UNL A   1      39.847  33.280  35.463  1.00  0.00     0.148 A 
ATOM     74  C   UNL A   1      38.063  32.085  37.268  1.00  0.00     0.002 A 
ATOM     75  C   UNL A   1      39.411  33.978  36.584  1.00  0.00     0.091 A 
ATOM     76  F   UNL A   1      40.668  33.838  34.560  1.00  0.00    -0.205 F 
ATOM     77  C   UNL A   1      38.506  33.389  37.478  1.00  0.00     0.022 A 
BRANCH  75  78
ATOM     78  S   UNL A   1      40.027  35.617  36.989  1.00  0.00     0.127 S 
ATOM     79  O   UNL A   1      41.463  35.377  37.105  1.00  0.00    -0.237 OA
ATOM     80  O   UNL A   1      39.625  36.395  35.816  1.00  0.00    -0.237 OA
ATOM     81  O   UNL A   1      39.344  35.995  38.218  1.00  0.00    -0.744 OA
ENDBRANCH  75  78
ENDBRANCH  47  71
BRANCH  59  82
ATOM     82  C   UNL A   1      44.953  27.854  34.084  1.00  0.00     0.023 A 
ATOM     83  C   UNL A   1      46.109  28.658  34.074  1.00  0.00     0.012 A 
ATOM     84  C   UNL A   1      44.893  26.739  34.944  1.00  0.00     0.148 A 
ATOM     85  C   UNL A   1      47.200  28.342  34.883  1.00  0.00     0.002 A 
ATOM     86  C   UNL A   1      45.966  26.457  35.781  1.00  0.00     0.091 A 
ATOM     87  F   UNL A   1      43.792  25.975  34.926  1.00  0.00    -0.205 F 
ATOM     88  C   UNL A   1      47.124  27.250  35.744  1.00  0.00     0.022 A 
BRANCH  86  89
ATOM     89  S   UNL A   1      45.922  25.124  36.987  1.00  0.00     0.127 S 
ATOM     90  O   UNL A   1      44.627  25.345  37.627  1.00  0.00    -0.237 OA
ATOM     91  O   UNL A   1      45.988  23.934  36.139  1.00  0.00    -0.237 OA
ATOM     92  O   UNL A   1      47.085  25.321  37.841  1.00  0.00    -0.744 OA
ENDBRANCH  86  89
ENDBRANCH  59  82
ENDBRANCH  33  34
ENDBRANCH  26  28
ENDBRANCH  25  26
ENDBRANCH  24  25
ENDBRANCH   1  24
TORSDOF 19
ENDMDL
MODEL 2
REMARK VINA RESULT:     -11.0      1.436      8.263
REMARK SMILES O=C(Nc1ccccc1C(=O)OCCOCCOC(=O)c1ccc(-c2c3nc(c(-c4cccc(S(=O)(=O)[O-])c4F)c4ccc([nH]4)c(-c4cccc(S(=O)(=O)[O-])c4F)c4nc(c(-c5cccc(S(=O)(=O)[O-])c5F)c5ccc2[nH]5)C=C4)C=C3)cc1)c1ccncc1
REMARK SMILES IDX 16 1 15 2 14 3 13 4 12 5 10 6 11 7 9 8 4 9 5 10 6 11 8 12
REMARK SMILES IDX 7 13 3 14 1 15 2 16 84 18 85 19 89 20 86 21 88 22 87 23
REMARK SMILES IDX 17 24 18 25 19 26 20 27 21 28 22 29 83 30 23 31 82 32 24 33
REMARK SMILES IDX 25 34 26 35 76 36 27 37 81 38 75 39 77 40 28 41 80 42 74 43
REMARK SMILES IDX 73 44 29 46 61 47 41 48 60 49 42 50 45 51 59 52 78 53 43 54
REMARK SMILES IDX 44 55 58 57 79 58 46 59 30 60 31 61 39 62 32 63 34 64 40 65
REMARK SMILES IDX 33 66 35 67 36 68 37 69 38 70 62 71 63 72 71 73 64 74 66 75
REMARK SMILES IDX 72 76 65 77 67 78 68 79 69 80 70 81 47 82 48 83 56 84 49 85
REMARK SMILES IDX 51 86 57 87 50 88 52 89 53 90 54 91 55 92
REMARK H PARENT 3 17 77 45 45 56
REMARK Flexibility Score: inf
ROOT
ATOM      1  C   UNL A   1      31.330  31.275  26.122  1.00  0.00     0.202 C 
ENDROOT
BRANCH   1   2
ATOM      2  O   UNL A   1      31.644  30.142  26.929  1.00  0.00    -0.374 OA
BRANCH   2   3
ATOM      3  C   UNL A   1      32.625  29.231  26.452  1.00  0.00     0.202 C 
BRANCH   3   4
ATOM      4  C   UNL A   1      32.184  27.808  26.091  1.00  0.00     0.261 C 
BRANCH   4   5
ATOM      5  O   UNL A   1      32.981  26.764  26.670  1.00  0.00    -0.460 OA
BRANCH   5   6
ATOM      6  C   UNL A   1      33.518  25.896  25.777  1.00  0.00     0.340 C 
ATOM      7  O   UNL A   1      34.634  25.964  25.279  1.00  0.00    -0.246 OA
BRANCH   6   8
ATOM      8  C   UNL A   1      32.648  24.713  25.567  1.00  0.00     0.083 A 
ATOM      9  C   UNL A   1      32.417  24.045  24.352  1.00  0.00     0.056 A 
ATOM     10  C   UNL A   1      31.435  23.036  24.326  1.00  0.00     0.027 A 
ATOM     11  C   UNL A   1      30.766  22.633  25.486  1.00  0.00     0.002 A 
ATOM     12  C   UNL A   1      31.970  24.294  26.732  1.00  0.00     0.018 A 
ATOM     13  C   UNL A   1      31.045  23.254  26.695  1.00  0.00     0.001 A 
BRANCH   9  14
ATOM     14  N   UNL A   1      33.066  24.250  23.117  1.00  0.00    -0.321 N 
ATOM     15  O   UNL A   1      33.398  24.975  21.019  1.00  0.00    -0.269 OA
ATOM     16  C   UNL A   1      32.942  25.206  22.137  1.00  0.00     0.255 C 
ATOM     17  H   UNL A   1      33.748  23.570  22.916  1.00  0.00     0.170 HD
BRANCH  16  18
ATOM     18  C   UNL A   1      32.350  26.537  22.398  1.00  0.00     0.043 A 
ATOM     19  C   UNL A   1      33.221  27.622  22.506  1.00  0.00     0.034 A 
ATOM     20  C   UNL A   1      30.979  26.736  22.549  1.00  0.00     0.034 A 
ATOM     21  C   UNL A   1      32.673  28.880  22.659  1.00  0.00     0.112 A 
ATOM     22  C   UNL A   1      30.532  28.037  22.687  1.00  0.00     0.112 A 
ATOM     23  N   UNL A   1      31.346  29.114  22.734  1.00  0.00    -0.265 NA
ENDBRANCH  16  18
ENDBRANCH   9  14
ENDBRANCH   6   8
ENDBRANCH   5   6
ENDBRANCH   4   5
ENDBRANCH   3   4
ENDBRANCH   2   3
ENDBRANCH   1   2
BRANCH   1  24
ATOM     24  C   UNL A   1      31.715  32.673  26.626  1.00  0.00     0.261 C 
BRANCH  24  25
ATOM     25  O   UNL A   1      32.504  32.677  27.831  1.00  0.00    -0.460 OA
BRANCH  25  26
ATOM     26  C   UNL A   1      33.605  33.468  27.779  1.00  0.00     0.338 C 
ATOM     27  O   UNL A   1      33.632  34.682  27.628  1.00  0.00    -0.246 OA
BRANCH  26  28
ATOM     28  C   UNL A   1      34.831  32.700  28.047  1.00  0.00     0.060 A 
ATOM     29  C   UNL A   1      34.711  31.347  28.385  1.00  0.00     0.016 A 
ATOM     30  C   UNL A   1      36.057  33.358  28.166  1.00  0.00     0.016 A 
ATOM     31  C   UNL A   1      35.812  30.657  28.896  1.00  0.00     0.010 A 
ATOM     32  C   UNL A   1      37.156  32.664  28.682  1.00  0.00     0.010 A 
ATOM     33  C   UNL A   1      37.029  31.325  29.090  1.00  0.00    -0.014 A 
BRANCH  33  34
ATOM     34  C   UNL A   1      38.128  30.669  29.843  1.00  0.00     0.031 A 
ATOM     35  C   UNL A   1      38.415  31.101  31.258  1.00  0.00     0.074 A 
ATOM     36  C   UNL A   1      38.874  29.708  29.268  1.00  0.00     0.049 A 
ATOM     37  N   UNL A   1      39.368  30.717  32.065  1.00  0.00    -0.248 NA
ATOM     38  C   UNL A   1      37.505  32.103  31.839  1.00  0.00     0.031 C 
ATOM     39  C   UNL A   1      38.699  29.205  27.907  1.00  0.00     0.029 A 
ATOM     40  N   UNL A   1      39.953  29.010  29.751  1.00  0.00    -0.354 N 
ATOM     41  C   UNL A   1      39.190  31.441  33.240  1.00  0.00     0.074 A 
ATOM     42  C   UNL A   1      38.044  32.301  33.035  1.00  0.00     0.031 C 
ATOM     43  C   UNL A   1      39.663  28.305  27.649  1.00  0.00     0.029 A 
ATOM     44  C   UNL A   1      40.534  28.186  28.815  1.00  0.00     0.049 A 
ATOM     45  H   UNL A   1      40.278  29.089  30.677  1.00  0.00     0.167 HD
ATOM     46  C   UNL A   1      39.901  31.381  34.391  1.00  0.00     0.034 A 
ATOM     47  C   UNL A   1      41.659  27.445  28.884  1.00  0.00     0.034 A 
ATOM     48  C   UNL A   1      41.030  30.516  34.601  1.00  0.00     0.049 A 
ATOM     49  C   UNL A   1      42.444  27.415  30.170  1.00  0.00     0.074 A 
ATOM     50  C   UNL A   1      41.805  30.372  35.740  1.00  0.00     0.029 A 
ATOM     51  N   UNL A   1      41.547  29.645  33.655  1.00  0.00    -0.354 N 
ATOM     52  N   UNL A   1      42.201  28.027  31.303  1.00  0.00    -0.248 NA
ATOM     53  C   UNL A   1      43.643  26.563  30.197  1.00  0.00     0.031 C 
ATOM     54  C   UNL A   1      42.798  29.422  35.476  1.00  0.00     0.029 A 
ATOM     55  C   UNL A   1      42.627  28.960  34.182  1.00  0.00     0.049 A 
ATOM     56  H   UNL A   1      41.196  29.531  32.742  1.00  0.00     0.167 HD
ATOM     57  C   UNL A   1      43.193  27.608  32.186  1.00  0.00     0.074 A 
ATOM     58  C   UNL A   1      44.026  26.670  31.463  1.00  0.00     0.031 C 
ATOM     59  C   UNL A   1      43.407  27.979  33.471  1.00  0.00     0.034 A 
BRANCH  46  60
ATOM     60  C   UNL A   1      39.448  32.245  35.540  1.00  0.00     0.023 A 
ATOM     61  C   UNL A   1      38.600  31.693  36.523  1.00  0.00     0.012 A 
ATOM     62  C   UNL A   1      39.914  33.565  35.691  1.00  0.00     0.148 A 
ATOM     63  C   UNL A   1      38.204  32.449  37.625  1.00  0.00     0.002 A 
ATOM     64  C   UNL A   1      39.546  34.300  36.813  1.00  0.00     0.091 A 
ATOM     65  F   UNL A   1      40.706  34.078  34.738  1.00  0.00    -0.205 F 
ATOM     66  C   UNL A   1      38.683  33.747  37.775  1.00  0.00     0.022 A 
BRANCH  64  67
ATOM     67  S   UNL A   1      40.165  35.956  37.139  1.00  0.00     0.127 S 
ATOM     68  O   UNL A   1      39.714  36.678  35.950  1.00  0.00    -0.237 OA
ATOM     69  O   UNL A   1      39.460  36.311  38.371  1.00  0.00    -0.237 OA
ATOM     70  O   UNL A   1      41.608  35.826  37.278  1.00  0.00    -0.744 OA
ENDBRANCH  64  67
ENDBRANCH  46  60
BRANCH  47  71
ATOM     71  C   UNL A   1      42.102  26.649  27.704  1.00  0.00     0.023 A 
ATOM     72  C   UNL A   1      42.860  27.270  26.693  1.00  0.00     0.012 A 
ATOM     73  C   UNL A   1      41.773  25.286  27.576  1.00  0.00     0.148 A 
ATOM     74  C   UNL A   1      43.253  26.557  25.559  1.00  0.00     0.002 A 
ATOM     75  C   UNL A   1      42.214  24.567  26.470  1.00  0.00     0.091 A 
ATOM     76  F   UNL A   1      41.030  24.717  28.536  1.00  0.00    -0.205 F 
ATOM     77  C   UNL A   1      42.939  25.205  25.452  1.00  0.00     0.022 A 
BRANCH  75  78
ATOM     78  S   UNL A   1      41.953  22.796  26.315  1.00  0.00     0.127 S 
ATOM     79  O   UNL A   1      42.563  22.516  25.017  1.00  0.00    -0.237 OA
ATOM     80  O   UNL A   1      42.692  22.276  27.467  1.00  0.00    -0.237 OA
ATOM     81  O   UNL A   1      40.512  22.607  26.396  1.00  0.00    -0.744 OA
ENDBRANCH  75  78
ENDBRANCH  47  71
BRANCH  59  82
ATOM     82  C   UNL A   1      44.562  27.344  34.203  1.00  0.00     0.023 A 
ATOM     83  C   UNL A   1      45.827  27.965  34.184  1.00  0.00     0.012 A 
ATOM     84  C   UNL A   1      44.376  26.176  34.969  1.00  0.00     0.148 A 
ATOM     85  C   UNL A   1      46.896  27.416  34.890  1.00  0.00     0.002 A 
ATOM     86  C   UNL A   1      45.435  25.661  35.707  1.00  0.00     0.091 A 
ATOM     87  F   UNL A   1      43.171  25.590  34.960  1.00  0.00    -0.205 F 
ATOM     88  C   UNL A   1      46.698  26.273  35.660  1.00  0.00     0.022 A 
BRANCH  86  89
ATOM     89  S   UNL A   1      45.249  24.244  36.798  1.00  0.00     0.127 S 
ATOM     90  O   UNL A   1      44.594  23.276  35.920  1.00  0.00    -0.237 OA
ATOM     91  O   UNL A   1      46.637  23.922  37.131  1.00  0.00    -0.237 OA
ATOM     92  O   UNL A   1      44.451  24.709  37.924  1.00  0.00    -0.744 OA
ENDBRANCH  86  89
ENDBRANCH  59  82
ENDBRANCH  33  34
ENDBRANCH  26  28
ENDBRANCH  25  26
ENDBRANCH  24  25
ENDBRANCH   1  24
TORSDOF 19
ENDMDL
MODEL 3
REMARK VINA RESULT:     -11.0      1.866      7.924
REMARK SMILES O=C(Nc1ccccc1C(=O)OCCOCCOC(=O)c1ccc(-c2c3nc(c(-c4cccc(S(=O)(=O)[O-])c4F)c4ccc([nH]4)c(-c4cccc(S(=O)(=O)[O-])c4F)c4nc(c(-c5cccc(S(=O)(=O)[O-])c5F)c5ccc2[nH]5)C=C4)C=C3)cc1)c1ccncc1
REMARK SMILES IDX 16 1 15 2 14 3 13 4 12 5 10 6 11 7 9 8 4 9 5 10 6 11 8 12
REMARK SMILES IDX 7 13 3 14 1 15 2 16 84 18 85 19 89 20 86 21 88 22 87 23
REMARK SMILES IDX 17 24 18 25 19 26 20 27 21 28 22 29 83 30 23 31 82 32 24 33
REMARK SMILES IDX 25 34 26 35 76 36 27 37 81 38 75 39 77 40 28 41 80 42 74 43
REMARK SMILES IDX 73 44 29 46 61 47 41 48 60 49 42 50 45 51 59 52 78 53 43 54
REMARK SMILES IDX 44 55 58 57 79 58 46 59 30 60 31 61 39 62 32 63 34 64 40 65
REMARK SMILES IDX 33 66 35 67 36 68 37 69 38 70 62 71 63 72 71 73 64 74 66 75
REMARK SMILES IDX 72 76 65 77 67 78 68 79 69 80 70 81 47 82 48 83 56 84 49 85
REMARK SMILES IDX 51 86 57 87 50 88 52 89 53 90 54 91 55 92
REMARK H PARENT 3 17 77 45 45 56
REMARK Flexibility Score: inf
ROOT
ATOM      1  C   UNL A   1      31.872  30.148  25.321  1.00  0.00     0.202 C 
ENDROOT
BRANCH   1   2
ATOM      2  O   UNL A   1      33.090  29.533  24.905  1.00  0.00    -0.374 OA
BRANCH   2   3
ATOM      3  C   UNL A   1      33.236  29.197  23.532  1.00  0.00     0.202 C 
BRANCH   3   4
ATOM      4  C   UNL A   1      33.584  27.749  23.169  1.00  0.00     0.261 C 
BRANCH   4   5
ATOM      5  O   UNL A   1      32.688  27.128  22.235  1.00  0.00    -0.460 OA
BRANCH   5   6
ATOM      6  C   UNL A   1      31.385  27.122  22.614  1.00  0.00     0.340 C 
ATOM      7  O   UNL A   1      30.475  27.758  22.097  1.00  0.00    -0.246 OA
BRANCH   6   8
ATOM      8  C   UNL A   1      31.121  26.107  23.662  1.00  0.00     0.083 A 
ATOM      9  C   UNL A   1      31.302  24.717  23.550  1.00  0.00     0.056 A 
ATOM     10  C   UNL A   1      30.847  23.901  24.604  1.00  0.00     0.027 A 
ATOM     11  C   UNL A   1      30.314  24.447  25.776  1.00  0.00     0.002 A 
ATOM     12  C   UNL A   1      30.587  26.645  24.852  1.00  0.00     0.018 A 
ATOM     13  C   UNL A   1      30.197  25.823  25.906  1.00  0.00     0.001 A 
BRANCH   9  14
ATOM     14  N   UNL A   1      31.908  24.008  22.492  1.00  0.00    -0.321 N 
ATOM     15  O   UNL A   1      33.531  23.192  21.174  1.00  0.00    -0.269 OA
ATOM     16  C   UNL A   1      33.164  23.480  22.311  1.00  0.00     0.255 C 
ATOM     17  H   UNL A   1      31.308  23.860  21.726  1.00  0.00     0.170 HD
BRANCH  16  18
ATOM     18  C   UNL A   1      34.063  23.168  23.445  1.00  0.00     0.043 A 
ATOM     19  C   UNL A   1      33.882  21.949  24.098  1.00  0.00     0.034 A 
ATOM     20  C   UNL A   1      35.057  24.043  23.880  1.00  0.00     0.034 A 
ATOM     21  C   UNL A   1      34.774  21.609  25.096  1.00  0.00     0.112 A 
ATOM     22  C   UNL A   1      35.904  23.603  24.880  1.00  0.00     0.112 A 
ATOM     23  N   UNL A   1      35.793  22.402  25.490  1.00  0.00    -0.265 NA
ENDBRANCH  16  18
ENDBRANCH   9  14
ENDBRANCH   6   8
ENDBRANCH   5   6
ENDBRANCH   4   5
ENDBRANCH   3   4
ENDBRANCH   2   3
ENDBRANCH   1   2
BRANCH   1  24
ATOM     24  C   UNL A   1      31.898  31.106  26.519  1.00  0.00     0.261 C 
BRANCH  24  25
ATOM     25  O   UNL A   1      32.909  30.809  27.500  1.00  0.00    -0.460 OA
BRANCH  25  26
ATOM     26  C   UNL A   1      33.815  31.800  27.693  1.00  0.00     0.338 C 
ATOM     27  O   UNL A   1      33.586  33.000  27.767  1.00  0.00    -0.246 OA
BRANCH  26  28
ATOM     28  C   UNL A   1      35.163  31.260  27.927  1.00  0.00     0.060 A 
ATOM     29  C   UNL A   1      35.313  29.873  28.053  1.00  0.00     0.016 A 
ATOM     30  C   UNL A   1      36.221  32.121  28.225  1.00  0.00     0.016 A 
ATOM     31  C   UNL A   1      36.513  29.344  28.531  1.00  0.00     0.010 A 
ATOM     32  C   UNL A   1      37.420  31.587  28.707  1.00  0.00     0.010 A 
ATOM     33  C   UNL A   1      37.557  30.201  28.904  1.00  0.00    -0.014 A 
BRANCH  33  34
ATOM     34  C   UNL A   1      38.740  29.666  29.625  1.00  0.00     0.031 A 
ATOM     35  C   UNL A   1      39.119  30.254  30.961  1.00  0.00     0.074 A 
ATOM     36  C   UNL A   1      39.479  28.677  29.091  1.00  0.00     0.049 A 
ATOM     37  N   UNL A   1      40.150  29.990  31.720  1.00  0.00    -0.248 NA
ATOM     38  C   UNL A   1      38.216  31.279  31.511  1.00  0.00     0.031 C 
ATOM     39  C   UNL A   1      39.218  28.029  27.807  1.00  0.00     0.029 A 
ATOM     40  N   UNL A   1      40.622  28.071  29.550  1.00  0.00    -0.354 N 
ATOM     41  C   UNL A   1      40.034  30.826  32.826  1.00  0.00     0.074 A 
ATOM     42  C   UNL A   1      38.839  31.619  32.631  1.00  0.00     0.031 C 
ATOM     43  C   UNL A   1      40.197  27.140  27.562  1.00  0.00     0.029 A 
ATOM     44  C   UNL A   1      41.163  27.175  28.657  1.00  0.00     0.049 A 
ATOM     45  H   UNL A   1      41.016  28.258  30.433  1.00  0.00     0.167 HD
ATOM     46  C   UNL A   1      40.836  30.912  33.914  1.00  0.00     0.034 A 
ATOM     47  C   UNL A   1      42.320  26.485  28.707  1.00  0.00     0.034 A 
ATOM     48  C   UNL A   1      42.014  30.114  34.116  1.00  0.00     0.049 A 
ATOM     49  C   UNL A   1      43.206  26.617  29.919  1.00  0.00     0.074 A 
ATOM     50  C   UNL A   1      42.884  30.117  35.194  1.00  0.00     0.029 A 
ATOM     51  N   UNL A   1      42.492  29.167  33.223  1.00  0.00    -0.354 N 
ATOM     52  N   UNL A   1      43.027  27.336  31.001  1.00  0.00    -0.248 NA
ATOM     53  C   UNL A   1      44.439  25.814  29.933  1.00  0.00     0.031 C 
ATOM     54  C   UNL A   1      43.892  29.180  34.947  1.00  0.00     0.029 A 
ATOM     55  C   UNL A   1      43.640  28.579  33.724  1.00  0.00     0.049 A 
ATOM     56  H   UNL A   1      42.075  28.946  32.359  1.00  0.00     0.167 HD
ATOM     57  C   UNL A   1      44.103  27.046  31.836  1.00  0.00     0.074 A 
ATOM     58  C   UNL A   1      44.916  26.067  31.145  1.00  0.00     0.031 C 
ATOM     59  C   UNL A   1      44.402  27.557  33.055  1.00  0.00     0.034 A 
BRANCH  46  60
ATOM     60  C   UNL A   1      40.439  31.876  35.003  1.00  0.00     0.023 A 
ATOM     61  C   UNL A   1      41.071  33.135  35.071  1.00  0.00     0.012 A 
ATOM     62  C   UNL A   1      39.401  31.573  35.905  1.00  0.00     0.148 A 
ATOM     63  C   UNL A   1      40.692  34.069  36.034  1.00  0.00     0.002 A 
ATOM     64  C   UNL A   1      39.003  32.525  36.838  1.00  0.00     0.091 A 
ATOM     65  F   UNL A   1      38.825  30.365  35.836  1.00  0.00    -0.205 F 
ATOM     66  C   UNL A   1      39.653  33.768  36.910  1.00  0.00     0.022 A 
BRANCH  64  67
ATOM     67  S   UNL A   1      37.628  32.265  37.966  1.00  0.00     0.127 S 
ATOM     68  O   UNL A   1      37.468  30.813  37.908  1.00  0.00    -0.237 OA
ATOM     69  O   UNL A   1      38.167  32.768  39.230  1.00  0.00    -0.237 OA
ATOM     70  O   UNL A   1      36.515  33.037  37.429  1.00  0.00    -0.744 OA
ENDBRANCH  64  67
ENDBRANCH  46  60
BRANCH  47  71
ATOM     71  C   UNL A   1      42.702  25.586  27.582  1.00  0.00     0.023 A 
ATOM     72  C   UNL A   1      43.582  26.054  26.587  1.00  0.00     0.012 A 
ATOM     73  C   UNL A   1      42.197  24.275  27.488  1.00  0.00     0.148 A 
ATOM     74  C   UNL A   1      43.924  25.246  25.502  1.00  0.00     0.002 A 
ATOM     75  C   UNL A   1      42.583  23.456  26.433  1.00  0.00     0.091 A 
ATOM     76  F   UNL A   1      41.341  23.854  28.431  1.00  0.00    -0.205 F 
ATOM     77  C   UNL A   1      43.433  23.945  25.430  1.00  0.00     0.022 A 
BRANCH  75  78
ATOM     78  S   UNL A   1      42.090  21.731  26.332  1.00  0.00     0.127 S 
ATOM     79  O   UNL A   1      42.372  21.259  27.685  1.00  0.00    -0.237 OA
ATOM     80  O   UNL A   1      40.669  21.837  26.000  1.00  0.00    -0.237 OA
ATOM     81  O   UNL A   1      42.909  21.154  25.274  1.00  0.00    -0.744 OA
ENDBRANCH  75  78
ENDBRANCH  47  71
BRANCH  59  82
ATOM     82  C   UNL A   1      45.638  27.043  33.748  1.00  0.00     0.023 A 
ATOM     83  C   UNL A   1      46.860  27.726  33.596  1.00  0.00     0.012 A 
ATOM     84  C   UNL A   1      45.572  25.929  34.609  1.00  0.00     0.148 A 
ATOM     85  C   UNL A   1      48.004  27.292  34.263  1.00  0.00     0.002 A 
ATOM     86  C   UNL A   1      46.705  25.529  35.307  1.00  0.00     0.091 A 
ATOM     87  F   UNL A   1      44.405  25.280  34.727  1.00  0.00    -0.205 F 
ATOM     88  C   UNL A   1      47.924  26.202  35.127  1.00  0.00     0.022 A 
BRANCH  86  89
ATOM     89  S   UNL A   1      46.675  24.193  36.508  1.00  0.00     0.127 S 
ATOM     90  O   UNL A   1      46.109  23.098  35.722  1.00  0.00    -0.237 OA
ATOM     91  O   UNL A   1      48.092  24.037  36.838  1.00  0.00    -0.237 OA
ATOM     92  O   UNL A   1      45.847  24.665  37.610  1.00  0.00    -0.744 OA
ENDBRANCH  86  89
ENDBRANCH  59  82
ENDBRANCH  33  34
ENDBRANCH  26  28
ENDBRANCH  25  26
ENDBRANCH  24  25
ENDBRANCH   1  24
TORSDOF 19
ENDMDL
