MODEL 1
REMARK VINA RESULT:     -12.2      0.000      0.000
REMARK SMILES C[NH+]1CCC([NH+]2CCC(Oc3ccc4ccccc4c3)(C(=O)OCCOCCOC(=O)c3ccc(-c4c5nc(c(-c6cccc(S(=O)(=O)[O-])c6F)c6ccc([nH]6)c(-c6cccc(S(=O)(=O)[O-])c6F)c6nc(c(-c7cccc(S(=O)(=O)[O-])c7F)c7ccc4[nH]7)C=C6)C=C5)cc3)CC2)CC1
REMARK SMILES IDX 27 1 26 2 25 3 24 4 23 5 21 6 22 7 9 8 6 9 7 10 96 11 8 13
REMARK SMILES IDX 95 14 5 15 1 16 2 17 3 18 98 19 4 21 97 22 10 23 11 24 12 25
REMARK SMILES IDX 20 26 13 27 19 28 14 29 18 30 15 31 17 32 16 33 28 34 29 35
REMARK SMILES IDX 30 36 31 37 32 38 33 39 94 40 34 41 93 42 35 43 36 44 37 45
REMARK SMILES IDX 87 46 38 47 92 48 86 49 88 50 39 51 91 52 85 53 84 54 40 56
REMARK SMILES IDX 72 57 52 58 71 59 53 60 56 61 70 62 89 63 54 64 55 65 69 67
REMARK SMILES IDX 90 68 57 69 41 70 42 71 50 72 43 73 45 74 51 75 44 76 46 77
REMARK SMILES IDX 47 78 48 79 49 80 73 81 74 82 82 83 75 84 77 85 83 86 76 87
REMARK SMILES IDX 78 88 79 89 80 90 81 91 58 92 59 93 67 94 60 95 62 96 68 97
REMARK SMILES IDX 61 98 63 99 64 100 65 101 66 102
REMARK H PARENT 6 12 2 20 88 55 56 66
REMARK Flexibility Score: inf
ROOT
ATOM      1  C   UNL A   1      31.556  31.414  26.644  1.00  0.00     0.202 C 
ENDROOT
BRANCH   1   2
ATOM      2  O   UNL A   1      32.717  30.604  26.673  1.00  0.00    -0.374 OA
BRANCH   2   3
ATOM      3  C   UNL A   1      32.576  29.266  27.153  1.00  0.00     0.202 C 
BRANCH   3   4
ATOM      4  C   UNL A   1      33.727  28.279  26.914  1.00  0.00     0.261 C 
BRANCH   4   5
ATOM      5  O   UNL A   1      33.827  27.799  25.553  1.00  0.00    -0.460 OA
BRANCH   5   6
ATOM      6  C   UNL A   1      33.624  26.461  25.371  1.00  0.00     0.351 C 
ATOM      7  O   UNL A   1      33.844  25.626  26.247  1.00  0.00    -0.247 OA
BRANCH   6   8
ATOM      8  C   UNL A   1      33.157  26.073  23.943  1.00  0.00     0.216 C 
ATOM      9  N   UNL A   1      30.872  27.742  22.960  1.00  0.00    -0.332 N 
ATOM     10  C   UNL A   1      32.224  28.080  22.513  1.00  0.00     0.267 C 
ATOM     11  C   UNL A   1      30.814  26.956  24.187  1.00  0.00     0.267 C 
ATOM     12  H   UNL A   1      30.545  27.102  22.236  1.00  0.00     0.348 HD
ATOM     13  C   UNL A   1      33.396  27.149  22.871  1.00  0.00     0.122 C 
ATOM     14  C   UNL A   1      31.667  25.699  24.033  1.00  0.00     0.122 C 
BRANCH   9  15
ATOM     15  C   UNL A   1      29.895  28.869  22.916  1.00  0.00     0.195 C 
ATOM     16  C   UNL A   1      28.538  32.962  22.425  1.00  0.00     0.332 C 
ATOM     17  N   UNL A   1      29.275  31.709  22.537  1.00  0.00    -0.337 N 
ATOM     18  C   UNL A   1      28.893  30.748  21.498  1.00  0.00     0.268 C 
ATOM     19  C   UNL A   1      29.125  31.114  23.865  1.00  0.00     0.268 C 
ATOM     20  H   UNL A   1      30.259  31.940  22.398  1.00  0.00     0.347 HD
ATOM     21  C   UNL A   1      29.831  29.537  21.524  1.00  0.00     0.126 C 
ATOM     22  C   UNL A   1      30.099  29.947  23.996  1.00  0.00     0.126 C 
ENDBRANCH   9  15
BRANCH   8  23
ATOM     23  O   UNL A   1      34.072  24.950  23.747  1.00  0.00    -0.475 OA
BRANCH  23  24
ATOM     24  C   UNL A   1      33.535  23.706  23.590  1.00  0.00     0.121 A 
ATOM     25  C   UNL A   1      32.885  23.345  22.415  1.00  0.00     0.047 A 
ATOM     26  C   UNL A   1      33.794  22.743  24.565  1.00  0.00     0.055 A 
ATOM     27  C   UNL A   1      32.410  22.044  22.249  1.00  0.00     0.012 A 
ATOM     28  C   UNL A   1      33.350  21.418  24.399  1.00  0.00    -0.015 A 
ATOM     29  C   UNL A   1      32.632  21.071  23.231  1.00  0.00    -0.018 A 
ATOM     30  C   UNL A   1      33.617  20.422  25.353  1.00  0.00     0.009 A 
ATOM     31  C   UNL A   1      32.181  19.753  23.058  1.00  0.00     0.009 A 
ATOM     32  C   UNL A   1      33.174  19.110  25.161  1.00  0.00     0.001 A 
ATOM     33  C   UNL A   1      32.451  18.778  24.018  1.00  0.00     0.001 A 
ENDBRANCH  23  24
ENDBRANCH   8  23
ENDBRANCH   6   8
ENDBRANCH   5   6
ENDBRANCH   4   5
ENDBRANCH   3   4
ENDBRANCH   2   3
ENDBRANCH   1   2
BRANCH   1  34
ATOM     34  C   UNL A   1      31.721  32.923  26.831  1.00  0.00     0.261 C 
BRANCH  34  35
ATOM     35  O   UNL A   1      33.058  33.409  26.882  1.00  0.00    -0.460 OA
BRANCH  35  36
ATOM     36  C   UNL A   1      33.468  33.811  28.106  1.00  0.00     0.338 C 
ATOM     37  O   UNL A   1      32.906  34.570  28.874  1.00  0.00    -0.246 OA
BRANCH  36  38
ATOM     38  C   UNL A   1      34.687  33.070  28.446  1.00  0.00     0.060 A 
ATOM     39  C   UNL A   1      34.540  31.873  29.150  1.00  0.00     0.016 A 
ATOM     40  C   UNL A   1      35.950  33.579  28.133  1.00  0.00     0.016 A 
ATOM     41  C   UNL A   1      35.671  31.195  29.590  1.00  0.00     0.010 A 
ATOM     42  C   UNL A   1      37.084  32.895  28.575  1.00  0.00     0.010 A 
ATOM     43  C   UNL A   1      36.947  31.721  29.337  1.00  0.00    -0.014 A 
BRANCH  43  44
ATOM     44  C   UNL A   1      38.120  31.098  29.987  1.00  0.00     0.031 A 
ATOM     45  C   UNL A   1      38.469  31.491  31.395  1.00  0.00     0.074 A 
ATOM     46  C   UNL A   1      38.841  30.168  29.336  1.00  0.00     0.049 A 
ATOM     47  N   UNL A   1      39.407  31.020  32.175  1.00  0.00    -0.248 NA
ATOM     48  C   UNL A   1      37.655  32.554  32.007  1.00  0.00     0.031 C 
ATOM     49  C   UNL A   1      38.599  29.725  27.963  1.00  0.00     0.029 A 
ATOM     50  N   UNL A   1      39.927  29.438  29.741  1.00  0.00    -0.354 N 
ATOM     51  C   UNL A   1      39.306  31.736  33.361  1.00  0.00     0.074 A 
ATOM     52  C   UNL A   1      38.231  32.689  33.194  1.00  0.00     0.031 C 
ATOM     53  C   UNL A   1      39.523  28.807  27.633  1.00  0.00     0.029 A 
ATOM     54  C   UNL A   1      40.424  28.606  28.766  1.00  0.00     0.049 A 
ATOM     55  H   UNL A   1      40.315  29.503  30.643  1.00  0.00     0.167 HD
ATOM     56  C   UNL A   1      40.030  31.596  34.497  1.00  0.00     0.034 A 
ATOM     57  C   UNL A   1      41.488  27.780  28.789  1.00  0.00     0.034 A 
ATOM     58  C   UNL A   1      41.084  30.633  34.661  1.00  0.00     0.049 A 
ATOM     59  C   UNL A   1      42.278  27.644  30.063  1.00  0.00     0.074 A 
ATOM     60  C   UNL A   1      41.847  30.376  35.786  1.00  0.00     0.029 A 
ATOM     61  N   UNL A   1      41.534  29.777  33.667  1.00  0.00    -0.354 N 
ATOM     62  N   UNL A   1      42.081  28.226  31.223  1.00  0.00    -0.248 NA
ATOM     63  C   UNL A   1      43.413  26.709  30.047  1.00  0.00     0.031 C 
ATOM     64  C   UNL A   1      42.771  29.375  35.465  1.00  0.00     0.029 A 
ATOM     65  C   UNL A   1      42.570  28.997  34.148  1.00  0.00     0.049 A 
ATOM     66  H   UNL A   1      41.168  29.731  32.754  1.00  0.00     0.167 HD
ATOM     67  C   UNL A   1      43.045  27.707  32.080  1.00  0.00     0.074 A 
ATOM     68  C   UNL A   1      43.811  26.746  31.312  1.00  0.00     0.031 C 
ATOM     69  C   UNL A   1      43.286  28.009  33.381  1.00  0.00     0.034 A 
BRANCH  56  70
ATOM     70  C   UNL A   1      39.677  32.481  35.662  1.00  0.00     0.023 A 
ATOM     71  C   UNL A   1      38.900  31.962  36.717  1.00  0.00     0.012 A 
ATOM     72  C   UNL A   1      40.150  33.805  35.738  1.00  0.00     0.148 A 
ATOM     73  C   UNL A   1      38.575  32.753  37.817  1.00  0.00     0.002 A 
ATOM     74  C   UNL A   1      39.854  34.577  36.856  1.00  0.00     0.091 A 
ATOM     75  F   UNL A   1      40.865  34.289  34.713  1.00  0.00    -0.205 F 
ATOM     76  C   UNL A   1      39.060  34.057  37.891  1.00  0.00     0.022 A 
BRANCH  74  77
ATOM     77  S   UNL A   1      40.489  36.243  37.075  1.00  0.00     0.127 S 
ATOM     78  O   UNL A   1      39.966  36.917  35.887  1.00  0.00    -0.237 OA
ATOM     79  O   UNL A   1      39.861  36.651  38.332  1.00  0.00    -0.237 OA
ATOM     80  O   UNL A   1      41.939  36.115  37.136  1.00  0.00    -0.744 OA
ENDBRANCH  74  77
ENDBRANCH  56  70
BRANCH  57  81
ATOM     81  C   UNL A   1      41.830  26.978  27.580  1.00  0.00     0.023 A 
ATOM     82  C   UNL A   1      42.437  27.607  26.476  1.00  0.00     0.012 A 
ATOM     83  C   UNL A   1      41.591  25.591  27.535  1.00  0.00     0.148 A 
ATOM     84  C   UNL A   1      42.777  26.874  25.338  1.00  0.00     0.002 A 
ATOM     85  C   UNL A   1      41.979  24.857  26.420  1.00  0.00     0.091 A 
ATOM     86  F   UNL A   1      40.993  25.013  28.586  1.00  0.00    -0.205 F 
ATOM     87  C   UNL A   1      42.559  25.498  25.314  1.00  0.00     0.022 A 
BRANCH  85  88
ATOM     88  S   UNL A   1      41.855  23.066  26.362  1.00  0.00     0.127 S 
ATOM     89  O   UNL A   1      42.608  22.675  27.551  1.00  0.00    -0.237 OA
ATOM     90  O   UNL A   1      40.410  22.858  26.451  1.00  0.00    -0.237 OA
ATOM     91  O   UNL A   1      42.436  22.677  25.084  1.00  0.00    -0.744 OA
ENDBRANCH  85  88
ENDBRANCH  57  81
BRANCH  69  92
ATOM     92  C   UNL A   1      44.409  27.279  34.068  1.00  0.00     0.023 A 
ATOM     93  C   UNL A   1      45.712  27.813  34.029  1.00  0.00     0.012 A 
ATOM     94  C   UNL A   1      44.160  26.115  34.820  1.00  0.00     0.148 A 
ATOM     95  C   UNL A   1      46.756  27.183  34.704  1.00  0.00     0.002 A 
ATOM     96  C   UNL A   1      45.197  25.516  35.527  1.00  0.00     0.091 A 
ATOM     97  F   UNL A   1      42.918  25.611  34.828  1.00  0.00    -0.205 F 
ATOM     98  C   UNL A   1      46.497  26.043  35.462  1.00  0.00     0.022 A 
BRANCH  96  99
ATOM     99  S   UNL A   1      44.931  24.103  36.603  1.00  0.00     0.127 S 
ATOM    100  O   UNL A   1      44.171  23.206  35.734  1.00  0.00    -0.237 OA
ATOM    101  O   UNL A   1      46.298  23.664  36.887  1.00  0.00    -0.237 OA
ATOM    102  O   UNL A   1      44.212  24.614  37.762  1.00  0.00    -0.744 OA
ENDBRANCH  96  99
ENDBRANCH  69  92
ENDBRANCH  43  44
ENDBRANCH  36  38
ENDBRANCH  35  36
ENDBRANCH  34  35
ENDBRANCH   1  34
TORSDOF 20
ENDMDL
MODEL 2
REMARK VINA RESULT:     -11.8      2.000      7.432
REMARK SMILES C[NH+]1CCC([NH+]2CCC(Oc3ccc4ccccc4c3)(C(=O)OCCOCCOC(=O)c3ccc(-c4c5nc(c(-c6cccc(S(=O)(=O)[O-])c6F)c6ccc([nH]6)c(-c6cccc(S(=O)(=O)[O-])c6F)c6nc(c(-c7cccc(S(=O)(=O)[O-])c7F)c7ccc4[nH]7)C=C6)C=C5)cc3)CC2)CC1
REMARK SMILES IDX 27 1 26 2 25 3 24 4 23 5 21 6 22 7 9 8 6 9 7 10 96 11 8 13
REMARK SMILES IDX 95 14 5 15 1 16 2 17 3 18 98 19 4 21 97 22 10 23 11 24 12 25
REMARK SMILES IDX 20 26 13 27 19 28 14 29 18 30 15 31 17 32 16 33 28 34 29 35
REMARK SMILES IDX 30 36 31 37 32 38 33 39 94 40 34 41 93 42 35 43 36 44 37 45
REMARK SMILES IDX 87 46 38 47 92 48 86 49 88 50 39 51 91 52 85 53 84 54 40 56
REMARK SMILES IDX 72 57 52 58 71 59 53 60 56 61 70 62 89 63 54 64 55 65 69 67
REMARK SMILES IDX 90 68 57 69 41 70 42 71 50 72 43 73 45 74 51 75 44 76 46 77
REMARK SMILES IDX 47 78 48 79 49 80 73 81 74 82 82 83 75 84 77 85 83 86 76 87
REMARK SMILES IDX 78 88 79 89 80 90 81 91 58 92 59 93 67 94 60 95 62 96 68 97
REMARK SMILES IDX 61 98 63 99 64 100 65 101 66 102
REMARK H PARENT 6 12 2 20 88 55 56 66
REMARK Flexibility Score: inf
ROOT
ATOM      1  C   UNL A   1      31.690  31.659  27.065  1.00  0.00     0.202 C 
ENDROOT
BRANCH   1   2
ATOM      2  O   UNL A   1      32.231  30.797  26.080  1.00  0.00    -0.374 OA
BRANCH   2   3
ATOM      3  C   UNL A   1      33.364  30.009  26.444  1.00  0.00     0.202 C 
BRANCH   3   4
ATOM      4  C   UNL A   1      33.172  28.499  26.640  1.00  0.00     0.261 C 
BRANCH   4   5
ATOM      5  O   UNL A   1      33.941  27.677  25.731  1.00  0.00    -0.460 OA
BRANCH   5   6
ATOM      6  C   UNL A   1      33.480  26.407  25.534  1.00  0.00     0.351 C 
ATOM      7  O   UNL A   1      33.410  25.572  26.436  1.00  0.00    -0.247 OA
BRANCH   6   8
ATOM      8  C   UNL A   1      33.117  26.080  24.061  1.00  0.00     0.216 C 
ATOM      9  N   UNL A   1      30.906  27.793  22.989  1.00  0.00    -0.332 N 
ATOM     10  C   UNL A   1      32.285  28.147  22.654  1.00  0.00     0.267 C 
ATOM     11  C   UNL A   1      30.761  26.956  24.175  1.00  0.00     0.267 C 
ATOM     12  H   UNL A   1      30.631  27.185  22.218  1.00  0.00     0.348 HD
ATOM     13  C   UNL A   1      33.430  27.200  23.056  1.00  0.00     0.122 C 
ATOM     14  C   UNL A   1      31.625  25.705  24.029  1.00  0.00     0.122 C 
BRANCH   9  15
ATOM     15  C   UNL A   1      29.932  28.922  22.924  1.00  0.00     0.195 C 
ATOM     16  C   UNL A   1      28.603  33.027  22.454  1.00  0.00     0.332 C 
ATOM     17  N   UNL A   1      29.333  31.770  22.573  1.00  0.00    -0.337 N 
ATOM     18  C   UNL A   1      28.998  30.831  21.500  1.00  0.00     0.268 C 
ATOM     19  C   UNL A   1      29.122  31.149  23.881  1.00  0.00     0.268 C 
ATOM     20  H   UNL A   1      30.323  32.002  22.484  1.00  0.00     0.347 HD
ATOM     21  C   UNL A   1      29.933  29.618  21.544  1.00  0.00     0.126 C 
ATOM     22  C   UNL A   1      30.088  29.978  24.033  1.00  0.00     0.126 C 
ENDBRANCH   9  15
BRANCH   8  23
ATOM     23  O   UNL A   1      34.046  24.965  23.883  1.00  0.00    -0.475 OA
BRANCH  23  24
ATOM     24  C   UNL A   1      33.521  23.722  23.676  1.00  0.00     0.121 A 
ATOM     25  C   UNL A   1      32.828  23.419  22.510  1.00  0.00     0.047 A 
ATOM     26  C   UNL A   1      33.837  22.709  24.581  1.00  0.00     0.055 A 
ATOM     27  C   UNL A   1      32.367  22.121  22.287  1.00  0.00     0.012 A 
ATOM     28  C   UNL A   1      33.407  21.388  24.356  1.00  0.00    -0.015 A 
ATOM     29  C   UNL A   1      32.646  21.097  23.200  1.00  0.00    -0.018 A 
ATOM     30  C   UNL A   1      33.729  20.343  25.237  1.00  0.00     0.009 A 
ATOM     31  C   UNL A   1      32.209  19.784  22.968  1.00  0.00     0.009 A 
ATOM     32  C   UNL A   1      33.299  19.037  24.986  1.00  0.00     0.001 A 
ATOM     33  C   UNL A   1      32.535  18.759  23.857  1.00  0.00     0.001 A 
ENDBRANCH  23  24
ENDBRANCH   8  23
ENDBRANCH   6   8
ENDBRANCH   5   6
ENDBRANCH   4   5
ENDBRANCH   3   4
ENDBRANCH   2   3
ENDBRANCH   1   2
BRANCH   1  34
ATOM     34  C   UNL A   1      32.020  33.151  26.981  1.00  0.00     0.261 C 
BRANCH  34  35
ATOM     35  O   UNL A   1      33.312  33.538  27.438  1.00  0.00    -0.460 OA
BRANCH  35  36
ATOM     36  C   UNL A   1      33.308  34.414  28.468  1.00  0.00     0.338 C 
ATOM     37  O   UNL A   1      32.534  35.330  28.671  1.00  0.00    -0.246 OA
BRANCH  36  38
ATOM     38  C   UNL A   1      34.348  34.007  29.418  1.00  0.00     0.060 A 
ATOM     39  C   UNL A   1      35.673  34.312  29.097  1.00  0.00     0.016 A 
ATOM     40  C   UNL A   1      34.028  33.283  30.569  1.00  0.00     0.016 A 
ATOM     41  C   UNL A   1      36.699  33.848  29.912  1.00  0.00     0.010 A 
ATOM     42  C   UNL A   1      35.061  32.820  31.387  1.00  0.00     0.010 A 
ATOM     43  C   UNL A   1      36.400  33.069  31.040  1.00  0.00    -0.014 A 
BRANCH  43  44
ATOM     44  C   UNL A   1      37.507  32.416  31.773  1.00  0.00     0.031 A 
ATOM     45  C   UNL A   1      38.226  31.262  31.133  1.00  0.00     0.074 A 
ATOM     46  C   UNL A   1      37.884  32.876  32.979  1.00  0.00     0.049 A 
ATOM     47  N   UNL A   1      39.263  30.594  31.566  1.00  0.00    -0.248 NA
ATOM     48  C   UNL A   1      37.708  30.796  29.836  1.00  0.00     0.031 C 
ATOM     49  C   UNL A   1      37.246  33.979  33.697  1.00  0.00     0.029 A 
ATOM     50  N   UNL A   1      38.889  32.465  33.815  1.00  0.00    -0.354 N 
ATOM     51  C   UNL A   1      39.515  29.624  30.604  1.00  0.00     0.074 A 
ATOM     52  C   UNL A   1      38.509  29.773  29.575  1.00  0.00     0.031 C 
ATOM     53  C   UNL A   1      37.867  34.148  34.876  1.00  0.00     0.029 A 
ATOM     54  C   UNL A   1      38.938  33.161  34.999  1.00  0.00     0.049 A 
ATOM     55  H   UNL A   1      39.516  31.740  33.589  1.00  0.00     0.167 HD
ATOM     56  C   UNL A   1      40.510  28.706  30.570  1.00  0.00     0.034 A 
ATOM     57  C   UNL A   1      39.754  33.012  36.061  1.00  0.00     0.034 A 
ATOM     58  C   UNL A   1      41.516  28.577  31.587  1.00  0.00     0.049 A 
ATOM     59  C   UNL A   1      40.850  31.982  35.999  1.00  0.00     0.074 A 
ATOM     60  C   UNL A   1      42.595  27.713  31.626  1.00  0.00     0.029 A 
ATOM     61  N   UNL A   1      41.560  29.326  32.753  1.00  0.00    -0.354 N 
ATOM     62  N   UNL A   1      41.162  31.166  35.020  1.00  0.00    -0.248 NA
ATOM     63  C   UNL A   1      41.732  31.877  37.171  1.00  0.00     0.031 C 
ATOM     64  C   UNL A   1      43.283  27.929  32.826  1.00  0.00     0.029 A 
ATOM     65  C   UNL A   1      42.642  28.939  33.524  1.00  0.00     0.049 A 
ATOM     66  H   UNL A   1      40.917  30.031  32.996  1.00  0.00     0.167 HD
ATOM     67  C   UNL A   1      42.291  30.474  35.443  1.00  0.00     0.074 A 
ATOM     68  C   UNL A   1      42.622  30.983  36.759  1.00  0.00     0.031 C 
ATOM     69  C   UNL A   1      42.983  29.495  34.809  1.00  0.00     0.034 A 
BRANCH  56  70
ATOM     70  C   UNL A   1      40.577  27.795  29.373  1.00  0.00     0.023 A 
ATOM     71  C   UNL A   1      39.752  26.653  29.324  1.00  0.00     0.012 A 
ATOM     72  C   UNL A   1      41.415  28.090  28.281  1.00  0.00     0.148 A 
ATOM     73  C   UNL A   1      39.780  25.803  28.219  1.00  0.00     0.002 A 
ATOM     74  C   UNL A   1      41.410  27.259  27.167  1.00  0.00     0.091 A 
ATOM     75  F   UNL A   1      42.212  29.166  28.358  1.00  0.00    -0.205 F 
ATOM     76  C   UNL A   1      40.601  26.112  27.137  1.00  0.00     0.022 A 
BRANCH  74  77
ATOM     77  S   UNL A   1      42.381  27.609  25.696  1.00  0.00     0.127 S 
ATOM     78  O   UNL A   1      42.022  26.486  24.831  1.00  0.00    -0.237 OA
ATOM     79  O   UNL A   1      41.843  28.902  25.270  1.00  0.00    -0.237 OA
ATOM     80  O   UNL A   1      43.770  27.645  26.133  1.00  0.00    -0.744 OA
ENDBRANCH  74  77
ENDBRANCH  56  70
BRANCH  57  81
ATOM     81  C   UNL A   1      39.595  33.900  37.248  1.00  0.00     0.023 A 
ATOM     82  C   UNL A   1      40.067  35.225  37.194  1.00  0.00     0.012 A 
ATOM     83  C   UNL A   1      38.948  33.447  38.414  1.00  0.00     0.148 A 
ATOM     84  C   UNL A   1      39.919  36.077  38.289  1.00  0.00     0.002 A 
ATOM     85  C   UNL A   1      38.757  34.317  39.482  1.00  0.00     0.091 A 
ATOM     86  F   UNL A   1      38.525  32.176  38.455  1.00  0.00    -0.205 F 
ATOM     87  C   UNL A   1      39.255  35.627  39.428  1.00  0.00     0.022 A 
BRANCH  85  88
ATOM     88  S   UNL A   1      37.798  33.858  40.930  1.00  0.00     0.127 S 
ATOM     89  O   UNL A   1      37.621  35.148  41.593  1.00  0.00    -0.237 OA
ATOM     90  O   UNL A   1      36.585  33.303  40.329  1.00  0.00    -0.237 OA
ATOM     91  O   UNL A   1      38.612  32.883  41.642  1.00  0.00    -0.744 OA
ENDBRANCH  85  88
ENDBRANCH  57  81
BRANCH  69  92
ATOM     92  C   UNL A   1      44.182  28.920  35.516  1.00  0.00     0.023 A 
ATOM     93  C   UNL A   1      45.448  29.509  35.329  1.00  0.00     0.012 A 
ATOM     94  C   UNL A   1      44.041  27.855  36.426  1.00  0.00     0.148 A 
ATOM     95  C   UNL A   1      46.562  29.027  36.016  1.00  0.00     0.002 A 
ATOM     96  C   UNL A   1      45.147  27.409  37.141  1.00  0.00     0.091 A 
ATOM     97  F   UNL A   1      42.832  27.296  36.576  1.00  0.00    -0.205 F 
ATOM     98  C   UNL A   1      46.409  27.986  36.929  1.00  0.00     0.022 A 
BRANCH  96  99
ATOM     99  S   UNL A   1      45.021  26.140  38.406  1.00  0.00     0.127 S 
ATOM    100  O   UNL A   1      44.227  26.819  39.430  1.00  0.00    -0.237 OA
ATOM    101  O   UNL A   1      44.319  25.065  37.704  1.00  0.00    -0.237 OA
ATOM    102  O   UNL A   1      46.390  25.818  38.785  1.00  0.00    -0.744 OA
ENDBRANCH  96  99
ENDBRANCH  69  92
ENDBRANCH  43  44
ENDBRANCH  36  38
ENDBRANCH  35  36
ENDBRANCH  34  35
ENDBRANCH   1  34
TORSDOF 20
ENDMDL
MODEL 3
REMARK VINA RESULT:     -11.7      1.716      2.031
REMARK SMILES C[NH+]1CCC([NH+]2CCC(Oc3ccc4ccccc4c3)(C(=O)OCCOCCOC(=O)c3ccc(-c4c5nc(c(-c6cccc(S(=O)(=O)[O-])c6F)c6ccc([nH]6)c(-c6cccc(S(=O)(=O)[O-])c6F)c6nc(c(-c7cccc(S(=O)(=O)[O-])c7F)c7ccc4[nH]7)C=C6)C=C5)cc3)CC2)CC1
REMARK SMILES IDX 27 1 26 2 25 3 24 4 23 5 21 6 22 7 9 8 6 9 7 10 96 11 8 13
REMARK SMILES IDX 95 14 5 15 1 16 2 17 3 18 98 19 4 21 97 22 10 23 11 24 12 25
REMARK SMILES IDX 20 26 13 27 19 28 14 29 18 30 15 31 17 32 16 33 28 34 29 35
REMARK SMILES IDX 30 36 31 37 32 38 33 39 94 40 34 41 93 42 35 43 36 44 37 45
REMARK SMILES IDX 87 46 38 47 92 48 86 49 88 50 39 51 91 52 85 53 84 54 40 56
REMARK SMILES IDX 72 57 52 58 71 59 53 60 56 61 70 62 89 63 54 64 55 65 69 67
REMARK SMILES IDX 90 68 57 69 41 70 42 71 50 72 43 73 45 74 51 75 44 76 46 77
REMARK SMILES IDX 47 78 48 79 49 80 73 81 74 82 82 83 75 84 77 85 83 86 76 87
REMARK SMILES IDX 78 88 79 89 80 90 81 91 58 92 59 93 67 94 60 95 62 96 68 97
REMARK SMILES IDX 61 98 63 99 64 100 65 101 66 102
REMARK H PARENT 6 12 2 20 88 55 56 66
REMARK Flexibility Score: inf
ROOT
ATOM      1  C   UNL A   1      31.749  31.408  26.909  1.00  0.00     0.202 C 
ENDROOT
BRANCH   1   2
ATOM      2  O   UNL A   1      32.717  30.660  26.196  1.00  0.00    -0.374 OA
BRANCH   2   3
ATOM      3  C   UNL A   1      33.835  30.159  26.929  1.00  0.00     0.202 C 
BRANCH   3   4
ATOM      4  C   UNL A   1      34.211  28.680  26.768  1.00  0.00     0.261 C 
BRANCH   4   5
ATOM      5  O   UNL A   1      33.970  28.144  25.446  1.00  0.00    -0.460 OA
BRANCH   5   6
ATOM      6  C   UNL A   1      33.637  26.821  25.385  1.00  0.00     0.351 C 
ATOM      7  O   UNL A   1      33.766  26.054  26.338  1.00  0.00    -0.247 OA
BRANCH   6   8
ATOM      8  C   UNL A   1      33.144  26.350  23.992  1.00  0.00     0.216 C 
ATOM      9  N   UNL A   1      30.811  27.927  22.973  1.00  0.00    -0.332 N 
ATOM     10  C   UNL A   1      32.146  28.261  22.477  1.00  0.00     0.267 C 
ATOM     11  C   UNL A   1      30.793  27.208  24.242  1.00  0.00     0.267 C 
ATOM     12  H   UNL A   1      30.478  27.244  22.292  1.00  0.00     0.348 HD
ATOM     13  C   UNL A   1      33.341  27.369  22.858  1.00  0.00     0.122 C 
ATOM     14  C   UNL A   1      31.664  25.958  24.136  1.00  0.00     0.122 C 
BRANCH   9  15
ATOM     15  C   UNL A   1      29.814  29.034  22.892  1.00  0.00     0.195 C 
ATOM     16  C   UNL A   1      28.398  33.102  22.358  1.00  0.00     0.332 C 
ATOM     17  N   UNL A   1      29.155  31.864  22.496  1.00  0.00    -0.337 N 
ATOM     18  C   UNL A   1      28.836  30.900  21.438  1.00  0.00     0.268 C 
ATOM     19  C   UNL A   1      28.959  31.259  23.814  1.00  0.00     0.268 C 
ATOM     20  H   UNL A   1      30.139  32.115  22.400  1.00  0.00     0.347 HD
ATOM     21  C   UNL A   1      29.797  29.707  21.501  1.00  0.00     0.126 C 
ATOM     22  C   UNL A   1      29.950  30.111  23.983  1.00  0.00     0.126 C 
ENDBRANCH   9  15
BRANCH   8  23
ATOM     23  O   UNL A   1      34.074  25.232  23.835  1.00  0.00    -0.475 OA
BRANCH  23  24
ATOM     24  C   UNL A   1      33.551  23.983  23.667  1.00  0.00     0.121 A 
ATOM     25  C   UNL A   1      33.000  23.590  22.454  1.00  0.00     0.047 A 
ATOM     26  C   UNL A   1      33.730  23.047  24.686  1.00  0.00     0.055 A 
ATOM     27  C   UNL A   1      32.539  22.284  22.283  1.00  0.00     0.012 A 
ATOM     28  C   UNL A   1      33.300  21.717  24.519  1.00  0.00    -0.015 A 
ATOM     29  C   UNL A   1      32.681  21.337  23.306  1.00  0.00    -0.018 A 
ATOM     30  C   UNL A   1      33.488  20.747  25.518  1.00  0.00     0.009 A 
ATOM     31  C   UNL A   1      32.245  20.015  23.132  1.00  0.00     0.009 A 
ATOM     32  C   UNL A   1      33.062  19.430  25.325  1.00  0.00     0.001 A 
ATOM     33  C   UNL A   1      32.436  19.066  24.136  1.00  0.00     0.001 A 
ENDBRANCH  23  24
ENDBRANCH   8  23
ENDBRANCH   6   8
ENDBRANCH   5   6
ENDBRANCH   4   5
ENDBRANCH   3   4
ENDBRANCH   2   3
ENDBRANCH   1   2
BRANCH   1  34
ATOM     34  C   UNL A   1      31.989  32.907  27.100  1.00  0.00     0.261 C 
BRANCH  34  35
ATOM     35  O   UNL A   1      33.347  33.334  27.089  1.00  0.00    -0.460 OA
BRANCH  35  36
ATOM     36  C   UNL A   1      33.814  33.763  28.283  1.00  0.00     0.338 C 
ATOM     37  O   UNL A   1      33.309  34.571  29.041  1.00  0.00    -0.246 OA
BRANCH  36  38
ATOM     38  C   UNL A   1      35.013  32.985  28.611  1.00  0.00     0.060 A 
ATOM     39  C   UNL A   1      34.848  31.838  29.389  1.00  0.00     0.016 A 
ATOM     40  C   UNL A   1      36.281  33.416  28.212  1.00  0.00     0.016 A 
ATOM     41  C   UNL A   1      35.967  31.133  29.816  1.00  0.00     0.010 A 
ATOM     42  C   UNL A   1      37.404  32.705  28.641  1.00  0.00     0.010 A 
ATOM     43  C   UNL A   1      37.251  31.583  29.475  1.00  0.00    -0.014 A 
BRANCH  43  44
ATOM     44  C   UNL A   1      38.426  30.943  30.107  1.00  0.00     0.031 A 
ATOM     45  C   UNL A   1      38.806  31.336  31.507  1.00  0.00     0.074 A 
ATOM     46  C   UNL A   1      39.118  29.999  29.447  1.00  0.00     0.049 A 
ATOM     47  N   UNL A   1      39.750  30.852  32.271  1.00  0.00    -0.248 NA
ATOM     48  C   UNL A   1      38.022  32.415  32.129  1.00  0.00     0.031 C 
ATOM     49  C   UNL A   1      38.845  29.554  28.080  1.00  0.00     0.029 A 
ATOM     50  N   UNL A   1      40.200  29.252  29.835  1.00  0.00    -0.354 N 
ATOM     51  C   UNL A   1      39.683  31.574  33.457  1.00  0.00     0.074 A 
ATOM     52  C   UNL A   1      38.621  32.544  33.304  1.00  0.00     0.031 C 
ATOM     53  C   UNL A   1      39.747  28.620  27.738  1.00  0.00     0.029 A 
ATOM     54  C   UNL A   1      40.665  28.408  28.855  1.00  0.00     0.049 A 
ATOM     55  H   UNL A   1      40.605  29.314  30.730  1.00  0.00     0.167 HD
ATOM     56  C   UNL A   1      40.425  31.426  34.580  1.00  0.00     0.034 A 
ATOM     57  C   UNL A   1      41.715  27.564  28.862  1.00  0.00     0.034 A 
ATOM     58  C   UNL A   1      41.465  30.447  34.729  1.00  0.00     0.049 A 
ATOM     59  C   UNL A   1      42.525  27.419  30.123  1.00  0.00     0.074 A 
ATOM     60  C   UNL A   1      42.244  30.181  35.841  1.00  0.00     0.029 A 
ATOM     61  N   UNL A   1      41.882  29.579  33.730  1.00  0.00    -0.354 N 
ATOM     62  N   UNL A   1      42.359  28.009  31.283  1.00  0.00    -0.248 NA
ATOM     63  C   UNL A   1      43.643  26.465  30.091  1.00  0.00     0.031 C 
ATOM     64  C   UNL A   1      43.145  29.163  35.508  1.00  0.00     0.029 A 
ATOM     65  C   UNL A   1      42.914  28.783  34.195  1.00  0.00     0.049 A 
ATOM     66  H   UNL A   1      41.499  29.535  32.825  1.00  0.00     0.167 HD
ATOM     67  C   UNL A   1      43.329  27.477  32.126  1.00  0.00     0.074 A 
ATOM     68  C   UNL A   1      44.065  26.500  31.348  1.00  0.00     0.031 C 
ATOM     69  C   UNL A   1      43.599  27.780  33.420  1.00  0.00     0.034 A 
BRANCH  56  70
ATOM     70  C   UNL A   1      40.108  32.322  35.747  1.00  0.00     0.023 A 
ATOM     71  C   UNL A   1      40.826  33.523  35.916  1.00  0.00     0.012 A 
ATOM     72  C   UNL A   1      39.073  32.002  36.648  1.00  0.00     0.148 A 
ATOM     73  C   UNL A   1      40.539  34.379  36.976  1.00  0.00     0.002 A 
ATOM     74  C   UNL A   1      38.767  32.880  37.681  1.00  0.00     0.091 A 
ATOM     75  F   UNL A   1      38.419  30.843  36.487  1.00  0.00    -0.205 F 
ATOM     76  C   UNL A   1      39.504  34.064  37.853  1.00  0.00     0.022 A 
BRANCH  74  77
ATOM     77  S   UNL A   1      37.408  32.595  38.821  1.00  0.00     0.127 S 
ATOM     78  O   UNL A   1      37.713  33.547  39.889  1.00  0.00    -0.237 OA
ATOM     79  O   UNL A   1      36.243  32.945  38.007  1.00  0.00    -0.237 OA
ATOM     80  O   UNL A   1      37.486  31.189  39.193  1.00  0.00    -0.744 OA
ENDBRANCH  74  77
ENDBRANCH  56  70
BRANCH  57  81
ATOM     81  C   UNL A   1      42.022  26.752  27.651  1.00  0.00     0.023 A 
ATOM     82  C   UNL A   1      42.663  27.355  26.552  1.00  0.00     0.012 A 
ATOM     83  C   UNL A   1      41.714  25.378  27.598  1.00  0.00     0.148 A 
ATOM     84  C   UNL A   1      42.970  26.611  25.412  1.00  0.00     0.002 A 
ATOM     85  C   UNL A   1      42.070  24.631  26.481  1.00  0.00     0.091 A 
ATOM     86  F   UNL A   1      41.084  24.826  28.645  1.00  0.00    -0.205 F 
ATOM     87  C   UNL A   1      42.685  25.248  25.381  1.00  0.00     0.022 A 
BRANCH  85  88
ATOM     88  S   UNL A   1      41.857  22.848  26.414  1.00  0.00     0.127 S 
ATOM     89  O   UNL A   1      40.403  22.719  26.438  1.00  0.00    -0.237 OA
ATOM     90  O   UNL A   1      42.485  22.515  25.135  1.00  0.00    -0.237 OA
ATOM     91  O   UNL A   1      42.562  22.329  27.578  1.00  0.00    -0.744 OA
ENDBRANCH  85  88
ENDBRANCH  57  81
BRANCH  69  92
ATOM     92  C   UNL A   1      44.722  27.034  34.090  1.00  0.00     0.023 A 
ATOM     93  C   UNL A   1      44.454  25.819  34.751  1.00  0.00     0.012 A 
ATOM     94  C   UNL A   1      46.051  27.491  33.992  1.00  0.00     0.148 A 
ATOM     95  C   UNL A   1      45.488  25.086  35.331  1.00  0.00     0.002 A 
ATOM     96  C   UNL A   1      47.082  26.732  34.534  1.00  0.00     0.091 A 
ATOM     97  F   UNL A   1      46.283  28.659  33.376  1.00  0.00    -0.205 F 
ATOM     98  C   UNL A   1      46.801  25.535  35.212  1.00  0.00     0.022 A 
BRANCH  96  99
ATOM     99  S   UNL A   1      48.809  27.187  34.343  1.00  0.00     0.127 S 
ATOM    100  O   UNL A   1      49.484  26.088  35.033  1.00  0.00    -0.237 OA
ATOM    101  O   UNL A   1      48.975  27.186  32.889  1.00  0.00    -0.237 OA
ATOM    102  O   UNL A   1      48.947  28.497  34.963  1.00  0.00    -0.744 OA
ENDBRANCH  96  99
ENDBRANCH  69  92
ENDBRANCH  43  44
ENDBRANCH  36  38
ENDBRANCH  35  36
ENDBRANCH  34  35
ENDBRANCH   1  34
TORSDOF 20
ENDMDL
