MODEL 1
REMARK VINA RESULT:     -11.3      0.000      0.000
REMARK SMILES CC[C@@](C)(NC(=O)N1CCCC[C@@H]1C)C(=O)OCCOCCOC(=O)c1ccc(-c2c3nc(c(-c4cccc(S(=O)(=O)[O-])c4F)c4ccc([nH]4)c(-c4cccc(S(=O)(=O)[O-])c4F)c4nc(c(-c5cccc(S(=O)(=O)[O-])c5F)c5ccc2[nH]5)C=C4)C=C3)cc1
REMARK SMILES IDX 21 1 20 2 19 3 18 4 17 5 15 6 16 7 3 8 4 9 2 10 1 11 5 12
REMARK SMILES IDX 6 13 7 15 8 16 9 17 13 18 10 19 12 20 14 21 11 22 22 23
REMARK SMILES IDX 23 24 24 25 25 26 26 27 27 28 88 29 28 30 87 31 29 32 30 33
REMARK SMILES IDX 31 34 81 35 32 36 86 37 80 38 82 39 33 40 85 41 79 42 78 43
REMARK SMILES IDX 34 45 66 46 46 47 65 48 47 49 50 50 64 51 83 52 48 53 49 54
REMARK SMILES IDX 63 56 84 57 51 58 35 59 36 60 44 61 37 62 39 63 45 64 38 65
REMARK SMILES IDX 40 66 41 67 42 68 43 69 67 70 68 71 76 72 69 73 71 74 77 75
REMARK SMILES IDX 70 76 72 77 73 78 74 79 75 80 52 81 53 82 61 83 54 84 56 85
REMARK SMILES IDX 62 86 55 87 57 88 58 89 59 90 60 91
REMARK H PARENT 5 14 82 44 50 55
REMARK Flexibility Score: inf
ROOT
ATOM      1  C   UNL A   1      31.102  29.330  23.798  1.00  0.00     0.202 C 
ENDROOT
BRANCH   1   2
ATOM      2  O   UNL A   1      30.486  28.534  22.746  1.00  0.00    -0.374 OA
BRANCH   2   3
ATOM      3  C   UNL A   1      29.750  27.286  22.777  1.00  0.00     0.202 C 
BRANCH   3   4
ATOM      4  C   UNL A   1      29.263  26.367  23.948  1.00  0.00     0.261 C 
BRANCH   4   5
ATOM      5  O   UNL A   1      30.115  25.311  24.321  1.00  0.00    -0.462 OA
BRANCH   5   6
ATOM      6  C   UNL A   1      30.711  25.517  25.509  1.00  0.00     0.331 C 
ATOM      7  O   UNL A   1      30.273  26.275  26.349  1.00  0.00    -0.249 OA
BRANCH   6   8
ATOM      8  C   UNL A   1      31.973  24.645  25.632  1.00  0.00     0.136 C 
ATOM      9  C   UNL A   1      33.239  25.380  26.074  1.00  0.00     0.047 C 
BRANCH   8  10
ATOM     10  C   UNL A   1      31.592  23.586  26.739  1.00  0.00     0.037 C 
ATOM     11  C   UNL A   1      30.595  22.493  26.311  1.00  0.00     0.007 C 
ENDBRANCH   8  10
BRANCH   8  12
ATOM     12  N   UNL A   1      32.267  23.913  24.350  1.00  0.00    -0.322 N 
ATOM     13  C   UNL A   1      33.174  23.093  23.764  1.00  0.00     0.318 C 
ATOM     14  H   UNL A   1      31.542  24.092  23.708  1.00  0.00     0.166 HD
ATOM     15  O   UNL A   1      32.812  22.685  22.660  1.00  0.00    -0.249 OA
BRANCH  13  16
ATOM     16  N   UNL A   1      34.421  22.767  24.286  1.00  0.00    -0.322 N 
ATOM     17  C   UNL A   1      35.622  23.075  23.481  1.00  0.00     0.121 C 
ATOM     18  C   UNL A   1      34.480  21.534  25.079  1.00  0.00     0.083 C 
ATOM     19  C   UNL A   1      37.014  22.518  23.724  1.00  0.00     0.022 C 
ATOM     20  C   UNL A   1      35.814  20.755  24.993  1.00  0.00     0.025 C 
ATOM     21  C   UNL A   1      33.349  20.555  24.715  1.00  0.00     0.031 C 
ATOM     22  C   UNL A   1      37.078  21.588  24.894  1.00  0.00     0.004 C 
ENDBRANCH  13  16
ENDBRANCH   8  12
ENDBRANCH   6   8
ENDBRANCH   5   6
ENDBRANCH   4   5
ENDBRANCH   3   4
ENDBRANCH   2   3
ENDBRANCH   1   2
BRANCH   1  23
ATOM     23  C   UNL A   1      32.229  28.874  24.962  1.00  0.00     0.261 C 
BRANCH  23  24
ATOM     24  O   UNL A   1      32.249  29.378  26.381  1.00  0.00    -0.460 OA
BRANCH  24  25
ATOM     25  C   UNL A   1      32.742  30.606  26.843  1.00  0.00     0.338 C 
ATOM     26  O   UNL A   1      32.067  31.627  26.878  1.00  0.00    -0.246 OA
BRANCH  25  27
ATOM     27  C   UNL A   1      34.215  30.571  27.414  1.00  0.00     0.060 A 
ATOM     28  C   UNL A   1      34.946  29.397  27.604  1.00  0.00     0.016 A 
ATOM     29  C   UNL A   1      34.970  31.709  27.709  1.00  0.00     0.016 A 
ATOM     30  C   UNL A   1      36.127  29.264  28.356  1.00  0.00     0.010 A 
ATOM     31  C   UNL A   1      36.276  31.611  28.318  1.00  0.00     0.010 A 
ATOM     32  C   UNL A   1      36.840  30.379  28.726  1.00  0.00    -0.014 A 
BRANCH  32  33
ATOM     33  C   UNL A   1      38.069  30.245  29.595  1.00  0.00     0.031 A 
ATOM     34  C   UNL A   1      39.234  29.475  29.027  1.00  0.00     0.074 A 
ATOM     35  C   UNL A   1      38.246  30.829  30.808  1.00  0.00     0.049 A 
ATOM     36  N   UNL A   1      40.247  28.911  29.628  1.00  0.00    -0.248 NA
ATOM     37  C   UNL A   1      39.237  29.315  27.564  1.00  0.00     0.031 C 
ATOM     38  C   UNL A   1      37.336  31.772  31.462  1.00  0.00     0.029 A 
ATOM     39  N   UNL A   1      39.271  30.696  31.732  1.00  0.00    -0.354 N 
ATOM     40  C   UNL A   1      40.916  28.199  28.639  1.00  0.00     0.074 A 
ATOM     41  C   UNL A   1      40.234  28.461  27.391  1.00  0.00     0.031 C 
ATOM     42  C   UNL A   1      37.828  32.118  32.665  1.00  0.00     0.029 A 
ATOM     43  C   UNL A   1      39.040  31.350  32.928  1.00  0.00     0.049 A 
ATOM     44  H   UNL A   1      40.092  30.182  31.551  1.00  0.00     0.167 HD
ATOM     45  C   UNL A   1      41.983  27.373  28.768  1.00  0.00     0.034 A 
ATOM     46  C   UNL A   1      39.683  31.288  34.118  1.00  0.00     0.034 A 
ATOM     47  C   UNL A   1      42.709  27.197  29.997  1.00  0.00     0.049 A 
ATOM     48  C   UNL A   1      40.865  30.353  34.257  1.00  0.00     0.074 A 
ATOM     49  C   UNL A   1      43.785  26.368  30.257  1.00  0.00     0.029 A 
ATOM     50  N   UNL A   1      42.445  27.890  31.169  1.00  0.00    -0.354 N 
ATOM     51  N   UNL A   1      41.431  29.593  33.348  1.00  0.00    -0.248 NA
ATOM     52  C   UNL A   1      41.499  30.262  35.583  1.00  0.00     0.031 C 
ATOM     53  C   UNL A   1      44.158  26.546  31.594  1.00  0.00     0.029 A 
ATOM     54  C   UNL A   1      43.344  27.520  32.151  1.00  0.00     0.049 A 
ATOM     55  H   UNL A   1      41.723  28.549  31.284  1.00  0.00     0.167 HD
ATOM     56  C   UNL A   1      42.505  28.972  33.979  1.00  0.00     0.074 A 
ATOM     57  C   UNL A   1      42.523  29.455  35.343  1.00  0.00     0.031 C 
ATOM     58  C   UNL A   1      43.388  28.071  33.481  1.00  0.00     0.034 A 
BRANCH  45  59
ATOM     59  C   UNL A   1      42.363  26.547  27.566  1.00  0.00     0.023 A 
ATOM     60  C   UNL A   1      43.055  27.119  26.481  1.00  0.00     0.012 A 
ATOM     61  C   UNL A   1      41.994  25.187  27.509  1.00  0.00     0.148 A 
ATOM     62  C   UNL A   1      43.315  26.370  25.332  1.00  0.00     0.002 A 
ATOM     63  C   UNL A   1      42.305  24.433  26.385  1.00  0.00     0.091 A 
ATOM     64  F   UNL A   1      41.322  24.663  28.543  1.00  0.00    -0.205 F 
ATOM     65  C   UNL A   1      42.946  25.027  25.287  1.00  0.00     0.022 A 
BRANCH  63  66
ATOM     66  S   UNL A   1      41.943  22.677  26.264  1.00  0.00     0.127 S 
ATOM     67  O   UNL A   1      42.593  22.328  25.002  1.00  0.00    -0.237 OA
ATOM     68  O   UNL A   1      42.605  22.148  27.457  1.00  0.00    -0.237 OA
ATOM     69  O   UNL A   1      40.492  22.561  26.270  1.00  0.00    -0.744 OA
ENDBRANCH  63  66
ENDBRANCH  45  59
BRANCH  46  70
ATOM     70  C   UNL A   1      39.227  32.093  35.303  1.00  0.00     0.023 A 
ATOM     71  C   UNL A   1      39.582  33.456  35.401  1.00  0.00     0.012 A 
ATOM     72  C   UNL A   1      38.484  31.517  36.353  1.00  0.00     0.148 A 
ATOM     73  C   UNL A   1      39.238  34.214  36.526  1.00  0.00     0.002 A 
ATOM     74  C   UNL A   1      38.089  32.293  37.442  1.00  0.00     0.091 A 
ATOM     75  F   UNL A   1      38.180  30.214  36.276  1.00  0.00    -0.205 F 
ATOM     76  C   UNL A   1      38.482  33.636  37.541  1.00  0.00     0.022 A 
BRANCH  74  77
ATOM     77  S   UNL A   1      37.008  31.671  38.738  1.00  0.00     0.127 S 
ATOM     78  O   UNL A   1      36.794  30.289  38.315  1.00  0.00    -0.237 OA
ATOM     79  O   UNL A   1      37.847  31.828  39.927  1.00  0.00    -0.237 OA
ATOM     80  O   UNL A   1      35.832  32.529  38.714  1.00  0.00    -0.744 OA
ENDBRANCH  74  77
ENDBRANCH  46  70
BRANCH  58  81
ATOM     81  C   UNL A   1      44.509  27.614  34.378  1.00  0.00     0.023 A 
ATOM     82  C   UNL A   1      45.732  28.311  34.408  1.00  0.00     0.012 A 
ATOM     83  C   UNL A   1      44.307  26.531  35.257  1.00  0.00     0.148 A 
ATOM     84  C   UNL A   1      46.750  27.915  35.277  1.00  0.00     0.002 A 
ATOM     85  C   UNL A   1      45.304  26.177  36.157  1.00  0.00     0.091 A 
ATOM     86  F   UNL A   1      43.144  25.866  35.198  1.00  0.00    -0.205 F 
ATOM     87  C   UNL A   1      46.531  26.859  36.159  1.00  0.00     0.022 A 
BRANCH  85  88
ATOM     88  S   UNL A   1      45.060  24.901  37.397  1.00  0.00     0.127 S 
ATOM     89  O   UNL A   1      45.102  23.685  36.587  1.00  0.00    -0.237 OA
ATOM     90  O   UNL A   1      46.219  25.092  38.272  1.00  0.00    -0.237 OA
ATOM     91  O   UNL A   1      43.779  25.195  38.026  1.00  0.00    -0.744 OA
ENDBRANCH  85  88
ENDBRANCH  58  81
ENDBRANCH  32  33
ENDBRANCH  25  27
ENDBRANCH  24  25
ENDBRANCH  23  24
ENDBRANCH   1  23
TORSDOF 20
ENDMDL
MODEL 2
REMARK VINA RESULT:     -11.0      1.662      2.096
REMARK SMILES CC[C@@](C)(NC(=O)N1CCCC[C@@H]1C)C(=O)OCCOCCOC(=O)c1ccc(-c2c3nc(c(-c4cccc(S(=O)(=O)[O-])c4F)c4ccc([nH]4)c(-c4cccc(S(=O)(=O)[O-])c4F)c4nc(c(-c5cccc(S(=O)(=O)[O-])c5F)c5ccc2[nH]5)C=C4)C=C3)cc1
REMARK SMILES IDX 21 1 20 2 19 3 18 4 17 5 15 6 16 7 3 8 4 9 2 10 1 11 5 12
REMARK SMILES IDX 6 13 7 15 8 16 9 17 13 18 10 19 12 20 14 21 11 22 22 23
REMARK SMILES IDX 23 24 24 25 25 26 26 27 27 28 88 29 28 30 87 31 29 32 30 33
REMARK SMILES IDX 31 34 81 35 32 36 86 37 80 38 82 39 33 40 85 41 79 42 78 43
REMARK SMILES IDX 34 45 66 46 46 47 65 48 47 49 50 50 64 51 83 52 48 53 49 54
REMARK SMILES IDX 63 56 84 57 51 58 35 59 36 60 44 61 37 62 39 63 45 64 38 65
REMARK SMILES IDX 40 66 41 67 42 68 43 69 67 70 68 71 76 72 69 73 71 74 77 75
REMARK SMILES IDX 70 76 72 77 73 78 74 79 75 80 52 81 53 82 61 83 54 84 56 85
REMARK SMILES IDX 62 86 55 87 57 88 58 89 59 90 60 91
REMARK H PARENT 5 14 82 44 50 55
REMARK Flexibility Score: inf
ROOT
ATOM      1  C   UNL A   1      32.191  28.348  23.248  1.00  0.00     0.202 C 
ENDROOT
BRANCH   1   2
ATOM      2  O   UNL A   1      32.669  27.522  22.149  1.00  0.00    -0.374 OA
BRANCH   2   3
ATOM      3  C   UNL A   1      32.360  26.163  21.750  1.00  0.00     0.202 C 
BRANCH   3   4
ATOM      4  C   UNL A   1      32.805  24.766  22.302  1.00  0.00     0.261 C 
BRANCH   4   5
ATOM      5  O   UNL A   1      33.122  24.699  23.671  1.00  0.00    -0.462 OA
BRANCH   5   6
ATOM      6  C   UNL A   1      32.122  24.189  24.413  1.00  0.00     0.331 C 
ATOM      7  O   UNL A   1      31.333  23.370  23.991  1.00  0.00    -0.249 OA
BRANCH   6   8
ATOM      8  C   UNL A   1      32.161  24.775  25.835  1.00  0.00     0.136 C 
ATOM      9  C   UNL A   1      33.195  25.877  26.065  1.00  0.00     0.047 C 
BRANCH   8  10
ATOM     10  C   UNL A   1      30.719  25.389  26.028  1.00  0.00     0.037 C 
ATOM     11  C   UNL A   1      30.035  25.917  24.753  1.00  0.00     0.007 C 
ENDBRANCH   8  10
BRANCH   8  12
ATOM     12  N   UNL A   1      32.365  23.701  26.871  1.00  0.00    -0.322 N 
ATOM     13  C   UNL A   1      33.270  22.795  27.315  1.00  0.00     0.318 C 
ATOM     14  H   UNL A   1      31.552  23.632  27.422  1.00  0.00     0.166 HD
ATOM     15  O   UNL A   1      32.912  22.223  28.345  1.00  0.00    -0.249 OA
BRANCH  13  16
ATOM     16  N   UNL A   1      34.461  22.466  26.676  1.00  0.00    -0.322 N 
ATOM     17  C   UNL A   1      35.293  23.563  26.136  1.00  0.00     0.121 C 
ATOM     18  C   UNL A   1      34.446  21.227  25.892  1.00  0.00     0.083 C 
ATOM     19  C   UNL A   1      36.435  23.399  25.146  1.00  0.00     0.022 C 
ATOM     20  C   UNL A   1      35.344  21.230  24.632  1.00  0.00     0.025 C 
ATOM     21  C   UNL A   1      33.025  20.839  25.445  1.00  0.00     0.031 C 
ATOM     22  C   UNL A   1      36.660  21.977  24.741  1.00  0.00     0.004 C 
ENDBRANCH  13  16
ENDBRANCH   8  12
ENDBRANCH   6   8
ENDBRANCH   5   6
ENDBRANCH   4   5
ENDBRANCH   3   4
ENDBRANCH   2   3
ENDBRANCH   1   2
BRANCH   1  23
ATOM     23  C   UNL A   1      33.065  29.127  24.458  1.00  0.00     0.261 C 
BRANCH  23  24
ATOM     24  O   UNL A   1      32.540  29.429  25.836  1.00  0.00    -0.460 OA
BRANCH  24  25
ATOM     25  C   UNL A   1      32.860  30.525  26.649  1.00  0.00     0.338 C 
ATOM     26  O   UNL A   1      32.053  31.397  26.944  1.00  0.00    -0.246 OA
BRANCH  25  27
ATOM     27  C   UNL A   1      34.322  30.517  27.249  1.00  0.00     0.060 A 
ATOM     28  C   UNL A   1      35.100  29.365  27.379  1.00  0.00     0.016 A 
ATOM     29  C   UNL A   1      35.021  31.665  27.632  1.00  0.00     0.016 A 
ATOM     30  C   UNL A   1      36.271  29.235  28.147  1.00  0.00     0.010 A 
ATOM     31  C   UNL A   1      36.317  31.584  28.262  1.00  0.00     0.010 A 
ATOM     32  C   UNL A   1      36.928  30.353  28.603  1.00  0.00    -0.014 A 
BRANCH  32  33
ATOM     33  C   UNL A   1      38.145  30.217  29.489  1.00  0.00     0.031 A 
ATOM     34  C   UNL A   1      39.306  29.422  28.946  1.00  0.00     0.074 A 
ATOM     35  C   UNL A   1      38.315  30.817  30.695  1.00  0.00     0.049 A 
ATOM     36  N   UNL A   1      40.304  28.855  29.567  1.00  0.00    -0.248 NA
ATOM     37  C   UNL A   1      39.324  29.240  27.486  1.00  0.00     0.031 C 
ATOM     38  C   UNL A   1      37.410  31.782  31.323  1.00  0.00     0.029 A 
ATOM     39  N   UNL A   1      39.328  30.684  31.632  1.00  0.00    -0.354 N 
ATOM     40  C   UNL A   1      40.975  28.118  28.597  1.00  0.00     0.074 A 
ATOM     41  C   UNL A   1      40.310  28.370  27.338  1.00  0.00     0.031 C 
ATOM     42  C   UNL A   1      37.894  32.140  32.527  1.00  0.00     0.029 A 
ATOM     43  C   UNL A   1      39.092  31.360  32.815  1.00  0.00     0.049 A 
ATOM     44  H   UNL A   1      40.143  30.156  31.469  1.00  0.00     0.167 HD
ATOM     45  C   UNL A   1      42.029  27.280  28.752  1.00  0.00     0.034 A 
ATOM     46  C   UNL A   1      39.720  31.307  34.013  1.00  0.00     0.034 A 
ATOM     47  C   UNL A   1      42.738  27.114  29.991  1.00  0.00     0.049 A 
ATOM     48  C   UNL A   1      40.888  30.358  34.181  1.00  0.00     0.074 A 
ATOM     49  C   UNL A   1      43.800  26.275  30.276  1.00  0.00     0.029 A 
ATOM     50  N   UNL A   1      42.470  27.828  31.149  1.00  0.00    -0.354 N 
ATOM     51  N   UNL A   1      41.453  29.578  33.291  1.00  0.00    -0.248 NA
ATOM     52  C   UNL A   1      41.504  30.280  35.515  1.00  0.00     0.031 C 
ATOM     53  C   UNL A   1      44.160  26.468  31.615  1.00  0.00     0.029 A 
ATOM     54  C   UNL A   1      43.353  27.461  32.148  1.00  0.00     0.049 A 
ATOM     55  H   UNL A   1      41.756  28.499  31.246  1.00  0.00     0.167 HD
ATOM     56  C   UNL A   1      42.512  28.952  33.943  1.00  0.00     0.074 A 
ATOM     57  C   UNL A   1      42.520  29.456  35.300  1.00  0.00     0.031 C 
ATOM     58  C   UNL A   1      43.388  28.032  33.469  1.00  0.00     0.034 A 
BRANCH  45  59
ATOM     59  C   UNL A   1      42.411  26.431  27.567  1.00  0.00     0.023 A 
ATOM     60  C   UNL A   1      43.156  26.968  26.498  1.00  0.00     0.012 A 
ATOM     61  C   UNL A   1      41.993  25.085  27.508  1.00  0.00     0.148 A 
ATOM     62  C   UNL A   1      43.420  26.201  25.363  1.00  0.00     0.002 A 
ATOM     63  C   UNL A   1      42.308  24.311  26.399  1.00  0.00     0.091 A 
ATOM     64  F   UNL A   1      41.272  24.595  28.526  1.00  0.00    -0.205 F 
ATOM     65  C   UNL A   1      43.002  24.872  25.316  1.00  0.00     0.022 A 
BRANCH  63  66
ATOM     66  S   UNL A   1      41.884  22.570  26.280  1.00  0.00     0.127 S 
ATOM     67  O   UNL A   1      40.422  22.622  26.269  1.00  0.00    -0.237 OA
ATOM     68  O   UNL A   1      42.489  22.196  25.001  1.00  0.00    -0.237 OA
ATOM     69  O   UNL A   1      42.475  21.928  27.445  1.00  0.00    -0.744 OA
ENDBRANCH  63  66
ENDBRANCH  45  59
BRANCH  46  70
ATOM     70  C   UNL A   1      39.261  32.137  35.181  1.00  0.00     0.023 A 
ATOM     71  C   UNL A   1      38.273  31.631  36.053  1.00  0.00     0.012 A 
ATOM     72  C   UNL A   1      39.761  33.435  35.415  1.00  0.00     0.148 A 
ATOM     73  C   UNL A   1      37.771  32.406  37.104  1.00  0.00     0.002 A 
ATOM     74  C   UNL A   1      39.303  34.177  36.501  1.00  0.00     0.091 A 
ATOM     75  F   UNL A   1      40.672  33.927  34.564  1.00  0.00    -0.205 F 
ATOM     76  C   UNL A   1      38.294  33.674  37.335  1.00  0.00     0.022 A 
BRANCH  74  77
ATOM     77  S   UNL A   1      40.005  35.770  36.954  1.00  0.00     0.127 S 
ATOM     78  O   UNL A   1      39.656  36.593  35.798  1.00  0.00    -0.237 OA
ATOM     79  O   UNL A   1      39.268  36.085  38.179  1.00  0.00    -0.237 OA
ATOM     80  O   UNL A   1      41.427  35.530  37.153  1.00  0.00    -0.744 OA
ENDBRANCH  74  77
ENDBRANCH  46  70
BRANCH  58  81
ATOM     81  C   UNL A   1      44.493  27.574  34.386  1.00  0.00     0.023 A 
ATOM     82  C   UNL A   1      45.686  28.313  34.496  1.00  0.00     0.012 A 
ATOM     83  C   UNL A   1      44.301  26.443  35.205  1.00  0.00     0.148 A 
ATOM     84  C   UNL A   1      46.686  27.914  35.384  1.00  0.00     0.002 A 
ATOM     85  C   UNL A   1      45.278  26.083  36.125  1.00  0.00     0.091 A 
ATOM     86  F   UNL A   1      43.168  25.738  35.070  1.00  0.00    -0.205 F 
ATOM     87  C   UNL A   1      46.476  26.809  36.207  1.00  0.00     0.022 A 
BRANCH  85  88
ATOM     88  S   UNL A   1      45.038  24.740  37.294  1.00  0.00     0.127 S 
ATOM     89  O   UNL A   1      46.344  24.678  37.948  1.00  0.00    -0.237 OA
ATOM     90  O   UNL A   1      43.956  25.251  38.138  1.00  0.00    -0.237 OA
ATOM     91  O   UNL A   1      44.679  23.576  36.496  1.00  0.00    -0.744 OA
ENDBRANCH  85  88
ENDBRANCH  58  81
ENDBRANCH  32  33
ENDBRANCH  25  27
ENDBRANCH  24  25
ENDBRANCH  23  24
ENDBRANCH   1  23
TORSDOF 20
ENDMDL
MODEL 3
REMARK VINA RESULT:     -11.0      5.286      8.113
REMARK SMILES CC[C@@](C)(NC(=O)N1CCCC[C@@H]1C)C(=O)OCCOCCOC(=O)c1ccc(-c2c3nc(c(-c4cccc(S(=O)(=O)[O-])c4F)c4ccc([nH]4)c(-c4cccc(S(=O)(=O)[O-])c4F)c4nc(c(-c5cccc(S(=O)(=O)[O-])c5F)c5ccc2[nH]5)C=C4)C=C3)cc1
REMARK SMILES IDX 21 1 20 2 19 3 18 4 17 5 15 6 16 7 3 8 4 9 2 10 1 11 5 12
REMARK SMILES IDX 6 13 7 15 8 16 9 17 13 18 10 19 12 20 14 21 11 22 22 23
REMARK SMILES IDX 23 24 24 25 25 26 26 27 27 28 88 29 28 30 87 31 29 32 30 33
REMARK SMILES IDX 31 34 81 35 32 36 86 37 80 38 82 39 33 40 85 41 79 42 78 43
REMARK SMILES IDX 34 45 66 46 46 47 65 48 47 49 50 50 64 51 83 52 48 53 49 54
REMARK SMILES IDX 63 56 84 57 51 58 35 59 36 60 44 61 37 62 39 63 45 64 38 65
REMARK SMILES IDX 40 66 41 67 42 68 43 69 67 70 68 71 76 72 69 73 71 74 77 75
REMARK SMILES IDX 70 76 72 77 73 78 74 79 75 80 52 81 53 82 61 83 54 84 56 85
REMARK SMILES IDX 62 86 55 87 57 88 58 89 59 90 60 91
REMARK H PARENT 5 14 82 44 50 55
REMARK Flexibility Score: inf
ROOT
ATOM      1  C   UNL A   1      37.748  20.537  24.953  1.00  0.00     0.202 C 
ENDROOT
BRANCH   1   2
ATOM      2  O   UNL A   1      37.293  21.723  25.665  1.00  0.00    -0.374 OA
BRANCH   2   3
ATOM      3  C   UNL A   1      37.087  23.093  25.240  1.00  0.00     0.202 C 
BRANCH   3   4
ATOM      4  C   UNL A   1      35.825  23.869  24.730  1.00  0.00     0.261 C 
BRANCH   4   5
ATOM      5  O   UNL A   1      34.611  23.158  24.708  1.00  0.00    -0.462 OA
BRANCH   5   6
ATOM      6  C   UNL A   1      34.048  23.127  23.486  1.00  0.00     0.331 C 
ATOM      7  O   UNL A   1      34.659  23.372  22.467  1.00  0.00    -0.249 OA
BRANCH   6   8
ATOM      8  C   UNL A   1      32.568  22.719  23.591  1.00  0.00     0.136 C 
ATOM      9  C   UNL A   1      32.127  21.598  22.650  1.00  0.00     0.047 C 
BRANCH   8  10
ATOM     10  C   UNL A   1      32.422  22.213  25.080  1.00  0.00     0.037 C 
ATOM     11  C   UNL A   1      31.045  22.432  25.735  1.00  0.00     0.007 C 
ENDBRANCH   8  10
BRANCH   8  12
ATOM     12  N   UNL A   1      31.653  23.898  23.395  1.00  0.00    -0.322 N 
ATOM     13  C   UNL A   1      31.462  25.185  23.776  1.00  0.00     0.318 C 
ATOM     14  H   UNL A   1      30.939  23.646  22.766  1.00  0.00     0.166 HD
ATOM     15  O   UNL A   1      30.551  25.739  23.161  1.00  0.00    -0.249 OA
BRANCH  13  16
ATOM     16  N   UNL A   1      32.155  25.836  24.793  1.00  0.00    -0.322 N 
ATOM     17  C   UNL A   1      31.376  26.477  25.874  1.00  0.00     0.121 C 
ATOM     18  C   UNL A   1      33.381  26.531  24.387  1.00  0.00     0.083 C 
ATOM     19  C   UNL A   1      31.918  27.487  26.871  1.00  0.00     0.022 C 
ATOM     20  C   UNL A   1      33.709  27.816  25.185  1.00  0.00     0.025 C 
ATOM     21  C   UNL A   1      33.370  26.905  22.894  1.00  0.00     0.031 C 
ATOM     22  C   UNL A   1      33.366  27.799  26.663  1.00  0.00     0.004 C 
ENDBRANCH  13  16
ENDBRANCH   8  12
ENDBRANCH   6   8
ENDBRANCH   5   6
ENDBRANCH   4   5
ENDBRANCH   3   4
ENDBRANCH   2   3
ENDBRANCH   1   2
BRANCH   1  23
ATOM     23  C   UNL A   1      38.883  19.382  25.415  1.00  0.00     0.261 C 
BRANCH  23  24
ATOM     24  O   UNL A   1      40.339  19.665  25.672  1.00  0.00    -0.460 OA
BRANCH  24  25
ATOM     25  C   UNL A   1      40.957  19.895  26.908  1.00  0.00     0.338 C 
ATOM     26  O   UNL A   1      41.450  19.003  27.588  1.00  0.00    -0.246 OA
BRANCH  25  27
ATOM     27  C   UNL A   1      41.067  21.413  27.336  1.00  0.00     0.060 A 
ATOM     28  C   UNL A   1      40.236  22.420  26.842  1.00  0.00     0.016 A 
ATOM     29  C   UNL A   1      41.946  21.893  28.311  1.00  0.00     0.016 A 
ATOM     30  C   UNL A   1      40.450  23.806  26.954  1.00  0.00     0.010 A 
ATOM     31  C   UNL A   1      42.066  23.305  28.589  1.00  0.00     0.010 A 
ATOM     32  C   UNL A   1      41.371  24.293  27.850  1.00  0.00    -0.014 A 
BRANCH  32  33
ATOM     33  C   UNL A   1      41.657  25.775  27.922  1.00  0.00     0.031 A 
ATOM     34  C   UNL A   1      42.915  26.267  27.252  1.00  0.00     0.074 A 
ATOM     35  C   UNL A   1      40.838  26.712  28.465  1.00  0.00     0.049 A 
ATOM     36  N   UNL A   1      43.588  27.372  27.429  1.00  0.00    -0.248 NA
ATOM     37  C   UNL A   1      43.494  25.364  26.245  1.00  0.00     0.031 C 
ATOM     38  C   UNL A   1      39.489  26.490  28.991  1.00  0.00     0.029 A 
ATOM     39  N   UNL A   1      41.036  28.067  28.681  1.00  0.00    -0.354 N 
ATOM     40  C   UNL A   1      44.748  27.224  26.676  1.00  0.00     0.074 A 
ATOM     41  C   UNL A   1      44.650  25.955  25.989  1.00  0.00     0.031 C 
ATOM     42  C   UNL A   1      38.993  27.645  29.472  1.00  0.00     0.029 A 
ATOM     43  C   UNL A   1      40.018  28.680  29.388  1.00  0.00     0.049 A 
ATOM     44  H   UNL A   1      41.832  28.550  28.358  1.00  0.00     0.167 HD
ATOM     45  C   UNL A   1      45.814  28.057  26.594  1.00  0.00     0.034 A 
ATOM     46  C   UNL A   1      39.942  29.903  29.963  1.00  0.00     0.034 A 
ATOM     47  C   UNL A   1      45.856  29.357  27.206  1.00  0.00     0.049 A 
ATOM     48  C   UNL A   1      41.143  30.822  29.879  1.00  0.00     0.074 A 
ATOM     49  C   UNL A   1      46.889  30.277  27.217  1.00  0.00     0.029 A 
ATOM     50  N   UNL A   1      44.799  29.934  27.895  1.00  0.00    -0.354 N 
ATOM     51  N   UNL A   1      42.284  30.636  29.259  1.00  0.00    -0.248 NA
ATOM     52  C   UNL A   1      41.048  32.117  30.572  1.00  0.00     0.031 C 
ATOM     53  C   UNL A   1      46.462  31.402  27.931  1.00  0.00     0.029 A 
ATOM     54  C   UNL A   1      45.148  31.201  28.324  1.00  0.00     0.049 A 
ATOM     55  H   UNL A   1      43.929  29.504  28.055  1.00  0.00     0.167 HD
ATOM     56  C   UNL A   1      43.022  31.802  29.451  1.00  0.00     0.074 A 
ATOM     57  C   UNL A   1      42.192  32.695  30.231  1.00  0.00     0.031 C 
ATOM     58  C   UNL A   1      44.277  32.101  29.035  1.00  0.00     0.034 A 
BRANCH  45  59
ATOM     59  C   UNL A   1      47.038  27.540  25.883  1.00  0.00     0.023 A 
ATOM     60  C   UNL A   1      48.038  26.834  26.579  1.00  0.00     0.012 A 
ATOM     61  C   UNL A   1      47.203  27.792  24.505  1.00  0.00     0.148 A 
ATOM     62  C   UNL A   1      49.212  26.445  25.931  1.00  0.00     0.002 A 
ATOM     63  C   UNL A   1      48.349  27.353  23.854  1.00  0.00     0.091 A 
ATOM     64  F   UNL A   1      46.249  28.479  23.862  1.00  0.00    -0.205 F 
ATOM     65  C   UNL A   1      49.365  26.699  24.570  1.00  0.00     0.022 A 
BRANCH  63  66
ATOM     66  S   UNL A   1      48.602  27.561  22.088  1.00  0.00     0.127 S 
ATOM     67  O   UNL A   1      48.836  26.183  21.658  1.00  0.00    -0.237 OA
ATOM     68  O   UNL A   1      47.320  28.123  21.662  1.00  0.00    -0.237 OA
ATOM     69  O   UNL A   1      49.738  28.459  21.944  1.00  0.00    -0.744 OA
ENDBRANCH  63  66
ENDBRANCH  45  59
BRANCH  46  70
ATOM     70  C   UNL A   1      38.715  30.348  30.710  1.00  0.00     0.023 A 
ATOM     71  C   UNL A   1      38.565  30.010  32.072  1.00  0.00     0.012 A 
ATOM     72  C   UNL A   1      37.678  31.065  30.079  1.00  0.00     0.148 A 
ATOM     73  C   UNL A   1      37.402  30.344  32.776  1.00  0.00     0.002 A 
ATOM     74  C   UNL A   1      36.551  31.451  30.801  1.00  0.00     0.091 A 
ATOM     75  F   UNL A   1      37.807  31.353  28.776  1.00  0.00    -0.205 F 
ATOM     76  C   UNL A   1      36.401  31.074  32.144  1.00  0.00     0.022 A 
BRANCH  74  77
ATOM     77  S   UNL A   1      35.265  32.500  30.108  1.00  0.00     0.127 S 
ATOM     78  O   UNL A   1      34.354  32.649  31.241  1.00  0.00    -0.237 OA
ATOM     79  O   UNL A   1      36.017  33.706  29.761  1.00  0.00    -0.237 OA
ATOM     80  O   UNL A   1      34.737  31.771  28.964  1.00  0.00    -0.744 OA
ENDBRANCH  74  77
ENDBRANCH  46  70
BRANCH  58  81
ATOM     81  C   UNL A   1      44.805  33.482  29.326  1.00  0.00     0.023 A 
ATOM     82  C   UNL A   1      45.455  33.759  30.543  1.00  0.00     0.012 A 
ATOM     83  C   UNL A   1      44.723  34.486  28.341  1.00  0.00     0.148 A 
ATOM     84  C   UNL A   1      45.986  35.026  30.790  1.00  0.00     0.002 A 
ATOM     85  C   UNL A   1      45.301  35.728  28.571  1.00  0.00     0.091 A 
ATOM     86  F   UNL A   1      44.079  34.210  27.197  1.00  0.00    -0.205 F 
ATOM     87  C   UNL A   1      45.922  36.004  29.799  1.00  0.00     0.022 A 
BRANCH  85  88
ATOM     88  S   UNL A   1      45.356  37.003  27.307  1.00  0.00     0.127 S 
ATOM     89  O   UNL A   1      43.936  37.224  27.044  1.00  0.00    -0.237 OA
ATOM     90  O   UNL A   1      46.027  38.103  28.003  1.00  0.00    -0.237 OA
ATOM     91  O   UNL A   1      46.119  36.437  26.202  1.00  0.00    -0.744 OA
ENDBRANCH  85  88
ENDBRANCH  58  81
ENDBRANCH  32  33
ENDBRANCH  25  27
ENDBRANCH  24  25
ENDBRANCH  23  24
ENDBRANCH   1  23
TORSDOF 20
ENDMDL
