MODEL 1
REMARK VINA RESULT:     -10.6      0.000      0.000
REMARK SMILES COc1cc(/N=C/Cc2nnnn2-c2ccc(Cl)cc2)c(Cl)cc1C(=O)OCCOCCOC(=O)c1ccc(-c2c3nc(c(-c4cccc(S(=O)(=O)[O-])c4F)c4ccc([nH]4)c(-c4cccc(S(=O)(=O)[O-])c4F)c4nc(c(-c5cccc(S(=O)(=O)[O-])c5F)c5ccc2[nH]5)C=C4)C=C3)cc1
REMARK SMILES IDX 29 1 28 2 27 3 25 4 26 5 24 6 3 7 4 8 5 9 23 10 21 11 22 12
REMARK SMILES IDX 2 13 1 14 6 15 7 16 8 17 9 18 10 19 13 20 11 21 12 22 14 23
REMARK SMILES IDX 15 24 20 25 16 26 19 27 17 28 18 29 30 30 31 31 32 32 33 33
REMARK SMILES IDX 34 34 35 35 36 36 37 37 98 38 38 39 97 40 39 41 40 42 41 43
REMARK SMILES IDX 91 44 42 45 96 46 90 47 92 48 43 49 95 50 89 51 88 52 44 54
REMARK SMILES IDX 76 55 56 56 75 57 57 58 60 59 74 60 93 61 58 62 59 63 73 65
REMARK SMILES IDX 94 66 61 67 45 68 46 69 54 70 47 71 49 72 55 73 48 74 50 75
REMARK SMILES IDX 51 76 52 77 53 78 77 79 78 80 86 81 79 82 81 83 87 84 80 85
REMARK SMILES IDX 82 86 83 87 84 88 85 89 62 90 63 91 71 92 64 93 66 94 72 95
REMARK SMILES IDX 65 96 67 97 68 98 69 99 70 100
REMARK H PARENT 92 53 60 64
REMARK Flexibility Score: inf
ROOT
ATOM      1  C   UNL A   1      43.765  19.400  25.080  1.00  0.00     0.202 C 
ENDROOT
BRANCH   1   2
ATOM      2  C   UNL A   1      42.523  18.864  25.792  1.00  0.00     0.261 C 
BRANCH   2   3
ATOM      3  O   UNL A   1      41.356  19.657  25.515  1.00  0.00    -0.460 OA
BRANCH   3   4
ATOM      4  C   UNL A   1      40.710  20.116  26.614  1.00  0.00     0.342 C 
ATOM      5  O   UNL A   1      40.995  19.891  27.780  1.00  0.00    -0.246 OA
BRANCH   4   6
ATOM      6  C   UNL A   1      39.727  21.158  26.258  1.00  0.00     0.103 A 
ATOM      7  C   UNL A   1      38.675  20.963  25.367  1.00  0.00     0.135 A 
ATOM      8  C   UNL A   1      37.683  21.949  25.263  1.00  0.00     0.077 A 
ATOM      9  C   UNL A   1      37.771  23.167  25.962  1.00  0.00     0.085 A 
ATOM     10  C   UNL A   1      39.871  22.391  26.910  1.00  0.00     0.042 A 
ATOM     11  C   UNL A   1      38.932  23.406  26.721  1.00  0.00     0.067 A 
ATOM     12  Cl  UNL A   1      39.282  24.939  27.445  1.00  0.00    -0.082 Cl
BRANCH   7  13
ATOM     13  O   UNL A   1      38.585  19.783  24.677  1.00  0.00    -0.496 OA
ATOM     14  C   UNL A   1      37.488  18.976  25.124  1.00  0.00     0.278 C 
ENDBRANCH   7  13
BRANCH   9  15
ATOM     15  N   UNL A   1      36.664  24.040  25.836  1.00  0.00    -0.259 NA
ATOM     16  C   UNL A   1      35.829  23.831  24.868  1.00  0.00     0.092 C 
BRANCH  16  17
ATOM     17  C   UNL A   1      34.682  24.778  24.599  1.00  0.00     0.127 C 
BRANCH  17  18
ATOM     18  C   UNL A   1      33.681  24.030  23.790  1.00  0.00     0.162 A 
ATOM     19  N   UNL A   1      33.787  22.768  23.416  1.00  0.00    -0.113 NA
ATOM     20  N   UNL A   1      32.380  24.436  23.551  1.00  0.00    -0.197 N 
ATOM     21  N   UNL A   1      32.526  22.357  23.085  1.00  0.00    -0.023 NA
ATOM     22  N   UNL A   1      31.652  23.338  23.242  1.00  0.00    -0.040 NA
BRANCH  20  23
ATOM     23  C   UNL A   1      31.794  25.718  23.577  1.00  0.00     0.069 A 
ATOM     24  C   UNL A   1      31.406  26.349  22.387  1.00  0.00     0.030 A 
ATOM     25  C   UNL A   1      31.558  26.337  24.813  1.00  0.00     0.030 A 
ATOM     26  C   UNL A   1      30.795  27.605  22.439  1.00  0.00     0.023 A 
ATOM     27  C   UNL A   1      30.981  27.608  24.853  1.00  0.00     0.023 A 
ATOM     28  C   UNL A   1      30.597  28.234  23.668  1.00  0.00     0.041 A 
ATOM     29  Cl  UNL A   1      29.860  29.787  23.726  1.00  0.00    -0.084 Cl
ENDBRANCH  20  23
ENDBRANCH  17  18
ENDBRANCH  16  17
ENDBRANCH   9  15
ENDBRANCH   4   6
ENDBRANCH   3   4
ENDBRANCH   2   3
ENDBRANCH   1   2
BRANCH   1  30
ATOM     30  O   UNL A   1      43.841  20.807  24.835  1.00  0.00    -0.374 OA
BRANCH  30  31
ATOM     31  C   UNL A   1      43.918  21.706  25.935  1.00  0.00     0.202 C 
BRANCH  31  32
ATOM     32  C   UNL A   1      44.198  23.176  25.656  1.00  0.00     0.261 C 
BRANCH  32  33
ATOM     33  O   UNL A   1      43.383  24.034  26.435  1.00  0.00    -0.460 OA
BRANCH  33  34
ATOM     34  C   UNL A   1      43.113  25.214  25.830  1.00  0.00     0.338 C 
ATOM     35  O   UNL A   1      43.436  25.559  24.708  1.00  0.00    -0.246 OA
BRANCH  34  36
ATOM     36  C   UNL A   1      42.489  26.103  26.810  1.00  0.00     0.060 A 
ATOM     37  C   UNL A   1      41.713  27.139  26.285  1.00  0.00     0.016 A 
ATOM     38  C   UNL A   1      42.955  26.102  28.132  1.00  0.00     0.016 A 
ATOM     39  C   UNL A   1      41.607  28.296  27.015  1.00  0.00     0.010 A 
ATOM     40  C   UNL A   1      42.877  27.269  28.845  1.00  0.00     0.010 A 
ATOM     41  C   UNL A   1      42.278  28.369  28.237  1.00  0.00    -0.014 A 
BRANCH  41  42
ATOM     42  C   UNL A   1      42.261  29.627  28.940  1.00  0.00     0.031 A 
ATOM     43  C   UNL A   1      43.401  30.482  28.559  1.00  0.00     0.074 A 
ATOM     44  C   UNL A   1      41.233  29.975  29.735  1.00  0.00     0.049 A 
ATOM     45  N   UNL A   1      44.440  30.772  29.269  1.00  0.00    -0.248 NA
ATOM     46  C   UNL A   1      43.515  30.855  27.140  1.00  0.00     0.031 C 
ATOM     47  C   UNL A   1      39.952  29.278  29.890  1.00  0.00     0.029 A 
ATOM     48  N   UNL A   1      41.055  31.117  30.448  1.00  0.00    -0.354 N 
ATOM     49  C   UNL A   1      45.191  31.610  28.451  1.00  0.00     0.074 A 
ATOM     50  C   UNL A   1      44.746  31.365  27.109  1.00  0.00     0.031 C 
ATOM     51  C   UNL A   1      39.052  30.133  30.425  1.00  0.00     0.029 A 
ATOM     52  C   UNL A   1      39.723  31.381  30.747  1.00  0.00     0.049 A 
ATOM     53  H   UNL A   1      41.797  31.701  30.727  1.00  0.00     0.167 HD
ATOM     54  C   UNL A   1      45.818  32.697  28.975  1.00  0.00     0.034 A 
ATOM     55  C   UNL A   1      39.211  32.581  31.117  1.00  0.00     0.034 A 
ATOM     56  C   UNL A   1      45.960  32.571  30.408  1.00  0.00     0.049 A 
ATOM     57  C   UNL A   1      40.343  33.422  31.575  1.00  0.00     0.074 A 
ATOM     58  C   UNL A   1      46.515  31.639  31.262  1.00  0.00     0.029 A 
ATOM     59  N   UNL A   1      45.120  33.341  31.174  1.00  0.00    -0.354 N 
ATOM     60  N   UNL A   1      41.030  33.185  32.657  1.00  0.00    -0.248 NA
ATOM     61  C   UNL A   1      40.987  34.295  30.607  1.00  0.00     0.031 C 
ATOM     62  C   UNL A   1      45.667  31.630  32.408  1.00  0.00     0.029 A 
ATOM     63  C   UNL A   1      44.671  32.590  32.222  1.00  0.00     0.049 A 
ATOM     64  H   UNL A   1      44.881  34.280  30.997  1.00  0.00     0.167 HD
ATOM     65  C   UNL A   1      42.341  33.478  32.303  1.00  0.00     0.074 A 
ATOM     66  C   UNL A   1      42.233  34.280  31.087  1.00  0.00     0.031 C 
ATOM     67  C   UNL A   1      43.382  32.785  32.852  1.00  0.00     0.034 A 
BRANCH  54  68
ATOM     68  C   UNL A   1      45.870  34.059  28.298  1.00  0.00     0.023 A 
ATOM     69  C   UNL A   1      47.135  34.684  28.248  1.00  0.00     0.012 A 
ATOM     70  C   UNL A   1      44.750  34.876  28.002  1.00  0.00     0.148 A 
ATOM     71  C   UNL A   1      47.270  36.058  28.031  1.00  0.00     0.002 A 
ATOM     72  C   UNL A   1      44.893  36.228  27.720  1.00  0.00     0.091 A 
ATOM     73  F   UNL A   1      43.510  34.401  28.098  1.00  0.00    -0.205 F 
ATOM     74  C   UNL A   1      46.147  36.835  27.773  1.00  0.00     0.022 A 
BRANCH  72  75
ATOM     75  S   UNL A   1      43.469  37.266  27.352  1.00  0.00     0.127 S 
ATOM     76  O   UNL A   1      42.809  37.322  28.652  1.00  0.00    -0.237 OA
ATOM     77  O   UNL A   1      44.113  38.508  26.925  1.00  0.00    -0.237 OA
ATOM     78  O   UNL A   1      42.736  36.581  26.294  1.00  0.00    -0.744 OA
ENDBRANCH  72  75
ENDBRANCH  54  68
BRANCH  55  79
ATOM     79  C   UNL A   1      37.872  33.158  30.853  1.00  0.00     0.023 A 
ATOM     80  C   UNL A   1      37.319  33.056  29.560  1.00  0.00     0.012 A 
ATOM     81  C   UNL A   1      37.024  33.564  31.908  1.00  0.00     0.148 A 
ATOM     82  C   UNL A   1      35.961  33.312  29.333  1.00  0.00     0.002 A 
ATOM     83  C   UNL A   1      35.678  33.833  31.675  1.00  0.00     0.091 A 
ATOM     84  F   UNL A   1      37.510  33.595  33.155  1.00  0.00    -0.205 F 
ATOM     85  C   UNL A   1      35.139  33.694  30.390  1.00  0.00     0.022 A 
BRANCH  83  86
ATOM     86  S   UNL A   1      34.558  34.316  32.995  1.00  0.00     0.127 S 
ATOM     87  O   UNL A   1      35.102  35.613  33.397  1.00  0.00    -0.237 OA
ATOM     88  O   UNL A   1      33.275  34.380  32.298  1.00  0.00    -0.237 OA
ATOM     89  O   UNL A   1      34.670  33.280  34.015  1.00  0.00    -0.744 OA
ENDBRANCH  83  86
ENDBRANCH  55  79
BRANCH  67  90
ATOM     90  C   UNL A   1      43.108  31.952  34.077  1.00  0.00     0.023 A 
ATOM     91  C   UNL A   1      43.098  32.494  35.379  1.00  0.00     0.012 A 
ATOM     92  C   UNL A   1      42.691  30.624  33.888  1.00  0.00     0.148 A 
ATOM     93  C   UNL A   1      42.705  31.717  36.471  1.00  0.00     0.002 A 
ATOM     94  C   UNL A   1      42.255  29.871  34.969  1.00  0.00     0.091 A 
ATOM     95  F   UNL A   1      42.705  30.126  32.643  1.00  0.00    -0.205 F 
ATOM     96  C   UNL A   1      42.269  30.409  36.265  1.00  0.00     0.022 A 
BRANCH  94  97
ATOM     97  S   UNL A   1      41.564  28.232  34.744  1.00  0.00     0.127 S 
ATOM     98  O   UNL A   1      41.215  27.856  36.113  1.00  0.00    -0.237 OA
ATOM     99  O   UNL A   1      40.419  28.488  33.868  1.00  0.00    -0.237 OA
ATOM    100  O   UNL A   1      42.617  27.437  34.122  1.00  0.00    -0.744 OA
ENDBRANCH  94  97
ENDBRANCH  67  90
ENDBRANCH  41  42
ENDBRANCH  34  36
ENDBRANCH  33  34
ENDBRANCH  32  33
ENDBRANCH  31  32
ENDBRANCH  30  31
ENDBRANCH   1  30
TORSDOF 22
ENDMDL
MODEL 2
REMARK VINA RESULT:     -10.3      1.715      2.034
REMARK SMILES COc1cc(/N=C/Cc2nnnn2-c2ccc(Cl)cc2)c(Cl)cc1C(=O)OCCOCCOC(=O)c1ccc(-c2c3nc(c(-c4cccc(S(=O)(=O)[O-])c4F)c4ccc([nH]4)c(-c4cccc(S(=O)(=O)[O-])c4F)c4nc(c(-c5cccc(S(=O)(=O)[O-])c5F)c5ccc2[nH]5)C=C4)C=C3)cc1
REMARK SMILES IDX 29 1 28 2 27 3 25 4 26 5 24 6 3 7 4 8 5 9 23 10 21 11 22 12
REMARK SMILES IDX 2 13 1 14 6 15 7 16 8 17 9 18 10 19 13 20 11 21 12 22 14 23
REMARK SMILES IDX 15 24 20 25 16 26 19 27 17 28 18 29 30 30 31 31 32 32 33 33
REMARK SMILES IDX 34 34 35 35 36 36 37 37 98 38 38 39 97 40 39 41 40 42 41 43
REMARK SMILES IDX 91 44 42 45 96 46 90 47 92 48 43 49 95 50 89 51 88 52 44 54
REMARK SMILES IDX 76 55 56 56 75 57 57 58 60 59 74 60 93 61 58 62 59 63 73 65
REMARK SMILES IDX 94 66 61 67 45 68 46 69 54 70 47 71 49 72 55 73 48 74 50 75
REMARK SMILES IDX 51 76 52 77 53 78 77 79 78 80 86 81 79 82 81 83 87 84 80 85
REMARK SMILES IDX 82 86 83 87 84 88 85 89 62 90 63 91 71 92 64 93 66 94 72 95
REMARK SMILES IDX 65 96 67 97 68 98 69 99 70 100
REMARK H PARENT 92 53 60 64
REMARK Flexibility Score: inf
ROOT
ATOM      1  C   UNL A   1      43.990  19.471  24.918  1.00  0.00     0.202 C 
ENDROOT
BRANCH   1   2
ATOM      2  C   UNL A   1      42.715  19.253  25.731  1.00  0.00     0.261 C 
BRANCH   2   3
ATOM      3  O   UNL A   1      41.855  20.406  25.710  1.00  0.00    -0.460 OA
BRANCH   3   4
ATOM      4  C   UNL A   1      40.861  20.388  26.630  1.00  0.00     0.342 C 
ATOM      5  O   UNL A   1      40.868  19.810  27.706  1.00  0.00    -0.246 OA
BRANCH   4   6
ATOM      6  C   UNL A   1      39.814  21.376  26.303  1.00  0.00     0.103 A 
ATOM      7  C   UNL A   1      38.666  21.079  25.573  1.00  0.00     0.135 A 
ATOM      8  C   UNL A   1      37.643  22.036  25.502  1.00  0.00     0.077 A 
ATOM      9  C   UNL A   1      37.783  23.317  26.066  1.00  0.00     0.085 A 
ATOM     10  C   UNL A   1      40.004  22.668  26.812  1.00  0.00     0.042 A 
ATOM     11  C   UNL A   1      39.021  23.646  26.647  1.00  0.00     0.067 A 
ATOM     12  Cl  UNL A   1      39.417  25.247  27.174  1.00  0.00    -0.082 Cl
BRANCH   7  13
ATOM     13  O   UNL A   1      38.523  19.837  25.015  1.00  0.00    -0.496 OA
ATOM     14  C   UNL A   1      37.149  19.443  24.912  1.00  0.00     0.278 C 
ENDBRANCH   7  13
BRANCH   9  15
ATOM     15  N   UNL A   1      36.646  24.157  25.997  1.00  0.00    -0.259 NA
ATOM     16  C   UNL A   1      35.765  23.919  25.078  1.00  0.00     0.092 C 
BRANCH  16  17
ATOM     17  C   UNL A   1      34.578  24.830  24.869  1.00  0.00     0.127 C 
BRANCH  17  18
ATOM     18  C   UNL A   1      34.158  24.680  23.449  1.00  0.00     0.162 A 
ATOM     19  N   UNL A   1      34.576  23.739  22.623  1.00  0.00    -0.113 NA
ATOM     20  N   UNL A   1      33.072  25.308  22.864  1.00  0.00    -0.197 N 
ATOM     21  N   UNL A   1      33.666  23.690  21.603  1.00  0.00    -0.023 NA
ATOM     22  N   UNL A   1      32.706  24.582  21.782  1.00  0.00    -0.040 NA
BRANCH  20  23
ATOM     23  C   UNL A   1      32.388  26.489  23.218  1.00  0.00     0.069 A 
ATOM     24  C   UNL A   1      31.532  26.512  24.327  1.00  0.00     0.030 A 
ATOM     25  C   UNL A   1      32.612  27.657  22.474  1.00  0.00     0.030 A 
ATOM     26  C   UNL A   1      30.892  27.704  24.680  1.00  0.00     0.023 A 
ATOM     27  C   UNL A   1      31.938  28.832  22.812  1.00  0.00     0.023 A 
ATOM     28  C   UNL A   1      31.087  28.853  23.914  1.00  0.00     0.041 A 
ATOM     29  Cl  UNL A   1      30.283  30.312  24.343  1.00  0.00    -0.084 Cl
ENDBRANCH  20  23
ENDBRANCH  17  18
ENDBRANCH  16  17
ENDBRANCH   9  15
ENDBRANCH   4   6
ENDBRANCH   3   4
ENDBRANCH   2   3
ENDBRANCH   1   2
BRANCH   1  30
ATOM     30  O   UNL A   1      44.302  20.805  24.506  1.00  0.00    -0.374 OA
BRANCH  30  31
ATOM     31  C   UNL A   1      44.179  21.872  25.439  1.00  0.00     0.202 C 
BRANCH  31  32
ATOM     32  C   UNL A   1      45.107  23.071  25.301  1.00  0.00     0.261 C 
BRANCH  32  33
ATOM     33  O   UNL A   1      44.868  24.051  26.296  1.00  0.00    -0.460 OA
BRANCH  33  34
ATOM     34  C   UNL A   1      44.452  25.236  25.793  1.00  0.00     0.338 C 
ATOM     35  O   UNL A   1      44.792  25.753  24.745  1.00  0.00    -0.246 OA
BRANCH  34  36
ATOM     36  C   UNL A   1      43.622  25.899  26.799  1.00  0.00     0.060 A 
ATOM     37  C   UNL A   1      42.631  26.750  26.307  1.00  0.00     0.016 A 
ATOM     38  C   UNL A   1      44.058  25.935  28.132  1.00  0.00     0.016 A 
ATOM     39  C   UNL A   1      42.245  27.809  27.091  1.00  0.00     0.010 A 
ATOM     40  C   UNL A   1      43.697  27.010  28.900  1.00  0.00     0.010 A 
ATOM     41  C   UNL A   1      42.864  27.971  28.332  1.00  0.00    -0.014 A 
BRANCH  41  42
ATOM     42  C   UNL A   1      42.541  29.149  29.096  1.00  0.00     0.031 A 
ATOM     43  C   UNL A   1      43.428  30.278  28.761  1.00  0.00     0.074 A 
ATOM     44  C   UNL A   1      41.467  29.190  29.905  1.00  0.00     0.049 A 
ATOM     45  N   UNL A   1      44.369  30.783  29.487  1.00  0.00    -0.248 NA
ATOM     46  C   UNL A   1      43.432  30.736  27.362  1.00  0.00     0.031 C 
ATOM     47  C   UNL A   1      40.401  28.190  30.022  1.00  0.00     0.029 A 
ATOM     48  N   UNL A   1      41.017  30.216  30.674  1.00  0.00    -0.354 N 
ATOM     49  C   UNL A   1      44.879  31.820  28.713  1.00  0.00     0.074 A 
ATOM     50  C   UNL A   1      44.496  31.537  27.360  1.00  0.00     0.031 C 
ATOM     51  C   UNL A   1      39.322  28.766  30.597  1.00  0.00     0.029 A 
ATOM     52  C   UNL A   1      39.664  30.125  30.981  1.00  0.00     0.049 A 
ATOM     53  H   UNL A   1      41.593  30.952  30.982  1.00  0.00     0.167 HD
ATOM     54  C   UNL A   1      45.222  33.003  29.291  1.00  0.00     0.034 A 
ATOM     55  C   UNL A   1      38.873  31.140  31.409  1.00  0.00     0.034 A 
ATOM     56  C   UNL A   1      45.405  32.847  30.717  1.00  0.00     0.049 A 
ATOM     57  C   UNL A   1      39.764  32.213  31.911  1.00  0.00     0.074 A 
ATOM     58  C   UNL A   1      46.183  32.043  31.525  1.00  0.00     0.029 A 
ATOM     59  N   UNL A   1      44.406  33.346  31.518  1.00  0.00    -0.354 N 
ATOM     60  N   UNL A   1      40.499  32.103  32.981  1.00  0.00    -0.248 NA
ATOM     61  C   UNL A   1      40.161  33.265  30.989  1.00  0.00     0.031 C 
ATOM     62  C   UNL A   1      45.375  31.766  32.668  1.00  0.00     0.029 A 
ATOM     63  C   UNL A   1      44.169  32.456  32.527  1.00  0.00     0.049 A 
ATOM     64  H   UNL A   1      43.939  34.202  31.387  1.00  0.00     0.167 HD
ATOM     65  C   UNL A   1      41.693  32.730  32.646  1.00  0.00     0.074 A 
ATOM     66  C   UNL A   1      41.376  33.538  31.471  1.00  0.00     0.031 C 
ATOM     67  C   UNL A   1      42.879  32.292  33.162  1.00  0.00     0.034 A 
BRANCH  54  68
ATOM     68  C   UNL A   1      44.925  34.366  28.682  1.00  0.00     0.023 A 
ATOM     69  C   UNL A   1      43.591  34.592  28.278  1.00  0.00     0.012 A 
ATOM     70  C   UNL A   1      45.894  35.285  28.207  1.00  0.00     0.148 A 
ATOM     71  C   UNL A   1      43.259  35.599  27.366  1.00  0.00     0.002 A 
ATOM     72  C   UNL A   1      45.549  36.326  27.355  1.00  0.00     0.091 A 
ATOM     73  F   UNL A   1      47.188  35.114  28.468  1.00  0.00    -0.205 F 
ATOM     74  C   UNL A   1      44.240  36.464  26.898  1.00  0.00     0.022 A 
BRANCH  72  75
ATOM     75  S   UNL A   1      46.781  37.489  26.746  1.00  0.00     0.127 S 
ATOM     76  O   UNL A   1      47.436  37.891  27.988  1.00  0.00    -0.237 OA
ATOM     77  O   UNL A   1      47.581  36.637  25.867  1.00  0.00    -0.237 OA
ATOM     78  O   UNL A   1      46.039  38.533  26.051  1.00  0.00    -0.744 OA
ENDBRANCH  72  75
ENDBRANCH  54  68
BRANCH  55  79
ATOM     79  C   UNL A   1      37.430  31.377  31.171  1.00  0.00     0.023 A 
ATOM     80  C   UNL A   1      36.586  31.649  32.266  1.00  0.00     0.012 A 
ATOM     81  C   UNL A   1      36.926  31.608  29.871  1.00  0.00     0.148 A 
ATOM     82  C   UNL A   1      35.298  32.167  32.075  1.00  0.00     0.002 A 
ATOM     83  C   UNL A   1      35.641  32.108  29.684  1.00  0.00     0.091 A 
ATOM     84  F   UNL A   1      37.737  31.429  28.821  1.00  0.00    -0.205 F 
ATOM     85  C   UNL A   1      34.828  32.403  30.786  1.00  0.00     0.022 A 
BRANCH  83  86
ATOM     86  S   UNL A   1      34.976  32.450  28.049  1.00  0.00     0.127 S 
ATOM     87  O   UNL A   1      35.967  33.378  27.505  1.00  0.00    -0.237 OA
ATOM     88  O   UNL A   1      34.978  31.124  27.437  1.00  0.00    -0.237 OA
ATOM     89  O   UNL A   1      33.661  33.042  28.269  1.00  0.00    -0.744 OA
ENDBRANCH  83  86
ENDBRANCH  55  79
BRANCH  67  90
ATOM     90  C   UNL A   1      42.834  31.359  34.344  1.00  0.00     0.023 A 
ATOM     91  C   UNL A   1      42.760  31.820  35.675  1.00  0.00     0.012 A 
ATOM     92  C   UNL A   1      42.698  29.985  34.090  1.00  0.00     0.148 A 
ATOM     93  C   UNL A   1      42.581  30.923  36.731  1.00  0.00     0.002 A 
ATOM     94  C   UNL A   1      42.471  29.102  35.137  1.00  0.00     0.091 A 
ATOM     95  F   UNL A   1      42.769  29.565  32.818  1.00  0.00    -0.205 F 
ATOM     96  C   UNL A   1      42.422  29.565  36.461  1.00  0.00     0.022 A 
BRANCH  94  97
ATOM     97  S   UNL A   1      42.132  27.367  34.836  1.00  0.00     0.127 S 
ATOM     98  O   UNL A   1      42.084  26.825  36.193  1.00  0.00    -0.237 OA
ATOM     99  O   UNL A   1      40.841  27.412  34.148  1.00  0.00    -0.237 OA
ATOM    100  O   UNL A   1      43.228  26.885  34.004  1.00  0.00    -0.744 OA
ENDBRANCH  94  97
ENDBRANCH  67  90
ENDBRANCH  41  42
ENDBRANCH  34  36
ENDBRANCH  33  34
ENDBRANCH  32  33
ENDBRANCH  31  32
ENDBRANCH  30  31
ENDBRANCH   1  30
TORSDOF 22
ENDMDL
MODEL 3
REMARK VINA RESULT:      -9.9      4.114     10.470
REMARK SMILES COc1cc(/N=C/Cc2nnnn2-c2ccc(Cl)cc2)c(Cl)cc1C(=O)OCCOCCOC(=O)c1ccc(-c2c3nc(c(-c4cccc(S(=O)(=O)[O-])c4F)c4ccc([nH]4)c(-c4cccc(S(=O)(=O)[O-])c4F)c4nc(c(-c5cccc(S(=O)(=O)[O-])c5F)c5ccc2[nH]5)C=C4)C=C3)cc1
REMARK SMILES IDX 29 1 28 2 27 3 25 4 26 5 24 6 3 7 4 8 5 9 23 10 21 11 22 12
REMARK SMILES IDX 2 13 1 14 6 15 7 16 8 17 9 18 10 19 13 20 11 21 12 22 14 23
REMARK SMILES IDX 15 24 20 25 16 26 19 27 17 28 18 29 30 30 31 31 32 32 33 33
REMARK SMILES IDX 34 34 35 35 36 36 37 37 98 38 38 39 97 40 39 41 40 42 41 43
REMARK SMILES IDX 91 44 42 45 96 46 90 47 92 48 43 49 95 50 89 51 88 52 44 54
REMARK SMILES IDX 76 55 56 56 75 57 57 58 60 59 74 60 93 61 58 62 59 63 73 65
REMARK SMILES IDX 94 66 61 67 45 68 46 69 54 70 47 71 49 72 55 73 48 74 50 75
REMARK SMILES IDX 51 76 52 77 53 78 77 79 78 80 86 81 79 82 81 83 87 84 80 85
REMARK SMILES IDX 82 86 83 87 84 88 85 89 62 90 63 91 71 92 64 93 66 94 72 95
REMARK SMILES IDX 65 96 67 97 68 98 69 99 70 100
REMARK H PARENT 92 53 60 64
REMARK Flexibility Score: inf
ROOT
ATOM      1  C   UNL A   1      34.446  34.740  29.481  1.00  0.00     0.202 C 
ENDROOT
BRANCH   1   2
ATOM      2  C   UNL A   1      34.029  34.386  28.054  1.00  0.00     0.261 C 
BRANCH   2   3
ATOM      3  O   UNL A   1      33.965  32.965  27.845  1.00  0.00    -0.460 OA
BRANCH   3   4
ATOM      4  C   UNL A   1      32.753  32.504  27.451  1.00  0.00     0.342 C 
ATOM      5  O   UNL A   1      31.740  33.163  27.278  1.00  0.00    -0.246 OA
BRANCH   4   6
ATOM      6  C   UNL A   1      32.838  31.103  26.995  1.00  0.00     0.103 A 
ATOM      7  C   UNL A   1      33.809  30.203  27.427  1.00  0.00     0.135 A 
ATOM      8  C   UNL A   1      33.671  28.847  27.095  1.00  0.00     0.077 A 
ATOM      9  C   UNL A   1      32.634  28.388  26.262  1.00  0.00     0.085 A 
ATOM     10  C   UNL A   1      31.838  30.680  26.108  1.00  0.00     0.042 A 
ATOM     11  C   UNL A   1      31.769  29.347  25.701  1.00  0.00     0.067 A 
ATOM     12  Cl  UNL A   1      30.598  28.961  24.487  1.00  0.00    -0.082 Cl
BRANCH   7  13
ATOM     13  O   UNL A   1      34.825  30.641  28.233  1.00  0.00    -0.496 OA
ATOM     14  C   UNL A   1      36.069  29.991  27.940  1.00  0.00     0.278 C 
ENDBRANCH   7  13
BRANCH   9  15
ATOM     15  N   UNL A   1      32.558  26.987  26.073  1.00  0.00    -0.259 NA
ATOM     16  C   UNL A   1      33.666  26.324  25.980  1.00  0.00     0.092 C 
BRANCH  16  17
ATOM     17  C   UNL A   1      33.674  24.844  25.672  1.00  0.00     0.127 C 
BRANCH  17  18
ATOM     18  C   UNL A   1      33.599  24.706  24.192  1.00  0.00     0.162 A 
ATOM     19  N   UNL A   1      33.579  25.706  23.330  1.00  0.00    -0.113 NA
ATOM     20  N   UNL A   1      33.825  23.539  23.484  1.00  0.00    -0.197 N 
ATOM     21  N   UNL A   1      33.934  25.178  22.120  1.00  0.00    -0.023 NA
ATOM     22  N   UNL A   1      34.165  23.879  22.219  1.00  0.00    -0.040 NA
BRANCH  20  23
ATOM     23  C   UNL A   1      33.740  22.188  23.879  1.00  0.00     0.069 A 
ATOM     24  C   UNL A   1      34.849  21.536  24.435  1.00  0.00     0.030 A 
ATOM     25  C   UNL A   1      32.516  21.515  23.754  1.00  0.00     0.030 A 
ATOM     26  C   UNL A   1      34.731  20.207  24.852  1.00  0.00     0.023 A 
ATOM     27  C   UNL A   1      32.419  20.176  24.138  1.00  0.00     0.023 A 
ATOM     28  C   UNL A   1      33.523  19.530  24.690  1.00  0.00     0.041 A 
ATOM     29  Cl  UNL A   1      33.388  17.890  25.190  1.00  0.00    -0.084 Cl
ENDBRANCH  20  23
ENDBRANCH  17  18
ENDBRANCH  16  17
ENDBRANCH   9  15
ENDBRANCH   4   6
ENDBRANCH   3   4
ENDBRANCH   2   3
ENDBRANCH   1   2
BRANCH   1  30
ATOM     30  O   UNL A   1      33.584  34.338  30.549  1.00  0.00    -0.374 OA
BRANCH  30  31
ATOM     31  C   UNL A   1      34.122  33.612  31.648  1.00  0.00     0.202 C 
BRANCH  31  32
ATOM     32  C   UNL A   1      35.049  32.439  31.362  1.00  0.00     0.261 C 
BRANCH  32  33
ATOM     33  O   UNL A   1      36.399  32.733  31.673  1.00  0.00    -0.460 OA
BRANCH  33  34
ATOM     34  C   UNL A   1      37.030  31.731  32.326  1.00  0.00     0.338 C 
ATOM     35  O   UNL A   1      36.935  31.444  33.506  1.00  0.00    -0.246 OA
BRANCH  34  36
ATOM     36  C   UNL A   1      37.995  31.119  31.412  1.00  0.00     0.060 A 
ATOM     37  C   UNL A   1      37.851  29.745  31.206  1.00  0.00     0.016 A 
ATOM     38  C   UNL A   1      39.167  31.815  31.085  1.00  0.00     0.016 A 
ATOM     39  C   UNL A   1      38.975  29.021  30.896  1.00  0.00     0.010 A 
ATOM     40  C   UNL A   1      40.294  31.087  30.808  1.00  0.00     0.010 A 
ATOM     41  C   UNL A   1      40.193  29.699  30.803  1.00  0.00    -0.014 A 
BRANCH  41  42
ATOM     42  C   UNL A   1      41.384  28.915  30.596  1.00  0.00     0.031 A 
ATOM     43  C   UNL A   1      42.034  28.561  31.871  1.00  0.00     0.074 A 
ATOM     44  C   UNL A   1      41.737  28.482  29.372  1.00  0.00     0.049 A 
ATOM     45  N   UNL A   1      43.136  29.031  32.352  1.00  0.00    -0.248 NA
ATOM     46  C   UNL A   1      41.241  27.777  32.833  1.00  0.00     0.031 C 
ATOM     47  C   UNL A   1      40.950  28.562  28.138  1.00  0.00     0.029 A 
ATOM     48  N   UNL A   1      42.809  27.729  29.011  1.00  0.00    -0.354 N 
ATOM     49  C   UNL A   1      43.297  28.361  33.560  1.00  0.00     0.074 A 
ATOM     50  C   UNL A   1      41.998  27.875  33.925  1.00  0.00     0.031 C 
ATOM     51  C   UNL A   1      41.440  27.670  27.249  1.00  0.00     0.029 A 
ATOM     52  C   UNL A   1      42.627  27.050  27.811  1.00  0.00     0.049 A 
ATOM     53  H   UNL A   1      43.633  27.671  29.546  1.00  0.00     0.167 HD
ATOM     54  C   UNL A   1      44.528  27.930  33.947  1.00  0.00     0.034 A 
ATOM     55  C   UNL A   1      43.341  25.979  27.385  1.00  0.00     0.034 A 
ATOM     56  C   UNL A   1      45.569  28.626  33.224  1.00  0.00     0.049 A 
ATOM     57  C   UNL A   1      44.597  25.943  28.174  1.00  0.00     0.074 A 
ATOM     58  C   UNL A   1      45.916  29.947  33.032  1.00  0.00     0.029 A 
ATOM     59  N   UNL A   1      46.207  27.913  32.238  1.00  0.00    -0.354 N 
ATOM     60  N   UNL A   1      45.542  26.834  28.073  1.00  0.00    -0.248 NA
ATOM     61  C   UNL A   1      44.623  25.142  29.388  1.00  0.00     0.031 C 
ATOM     62  C   UNL A   1      46.407  30.015  31.694  1.00  0.00     0.029 A 
ATOM     63  C   UNL A   1      46.385  28.727  31.155  1.00  0.00     0.049 A 
ATOM     64  H   UNL A   1      46.489  26.972  32.300  1.00  0.00     0.167 HD
ATOM     65  C   UNL A   1      45.976  27.025  29.378  1.00  0.00     0.074 A 
ATOM     66  C   UNL A   1      45.475  25.867  30.116  1.00  0.00     0.031 C 
ATOM     67  C   UNL A   1      46.427  28.246  29.791  1.00  0.00     0.034 A 
BRANCH  54  68
ATOM     68  C   UNL A   1      44.791  26.580  34.597  1.00  0.00     0.023 A 
ATOM     69  C   UNL A   1      44.257  25.453  33.934  1.00  0.00     0.012 A 
ATOM     70  C   UNL A   1      45.235  26.378  35.928  1.00  0.00     0.148 A 
ATOM     71  C   UNL A   1      44.071  24.232  34.591  1.00  0.00     0.002 A 
ATOM     72  C   UNL A   1      45.110  25.145  36.555  1.00  0.00     0.091 A 
ATOM     73  F   UNL A   1      45.682  27.394  36.664  1.00  0.00    -0.205 F 
ATOM     74  C   UNL A   1      44.492  24.079  35.906  1.00  0.00     0.022 A 
BRANCH  72  75
ATOM     75  S   UNL A   1      45.669  24.892  38.248  1.00  0.00     0.127 S 
ATOM     76  O   UNL A   1      47.083  25.237  38.139  1.00  0.00    -0.237 OA
ATOM     77  O   UNL A   1      44.845  25.857  38.977  1.00  0.00    -0.237 OA
ATOM     78  O   UNL A   1      45.376  23.499  38.563  1.00  0.00    -0.744 OA
ENDBRANCH  72  75
ENDBRANCH  54  68
BRANCH  55  79
ATOM     79  C   UNL A   1      42.915  24.830  26.552  1.00  0.00     0.023 A 
ATOM     80  C   UNL A   1      43.697  24.457  25.440  1.00  0.00     0.012 A 
ATOM     81  C   UNL A   1      41.911  23.936  26.988  1.00  0.00     0.148 A 
ATOM     82  C   UNL A   1      43.510  23.221  24.807  1.00  0.00     0.002 A 
ATOM     83  C   UNL A   1      41.719  22.716  26.347  1.00  0.00     0.091 A 
ATOM     84  F   UNL A   1      41.209  24.237  28.087  1.00  0.00    -0.205 F 
ATOM     85  C   UNL A   1      42.526  22.348  25.264  1.00  0.00     0.022 A 
BRANCH  83  86
ATOM     86  S   UNL A   1      40.477  21.535  26.893  1.00  0.00     0.127 S 
ATOM     87  O   UNL A   1      40.822  21.360  28.303  1.00  0.00    -0.237 OA
ATOM     88  O   UNL A   1      39.236  22.266  26.653  1.00  0.00    -0.237 OA
ATOM     89  O   UNL A   1      40.675  20.342  26.078  1.00  0.00    -0.744 OA
ENDBRANCH  83  86
ENDBRANCH  55  79
BRANCH  67  90
ATOM     90  C   UNL A   1      46.763  29.268  28.736  1.00  0.00     0.023 A 
ATOM     91  C   UNL A   1      45.833  30.226  28.281  1.00  0.00     0.012 A 
ATOM     92  C   UNL A   1      48.100  29.364  28.317  1.00  0.00     0.148 A 
ATOM     93  C   UNL A   1      46.225  31.240  27.404  1.00  0.00     0.002 A 
ATOM     94  C   UNL A   1      48.496  30.402  27.486  1.00  0.00     0.091 A 
ATOM     95  F   UNL A   1      48.972  28.447  28.762  1.00  0.00    -0.205 F 
ATOM     96  C   UNL A   1      47.561  31.337  27.017  1.00  0.00     0.022 A 
BRANCH  94  97
ATOM     97  S   UNL A   1      50.221  30.650  27.062  1.00  0.00     0.127 S 
ATOM     98  O   UNL A   1      50.550  29.402  26.377  1.00  0.00    -0.237 OA
ATOM     99  O   UNL A   1      50.168  31.829  26.196  1.00  0.00    -0.237 OA
ATOM    100  O   UNL A   1      50.914  30.876  28.326  1.00  0.00    -0.744 OA
ENDBRANCH  94  97
ENDBRANCH  67  90
ENDBRANCH  41  42
ENDBRANCH  34  36
ENDBRANCH  33  34
ENDBRANCH  32  33
ENDBRANCH  31  32
ENDBRANCH  30  31
ENDBRANCH   1  30
TORSDOF 22
ENDMDL
