MODEL 1
REMARK VINA RESULT:     -11.7      0.000      0.000
REMARK SMILES O=C(OCCOCCOC(=O)c1ccc(C[N@H+]2CC[N@H+]3CCCC[C@@H]3C2)c(F)c1)c1ccc(-c2c3nc(c(-c4cccc(S(=O)(=O)[O-])c4F)c4ccc([nH]4)c(-c4cccc(S(=O)(=O)[O-])c4F)c4nc(c(-c5cccc(S(=O)(=O)[O-])c5F)c5ccc2[nH]5)C=C4)C=C3)cc1
REMARK SMILES IDX 5 1 4 2 3 3 2 4 1 5 30 6 31 7 92 8 32 9 91 10 33 11 34 12
REMARK SMILES IDX 35 13 85 14 36 15 90 16 84 17 86 18 37 19 89 20 83 21 82 22
REMARK SMILES IDX 38 24 70 25 50 26 69 27 51 28 54 29 68 30 87 31 52 32 53 33
REMARK SMILES IDX 67 35 88 36 55 37 39 38 40 39 48 40 41 41 43 42 49 43 42 44
REMARK SMILES IDX 44 45 45 46 46 47 47 48 71 49 72 50 80 51 73 52 75 53 81 54
REMARK SMILES IDX 74 55 76 56 77 57 78 58 79 59 56 60 57 61 65 62 58 63 60 64
REMARK SMILES IDX 66 65 59 66 61 67 62 68 63 69 64 70 6 71 7 72 8 73 9 74
REMARK SMILES IDX 10 75 11 76 12 77 13 78 29 79 14 80 27 81 15 82 28 83 16 84
REMARK SMILES IDX 17 85 18 86 26 87 19 89 25 90 20 91 24 92 21 93 23 95 22 96
REMARK H PARENT 86 23 54 34 17 88 20 94
REMARK Flexibility Score: inf
ROOT
ATOM      1  C   UNL A   1      35.589  21.383  25.000  1.00  0.00     0.202 C 
ENDROOT
BRANCH   1   2
ATOM      2  C   UNL A   1      37.101  21.366  24.780  1.00  0.00     0.261 C 
BRANCH   2   3
ATOM      3  O   UNL A   1      37.781  21.337  26.043  1.00  0.00    -0.460 OA
BRANCH   3   4
ATOM      4  C   UNL A   1      39.111  21.478  26.258  1.00  0.00     0.338 C 
ATOM      5  O   UNL A   1      39.847  20.517  26.045  1.00  0.00    -0.246 OA
BRANCH   4   6
ATOM      6  C   UNL A   1      39.724  22.749  26.744  1.00  0.00     0.060 A 
ATOM      7  C   UNL A   1      40.793  22.814  27.641  1.00  0.00     0.016 A 
ATOM      8  C   UNL A   1      39.268  23.945  26.168  1.00  0.00     0.016 A 
ATOM      9  C   UNL A   1      41.371  24.020  27.999  1.00  0.00     0.010 A 
ATOM     10  C   UNL A   1      39.880  25.161  26.480  1.00  0.00     0.010 A 
ATOM     11  C   UNL A   1      40.938  25.195  27.395  1.00  0.00    -0.014 A 
BRANCH  11  12
ATOM     12  C   UNL A   1      41.616  26.450  27.750  1.00  0.00     0.031 A 
ATOM     13  C   UNL A   1      40.892  27.442  28.597  1.00  0.00     0.074 A 
ATOM     14  C   UNL A   1      42.894  26.626  27.372  1.00  0.00     0.049 A 
ATOM     15  N   UNL A   1      41.260  28.637  28.956  1.00  0.00    -0.248 NA
ATOM     16  C   UNL A   1      39.581  27.024  29.122  1.00  0.00     0.031 C 
ATOM     17  C   UNL A   1      43.699  25.640  26.644  1.00  0.00     0.029 A 
ATOM     18  N   UNL A   1      43.746  27.680  27.556  1.00  0.00    -0.354 N 
ATOM     19  C   UNL A   1      40.211  29.137  29.714  1.00  0.00     0.074 A 
ATOM     20  C   UNL A   1      39.194  28.112  29.773  1.00  0.00     0.031 C 
ATOM     21  C   UNL A   1      44.933  26.134  26.455  1.00  0.00     0.029 A 
ATOM     22  C   UNL A   1      44.979  27.493  26.977  1.00  0.00     0.049 A 
ATOM     23  H   UNL A   1      43.500  28.494  28.053  1.00  0.00     0.167 HD
ATOM     24  C   UNL A   1      40.115  30.353  30.299  1.00  0.00     0.034 A 
ATOM     25  C   UNL A   1      46.013  28.345  26.857  1.00  0.00     0.034 A 
ATOM     26  C   UNL A   1      41.149  31.347  30.201  1.00  0.00     0.049 A 
ATOM     27  C   UNL A   1      45.851  29.720  27.444  1.00  0.00     0.074 A 
ATOM     28  C   UNL A   1      41.146  32.647  30.668  1.00  0.00     0.029 A 
ATOM     29  N   UNL A   1      42.377  31.142  29.585  1.00  0.00    -0.354 N 
ATOM     30  N   UNL A   1      44.836  30.210  28.118  1.00  0.00    -0.248 NA
ATOM     31  C   UNL A   1      46.967  30.655  27.269  1.00  0.00     0.031 C 
ATOM     32  C   UNL A   1      42.366  33.232  30.313  1.00  0.00     0.029 A 
ATOM     33  C   UNL A   1      43.146  32.286  29.662  1.00  0.00     0.049 A 
ATOM     34  H   UNL A   1      42.659  30.301  29.155  1.00  0.00     0.167 HD
ATOM     35  C   UNL A   1      45.200  31.501  28.476  1.00  0.00     0.074 A 
ATOM     36  C   UNL A   1      46.538  31.708  27.952  1.00  0.00     0.031 C 
ATOM     37  C   UNL A   1      44.494  32.433  29.164  1.00  0.00     0.034 A 
BRANCH  24  38
ATOM     38  C   UNL A   1      38.845  30.659  31.046  1.00  0.00     0.023 A 
ATOM     39  C   UNL A   1      38.683  30.209  32.373  1.00  0.00     0.012 A 
ATOM     40  C   UNL A   1      37.801  31.371  30.427  1.00  0.00     0.148 A 
ATOM     41  C   UNL A   1      37.486  30.427  33.056  1.00  0.00     0.002 A 
ATOM     42  C   UNL A   1      36.628  31.624  31.129  1.00  0.00     0.091 A 
ATOM     43  F   UNL A   1      37.960  31.762  29.155  1.00  0.00    -0.205 F 
ATOM     44  C   UNL A   1      36.463  31.140  32.437  1.00  0.00     0.022 A 
BRANCH  42  45
ATOM     45  S   UNL A   1      35.274  32.585  30.441  1.00  0.00     0.127 S 
ATOM     46  O   UNL A   1      35.938  33.849  30.127  1.00  0.00    -0.237 OA
ATOM     47  O   UNL A   1      34.898  31.788  29.273  1.00  0.00    -0.237 OA
ATOM     48  O   UNL A   1      34.260  32.654  31.483  1.00  0.00    -0.744 OA
ENDBRANCH  42  45
ENDBRANCH  24  38
BRANCH  25  49
ATOM     49  C   UNL A   1      47.270  27.904  26.186  1.00  0.00     0.023 A 
ATOM     50  C   UNL A   1      48.286  27.299  26.949  1.00  0.00     0.012 A 
ATOM     51  C   UNL A   1      47.432  28.004  24.788  1.00  0.00     0.148 A 
ATOM     52  C   UNL A   1      49.441  26.809  26.337  1.00  0.00     0.002 A 
ATOM     53  C   UNL A   1      48.560  27.465  24.178  1.00  0.00     0.091 A 
ATOM     54  F   UNL A   1      46.459  28.592  24.077  1.00  0.00    -0.205 F 
ATOM     55  C   UNL A   1      49.573  26.879  24.952  1.00  0.00     0.022 A 
BRANCH  53  56
ATOM     56  S   UNL A   1      48.757  27.389  22.393  1.00  0.00     0.127 S 
ATOM     57  O   UNL A   1      50.123  27.878  22.221  1.00  0.00    -0.237 OA
ATOM     58  O   UNL A   1      48.579  25.960  22.132  1.00  0.00    -0.237 OA
ATOM     59  O   UNL A   1      47.713  28.240  21.840  1.00  0.00    -0.744 OA
ENDBRANCH  53  56
ENDBRANCH  25  49
BRANCH  37  60
ATOM     60  C   UNL A   1      45.171  33.748  29.432  1.00  0.00     0.023 A 
ATOM     61  C   UNL A   1      45.952  33.915  30.591  1.00  0.00     0.012 A 
ATOM     62  C   UNL A   1      45.119  34.776  28.472  1.00  0.00     0.148 A 
ATOM     63  C   UNL A   1      46.654  35.100  30.802  1.00  0.00     0.002 A 
ATOM     64  C   UNL A   1      45.867  35.930  28.661  1.00  0.00     0.091 A 
ATOM     65  F   UNL A   1      44.349  34.601  27.387  1.00  0.00    -0.205 F 
ATOM     66  C   UNL A   1      46.625  36.099  29.831  1.00  0.00     0.022 A 
BRANCH  64  67
ATOM     67  S   UNL A   1      45.979  37.209  27.406  1.00  0.00     0.127 S 
ATOM     68  O   UNL A   1      44.579  37.601  27.255  1.00  0.00    -0.237 OA
ATOM     69  O   UNL A   1      46.826  38.210  28.059  1.00  0.00    -0.237 OA
ATOM     70  O   UNL A   1      46.583  36.577  26.243  1.00  0.00    -0.744 OA
ENDBRANCH  64  67
ENDBRANCH  37  60
ENDBRANCH  11  12
ENDBRANCH   4   6
ENDBRANCH   3   4
ENDBRANCH   2   3
ENDBRANCH   1   2
BRANCH   1  71
ATOM     71  O   UNL A   1      35.175  21.492  26.357  1.00  0.00    -0.374 OA
BRANCH  71  72
ATOM     72  C   UNL A   1      34.412  22.654  26.701  1.00  0.00     0.202 C 
BRANCH  72  73
ATOM     73  C   UNL A   1      33.076  22.206  27.309  1.00  0.00     0.261 C 
BRANCH  73  74
ATOM     74  O   UNL A   1      32.057  22.282  26.295  1.00  0.00    -0.460 OA
BRANCH  74  75
ATOM     75  C   UNL A   1      30.999  23.085  26.600  1.00  0.00     0.338 C 
ATOM     76  O   UNL A   1      30.267  23.047  27.562  1.00  0.00    -0.246 OA
BRANCH  75  77
ATOM     77  C   UNL A   1      31.048  24.198  25.636  1.00  0.00     0.063 A 
ATOM     78  C   UNL A   1      30.266  25.334  25.828  1.00  0.00     0.016 A 
ATOM     79  C   UNL A   1      31.791  24.034  24.465  1.00  0.00     0.055 A 
ATOM     80  C   UNL A   1      30.173  26.276  24.804  1.00  0.00     0.013 A 
ATOM     81  C   UNL A   1      31.615  24.931  23.419  1.00  0.00     0.132 A 
ATOM     82  C   UNL A   1      30.770  26.036  23.548  1.00  0.00     0.042 A 
ATOM     83  F   UNL A   1      32.239  24.695  22.255  1.00  0.00    -0.206 F 
BRANCH  82  84
ATOM     84  C   UNL A   1      30.461  26.927  22.366  1.00  0.00     0.302 C 
BRANCH  84  85
ATOM     85  N   UNL A   1      31.114  28.245  22.287  1.00  0.00    -0.322 N 
ATOM     86  C   UNL A   1      30.312  29.405  22.702  1.00  0.00     0.324 C 
ATOM     87  C   UNL A   1      32.478  28.354  22.817  1.00  0.00     0.328 C 
ATOM     88  H   UNL A   1      31.202  28.292  21.271  1.00  0.00     0.348 HD
ATOM     89  C   UNL A   1      30.497  29.925  24.155  1.00  0.00     0.324 C 
ATOM     90  C   UNL A   1      32.528  28.642  24.343  1.00  0.00     0.239 C 
ATOM     91  N   UNL A   1      31.893  29.939  24.655  1.00  0.00    -0.323 N 
ATOM     92  C   UNL A   1      33.970  28.576  24.858  1.00  0.00     0.071 C 
ATOM     93  C   UNL A   1      31.901  30.194  26.106  1.00  0.00     0.262 C 
ATOM     94  H   UNL A   1      32.419  30.685  24.200  1.00  0.00     0.348 HD
ATOM     95  C   UNL A   1      33.993  28.790  26.367  1.00  0.00     0.012 C 
ATOM     96  C   UNL A   1      33.304  30.103  26.717  1.00  0.00     0.062 C 
ENDBRANCH  84  85
ENDBRANCH  82  84
ENDBRANCH  75  77
ENDBRANCH  74  75
ENDBRANCH  73  74
ENDBRANCH  72  73
ENDBRANCH  71  72
ENDBRANCH   1  71
TORSDOF 19
ENDMDL
MODEL 2
REMARK VINA RESULT:     -11.5      1.598      7.745
REMARK SMILES O=C(OCCOCCOC(=O)c1ccc(C[N@H+]2CC[N@H+]3CCCC[C@@H]3C2)c(F)c1)c1ccc(-c2c3nc(c(-c4cccc(S(=O)(=O)[O-])c4F)c4ccc([nH]4)c(-c4cccc(S(=O)(=O)[O-])c4F)c4nc(c(-c5cccc(S(=O)(=O)[O-])c5F)c5ccc2[nH]5)C=C4)C=C3)cc1
REMARK SMILES IDX 5 1 4 2 3 3 2 4 1 5 30 6 31 7 92 8 32 9 91 10 33 11 34 12
REMARK SMILES IDX 35 13 85 14 36 15 90 16 84 17 86 18 37 19 89 20 83 21 82 22
REMARK SMILES IDX 38 24 70 25 50 26 69 27 51 28 54 29 68 30 87 31 52 32 53 33
REMARK SMILES IDX 67 35 88 36 55 37 39 38 40 39 48 40 41 41 43 42 49 43 42 44
REMARK SMILES IDX 44 45 45 46 46 47 47 48 71 49 72 50 80 51 73 52 75 53 81 54
REMARK SMILES IDX 74 55 76 56 77 57 78 58 79 59 56 60 57 61 65 62 58 63 60 64
REMARK SMILES IDX 66 65 59 66 61 67 62 68 63 69 64 70 6 71 7 72 8 73 9 74
REMARK SMILES IDX 10 75 11 76 12 77 13 78 29 79 14 80 27 81 15 82 28 83 16 84
REMARK SMILES IDX 17 85 18 86 26 87 19 89 25 90 20 91 24 92 21 93 23 95 22 96
REMARK H PARENT 86 23 54 34 17 88 20 94
REMARK Flexibility Score: inf
ROOT
ATOM      1  C   UNL A   1      38.597  21.082  25.702  1.00  0.00     0.202 C 
ENDROOT
BRANCH   1   2
ATOM      2  C   UNL A   1      39.033  19.653  25.386  1.00  0.00     0.261 C 
BRANCH   2   3
ATOM      3  O   UNL A   1      40.091  19.254  26.268  1.00  0.00    -0.460 OA
BRANCH   3   4
ATOM      4  C   UNL A   1      41.398  19.601  26.185  1.00  0.00     0.338 C 
ATOM      5  O   UNL A   1      42.222  18.731  25.914  1.00  0.00    -0.246 OA
BRANCH   4   6
ATOM      6  C   UNL A   1      41.883  20.995  26.410  1.00  0.00     0.060 A 
ATOM      7  C   UNL A   1      42.057  21.941  25.397  1.00  0.00     0.016 A 
ATOM      8  C   UNL A   1      42.058  21.407  27.740  1.00  0.00     0.016 A 
ATOM      9  C   UNL A   1      42.437  23.243  25.674  1.00  0.00     0.010 A 
ATOM     10  C   UNL A   1      42.387  22.732  28.034  1.00  0.00     0.010 A 
ATOM     11  C   UNL A   1      42.572  23.652  26.996  1.00  0.00    -0.014 A 
BRANCH  11  12
ATOM     12  C   UNL A   1      42.913  25.057  27.257  1.00  0.00     0.031 A 
ATOM     13  C   UNL A   1      44.241  25.569  26.807  1.00  0.00     0.074 A 
ATOM     14  C   UNL A   1      41.988  25.857  27.816  1.00  0.00     0.049 A 
ATOM     15  N   UNL A   1      44.781  26.737  27.005  1.00  0.00    -0.248 NA
ATOM     16  C   UNL A   1      45.067  24.642  26.014  1.00  0.00     0.031 C 
ATOM     17  C   UNL A   1      40.626  25.447  28.170  1.00  0.00     0.029 A 
ATOM     18  N   UNL A   1      42.041  27.177  28.172  1.00  0.00    -0.354 N 
ATOM     19  C   UNL A   1      46.028  26.677  26.401  1.00  0.00     0.074 A 
ATOM     20  C   UNL A   1      46.162  25.361  25.818  1.00  0.00     0.031 C 
ATOM     21  C   UNL A   1      39.969  26.500  28.680  1.00  0.00     0.029 A 
ATOM     22  C   UNL A   1      40.884  27.630  28.761  1.00  0.00     0.049 A 
ATOM     23  H   UNL A   1      42.830  27.747  28.021  1.00  0.00     0.167 HD
ATOM     24  C   UNL A   1      46.972  27.644  26.351  1.00  0.00     0.034 A 
ATOM     25  C   UNL A   1      40.616  28.819  29.331  1.00  0.00     0.034 A 
ATOM     26  C   UNL A   1      46.798  28.935  26.958  1.00  0.00     0.049 A 
ATOM     27  C   UNL A   1      41.711  29.849  29.335  1.00  0.00     0.074 A 
ATOM     28  C   UNL A   1      47.702  29.974  27.058  1.00  0.00     0.029 A 
ATOM     29  N   UNL A   1      45.626  29.359  27.573  1.00  0.00    -0.354 N 
ATOM     30  N   UNL A   1      42.910  29.774  28.806  1.00  0.00    -0.248 NA
ATOM     31  C   UNL A   1      41.422  31.125  29.998  1.00  0.00     0.031 C 
ATOM     32  C   UNL A   1      47.083  31.016  27.755  1.00  0.00     0.029 A 
ATOM     33  C   UNL A   1      45.778  30.646  28.052  1.00  0.00     0.049 A 
ATOM     34  H   UNL A   1      44.805  28.820  27.655  1.00  0.00     0.167 HD
ATOM     35  C   UNL A   1      43.513  31.002  29.044  1.00  0.00     0.074 A 
ATOM     36  C   UNL A   1      42.535  31.806  29.754  1.00  0.00     0.031 C 
ATOM     37  C   UNL A   1      44.759  31.425  28.716  1.00  0.00     0.034 A 
BRANCH  24  38
ATOM     38  C   UNL A   1      48.262  27.309  25.652  1.00  0.00     0.023 A 
ATOM     39  C   UNL A   1      49.363  26.833  26.395  1.00  0.00     0.012 A 
ATOM     40  C   UNL A   1      48.395  27.489  24.262  1.00  0.00     0.148 A 
ATOM     41  C   UNL A   1      50.585  26.581  25.772  1.00  0.00     0.002 A 
ATOM     42  C   UNL A   1      49.602  27.193  23.640  1.00  0.00     0.091 A 
ATOM     43  F   UNL A   1      47.349  27.973  23.578  1.00  0.00    -0.205 F 
ATOM     44  C   UNL A   1      50.702  26.754  24.395  1.00  0.00     0.022 A 
BRANCH  42  45
ATOM     45  S   UNL A   1      49.836  27.325  21.864  1.00  0.00     0.127 S 
ATOM     46  O   UNL A   1      48.729  26.515  21.359  1.00  0.00    -0.237 OA
ATOM     47  O   UNL A   1      49.689  28.764  21.644  1.00  0.00    -0.237 OA
ATOM     48  O   UNL A   1      51.167  26.801  21.593  1.00  0.00    -0.744 OA
ENDBRANCH  42  45
ENDBRANCH  24  38
BRANCH  25  49
ATOM     49  C   UNL A   1      39.265  29.084  29.904  1.00  0.00     0.023 A 
ATOM     50  C   UNL A   1      38.959  28.620  31.197  1.00  0.00     0.012 A 
ATOM     51  C   UNL A   1      38.312  29.863  29.214  1.00  0.00     0.148 A 
ATOM     52  C   UNL A   1      37.730  28.917  31.789  1.00  0.00     0.002 A 
ATOM     53  C   UNL A   1      37.112  30.202  29.830  1.00  0.00     0.091 A 
ATOM     54  F   UNL A   1      38.616  30.289  27.979  1.00  0.00    -0.205 F 
ATOM     55  C   UNL A   1      36.813  29.718  31.112  1.00  0.00     0.022 A 
BRANCH  53  56
ATOM     56  S   UNL A   1      35.927  31.335  29.092  1.00  0.00     0.127 S 
ATOM     57  O   UNL A   1      36.798  32.397  28.595  1.00  0.00    -0.237 OA
ATOM     58  O   UNL A   1      35.321  30.500  28.055  1.00  0.00    -0.237 OA
ATOM     59  O   UNL A   1      35.021  31.718  30.166  1.00  0.00    -0.744 OA
ENDBRANCH  53  56
ENDBRANCH  25  49
BRANCH  37  60
ATOM     60  C   UNL A   1      45.124  32.837  29.080  1.00  0.00     0.023 A 
ATOM     61  C   UNL A   1      45.781  33.104  30.295  1.00  0.00     0.012 A 
ATOM     62  C   UNL A   1      44.912  33.880  28.158  1.00  0.00     0.148 A 
ATOM     63  C   UNL A   1      46.202  34.398  30.598  1.00  0.00     0.002 A 
ATOM     64  C   UNL A   1      45.385  35.154  28.442  1.00  0.00     0.091 A 
ATOM     65  F   UNL A   1      44.263  33.603  27.017  1.00  0.00    -0.205 F 
ATOM     66  C   UNL A   1      46.019  35.417  29.666  1.00  0.00     0.022 A 
BRANCH  64  67
ATOM     67  S   UNL A   1      45.297  36.491  27.247  1.00  0.00     0.127 S 
ATOM     68  O   UNL A   1      46.114  35.967  26.154  1.00  0.00    -0.237 OA
ATOM     69  O   UNL A   1      43.863  36.557  26.960  1.00  0.00    -0.237 OA
ATOM     70  O   UNL A   1      45.830  37.666  27.922  1.00  0.00    -0.744 OA
ENDBRANCH  64  67
ENDBRANCH  37  60
ENDBRANCH  11  12
ENDBRANCH   4   6
ENDBRANCH   3   4
ENDBRANCH   2   3
ENDBRANCH   1   2
BRANCH   1  71
ATOM     71  O   UNL A   1      37.307  21.443  25.220  1.00  0.00    -0.374 OA
BRANCH  71  72
ATOM     72  C   UNL A   1      36.356  20.381  25.083  1.00  0.00     0.202 C 
BRANCH  72  73
ATOM     73  C   UNL A   1      34.980  20.986  24.777  1.00  0.00     0.261 C 
BRANCH  73  74
ATOM     74  O   UNL A   1      34.045  20.536  25.774  1.00  0.00    -0.460 OA
BRANCH  74  75
ATOM     75  C   UNL A   1      32.880  20.025  25.284  1.00  0.00     0.338 C 
ATOM     76  O   UNL A   1      32.419  18.915  25.418  1.00  0.00    -0.246 OA
BRANCH  75  77
ATOM     77  C   UNL A   1      32.137  21.174  24.735  1.00  0.00     0.063 A 
ATOM     78  C   UNL A   1      32.166  21.447  23.369  1.00  0.00     0.016 A 
ATOM     79  C   UNL A   1      31.516  22.053  25.624  1.00  0.00     0.055 A 
ATOM     80  C   UNL A   1      31.631  22.648  22.906  1.00  0.00     0.013 A 
ATOM     81  C   UNL A   1      31.072  23.285  25.162  1.00  0.00     0.132 A 
ATOM     82  C   UNL A   1      31.166  23.626  23.810  1.00  0.00     0.042 A 
ATOM     83  F   UNL A   1      30.590  24.171  26.046  1.00  0.00    -0.206 F 
BRANCH  82  84
ATOM     84  C   UNL A   1      30.824  25.018  23.329  1.00  0.00     0.302 C 
BRANCH  84  85
ATOM     85  N   UNL A   1      31.913  25.997  23.169  1.00  0.00    -0.322 N 
ATOM     86  C   UNL A   1      31.596  27.219  22.416  1.00  0.00     0.324 C 
ATOM     87  C   UNL A   1      32.707  26.322  24.359  1.00  0.00     0.328 C 
ATOM     88  H   UNL A   1      32.518  25.430  22.572  1.00  0.00     0.348 HD
ATOM     89  C   UNL A   1      31.214  28.486  23.232  1.00  0.00     0.324 C 
ATOM     90  C   UNL A   1      32.088  27.453  25.225  1.00  0.00     0.239 C 
ATOM     91  N   UNL A   1      32.006  28.716  24.464  1.00  0.00    -0.323 N 
ATOM     92  C   UNL A   1      32.873  27.624  26.531  1.00  0.00     0.071 C 
ATOM     93  C   UNL A   1      31.380  29.778  25.271  1.00  0.00     0.262 C 
ATOM     94  H   UNL A   1      32.950  29.019  24.221  1.00  0.00     0.348 HD
ATOM     95  C   UNL A   1      32.210  28.686  27.400  1.00  0.00     0.012 C 
ATOM     96  C   UNL A   1      32.076  29.988  26.620  1.00  0.00     0.062 C 
ENDBRANCH  84  85
ENDBRANCH  82  84
ENDBRANCH  75  77
ENDBRANCH  74  75
ENDBRANCH  73  74
ENDBRANCH  72  73
ENDBRANCH  71  72
ENDBRANCH   1  71
TORSDOF 19
ENDMDL
MODEL 3
REMARK VINA RESULT:     -11.5      5.402      8.634
REMARK SMILES O=C(OCCOCCOC(=O)c1ccc(C[N@H+]2CC[N@H+]3CCCC[C@@H]3C2)c(F)c1)c1ccc(-c2c3nc(c(-c4cccc(S(=O)(=O)[O-])c4F)c4ccc([nH]4)c(-c4cccc(S(=O)(=O)[O-])c4F)c4nc(c(-c5cccc(S(=O)(=O)[O-])c5F)c5ccc2[nH]5)C=C4)C=C3)cc1
REMARK SMILES IDX 5 1 4 2 3 3 2 4 1 5 30 6 31 7 92 8 32 9 91 10 33 11 34 12
REMARK SMILES IDX 35 13 85 14 36 15 90 16 84 17 86 18 37 19 89 20 83 21 82 22
REMARK SMILES IDX 38 24 70 25 50 26 69 27 51 28 54 29 68 30 87 31 52 32 53 33
REMARK SMILES IDX 67 35 88 36 55 37 39 38 40 39 48 40 41 41 43 42 49 43 42 44
REMARK SMILES IDX 44 45 45 46 46 47 47 48 71 49 72 50 80 51 73 52 75 53 81 54
REMARK SMILES IDX 74 55 76 56 77 57 78 58 79 59 56 60 57 61 65 62 58 63 60 64
REMARK SMILES IDX 66 65 59 66 61 67 62 68 63 69 64 70 6 71 7 72 8 73 9 74
REMARK SMILES IDX 10 75 11 76 12 77 13 78 29 79 14 80 27 81 15 82 28 83 16 84
REMARK SMILES IDX 17 85 18 86 26 87 19 89 25 90 20 91 24 92 21 93 23 95 22 96
REMARK H PARENT 86 23 54 34 17 88 20 94
REMARK Flexibility Score: inf
ROOT
ATOM      1  C   UNL A   1      32.503  31.387  26.867  1.00  0.00     0.202 C 
ENDROOT
BRANCH   1   2
ATOM      2  C   UNL A   1      31.738  32.680  27.148  1.00  0.00     0.261 C 
BRANCH   2   3
ATOM      3  O   UNL A   1      32.648  33.787  27.207  1.00  0.00    -0.460 OA
BRANCH   3   4
ATOM      4  C   UNL A   1      33.202  34.331  28.317  1.00  0.00     0.338 C 
ATOM      5  O   UNL A   1      32.782  35.415  28.714  1.00  0.00    -0.246 OA
BRANCH   4   6
ATOM      6  C   UNL A   1      34.304  33.673  29.078  1.00  0.00     0.060 A 
ATOM      7  C   UNL A   1      34.131  32.570  29.918  1.00  0.00     0.016 A 
ATOM      8  C   UNL A   1      35.611  34.123  28.836  1.00  0.00     0.016 A 
ATOM      9  C   UNL A   1      35.203  31.953  30.540  1.00  0.00     0.010 A 
ATOM     10  C   UNL A   1      36.704  33.474  29.414  1.00  0.00     0.010 A 
ATOM     11  C   UNL A   1      36.496  32.382  30.265  1.00  0.00    -0.014 A 
BRANCH  11  12
ATOM     12  C   UNL A   1      37.615  31.664  30.893  1.00  0.00     0.031 A 
ATOM     13  C   UNL A   1      37.893  31.893  32.340  1.00  0.00     0.074 A 
ATOM     14  C   UNL A   1      38.297  30.763  30.164  1.00  0.00     0.049 A 
ATOM     15  N   UNL A   1      38.870  31.438  33.070  1.00  0.00    -0.248 NA
ATOM     16  C   UNL A   1      36.932  32.741  33.067  1.00  0.00     0.031 C 
ATOM     17  C   UNL A   1      37.996  30.404  28.775  1.00  0.00     0.029 A 
ATOM     18  N   UNL A   1      39.368  29.975  30.488  1.00  0.00    -0.354 N 
ATOM     19  C   UNL A   1      38.670  31.975  34.334  1.00  0.00     0.074 A 
ATOM     20  C   UNL A   1      37.473  32.782  34.276  1.00  0.00     0.031 C 
ATOM     21  C   UNL A   1      38.857  29.456  28.371  1.00  0.00     0.029 A 
ATOM     22  C   UNL A   1      39.811  29.201  29.441  1.00  0.00     0.049 A 
ATOM     23  H   UNL A   1      39.780  29.964  31.382  1.00  0.00     0.167 HD
ATOM     24  C   UNL A   1      39.434  31.804  35.437  1.00  0.00     0.034 A 
ATOM     25  C   UNL A   1      40.891  28.403  29.357  1.00  0.00     0.034 A 
ATOM     26  C   UNL A   1      40.626  31.001  35.443  1.00  0.00     0.049 A 
ATOM     27  C   UNL A   1      41.771  28.295  30.571  1.00  0.00     0.074 A 
ATOM     28  C   UNL A   1      41.538  30.813  36.462  1.00  0.00     0.029 A 
ATOM     29  N   UNL A   1      41.068  30.249  34.361  1.00  0.00    -0.354 N 
ATOM     30  N   UNL A   1      41.608  28.844  31.753  1.00  0.00    -0.248 NA
ATOM     31  C   UNL A   1      42.968  27.458  30.454  1.00  0.00     0.031 C 
ATOM     32  C   UNL A   1      42.544  29.966  35.986  1.00  0.00     0.029 A 
ATOM     33  C   UNL A   1      42.238  29.590  34.686  1.00  0.00     0.049 A 
ATOM     34  H   UNL A   1      40.614  30.194  33.488  1.00  0.00     0.167 HD
ATOM     35  C   UNL A   1      42.666  28.396  32.533  1.00  0.00     0.074 A 
ATOM     36  C   UNL A   1      43.455  27.518  31.687  1.00  0.00     0.031 C 
ATOM     37  C   UNL A   1      42.966  28.689  33.823  1.00  0.00     0.034 A 
BRANCH  24  38
ATOM     38  C   UNL A   1      39.009  32.529  36.686  1.00  0.00     0.023 A 
ATOM     39  C   UNL A   1      39.488  33.831  36.943  1.00  0.00     0.012 A 
ATOM     40  C   UNL A   1      38.154  31.912  37.619  1.00  0.00     0.148 A 
ATOM     41  C   UNL A   1      39.156  34.489  38.127  1.00  0.00     0.002 A 
ATOM     42  C   UNL A   1      37.791  32.592  38.776  1.00  0.00     0.091 A 
ATOM     43  F   UNL A   1      37.736  30.663  37.374  1.00  0.00    -0.205 F 
ATOM     44  C   UNL A   1      38.303  33.873  39.039  1.00  0.00     0.022 A 
BRANCH  42  45
ATOM     45  S   UNL A   1      36.650  31.909  39.984  1.00  0.00     0.127 S 
ATOM     46  O   UNL A   1      37.399  30.754  40.478  1.00  0.00    -0.237 OA
ATOM     47  O   UNL A   1      36.526  33.009  40.942  1.00  0.00    -0.237 OA
ATOM     48  O   UNL A   1      35.431  31.596  39.254  1.00  0.00    -0.744 OA
ENDBRANCH  42  45
ENDBRANCH  24  38
BRANCH  25  49
ATOM     49  C   UNL A   1      41.164  27.647  28.101  1.00  0.00     0.023 A 
ATOM     50  C   UNL A   1      41.657  28.330  26.974  1.00  0.00     0.012 A 
ATOM     51  C   UNL A   1      41.019  26.244  28.041  1.00  0.00     0.148 A 
ATOM     52  C   UNL A   1      41.991  27.637  25.810  1.00  0.00     0.002 A 
ATOM     53  C   UNL A   1      41.406  25.553  26.897  1.00  0.00     0.091 A 
ATOM     54  F   UNL A   1      40.538  25.609  29.119  1.00  0.00    -0.205 F 
ATOM     55  C   UNL A   1      41.879  26.249  25.775  1.00  0.00     0.022 A 
BRANCH  53  56
ATOM     56  S   UNL A   1      41.422  23.758  26.805  1.00  0.00     0.127 S 
ATOM     57  O   UNL A   1      42.069  23.400  28.065  1.00  0.00    -0.237 OA
ATOM     58  O   UNL A   1      39.994  23.449  26.737  1.00  0.00    -0.237 OA
ATOM     59  O   UNL A   1      42.170  23.428  25.600  1.00  0.00    -0.744 OA
ENDBRANCH  53  56
ENDBRANCH  25  49
BRANCH  37  60
ATOM     60  C   UNL A   1      44.173  28.018  34.417  1.00  0.00     0.023 A 
ATOM     61  C   UNL A   1      45.409  28.691  34.449  1.00  0.00     0.012 A 
ATOM     62  C   UNL A   1      44.045  26.765  35.045  1.00  0.00     0.148 A 
ATOM     63  C   UNL A   1      46.509  28.112  35.078  1.00  0.00     0.002 A 
ATOM     64  C   UNL A   1      45.130  26.221  35.719  1.00  0.00     0.091 A 
ATOM     65  F   UNL A   1      42.863  26.134  34.981  1.00  0.00    -0.205 F 
ATOM     66  C   UNL A   1      46.366  26.887  35.726  1.00  0.00     0.022 A 
BRANCH  64  67
ATOM     67  S   UNL A   1      44.996  24.709  36.679  1.00  0.00     0.127 S 
ATOM     68  O   UNL A   1      46.340  24.595  37.242  1.00  0.00    -0.237 OA
ATOM     69  O   UNL A   1      43.955  25.050  37.649  1.00  0.00    -0.237 OA
ATOM     70  O   UNL A   1      44.621  23.667  35.734  1.00  0.00    -0.744 OA
ENDBRANCH  64  67
ENDBRANCH  37  60
ENDBRANCH  11  12
ENDBRANCH   4   6
ENDBRANCH   3   4
ENDBRANCH   2   3
ENDBRANCH   1   2
BRANCH   1  71
ATOM     71  O   UNL A   1      31.770  30.188  27.092  1.00  0.00    -0.374 OA
BRANCH  71  72
ATOM     72  C   UNL A   1      31.976  29.128  26.152  1.00  0.00     0.202 C 
BRANCH  72  73
ATOM     73  C   UNL A   1      32.636  29.703  24.892  1.00  0.00     0.261 C 
BRANCH  73  74
ATOM     74  O   UNL A   1      32.731  28.662  23.903  1.00  0.00    -0.460 OA
BRANCH  74  75
ATOM     75  C   UNL A   1      31.613  28.486  23.143  1.00  0.00     0.338 C 
ATOM     76  O   UNL A   1      30.980  29.307  22.519  1.00  0.00    -0.246 OA
BRANCH  75  77
ATOM     77  C   UNL A   1      31.437  27.028  23.017  1.00  0.00     0.063 A 
ATOM     78  C   UNL A   1      30.330  26.399  23.581  1.00  0.00     0.016 A 
ATOM     79  C   UNL A   1      32.464  26.280  22.438  1.00  0.00     0.055 A 
ATOM     80  C   UNL A   1      30.292  25.006  23.629  1.00  0.00     0.013 A 
ATOM     81  C   UNL A   1      32.457  24.898  22.576  1.00  0.00     0.132 A 
ATOM     82  C   UNL A   1      31.402  24.241  23.214  1.00  0.00     0.042 A 
ATOM     83  F   UNL A   1      33.509  24.199  22.125  1.00  0.00    -0.206 F 
BRANCH  82  84
ATOM     84  C   UNL A   1      31.463  22.756  23.498  1.00  0.00     0.302 C 
BRANCH  84  85
ATOM     85  N   UNL A   1      31.926  22.311  24.823  1.00  0.00    -0.322 N 
ATOM     86  C   UNL A   1      32.200  20.874  24.977  1.00  0.00     0.324 C 
ATOM     87  C   UNL A   1      32.977  23.102  25.472  1.00  0.00     0.328 C 
ATOM     88  H   UNL A   1      31.067  22.505  25.340  1.00  0.00     0.348 HD
ATOM     89  C   UNL A   1      33.673  20.404  24.825  1.00  0.00     0.324 C 
ATOM     90  C   UNL A   1      34.413  22.686  25.050  1.00  0.00     0.239 C 
ATOM     91  N   UNL A   1      34.693  21.289  25.439  1.00  0.00    -0.323 N 
ATOM     92  C   UNL A   1      35.449  23.657  25.629  1.00  0.00     0.071 C 
ATOM     93  C   UNL A   1      36.039  20.879  25.003  1.00  0.00     0.262 C 
ATOM     94  H   UNL A   1      34.654  21.213  26.456  1.00  0.00     0.348 HD
ATOM     95  C   UNL A   1      36.843  23.276  25.148  1.00  0.00     0.012 C 
ATOM     96  C   UNL A   1      37.138  21.824  25.501  1.00  0.00     0.062 C 
ENDBRANCH  84  85
ENDBRANCH  82  84
ENDBRANCH  75  77
ENDBRANCH  74  75
ENDBRANCH  73  74
ENDBRANCH  72  73
ENDBRANCH  71  72
ENDBRANCH   1  71
TORSDOF 19
ENDMDL
