MODEL 1
REMARK VINA RESULT:     -12.3      0.000      0.000
REMARK SMILES Cc1cccc(-n2ncc(C(=O)Nc3cccc(C(=O)OCCOCCOC(=O)c4ccc(-c5c6nc(c(-c7cccc(S(=O)(=O)[O-])c7F)c7ccc([nH]7)c(-c7cccc(S(=O)(=O)[O-])c7F)c7nc(c(-c8cccc(S(=O)(=O)[O-])c8F)c8ccc5[nH]8)C=C7)C=C6)cc4)c3C)c2C)c1
REMARK SMILES IDX 24 1 23 2 22 3 21 4 19 5 20 6 18 7 14 8 15 9 93 10 16 11
REMARK SMILES IDX 94 12 17 13 13 14 11 15 12 16 10 18 7 19 8 20 95 21 9 22
REMARK SMILES IDX 96 23 6 24 1 25 2 26 3 27 97 28 4 29 5 30 25 31 26 32 27 33
REMARK SMILES IDX 28 34 29 35 30 36 31 37 92 38 32 39 91 40 33 41 34 42 35 43
REMARK SMILES IDX 85 44 36 45 90 46 84 47 86 48 37 49 89 50 83 51 82 52 38 54
REMARK SMILES IDX 70 55 50 56 69 57 51 58 54 59 68 60 87 61 52 62 53 63 67 65
REMARK SMILES IDX 88 66 55 67 39 68 40 69 48 70 41 71 43 72 49 73 42 74 44 75
REMARK SMILES IDX 45 76 46 77 47 78 71 79 72 80 80 81 73 82 75 83 81 84 74 85
REMARK SMILES IDX 76 86 77 87 78 88 79 89 56 90 57 91 65 92 58 93 60 94 66 95
REMARK SMILES IDX 59 96 61 97 62 98 63 99 64 100
REMARK H PARENT 13 17 86 53 54 64
REMARK Flexibility Score: inf
ROOT
ATOM      1  O   UNL A   1      36.673  21.214  24.773  1.00  0.00    -0.374 OA
ENDROOT
BRANCH   1   2
ATOM      2  C   UNL A   1      36.101  22.145  25.681  1.00  0.00     0.202 C 
BRANCH   2   3
ATOM      3  C   UNL A   1      35.025  21.406  26.454  1.00  0.00     0.261 C 
BRANCH   3   4
ATOM      4  O   UNL A   1      33.744  22.019  26.246  1.00  0.00    -0.460 OA
BRANCH   4   5
ATOM      5  C   UNL A   1      33.052  21.579  25.157  1.00  0.00     0.338 C 
ATOM      6  O   UNL A   1      32.688  20.448  24.937  1.00  0.00    -0.246 OA
BRANCH   5   7
ATOM      7  C   UNL A   1      32.709  22.752  24.305  1.00  0.00     0.065 A 
ATOM      8  C   UNL A   1      31.226  24.485  23.581  1.00  0.00     0.045 A 
ATOM      9  C   UNL A   1      32.053  24.748  22.478  1.00  0.00     0.026 A 
ATOM     10  C   UNL A   1      31.601  23.582  24.590  1.00  0.00    -0.013 A 
ATOM     11  C   UNL A   1      33.214  24.020  22.285  1.00  0.00     0.003 A 
ATOM     12  C   UNL A   1      30.735  23.435  25.817  1.00  0.00     0.047 C 
ATOM     13  C   UNL A   1      33.507  22.992  23.164  1.00  0.00     0.016 A 
BRANCH   8  14
ATOM     14  N   UNL A   1      29.927  25.007  23.574  1.00  0.00    -0.322 N 
ATOM     15  C   UNL A   1      29.555  26.264  24.018  1.00  0.00     0.259 C 
ATOM     16  O   UNL A   1      28.355  26.488  24.181  1.00  0.00    -0.269 OA
ATOM     17  H   UNL A   1      29.215  24.427  23.221  1.00  0.00     0.170 HD
BRANCH  15  18
ATOM     18  C   UNL A   1      30.570  27.309  24.218  1.00  0.00     0.081 A 
ATOM     19  N   UNL A   1      32.126  28.619  25.144  1.00  0.00    -0.237 N 
ATOM     20  N   UNL A   1      31.881  29.176  23.940  1.00  0.00    -0.175 NA
ATOM     21  C   UNL A   1      31.274  27.553  25.395  1.00  0.00     0.054 A 
ATOM     22  C   UNL A   1      30.943  28.404  23.403  1.00  0.00     0.149 A 
ATOM     23  C   UNL A   1      31.044  26.958  26.739  1.00  0.00     0.068 C 
BRANCH  19  24
ATOM     24  C   UNL A   1      33.118  29.194  25.973  1.00  0.00     0.065 A 
ATOM     25  C   UNL A   1      33.511  32.372  28.020  1.00  0.00     0.044 C 
ATOM     26  C   UNL A   1      33.805  31.048  27.382  1.00  0.00    -0.049 A 
ATOM     27  C   UNL A   1      34.958  30.331  27.726  1.00  0.00     0.003 A 
ATOM     28  C   UNL A   1      32.907  30.489  26.468  1.00  0.00     0.031 A 
ATOM     29  C   UNL A   1      35.203  29.069  27.179  1.00  0.00     0.002 A 
ATOM     30  C   UNL A   1      34.278  28.491  26.309  1.00  0.00     0.028 A 
ENDBRANCH  19  24
ENDBRANCH  15  18
ENDBRANCH   8  14
ENDBRANCH   5   7
ENDBRANCH   4   5
ENDBRANCH   3   4
ENDBRANCH   2   3
ENDBRANCH   1   2
BRANCH   1  31
ATOM     31  C   UNL A   1      37.968  20.727  25.063  1.00  0.00     0.202 C 
BRANCH  31  32
ATOM     32  C   UNL A   1      38.833  21.723  25.842  1.00  0.00     0.261 C 
BRANCH  32  33
ATOM     33  O   UNL A   1      39.636  21.027  26.816  1.00  0.00    -0.460 OA
BRANCH  33  34
ATOM     34  C   UNL A   1      40.926  20.793  26.437  1.00  0.00     0.338 C 
ATOM     35  O   UNL A   1      41.320  19.735  25.975  1.00  0.00    -0.246 OA
BRANCH  34  36
ATOM     36  C   UNL A   1      41.801  21.914  26.890  1.00  0.00     0.060 A 
ATOM     37  C   UNL A   1      41.800  22.317  28.237  1.00  0.00     0.016 A 
ATOM     38  C   UNL A   1      42.379  22.737  25.929  1.00  0.00     0.016 A 
ATOM     39  C   UNL A   1      42.230  23.606  28.591  1.00  0.00     0.010 A 
ATOM     40  C   UNL A   1      42.685  24.039  26.266  1.00  0.00     0.010 A 
ATOM     41  C   UNL A   1      42.587  24.501  27.594  1.00  0.00    -0.014 A 
BRANCH  41  42
ATOM     42  C   UNL A   1      42.917  25.925  27.755  1.00  0.00     0.031 A 
ATOM     43  C   UNL A   1      41.750  26.852  27.767  1.00  0.00     0.074 A 
ATOM     44  C   UNL A   1      44.064  26.318  28.369  1.00  0.00     0.049 A 
ATOM     45  N   UNL A   1      41.792  28.063  28.192  1.00  0.00    -0.248 NA
ATOM     46  C   UNL A   1      40.414  26.469  27.301  1.00  0.00     0.031 C 
ATOM     47  C   UNL A   1      44.162  27.339  29.422  1.00  0.00     0.029 A 
ATOM     48  N   UNL A   1      45.395  25.910  28.211  1.00  0.00    -0.354 N 
ATOM     49  C   UNL A   1      40.499  28.474  28.401  1.00  0.00     0.074 A 
ATOM     50  C   UNL A   1      39.680  27.507  27.719  1.00  0.00     0.031 C 
ATOM     51  C   UNL A   1      45.446  27.634  29.659  1.00  0.00     0.029 A 
ATOM     52  C   UNL A   1      46.219  26.976  28.634  1.00  0.00     0.049 A 
ATOM     53  H   UNL A   1      45.700  25.039  27.866  1.00  0.00     0.167 HD
ATOM     54  C   UNL A   1      40.295  29.527  29.235  1.00  0.00     0.034 A 
ATOM     55  C   UNL A   1      47.119  27.571  27.801  1.00  0.00     0.034 A 
ATOM     56  C   UNL A   1      41.570  30.192  29.548  1.00  0.00     0.049 A 
ATOM     57  C   UNL A   1      46.820  29.037  27.603  1.00  0.00     0.074 A 
ATOM     58  C   UNL A   1      42.390  30.256  30.659  1.00  0.00     0.029 A 
ATOM     59  N   UNL A   1      42.303  30.723  28.490  1.00  0.00    -0.354 N 
ATOM     60  N   UNL A   1      45.754  29.610  28.089  1.00  0.00    -0.248 NA
ATOM     61  C   UNL A   1      47.660  29.993  26.889  1.00  0.00     0.031 C 
ATOM     62  C   UNL A   1      43.655  30.764  30.236  1.00  0.00     0.029 A 
ATOM     63  C   UNL A   1      43.588  31.055  28.882  1.00  0.00     0.049 A 
ATOM     64  H   UNL A   1      41.952  30.846  27.578  1.00  0.00     0.167 HD
ATOM     65  C   UNL A   1      45.662  30.904  27.679  1.00  0.00     0.074 A 
ATOM     66  C   UNL A   1      46.922  31.118  26.985  1.00  0.00     0.031 C 
ATOM     67  C   UNL A   1      44.523  31.631  27.912  1.00  0.00     0.034 A 
BRANCH  54  68
ATOM     68  C   UNL A   1      38.981  29.946  29.859  1.00  0.00     0.023 A 
ATOM     69  C   UNL A   1      38.201  28.921  30.441  1.00  0.00     0.012 A 
ATOM     70  C   UNL A   1      38.405  31.242  29.857  1.00  0.00     0.148 A 
ATOM     71  C   UNL A   1      36.940  29.158  30.997  1.00  0.00     0.002 A 
ATOM     72  C   UNL A   1      37.176  31.492  30.477  1.00  0.00     0.091 A 
ATOM     73  F   UNL A   1      38.992  32.234  29.182  1.00  0.00    -0.205 F 
ATOM     74  C   UNL A   1      36.435  30.448  31.037  1.00  0.00     0.022 A 
BRANCH  72  75
ATOM     75  S   UNL A   1      36.475  33.148  30.620  1.00  0.00     0.127 S 
ATOM     76  O   UNL A   1      37.398  33.795  31.554  1.00  0.00    -0.237 OA
ATOM     77  O   UNL A   1      36.557  33.647  29.247  1.00  0.00    -0.237 OA
ATOM     78  O   UNL A   1      35.115  32.977  31.116  1.00  0.00    -0.744 OA
ENDBRANCH  72  75
ENDBRANCH  54  68
BRANCH  55  79
ATOM     79  C   UNL A   1      47.721  26.578  26.860  1.00  0.00     0.023 A 
ATOM     80  C   UNL A   1      47.079  26.499  25.596  1.00  0.00     0.012 A 
ATOM     81  C   UNL A   1      49.093  26.273  26.943  1.00  0.00     0.148 A 
ATOM     82  C   UNL A   1      47.822  26.334  24.424  1.00  0.00     0.002 A 
ATOM     83  C   UNL A   1      49.829  26.118  25.766  1.00  0.00     0.091 A 
ATOM     84  F   UNL A   1      49.670  26.249  28.151  1.00  0.00    -0.205 F 
ATOM     85  C   UNL A   1      49.202  26.197  24.510  1.00  0.00     0.022 A 
BRANCH  83  86
ATOM     86  S   UNL A   1      51.623  25.994  25.778  1.00  0.00     0.127 S 
ATOM     87  O   UNL A   1      51.928  25.988  24.350  1.00  0.00    -0.237 OA
ATOM     88  O   UNL A   1      52.023  27.217  26.480  1.00  0.00    -0.237 OA
ATOM     89  O   UNL A   1      51.924  24.769  26.502  1.00  0.00    -0.744 OA
ENDBRANCH  83  86
ENDBRANCH  55  79
BRANCH  67  90
ATOM     90  C   UNL A   1      44.157  32.935  27.221  1.00  0.00     0.023 A 
ATOM     91  C   UNL A   1      44.070  33.051  25.822  1.00  0.00     0.012 A 
ATOM     92  C   UNL A   1      43.727  34.063  27.973  1.00  0.00     0.148 A 
ATOM     93  C   UNL A   1      43.635  34.223  25.196  1.00  0.00     0.002 A 
ATOM     94  C   UNL A   1      43.173  35.177  27.350  1.00  0.00     0.091 A 
ATOM     95  F   UNL A   1      43.870  34.082  29.306  1.00  0.00    -0.205 F 
ATOM     96  C   UNL A   1      43.159  35.277  25.959  1.00  0.00     0.022 A 
BRANCH  94  97
ATOM     97  S   UNL A   1      42.312  36.442  28.295  1.00  0.00     0.127 S 
ATOM     98  O   UNL A   1      41.925  37.387  27.250  1.00  0.00    -0.237 OA
ATOM     99  O   UNL A   1      41.199  35.689  28.878  1.00  0.00    -0.237 OA
ATOM    100  O   UNL A   1      43.282  36.922  29.269  1.00  0.00    -0.744 OA
ENDBRANCH  94  97
ENDBRANCH  67  90
ENDBRANCH  41  42
ENDBRANCH  34  36
ENDBRANCH  33  34
ENDBRANCH  32  33
ENDBRANCH  31  32
ENDBRANCH   1  31
TORSDOF 20
ENDMDL
MODEL 2
REMARK VINA RESULT:     -11.4      4.270     10.030
REMARK SMILES Cc1cccc(-n2ncc(C(=O)Nc3cccc(C(=O)OCCOCCOC(=O)c4ccc(-c5c6nc(c(-c7cccc(S(=O)(=O)[O-])c7F)c7ccc([nH]7)c(-c7cccc(S(=O)(=O)[O-])c7F)c7nc(c(-c8cccc(S(=O)(=O)[O-])c8F)c8ccc5[nH]8)C=C7)C=C6)cc4)c3C)c2C)c1
REMARK SMILES IDX 24 1 23 2 22 3 21 4 19 5 20 6 18 7 14 8 15 9 93 10 16 11
REMARK SMILES IDX 94 12 17 13 13 14 11 15 12 16 10 18 7 19 8 20 95 21 9 22
REMARK SMILES IDX 96 23 6 24 1 25 2 26 3 27 97 28 4 29 5 30 25 31 26 32 27 33
REMARK SMILES IDX 28 34 29 35 30 36 31 37 92 38 32 39 91 40 33 41 34 42 35 43
REMARK SMILES IDX 85 44 36 45 90 46 84 47 86 48 37 49 89 50 83 51 82 52 38 54
REMARK SMILES IDX 70 55 50 56 69 57 51 58 54 59 68 60 87 61 52 62 53 63 67 65
REMARK SMILES IDX 88 66 55 67 39 68 40 69 48 70 41 71 43 72 49 73 42 74 44 75
REMARK SMILES IDX 45 76 46 77 47 78 71 79 72 80 80 81 73 82 75 83 81 84 74 85
REMARK SMILES IDX 76 86 77 87 78 88 79 89 56 90 57 91 65 92 58 93 60 94 66 95
REMARK SMILES IDX 59 96 61 97 62 98 63 99 64 100
REMARK H PARENT 13 17 86 53 54 64
REMARK Flexibility Score: inf
ROOT
ATOM      1  O   UNL A   1      32.068  33.276  27.484  1.00  0.00    -0.374 OA
ENDROOT
BRANCH   1   2
ATOM      2  C   UNL A   1      31.580  32.262  26.616  1.00  0.00     0.202 C 
BRANCH   2   3
ATOM      3  C   UNL A   1      32.417  31.022  26.868  1.00  0.00     0.261 C 
BRANCH   3   4
ATOM      4  O   UNL A   1      31.885  29.900  26.149  1.00  0.00    -0.460 OA
BRANCH   4   5
ATOM      5  C   UNL A   1      32.612  28.750  26.235  1.00  0.00     0.338 C 
ATOM      6  O   UNL A   1      33.125  28.288  27.227  1.00  0.00    -0.246 OA
BRANCH   5   7
ATOM      7  C   UNL A   1      32.588  28.072  24.908  1.00  0.00     0.065 A 
ATOM      8  C   UNL A   1      31.730  26.452  23.370  1.00  0.00     0.045 A 
ATOM      9  C   UNL A   1      32.813  26.681  22.507  1.00  0.00     0.026 A 
ATOM     10  C   UNL A   1      31.518  27.236  24.517  1.00  0.00    -0.013 A 
ATOM     11  C   UNL A   1      33.786  27.609  22.836  1.00  0.00     0.003 A 
ATOM     12  C   UNL A   1      30.267  27.031  25.337  1.00  0.00     0.047 C 
ATOM     13  C   UNL A   1      33.699  28.257  24.056  1.00  0.00     0.016 A 
BRANCH   8  14
ATOM     14  N   UNL A   1      30.952  25.306  23.167  1.00  0.00    -0.322 N 
ATOM     15  C   UNL A   1      31.316  24.011  23.492  1.00  0.00     0.259 C 
ATOM     16  O   UNL A   1      30.642  23.088  23.032  1.00  0.00    -0.269 OA
ATOM     17  H   UNL A   1      30.067  25.433  22.758  1.00  0.00     0.170 HD
BRANCH  15  18
ATOM     18  C   UNL A   1      32.435  23.765  24.414  1.00  0.00     0.081 A 
ATOM     19  N   UNL A   1      34.455  23.262  25.227  1.00  0.00    -0.237 N 
ATOM     20  N   UNL A   1      33.668  23.383  26.316  1.00  0.00    -0.175 NA
ATOM     21  C   UNL A   1      33.724  23.376  24.054  1.00  0.00     0.054 A 
ATOM     22  C   UNL A   1      32.466  23.664  25.825  1.00  0.00     0.149 A 
ATOM     23  C   UNL A   1      34.210  22.951  22.714  1.00  0.00     0.068 C 
BRANCH  19  24
ATOM     24  C   UNL A   1      35.832  22.990  25.408  1.00  0.00     0.065 A 
ATOM     25  C   UNL A   1      38.800  24.714  27.042  1.00  0.00     0.044 C 
ATOM     26  C   UNL A   1      37.975  23.710  26.293  1.00  0.00    -0.049 A 
ATOM     27  C   UNL A   1      38.518  22.472  25.929  1.00  0.00     0.003 A 
ATOM     28  C   UNL A   1      36.637  23.980  25.991  1.00  0.00     0.031 A 
ATOM     29  C   UNL A   1      37.733  21.511  25.286  1.00  0.00     0.002 A 
ATOM     30  C   UNL A   1      36.384  21.762  25.034  1.00  0.00     0.028 A 
ENDBRANCH  19  24
ENDBRANCH  15  18
ENDBRANCH   8  14
ENDBRANCH   5   7
ENDBRANCH   4   5
ENDBRANCH   3   4
ENDBRANCH   2   3
ENDBRANCH   1   2
BRANCH   1  31
ATOM     31  C   UNL A   1      33.446  33.261  27.798  1.00  0.00     0.202 C 
BRANCH  31  32
ATOM     32  C   UNL A   1      33.890  34.456  28.647  1.00  0.00     0.261 C 
BRANCH  32  33
ATOM     33  O   UNL A   1      35.082  34.123  29.386  1.00  0.00    -0.460 OA
BRANCH  33  34
ATOM     34  C   UNL A   1      34.873  33.387  30.516  1.00  0.00     0.338 C 
ATOM     35  O   UNL A   1      34.107  33.712  31.409  1.00  0.00    -0.246 OA
BRANCH  34  36
ATOM     36  C   UNL A   1      35.874  32.284  30.599  1.00  0.00     0.060 A 
ATOM     37  C   UNL A   1      35.947  31.476  31.747  1.00  0.00     0.016 A 
ATOM     38  C   UNL A   1      36.913  32.258  29.674  1.00  0.00     0.016 A 
ATOM     39  C   UNL A   1      37.127  30.772  32.043  1.00  0.00     0.010 A 
ATOM     40  C   UNL A   1      38.106  31.663  30.032  1.00  0.00     0.010 A 
ATOM     41  C   UNL A   1      38.239  30.938  31.232  1.00  0.00    -0.014 A 
BRANCH  41  42
ATOM     42  C   UNL A   1      39.591  30.409  31.462  1.00  0.00     0.031 A 
ATOM     43  C   UNL A   1      39.866  29.078  30.851  1.00  0.00     0.074 A 
ATOM     44  C   UNL A   1      40.640  31.237  31.712  1.00  0.00     0.049 A 
ATOM     45  N   UNL A   1      41.042  28.591  30.674  1.00  0.00    -0.248 NA
ATOM     46  C   UNL A   1      38.812  28.180  30.370  1.00  0.00     0.031 C 
ATOM     47  C   UNL A   1      41.952  31.176  31.054  1.00  0.00     0.029 A 
ATOM     48  N   UNL A   1      40.788  32.315  32.596  1.00  0.00    -0.354 N 
ATOM     49  C   UNL A   1      40.932  27.560  29.774  1.00  0.00     0.074 A 
ATOM     50  C   UNL A   1      39.527  27.260  29.712  1.00  0.00     0.031 C 
ATOM     51  C   UNL A   1      42.817  31.988  31.673  1.00  0.00     0.029 A 
ATOM     52  C   UNL A   1      42.166  32.446  32.876  1.00  0.00     0.049 A 
ATOM     53  H   UNL A   1      40.064  32.876  32.956  1.00  0.00     0.167 HD
ATOM     54  C   UNL A   1      42.054  27.178  29.109  1.00  0.00     0.034 A 
ATOM     55  C   UNL A   1      42.660  32.348  34.143  1.00  0.00     0.034 A 
ATOM     56  C   UNL A   1      43.246  27.802  29.705  1.00  0.00     0.049 A 
ATOM     57  C   UNL A   1      43.636  31.205  34.281  1.00  0.00     0.074 A 
ATOM     58  C   UNL A   1      44.107  28.816  29.329  1.00  0.00     0.029 A 
ATOM     59  N   UNL A   1      43.524  27.528  31.042  1.00  0.00    -0.354 N 
ATOM     60  N   UNL A   1      43.868  30.358  33.317  1.00  0.00    -0.248 NA
ATOM     61  C   UNL A   1      44.447  30.910  35.457  1.00  0.00     0.031 C 
ATOM     62  C   UNL A   1      44.855  29.201  30.483  1.00  0.00     0.029 A 
ATOM     63  C   UNL A   1      44.485  28.387  31.544  1.00  0.00     0.049 A 
ATOM     64  H   UNL A   1      43.091  26.814  31.563  1.00  0.00     0.167 HD
ATOM     65  C   UNL A   1      44.700  29.363  33.729  1.00  0.00     0.074 A 
ATOM     66  C   UNL A   1      45.093  29.795  35.061  1.00  0.00     0.031 C 
ATOM     67  C   UNL A   1      44.919  28.265  32.939  1.00  0.00     0.034 A 
BRANCH  54  68
ATOM     68  C   UNL A   1      42.120  26.311  27.870  1.00  0.00     0.023 A 
ATOM     69  C   UNL A   1      41.817  26.939  26.640  1.00  0.00     0.012 A 
ATOM     70  C   UNL A   1      42.375  24.917  27.811  1.00  0.00     0.148 A 
ATOM     71  C   UNL A   1      41.781  26.244  25.428  1.00  0.00     0.002 A 
ATOM     72  C   UNL A   1      42.408  24.235  26.589  1.00  0.00     0.091 A 
ATOM     73  F   UNL A   1      42.502  24.211  28.938  1.00  0.00    -0.205 F 
ATOM     74  C   UNL A   1      42.099  24.894  25.397  1.00  0.00     0.022 A 
BRANCH  72  75
ATOM     75  S   UNL A   1      42.867  22.495  26.456  1.00  0.00     0.127 S 
ATOM     76  O   UNL A   1      42.680  22.234  25.028  1.00  0.00    -0.237 OA
ATOM     77  O   UNL A   1      44.264  22.501  26.892  1.00  0.00    -0.237 OA
ATOM     78  O   UNL A   1      41.966  21.765  27.340  1.00  0.00    -0.744 OA
ENDBRANCH  72  75
ENDBRANCH  54  68
BRANCH  55  79
ATOM     79  C   UNL A   1      41.704  32.921  35.140  1.00  0.00     0.023 A 
ATOM     80  C   UNL A   1      41.473  34.315  35.000  1.00  0.00     0.012 A 
ATOM     81  C   UNL A   1      40.683  32.115  35.679  1.00  0.00     0.148 A 
ATOM     82  C   UNL A   1      40.196  34.852  35.188  1.00  0.00     0.002 A 
ATOM     83  C   UNL A   1      39.408  32.658  35.855  1.00  0.00     0.091 A 
ATOM     84  F   UNL A   1      40.942  30.820  35.903  1.00  0.00    -0.205 F 
ATOM     85  C   UNL A   1      39.155  34.011  35.563  1.00  0.00     0.022 A 
BRANCH  83  86
ATOM     86  S   UNL A   1      37.991  31.635  36.281  1.00  0.00     0.127 S 
ATOM     87  O   UNL A   1      36.879  32.474  35.843  1.00  0.00    -0.237 OA
ATOM     88  O   UNL A   1      38.207  30.437  35.466  1.00  0.00    -0.237 OA
ATOM     89  O   UNL A   1      38.094  31.406  37.714  1.00  0.00    -0.744 OA
ENDBRANCH  83  86
ENDBRANCH  55  79
BRANCH  67  90
ATOM     90  C   UNL A   1      45.527  26.952  33.407  1.00  0.00     0.023 A 
ATOM     91  C   UNL A   1      46.907  26.688  33.327  1.00  0.00     0.012 A 
ATOM     92  C   UNL A   1      44.742  25.989  34.098  1.00  0.00     0.148 A 
ATOM     93  C   UNL A   1      47.475  25.522  33.851  1.00  0.00     0.002 A 
ATOM     94  C   UNL A   1      45.330  24.898  34.729  1.00  0.00     0.091 A 
ATOM     95  F   UNL A   1      43.407  26.106  34.135  1.00  0.00    -0.205 F 
ATOM     96  C   UNL A   1      46.692  24.640  34.578  1.00  0.00     0.022 A 
BRANCH  94  97
ATOM     97  S   UNL A   1      44.404  23.882  35.890  1.00  0.00     0.127 S 
ATOM     98  O   UNL A   1      43.486  23.173  35.003  1.00  0.00    -0.237 OA
ATOM     99  O   UNL A   1      45.455  23.045  36.475  1.00  0.00    -0.237 OA
ATOM    100  O   UNL A   1      43.800  24.820  36.825  1.00  0.00    -0.744 OA
ENDBRANCH  94  97
ENDBRANCH  67  90
ENDBRANCH  41  42
ENDBRANCH  34  36
ENDBRANCH  33  34
ENDBRANCH  32  33
ENDBRANCH  31  32
ENDBRANCH   1  31
TORSDOF 20
ENDMDL
MODEL 3
REMARK VINA RESULT:     -11.0      4.253     10.282
REMARK SMILES Cc1cccc(-n2ncc(C(=O)Nc3cccc(C(=O)OCCOCCOC(=O)c4ccc(-c5c6nc(c(-c7cccc(S(=O)(=O)[O-])c7F)c7ccc([nH]7)c(-c7cccc(S(=O)(=O)[O-])c7F)c7nc(c(-c8cccc(S(=O)(=O)[O-])c8F)c8ccc5[nH]8)C=C7)C=C6)cc4)c3C)c2C)c1
REMARK SMILES IDX 24 1 23 2 22 3 21 4 19 5 20 6 18 7 14 8 15 9 93 10 16 11
REMARK SMILES IDX 94 12 17 13 13 14 11 15 12 16 10 18 7 19 8 20 95 21 9 22
REMARK SMILES IDX 96 23 6 24 1 25 2 26 3 27 97 28 4 29 5 30 25 31 26 32 27 33
REMARK SMILES IDX 28 34 29 35 30 36 31 37 92 38 32 39 91 40 33 41 34 42 35 43
REMARK SMILES IDX 85 44 36 45 90 46 84 47 86 48 37 49 89 50 83 51 82 52 38 54
REMARK SMILES IDX 70 55 50 56 69 57 51 58 54 59 68 60 87 61 52 62 53 63 67 65
REMARK SMILES IDX 88 66 55 67 39 68 40 69 48 70 41 71 43 72 49 73 42 74 44 75
REMARK SMILES IDX 45 76 46 77 47 78 71 79 72 80 80 81 73 82 75 83 81 84 74 85
REMARK SMILES IDX 76 86 77 87 78 88 79 89 56 90 57 91 65 92 58 93 60 94 66 95
REMARK SMILES IDX 59 96 61 97 62 98 63 99 64 100
REMARK H PARENT 13 17 86 53 54 64
REMARK Flexibility Score: inf
ROOT
ATOM      1  O   UNL A   1      32.862  32.958  27.563  1.00  0.00    -0.374 OA
ENDROOT
BRANCH   1   2
ATOM      2  C   UNL A   1      31.756  32.534  26.778  1.00  0.00     0.202 C 
BRANCH   2   3
ATOM      3  C   UNL A   1      31.945  31.053  26.509  1.00  0.00     0.261 C 
BRANCH   3   4
ATOM      4  O   UNL A   1      32.884  30.488  27.435  1.00  0.00    -0.460 OA
BRANCH   4   5
ATOM      5  C   UNL A   1      33.701  29.522  26.928  1.00  0.00     0.338 C 
ATOM      6  O   UNL A   1      34.909  29.498  26.967  1.00  0.00    -0.246 OA
BRANCH   5   7
ATOM      7  C   UNL A   1      32.856  28.416  26.396  1.00  0.00     0.065 A 
ATOM      8  C   UNL A   1      31.917  27.140  24.601  1.00  0.00     0.045 A 
ATOM      9  C   UNL A   1      31.033  26.514  25.494  1.00  0.00     0.026 A 
ATOM     10  C   UNL A   1      32.937  27.999  25.048  1.00  0.00    -0.013 A 
ATOM     11  C   UNL A   1      31.059  26.830  26.841  1.00  0.00     0.003 A 
ATOM     12  C   UNL A   1      33.939  28.542  24.058  1.00  0.00     0.047 C 
ATOM     13  C   UNL A   1      31.928  27.817  27.275  1.00  0.00     0.016 A 
BRANCH   8  14
ATOM     14  N   UNL A   1      31.656  27.039  23.230  1.00  0.00    -0.322 N 
ATOM     15  C   UNL A   1      32.175  26.082  22.374  1.00  0.00     0.259 C 
ATOM     16  O   UNL A   1      32.057  26.266  21.162  1.00  0.00    -0.269 OA
ATOM     17  H   UNL A   1      31.049  27.706  22.840  1.00  0.00     0.170 HD
BRANCH  15  18
ATOM     18  C   UNL A   1      32.786  24.858  22.914  1.00  0.00     0.081 A 
ATOM     19  N   UNL A   1      33.063  22.798  23.733  1.00  0.00    -0.237 N 
ATOM     20  N   UNL A   1      34.278  23.373  23.835  1.00  0.00    -0.175 NA
ATOM     21  C   UNL A   1      32.108  23.698  23.284  1.00  0.00     0.054 A 
ATOM     22  C   UNL A   1      34.103  24.603  23.364  1.00  0.00     0.149 A 
ATOM     23  C   UNL A   1      30.639  23.493  23.394  1.00  0.00     0.068 C 
BRANCH  19  24
ATOM     24  C   UNL A   1      32.911  21.448  24.130  1.00  0.00     0.065 A 
ATOM     25  C   UNL A   1      32.308  18.111  22.412  1.00  0.00     0.044 C 
ATOM     26  C   UNL A   1      32.529  19.140  23.481  1.00  0.00    -0.049 A 
ATOM     27  C   UNL A   1      32.741  18.753  24.810  1.00  0.00     0.003 A 
ATOM     28  C   UNL A   1      32.574  20.498  23.154  1.00  0.00     0.031 A 
ATOM     29  C   UNL A   1      33.009  19.706  25.796  1.00  0.00     0.002 A 
ATOM     30  C   UNL A   1      33.107  21.056  25.457  1.00  0.00     0.028 A 
ENDBRANCH  19  24
ENDBRANCH  15  18
ENDBRANCH   8  14
ENDBRANCH   5   7
ENDBRANCH   4   5
ENDBRANCH   3   4
ENDBRANCH   2   3
ENDBRANCH   1   2
BRANCH   1  31
ATOM     31  C   UNL A   1      32.846  34.283  28.055  1.00  0.00     0.202 C 
BRANCH  31  32
ATOM     32  C   UNL A   1      33.923  34.553  29.110  1.00  0.00     0.261 C 
BRANCH  32  33
ATOM     33  O   UNL A   1      34.730  33.375  29.308  1.00  0.00    -0.460 OA
BRANCH  33  34
ATOM     34  C   UNL A   1      35.331  33.287  30.530  1.00  0.00     0.338 C 
ATOM     35  O   UNL A   1      35.211  34.124  31.410  1.00  0.00    -0.246 OA
BRANCH  34  36
ATOM     36  C   UNL A   1      36.320  32.170  30.533  1.00  0.00     0.060 A 
ATOM     37  C   UNL A   1      36.313  31.218  31.568  1.00  0.00     0.016 A 
ATOM     38  C   UNL A   1      37.417  32.250  29.681  1.00  0.00     0.016 A 
ATOM     39  C   UNL A   1      37.468  30.467  31.846  1.00  0.00     0.010 A 
ATOM     40  C   UNL A   1      38.581  31.599  30.035  1.00  0.00     0.010 A 
ATOM     41  C   UNL A   1      38.632  30.722  31.137  1.00  0.00    -0.014 A 
BRANCH  41  42
ATOM     42  C   UNL A   1      39.964  30.150  31.382  1.00  0.00     0.031 A 
ATOM     43  C   UNL A   1      40.241  28.861  30.688  1.00  0.00     0.074 A 
ATOM     44  C   UNL A   1      41.015  30.936  31.736  1.00  0.00     0.049 A 
ATOM     45  N   UNL A   1      41.414  28.365  30.524  1.00  0.00    -0.248 NA
ATOM     46  C   UNL A   1      39.193  28.022  30.100  1.00  0.00     0.031 C 
ATOM     47  C   UNL A   1      42.353  30.896  31.129  1.00  0.00     0.029 A 
ATOM     48  N   UNL A   1      41.144  31.944  32.701  1.00  0.00    -0.354 N 
ATOM     49  C   UNL A   1      41.325  27.404  29.548  1.00  0.00     0.074 A 
ATOM     50  C   UNL A   1      39.919  27.138  29.406  1.00  0.00     0.031 C 
ATOM     51  C   UNL A   1      43.204  31.644  31.841  1.00  0.00     0.029 A 
ATOM     52  C   UNL A   1      42.511  32.027  33.047  1.00  0.00     0.049 A 
ATOM     53  H   UNL A   1      40.416  32.493  33.071  1.00  0.00     0.167 HD
ATOM     54  C   UNL A   1      42.467  27.048  28.903  1.00  0.00     0.034 A 
ATOM     55  C   UNL A   1      42.949  31.827  34.322  1.00  0.00     0.034 A 
ATOM     56  C   UNL A   1      43.643  27.603  29.592  1.00  0.00     0.049 A 
ATOM     57  C   UNL A   1      43.898  30.658  34.416  1.00  0.00     0.074 A 
ATOM     58  C   UNL A   1      44.537  28.624  29.327  1.00  0.00     0.029 A 
ATOM     59  N   UNL A   1      43.860  27.228  30.915  1.00  0.00    -0.354 N 
ATOM     60  N   UNL A   1      44.157  29.878  33.403  1.00  0.00    -0.248 NA
ATOM     61  C   UNL A   1      44.654  30.262  35.600  1.00  0.00     0.031 C 
ATOM     62  C   UNL A   1      45.242  28.909  30.535  1.00  0.00     0.029 A 
ATOM     63  C   UNL A   1      44.813  28.029  31.518  1.00  0.00     0.049 A 
ATOM     64  H   UNL A   1      43.393  26.486  31.364  1.00  0.00     0.167 HD
ATOM     65  C   UNL A   1      44.952  28.839  33.775  1.00  0.00     0.074 A 
ATOM     66  C   UNL A   1      45.296  29.165  35.150  1.00  0.00     0.031 C 
ATOM     67  C   UNL A   1      45.186  27.796  32.916  1.00  0.00     0.034 A 
BRANCH  54  68
ATOM     68  C   UNL A   1      42.570  26.272  27.608  1.00  0.00     0.023 A 
ATOM     69  C   UNL A   1      42.770  27.028  26.430  1.00  0.00     0.012 A 
ATOM     70  C   UNL A   1      42.411  24.874  27.430  1.00  0.00     0.148 A 
ATOM     71  C   UNL A   1      42.822  26.445  25.160  1.00  0.00     0.002 A 
ATOM     72  C   UNL A   1      42.535  24.282  26.168  1.00  0.00     0.091 A 
ATOM     73  F   UNL A   1      42.051  24.105  28.463  1.00  0.00    -0.205 F 
ATOM     74  C   UNL A   1      42.727  25.068  25.030  1.00  0.00     0.022 A 
BRANCH  72  75
ATOM     75  S   UNL A   1      42.479  22.496  25.919  1.00  0.00     0.127 S 
ATOM     76  O   UNL A   1      43.022  22.355  24.568  1.00  0.00    -0.237 OA
ATOM     77  O   UNL A   1      43.360  22.001  26.979  1.00  0.00    -0.237 OA
ATOM     78  O   UNL A   1      41.083  22.104  26.068  1.00  0.00    -0.744 OA
ENDBRANCH  72  75
ENDBRANCH  54  68
BRANCH  55  79
ATOM     79  C   UNL A   1      41.962  32.346  35.318  1.00  0.00     0.023 A 
ATOM     80  C   UNL A   1      41.844  33.761  35.348  1.00  0.00     0.012 A 
ATOM     81  C   UNL A   1      40.847  31.565  35.675  1.00  0.00     0.148 A 
ATOM     82  C   UNL A   1      40.598  34.372  35.517  1.00  0.00     0.002 A 
ATOM     83  C   UNL A   1      39.604  32.184  35.834  1.00  0.00     0.091 A 
ATOM     84  F   UNL A   1      40.992  30.236  35.744  1.00  0.00    -0.205 F 
ATOM     85  C   UNL A   1      39.473  33.579  35.706  1.00  0.00     0.022 A 
BRANCH  83  86
ATOM     86  S   UNL A   1      38.088  31.235  36.023  1.00  0.00     0.127 S 
ATOM     87  O   UNL A   1      37.076  32.217  35.645  1.00  0.00    -0.237 OA
ATOM     88  O   UNL A   1      38.270  30.147  35.058  1.00  0.00    -0.237 OA
ATOM     89  O   UNL A   1      38.072  30.801  37.412  1.00  0.00    -0.744 OA
ENDBRANCH  83  86
ENDBRANCH  55  79
BRANCH  67  90
ATOM     90  C   UNL A   1      45.751  26.442  33.312  1.00  0.00     0.023 A 
ATOM     91  C   UNL A   1      47.126  26.152  33.258  1.00  0.00     0.012 A 
ATOM     92  C   UNL A   1      44.923  25.452  33.909  1.00  0.00     0.148 A 
ATOM     93  C   UNL A   1      47.652  24.940  33.717  1.00  0.00     0.002 A 
ATOM     94  C   UNL A   1      45.467  24.307  34.482  1.00  0.00     0.091 A 
ATOM     95  F   UNL A   1      43.590  25.596  33.912  1.00  0.00    -0.205 F 
ATOM     96  C   UNL A   1      46.827  24.028  34.356  1.00  0.00     0.022 A 
BRANCH  94  97
ATOM     97  S   UNL A   1      44.482  23.235  35.540  1.00  0.00     0.127 S 
ATOM     98  O   UNL A   1      44.127  24.136  36.634  1.00  0.00    -0.237 OA
ATOM     99  O   UNL A   1      43.367  22.874  34.662  1.00  0.00    -0.237 OA
ATOM    100  O   UNL A   1      45.357  22.122  35.881  1.00  0.00    -0.744 OA
ENDBRANCH  94  97
ENDBRANCH  67  90
ENDBRANCH  41  42
ENDBRANCH  34  36
ENDBRANCH  33  34
ENDBRANCH  32  33
ENDBRANCH  31  32
ENDBRANCH   1  31
TORSDOF 20
ENDMDL
