MODEL 1
REMARK VINA RESULT:     -10.7      0.000      0.000
REMARK SMILES Cc1cc(NS(=O)(=O)CC(=O)OCCOCCOC(=O)c2ccc(-c3c4nc(c(-c5cccc(S(=O)(=O)[O-])c5F)c5ccc([nH]5)c(-c5cccc(S(=O)(=O)[O-])c5F)c5nc(c(-c6cccc(S(=O)(=O)[O-])c6F)c6ccc3[nH]6)C=C5)C=C4)cc2)ccn1
REMARK SMILES IDX 15 1 14 2 13 3 12 4 10 5 11 6 9 7 6 8 7 9 8 10 5 11 4 13
REMARK SMILES IDX 1 14 2 15 3 16 86 17 85 18 84 19 16 20 17 21 18 22 19 23
REMARK SMILES IDX 20 24 21 25 22 26 83 27 23 28 82 29 24 30 25 31 26 32 76 33
REMARK SMILES IDX 27 34 81 35 75 36 77 37 28 38 80 39 74 40 73 41 29 43 61 44
REMARK SMILES IDX 41 45 60 46 42 47 45 48 59 49 78 50 43 51 44 52 58 54 79 55
REMARK SMILES IDX 46 56 30 57 31 58 39 59 32 60 34 61 40 62 33 63 35 64 36 65
REMARK SMILES IDX 37 66 38 67 62 68 63 69 71 70 64 71 66 72 72 73 65 74 67 75
REMARK SMILES IDX 68 76 69 77 70 78 47 79 48 80 56 81 49 82 51 83 57 84 50 85
REMARK SMILES IDX 52 86 53 87 54 88 55 89
REMARK H PARENT 5 12 77 42 45 53
REMARK Flexibility Score: inf
ROOT
ATOM      1  O   UNL A   1      32.229  28.752  26.836  1.00  0.00    -0.374 OA
ENDROOT
BRANCH   1   2
ATOM      2  C   UNL A   1      33.147  27.971  26.066  1.00  0.00     0.202 C 
BRANCH   2   3
ATOM      3  C   UNL A   1      33.699  28.622  24.792  1.00  0.00     0.261 C 
BRANCH   3   4
ATOM      4  O   UNL A   1      32.985  28.205  23.602  1.00  0.00    -0.462 OA
BRANCH   4   5
ATOM      5  C   UNL A   1      33.694  27.584  22.626  1.00  0.00     0.323 C 
ATOM      6  O   UNL A   1      34.145  28.142  21.630  1.00  0.00    -0.251 OA
BRANCH   5   7
ATOM      7  C   UNL A   1      33.774  26.109  22.800  1.00  0.00     0.282 C 
BRANCH   7   8
ATOM      8  S   UNL A   1      32.457  25.211  22.023  1.00  0.00     0.243 S 
ATOM      9  O   UNL A   1      32.375  25.712  20.662  1.00  0.00    -0.206 OA
ATOM     10  O   UNL A   1      31.270  25.175  22.835  1.00  0.00    -0.206 OA
BRANCH   8  11
ATOM     11  N   UNL A   1      33.001  23.622  21.805  1.00  0.00    -0.283 N 
ATOM     12  H   UNL A   1      32.883  23.193  20.927  1.00  0.00     0.180 HD
BRANCH  11  13
ATOM     13  C   UNL A   1      33.624  22.885  22.863  1.00  0.00     0.052 A 
ATOM     14  C   UNL A   1      37.029  22.145  24.367  1.00  0.00     0.067 C 
ATOM     15  C   UNL A   1      35.549  22.211  24.129  1.00  0.00     0.039 A 
ATOM     16  C   UNL A   1      35.001  22.948  23.077  1.00  0.00     0.050 A 
ATOM     17  N   UNL A   1      34.786  21.461  24.956  1.00  0.00    -0.261 NA
ATOM     18  C   UNL A   1      33.456  21.439  24.739  1.00  0.00     0.113 A 
ATOM     19  C   UNL A   1      32.835  22.131  23.717  1.00  0.00     0.047 A 
ENDBRANCH  11  13
ENDBRANCH   8  11
ENDBRANCH   7   8
ENDBRANCH   5   7
ENDBRANCH   4   5
ENDBRANCH   3   4
ENDBRANCH   2   3
ENDBRANCH   1   2
BRANCH   1  20
ATOM     20  C   UNL A   1      31.656  29.891  26.203  1.00  0.00     0.202 C 
BRANCH  20  21
ATOM     21  C   UNL A   1      32.065  31.270  26.728  1.00  0.00     0.261 C 
BRANCH  21  22
ATOM     22  O   UNL A   1      33.018  31.218  27.776  1.00  0.00    -0.460 OA
BRANCH  22  23
ATOM     23  C   UNL A   1      33.763  32.330  27.879  1.00  0.00     0.338 C 
ATOM     24  O   UNL A   1      33.378  33.491  27.950  1.00  0.00    -0.246 OA
BRANCH  23  25
ATOM     25  C   UNL A   1      35.153  31.923  28.062  1.00  0.00     0.060 A 
ATOM     26  C   UNL A   1      35.394  30.550  28.125  1.00  0.00     0.016 A 
ATOM     27  C   UNL A   1      36.181  32.860  28.212  1.00  0.00     0.016 A 
ATOM     28  C   UNL A   1      36.660  30.105  28.453  1.00  0.00     0.010 A 
ATOM     29  C   UNL A   1      37.458  32.409  28.534  1.00  0.00     0.010 A 
ATOM     30  C   UNL A   1      37.674  31.036  28.723  1.00  0.00    -0.014 A 
BRANCH  30  31
ATOM     31  C   UNL A   1      38.881  30.539  29.405  1.00  0.00     0.031 A 
ATOM     32  C   UNL A   1      39.162  31.025  30.798  1.00  0.00     0.074 A 
ATOM     33  C   UNL A   1      39.629  29.587  28.825  1.00  0.00     0.049 A 
ATOM     34  N   UNL A   1      40.058  30.609  31.652  1.00  0.00    -0.248 NA
ATOM     35  C   UNL A   1      38.317  32.124  31.302  1.00  0.00     0.031 C 
ATOM     36  C   UNL A   1      39.423  29.061  27.475  1.00  0.00     0.029 A 
ATOM     37  N   UNL A   1      40.700  28.887  29.304  1.00  0.00    -0.354 N 
ATOM     38  C   UNL A   1      39.895  31.400  32.782  1.00  0.00     0.074 A 
ATOM     39  C   UNL A   1      38.834  32.339  32.502  1.00  0.00     0.031 C 
ATOM     40  C   UNL A   1      40.346  28.115  27.234  1.00  0.00     0.029 A 
ATOM     41  C   UNL A   1      41.204  27.979  28.406  1.00  0.00     0.049 A 
ATOM     42  H   UNL A   1      41.074  29.021  30.205  1.00  0.00     0.167 HD
ATOM     43  C   UNL A   1      40.558  31.329  33.960  1.00  0.00     0.034 A 
ATOM     44  C   UNL A   1      42.243  27.131  28.531  1.00  0.00     0.034 A 
ATOM     45  C   UNL A   1      41.599  30.375  34.223  1.00  0.00     0.049 A 
ATOM     46  C   UNL A   1      42.957  27.067  29.855  1.00  0.00     0.074 A 
ATOM     47  C   UNL A   1      42.323  30.185  35.385  1.00  0.00     0.029 A 
ATOM     48  N   UNL A   1      42.069  29.452  33.300  1.00  0.00    -0.354 N 
ATOM     49  N   UNL A   1      42.717  27.739  30.956  1.00  0.00    -0.248 NA
ATOM     50  C   UNL A   1      44.052  26.097  29.967  1.00  0.00     0.031 C 
ATOM     51  C   UNL A   1      43.252  29.165  35.155  1.00  0.00     0.029 A 
ATOM     52  C   UNL A   1      43.082  28.696  33.860  1.00  0.00     0.049 A 
ATOM     53  H   UNL A   1      41.733  29.351  32.380  1.00  0.00     0.167 HD
ATOM     54  C   UNL A   1      43.610  27.251  31.903  1.00  0.00     0.074 A 
ATOM     55  C   UNL A   1      44.374  26.208  31.249  1.00  0.00     0.031 C 
ATOM     56  C   UNL A   1      43.796  27.636  33.191  1.00  0.00     0.034 A 
BRANCH  43  57
ATOM     57  C   UNL A   1      40.163  32.298  35.043  1.00  0.00     0.023 A 
ATOM     58  C   UNL A   1      40.796  33.556  35.124  1.00  0.00     0.012 A 
ATOM     59  C   UNL A   1      39.145  31.978  35.962  1.00  0.00     0.148 A 
ATOM     60  C   UNL A   1      40.446  34.465  36.124  1.00  0.00     0.002 A 
ATOM     61  C   UNL A   1      38.771  32.906  36.927  1.00  0.00     0.091 A 
ATOM     62  F   UNL A   1      38.576  30.766  35.886  1.00  0.00    -0.205 F 
ATOM     63  C   UNL A   1      39.427  34.145  37.017  1.00  0.00     0.022 A 
BRANCH  61  64
ATOM     64  S   UNL A   1      37.422  32.616  38.077  1.00  0.00     0.127 S 
ATOM     65  O   UNL A   1      37.844  33.407  39.232  1.00  0.00    -0.237 OA
ATOM     66  O   UNL A   1      36.276  33.163  37.350  1.00  0.00    -0.237 OA
ATOM     67  O   UNL A   1      37.377  31.176  38.290  1.00  0.00    -0.744 OA
ENDBRANCH  61  64
ENDBRANCH  43  57
BRANCH  44  68
ATOM     68  C   UNL A   1      42.621  26.249  27.393  1.00  0.00     0.023 A 
ATOM     69  C   UNL A   1      43.507  26.716  26.404  1.00  0.00     0.012 A 
ATOM     70  C   UNL A   1      42.132  24.930  27.309  1.00  0.00     0.148 A 
ATOM     71  C   UNL A   1      43.874  25.897  25.335  1.00  0.00     0.002 A 
ATOM     72  C   UNL A   1      42.547  24.101  26.274  1.00  0.00     0.091 A 
ATOM     73  F   UNL A   1      41.279  24.508  28.254  1.00  0.00    -0.205 F 
ATOM     74  C   UNL A   1      43.404  24.587  25.275  1.00  0.00     0.022 A 
BRANCH  72  75
ATOM     75  S   UNL A   1      42.098  22.363  26.199  1.00  0.00     0.127 S 
ATOM     76  O   UNL A   1      42.788  21.928  24.988  1.00  0.00    -0.237 OA
ATOM     77  O   UNL A   1      42.661  21.850  27.448  1.00  0.00    -0.237 OA
ATOM     78  O   UNL A   1      40.643  22.336  26.144  1.00  0.00    -0.744 OA
ENDBRANCH  72  75
ENDBRANCH  44  68
BRANCH  56  79
ATOM     79  C   UNL A   1      44.848  26.904  33.980  1.00  0.00     0.023 A 
ATOM     80  C   UNL A   1      46.178  27.369  33.976  1.00  0.00     0.012 A 
ATOM     81  C   UNL A   1      44.506  25.788  34.767  1.00  0.00     0.148 A 
ATOM     82  C   UNL A   1      47.162  26.704  34.706  1.00  0.00     0.002 A 
ATOM     83  C   UNL A   1      45.480  25.164  35.535  1.00  0.00     0.091 A 
ATOM     84  F   UNL A   1      43.238  25.349  34.744  1.00  0.00    -0.205 F 
ATOM     85  C   UNL A   1      46.811  25.609  35.492  1.00  0.00     0.022 A 
BRANCH  83  86
ATOM     86  S   UNL A   1      45.094  23.813  36.653  1.00  0.00     0.127 S 
ATOM     87  O   UNL A   1      44.213  24.467  37.620  1.00  0.00    -0.237 OA
ATOM     88  O   UNL A   1      44.427  22.857  35.769  1.00  0.00    -0.237 OA
ATOM     89  O   UNL A   1      46.373  23.353  37.177  1.00  0.00    -0.744 OA
ENDBRANCH  83  86
ENDBRANCH  56  79
ENDBRANCH  30  31
ENDBRANCH  23  25
ENDBRANCH  22  23
ENDBRANCH  21  22
ENDBRANCH  20  21
ENDBRANCH   1  20
TORSDOF 20
ENDMDL
MODEL 2
REMARK VINA RESULT:     -10.4      5.014     10.391
REMARK SMILES Cc1cc(NS(=O)(=O)CC(=O)OCCOCCOC(=O)c2ccc(-c3c4nc(c(-c5cccc(S(=O)(=O)[O-])c5F)c5ccc([nH]5)c(-c5cccc(S(=O)(=O)[O-])c5F)c5nc(c(-c6cccc(S(=O)(=O)[O-])c6F)c6ccc3[nH]6)C=C5)C=C4)cc2)ccn1
REMARK SMILES IDX 15 1 14 2 13 3 12 4 10 5 11 6 9 7 6 8 7 9 8 10 5 11 4 13
REMARK SMILES IDX 1 14 2 15 3 16 86 17 85 18 84 19 16 20 17 21 18 22 19 23
REMARK SMILES IDX 20 24 21 25 22 26 83 27 23 28 82 29 24 30 25 31 26 32 76 33
REMARK SMILES IDX 27 34 81 35 75 36 77 37 28 38 80 39 74 40 73 41 29 43 61 44
REMARK SMILES IDX 41 45 60 46 42 47 45 48 59 49 78 50 43 51 44 52 58 54 79 55
REMARK SMILES IDX 46 56 30 57 31 58 39 59 32 60 34 61 40 62 33 63 35 64 36 65
REMARK SMILES IDX 37 66 38 67 62 68 63 69 71 70 64 71 66 72 72 73 65 74 67 75
REMARK SMILES IDX 68 76 69 77 70 78 47 79 48 80 56 81 49 82 51 83 57 84 50 85
REMARK SMILES IDX 52 86 53 87 54 88 55 89
REMARK H PARENT 5 12 77 42 45 53
REMARK Flexibility Score: inf
ROOT
ATOM      1  O   UNL A   1      34.719  21.850  25.143  1.00  0.00    -0.374 OA
ENDROOT
BRANCH   1   2
ATOM      2  C   UNL A   1      33.732  22.711  25.720  1.00  0.00     0.202 C 
BRANCH   2   3
ATOM      3  C   UNL A   1      32.365  22.748  25.026  1.00  0.00     0.261 C 
BRANCH   3   4
ATOM      4  O   UNL A   1      31.503  23.785  25.554  1.00  0.00    -0.462 OA
BRANCH   4   5
ATOM      5  C   UNL A   1      31.278  24.875  24.778  1.00  0.00     0.323 C 
ATOM      6  O   UNL A   1      30.674  25.879  25.145  1.00  0.00    -0.251 OA
BRANCH   5   7
ATOM      7  C   UNL A   1      31.721  24.700  23.369  1.00  0.00     0.282 C 
BRANCH   7   8
ATOM      8  S   UNL A   1      33.091  25.723  22.902  1.00  0.00     0.243 S 
ATOM      9  O   UNL A   1      33.775  25.018  21.831  1.00  0.00    -0.206 OA
ATOM     10  O   UNL A   1      33.843  26.178  24.042  1.00  0.00    -0.206 OA
BRANCH   8  11
ATOM     11  N   UNL A   1      32.453  27.077  22.111  1.00  0.00    -0.283 N 
ATOM     12  H   UNL A   1      32.626  27.194  21.149  1.00  0.00     0.180 HD
BRANCH  11  13
ATOM     13  C   UNL A   1      31.671  28.057  22.802  1.00  0.00     0.052 A 
ATOM     14  C   UNL A   1      31.752  30.315  25.852  1.00  0.00     0.067 C 
ATOM     15  C   UNL A   1      31.348  29.651  24.568  1.00  0.00     0.039 A 
ATOM     16  C   UNL A   1      32.156  28.700  23.942  1.00  0.00     0.050 A 
ATOM     17  N   UNL A   1      30.127  29.984  24.093  1.00  0.00    -0.261 NA
ATOM     18  C   UNL A   1      29.696  29.364  22.976  1.00  0.00     0.113 A 
ATOM     19  C   UNL A   1      30.427  28.405  22.301  1.00  0.00     0.047 A 
ENDBRANCH  11  13
ENDBRANCH   8  11
ENDBRANCH   7   8
ENDBRANCH   5   7
ENDBRANCH   4   5
ENDBRANCH   3   4
ENDBRANCH   2   3
ENDBRANCH   1   2
BRANCH   1  20
ATOM     20  C   UNL A   1      35.932  21.679  25.866  1.00  0.00     0.202 C 
BRANCH  20  21
ATOM     21  C   UNL A   1      37.137  21.125  25.100  1.00  0.00     0.261 C 
BRANCH  21  22
ATOM     22  O   UNL A   1      38.264  21.985  25.118  1.00  0.00    -0.460 OA
BRANCH  22  23
ATOM     23  C   UNL A   1      39.256  21.554  25.912  1.00  0.00     0.338 C 
ATOM     24  O   UNL A   1      39.839  20.477  25.872  1.00  0.00    -0.246 OA
BRANCH  23  25
ATOM     25  C   UNL A   1      39.663  22.666  26.765  1.00  0.00     0.060 A 
ATOM     26  C   UNL A   1      39.003  23.878  26.560  1.00  0.00     0.016 A 
ATOM     27  C   UNL A   1      40.691  22.535  27.706  1.00  0.00     0.016 A 
ATOM     28  C   UNL A   1      39.449  25.005  27.223  1.00  0.00     0.010 A 
ATOM     29  C   UNL A   1      41.132  23.671  28.379  1.00  0.00     0.010 A 
ATOM     30  C   UNL A   1      40.555  24.913  28.081  1.00  0.00    -0.014 A 
BRANCH  30  31
ATOM     31  C   UNL A   1      41.207  26.173  28.477  1.00  0.00     0.031 A 
ATOM     32  C   UNL A   1      42.606  26.433  27.995  1.00  0.00     0.074 A 
ATOM     33  C   UNL A   1      40.508  27.101  29.150  1.00  0.00     0.049 A 
ATOM     34  N   UNL A   1      43.316  27.526  28.072  1.00  0.00    -0.248 NA
ATOM     35  C   UNL A   1      43.299  25.313  27.331  1.00  0.00     0.031 C 
ATOM     36  C   UNL A   1      39.146  26.928  29.654  1.00  0.00     0.029 A 
ATOM     37  N   UNL A   1      40.846  28.376  29.510  1.00  0.00    -0.354 N 
ATOM     38  C   UNL A   1      44.536  27.224  27.482  1.00  0.00     0.074 A 
ATOM     39  C   UNL A   1      44.486  25.839  27.074  1.00  0.00     0.031 C 
ATOM     40  C   UNL A   1      38.761  28.062  30.262  1.00  0.00     0.029 A 
ATOM     41  C   UNL A   1      39.851  29.031  30.194  1.00  0.00     0.049 A 
ATOM     42  H   UNL A   1      41.716  28.785  29.300  1.00  0.00     0.167 HD
ATOM     43  C   UNL A   1      45.596  28.040  27.278  1.00  0.00     0.034 A 
ATOM     44  C   UNL A   1      39.833  30.278  30.700  1.00  0.00     0.034 A 
ATOM     45  C   UNL A   1      45.618  29.420  27.677  1.00  0.00     0.049 A 
ATOM     46  C   UNL A   1      41.022  31.167  30.451  1.00  0.00     0.074 A 
ATOM     47  C   UNL A   1      46.619  30.355  27.499  1.00  0.00     0.029 A 
ATOM     48  N   UNL A   1      44.584  30.059  28.347  1.00  0.00    -0.354 N 
ATOM     49  N   UNL A   1      42.124  30.906  29.789  1.00  0.00    -0.248 NA
ATOM     50  C   UNL A   1      40.944  32.535  30.976  1.00  0.00     0.031 C 
ATOM     51  C   UNL A   1      46.202  31.554  28.086  1.00  0.00     0.029 A 
ATOM     52  C   UNL A   1      44.925  31.375  28.600  1.00  0.00     0.049 A 
ATOM     53  H   UNL A   1      43.733  29.638  28.606  1.00  0.00     0.167 HD
ATOM     54  C   UNL A   1      42.859  32.086  29.790  1.00  0.00     0.074 A 
ATOM     55  C   UNL A   1      42.059  33.068  30.496  1.00  0.00     0.031 C 
ATOM     56  C   UNL A   1      44.087  32.337  29.272  1.00  0.00     0.034 A 
BRANCH  43  57
ATOM     57  C   UNL A   1      46.800  27.461  26.583  1.00  0.00     0.023 A 
ATOM     58  C   UNL A   1      47.681  26.617  27.292  1.00  0.00     0.012 A 
ATOM     59  C   UNL A   1      47.045  27.725  25.222  1.00  0.00     0.148 A 
ATOM     60  C   UNL A   1      48.804  26.075  26.667  1.00  0.00     0.002 A 
ATOM     61  C   UNL A   1      48.142  27.145  24.594  1.00  0.00     0.091 A 
ATOM     62  F   UNL A   1      46.213  28.552  24.573  1.00  0.00    -0.205 F 
ATOM     63  C   UNL A   1      49.028  26.330  25.317  1.00  0.00     0.022 A 
BRANCH  61  64
ATOM     64  S   UNL A   1      48.475  27.355  22.842  1.00  0.00     0.127 S 
ATOM     65  O   UNL A   1      47.379  28.233  22.435  1.00  0.00    -0.237 OA
ATOM     66  O   UNL A   1      49.793  27.993  22.855  1.00  0.00    -0.237 OA
ATOM     67  O   UNL A   1      48.451  26.019  22.264  1.00  0.00    -0.744 OA
ENDBRANCH  61  64
ENDBRANCH  43  57
BRANCH  44  68
ATOM     68  C   UNL A   1      38.633  30.762  31.436  1.00  0.00     0.023 A 
ATOM     69  C   UNL A   1      38.600  30.708  32.842  1.00  0.00     0.012 A 
ATOM     70  C   UNL A   1      37.535  31.312  30.744  1.00  0.00     0.148 A 
ATOM     71  C   UNL A   1      37.483  31.164  33.544  1.00  0.00     0.002 A 
ATOM     72  C   UNL A   1      36.452  31.817  31.452  1.00  0.00     0.091 A 
ATOM     73  F   UNL A   1      37.580  31.342  29.404  1.00  0.00    -0.205 F 
ATOM     74  C   UNL A   1      36.415  31.728  32.852  1.00  0.00     0.022 A 
BRANCH  72  75
ATOM     75  S   UNL A   1      35.099  32.682  30.646  1.00  0.00     0.127 S 
ATOM     76  O   UNL A   1      34.099  32.729  31.709  1.00  0.00    -0.237 OA
ATOM     77  O   UNL A   1      35.714  33.969  30.319  1.00  0.00    -0.237 OA
ATOM     78  O   UNL A   1      34.753  31.873  29.485  1.00  0.00    -0.744 OA
ENDBRANCH  72  75
ENDBRANCH  44  68
BRANCH  56  79
ATOM     79  C   UNL A   1      44.624  33.734  29.426  1.00  0.00     0.023 A 
ATOM     80  C   UNL A   1      45.241  34.120  30.633  1.00  0.00     0.012 A 
ATOM     81  C   UNL A   1      44.564  34.647  28.355  1.00  0.00     0.148 A 
ATOM     82  C   UNL A   1      45.748  35.409  30.788  1.00  0.00     0.002 A 
ATOM     83  C   UNL A   1      45.119  35.912  28.499  1.00  0.00     0.091 A 
ATOM     84  F   UNL A   1      43.956  34.269  27.221  1.00  0.00    -0.205 F 
ATOM     85  C   UNL A   1      45.695  36.301  29.719  1.00  0.00     0.022 A 
BRANCH  83  86
ATOM     86  S   UNL A   1      45.187  37.084  27.140  1.00  0.00     0.127 S 
ATOM     87  O   UNL A   1      45.992  36.359  26.159  1.00  0.00    -0.237 OA
ATOM     88  O   UNL A   1      43.775  37.231  26.784  1.00  0.00    -0.237 OA
ATOM     89  O   UNL A   1      45.795  38.290  27.687  1.00  0.00    -0.744 OA
ENDBRANCH  83  86
ENDBRANCH  56  79
ENDBRANCH  30  31
ENDBRANCH  23  25
ENDBRANCH  22  23
ENDBRANCH  21  22
ENDBRANCH  20  21
ENDBRANCH   1  20
TORSDOF 20
ENDMDL
MODEL 3
REMARK VINA RESULT:     -10.2      5.084     10.252
REMARK SMILES Cc1cc(NS(=O)(=O)CC(=O)OCCOCCOC(=O)c2ccc(-c3c4nc(c(-c5cccc(S(=O)(=O)[O-])c5F)c5ccc([nH]5)c(-c5cccc(S(=O)(=O)[O-])c5F)c5nc(c(-c6cccc(S(=O)(=O)[O-])c6F)c6ccc3[nH]6)C=C5)C=C4)cc2)ccn1
REMARK SMILES IDX 15 1 14 2 13 3 12 4 10 5 11 6 9 7 6 8 7 9 8 10 5 11 4 13
REMARK SMILES IDX 1 14 2 15 3 16 86 17 85 18 84 19 16 20 17 21 18 22 19 23
REMARK SMILES IDX 20 24 21 25 22 26 83 27 23 28 82 29 24 30 25 31 26 32 76 33
REMARK SMILES IDX 27 34 81 35 75 36 77 37 28 38 80 39 74 40 73 41 29 43 61 44
REMARK SMILES IDX 41 45 60 46 42 47 45 48 59 49 78 50 43 51 44 52 58 54 79 55
REMARK SMILES IDX 46 56 30 57 31 58 39 59 32 60 34 61 40 62 33 63 35 64 36 65
REMARK SMILES IDX 37 66 38 67 62 68 63 69 71 70 64 71 66 72 72 73 65 74 67 75
REMARK SMILES IDX 68 76 69 77 70 78 47 79 48 80 56 81 49 82 51 83 57 84 50 85
REMARK SMILES IDX 52 86 53 87 54 88 55 89
REMARK H PARENT 5 12 77 42 45 53
REMARK Flexibility Score: inf
ROOT
ATOM      1  O   UNL A   1      34.729  22.387  24.942  1.00  0.00    -0.374 OA
ENDROOT
BRANCH   1   2
ATOM      2  C   UNL A   1      34.412  23.766  25.154  1.00  0.00     0.202 C 
BRANCH   2   3
ATOM      3  C   UNL A   1      33.045  24.240  24.646  1.00  0.00     0.261 C 
BRANCH   3   4
ATOM      4  O   UNL A   1      32.526  25.357  25.409  1.00  0.00    -0.462 OA
BRANCH   4   5
ATOM      5  C   UNL A   1      32.494  26.572  24.808  1.00  0.00     0.323 C 
ATOM      6  O   UNL A   1      33.482  27.170  24.391  1.00  0.00    -0.251 OA
BRANCH   5   7
ATOM      7  C   UNL A   1      31.144  27.198  24.809  1.00  0.00     0.282 C 
BRANCH   7   8
ATOM      8  S   UNL A   1      30.581  27.720  23.211  1.00  0.00     0.243 S 
ATOM      9  O   UNL A   1      29.131  27.640  23.248  1.00  0.00    -0.206 OA
ATOM     10  O   UNL A   1      31.297  27.073  22.144  1.00  0.00    -0.206 OA
BRANCH   8  11
ATOM     11  N   UNL A   1      30.862  29.386  23.106  1.00  0.00    -0.283 N 
ATOM     12  H   UNL A   1      31.776  29.727  23.246  1.00  0.00     0.180 HD
BRANCH  11  13
ATOM     13  C   UNL A   1      29.809  30.314  22.823  1.00  0.00     0.052 A 
ATOM     14  C   UNL A   1      27.833  31.779  19.932  1.00  0.00     0.067 C 
ATOM     15  C   UNL A   1      28.317  31.430  21.309  1.00  0.00     0.039 A 
ATOM     16  C   UNL A   1      29.351  30.516  21.520  1.00  0.00     0.050 A 
ATOM     17  N   UNL A   1      27.733  32.103  22.325  1.00  0.00    -0.261 NA
ATOM     18  C   UNL A   1      28.180  31.869  23.575  1.00  0.00     0.113 A 
ATOM     19  C   UNL A   1      29.204  30.990  23.870  1.00  0.00     0.047 A 
ENDBRANCH  11  13
ENDBRANCH   8  11
ENDBRANCH   7   8
ENDBRANCH   5   7
ENDBRANCH   4   5
ENDBRANCH   3   4
ENDBRANCH   2   3
ENDBRANCH   1   2
BRANCH   1  20
ATOM     20  C   UNL A   1      35.696  21.803  25.807  1.00  0.00     0.202 C 
BRANCH  20  21
ATOM     21  C   UNL A   1      36.886  21.092  25.156  1.00  0.00     0.261 C 
BRANCH  21  22
ATOM     22  O   UNL A   1      38.042  21.905  25.046  1.00  0.00    -0.460 OA
BRANCH  22  23
ATOM     23  C   UNL A   1      39.059  21.499  25.821  1.00  0.00     0.338 C 
ATOM     24  O   UNL A   1      39.658  20.430  25.781  1.00  0.00    -0.246 OA
BRANCH  23  25
ATOM     25  C   UNL A   1      39.471  22.629  26.649  1.00  0.00     0.060 A 
ATOM     26  C   UNL A   1      38.848  23.849  26.386  1.00  0.00     0.016 A 
ATOM     27  C   UNL A   1      40.468  22.503  27.624  1.00  0.00     0.016 A 
ATOM     28  C   UNL A   1      39.304  24.986  27.026  1.00  0.00     0.010 A 
ATOM     29  C   UNL A   1      40.919  23.649  28.272  1.00  0.00     0.010 A 
ATOM     30  C   UNL A   1      40.382  24.896  27.917  1.00  0.00    -0.014 A 
BRANCH  30  31
ATOM     31  C   UNL A   1      41.055  26.151  28.291  1.00  0.00     0.031 A 
ATOM     32  C   UNL A   1      42.434  26.408  27.753  1.00  0.00     0.074 A 
ATOM     33  C   UNL A   1      40.388  27.079  28.997  1.00  0.00     0.049 A 
ATOM     34  N   UNL A   1      43.150  27.498  27.804  1.00  0.00    -0.248 NA
ATOM     35  C   UNL A   1      43.094  25.289  27.055  1.00  0.00     0.031 C 
ATOM     36  C   UNL A   1      39.048  26.907  29.556  1.00  0.00     0.029 A 
ATOM     37  N   UNL A   1      40.745  28.351  29.348  1.00  0.00    -0.354 N 
ATOM     38  C   UNL A   1      44.343  27.195  27.163  1.00  0.00     0.074 A 
ATOM     39  C   UNL A   1      44.272  25.812  26.751  1.00  0.00     0.031 C 
ATOM     40  C   UNL A   1      38.693  28.040  30.185  1.00  0.00     0.029 A 
ATOM     41  C   UNL A   1      39.783  29.005  30.076  1.00  0.00     0.049 A 
ATOM     42  H   UNL A   1      41.607  28.757  29.103  1.00  0.00     0.167 HD
ATOM     43  C   UNL A   1      45.397  28.009  26.917  1.00  0.00     0.034 A 
ATOM     44  C   UNL A   1      39.790  30.250  30.588  1.00  0.00     0.034 A 
ATOM     45  C   UNL A   1      45.440  29.386  27.322  1.00  0.00     0.049 A 
ATOM     46  C   UNL A   1      40.970  31.137  30.293  1.00  0.00     0.074 A 
ATOM     47  C   UNL A   1      46.436  30.319  27.106  1.00  0.00     0.029 A 
ATOM     48  N   UNL A   1      44.437  30.026  28.037  1.00  0.00    -0.354 N 
ATOM     49  N   UNL A   1      42.043  30.875  29.585  1.00  0.00    -0.248 NA
ATOM     50  C   UNL A   1      40.919  32.503  30.827  1.00  0.00     0.031 C 
ATOM     51  C   UNL A   1      46.048  31.517  27.715  1.00  0.00     0.029 A 
ATOM     52  C   UNL A   1      44.794  31.339  28.282  1.00  0.00     0.049 A 
ATOM     53  H   UNL A   1      43.596  29.607  28.329  1.00  0.00     0.167 HD
ATOM     54  C   UNL A   1      42.782  32.052  29.560  1.00  0.00     0.074 A 
ATOM     55  C   UNL A   1      42.015  33.034  30.303  1.00  0.00     0.031 C 
ATOM     56  C   UNL A   1      43.988  32.301  28.992  1.00  0.00     0.034 A 
BRANCH  43  57
ATOM     57  C   UNL A   1      46.569  27.428  26.171  1.00  0.00     0.023 A 
ATOM     58  C   UNL A   1      46.628  27.533  24.766  1.00  0.00     0.012 A 
ATOM     59  C   UNL A   1      47.626  26.804  26.861  1.00  0.00     0.148 A 
ATOM     60  C   UNL A   1      47.704  26.996  24.057  1.00  0.00     0.002 A 
ATOM     61  C   UNL A   1      48.715  26.311  26.152  1.00  0.00     0.091 A 
ATOM     62  F   UNL A   1      47.538  26.688  28.194  1.00  0.00    -0.205 F 
ATOM     63  C   UNL A   1      48.751  26.396  24.750  1.00  0.00     0.022 A 
BRANCH  61  64
ATOM     64  S   UNL A   1      50.147  25.586  26.958  1.00  0.00     0.127 S 
ATOM     65  O   UNL A   1      50.526  26.643  27.895  1.00  0.00    -0.237 OA
ATOM     66  O   UNL A   1      49.574  24.394  27.586  1.00  0.00    -0.237 OA
ATOM     67  O   UNL A   1      51.111  25.314  25.902  1.00  0.00    -0.744 OA
ENDBRANCH  61  64
ENDBRANCH  43  57
BRANCH  44  68
ATOM     68  C   UNL A   1      38.623  30.735  31.375  1.00  0.00     0.023 A 
ATOM     69  C   UNL A   1      38.621  30.613  32.778  1.00  0.00     0.012 A 
ATOM     70  C   UNL A   1      37.529  31.353  30.738  1.00  0.00     0.148 A 
ATOM     71  C   UNL A   1      37.535  31.069  33.528  1.00  0.00     0.002 A 
ATOM     72  C   UNL A   1      36.479  31.857  31.495  1.00  0.00     0.091 A 
ATOM     73  F   UNL A   1      37.544  31.449  29.401  1.00  0.00    -0.205 F 
ATOM     74  C   UNL A   1      36.470  31.700  32.890  1.00  0.00     0.022 A 
BRANCH  72  75
ATOM     75  S   UNL A   1      35.137  32.803  30.766  1.00  0.00     0.127 S 
ATOM     76  O   UNL A   1      34.744  31.951  29.647  1.00  0.00    -0.237 OA
ATOM     77  O   UNL A   1      34.174  32.860  31.867  1.00  0.00    -0.237 OA
ATOM     78  O   UNL A   1      35.714  34.092  30.409  1.00  0.00    -0.744 OA
ENDBRANCH  72  75
ENDBRANCH  44  68
BRANCH  56  79
ATOM     79  C   UNL A   1      44.536  33.696  29.129  1.00  0.00     0.023 A 
ATOM     80  C   UNL A   1      44.185  34.684  28.187  1.00  0.00     0.012 A 
ATOM     81  C   UNL A   1      45.354  34.040  30.223  1.00  0.00     0.148 A 
ATOM     82  C   UNL A   1      44.680  35.981  28.305  1.00  0.00     0.002 A 
ATOM     83  C   UNL A   1      45.799  35.348  30.363  1.00  0.00     0.091 A 
ATOM     84  F   UNL A   1      45.692  33.083  31.098  1.00  0.00    -0.205 F 
ATOM     85  C   UNL A   1      45.478  36.316  29.397  1.00  0.00     0.022 A 
BRANCH  83  86
ATOM     86  S   UNL A   1      46.744  35.886  31.792  1.00  0.00     0.127 S 
ATOM     87  O   UNL A   1      46.374  37.298  31.882  1.00  0.00    -0.237 OA
ATOM     88  O   UNL A   1      46.203  35.044  32.859  1.00  0.00    -0.237 OA
ATOM     89  O   UNL A   1      48.140  35.621  31.468  1.00  0.00    -0.744 OA
ENDBRANCH  83  86
ENDBRANCH  56  79
ENDBRANCH  30  31
ENDBRANCH  23  25
ENDBRANCH  22  23
ENDBRANCH  21  22
ENDBRANCH  20  21
ENDBRANCH   1  20
TORSDOF 20
ENDMDL
