MODEL 1
REMARK VINA RESULT:     -10.6      0.000      0.000
REMARK SMILES CC[C@@H](C)[C@@H](NC(N)=O)C(=O)N1CCC[C@H](C(=O)OCCOCCOC(=O)c2ccc(-c3c4nc(c(-c5cccc(S(=O)(=O)[O-])c5F)c5ccc([nH]5)c(-c5cccc(S(=O)(=O)[O-])c5F)c5nc(c(-c6cccc(S(=O)(=O)[O-])c6F)c6ccc3[nH]6)C=C5)C=C4)cc2)C1
REMARK SMILES IDX 21 1 20 2 19 3 17 4 18 5 16 6 12 7 13 8 91 9 14 10 15 11
REMARK SMILES IDX 10 12 11 13 5 14 3 15 4 16 2 17 1 18 6 19 7 20 8 22 9 23
REMARK SMILES IDX 22 26 23 27 24 28 25 29 26 30 27 31 28 32 29 33 90 34 30 35
REMARK SMILES IDX 89 36 31 37 32 38 33 39 83 40 34 41 88 42 82 43 84 44 35 45
REMARK SMILES IDX 87 46 81 47 80 48 36 50 68 51 48 52 67 53 49 54 52 55 66 56
REMARK SMILES IDX 85 57 50 58 51 59 65 61 86 62 53 63 37 64 38 65 46 66 39 67
REMARK SMILES IDX 41 68 47 69 40 70 42 71 43 72 44 73 45 74 69 75 70 76 78 77
REMARK SMILES IDX 71 78 73 79 79 80 72 81 74 82 75 83 76 84 77 85 54 86 55 87
REMARK SMILES IDX 63 88 56 89 58 90 64 91 57 92 59 93 60 94 61 95 62 96
REMARK H PARENT 6 21 8 24 8 25 84 49 52 60
REMARK Flexibility Score: inf
ROOT
ATOM      1  C   UNL A   1      32.910  29.540  26.935  1.00  0.00     0.202 C 
ENDROOT
BRANCH   1   2
ATOM      2  C   UNL A   1      31.730  28.588  27.130  1.00  0.00     0.261 C 
BRANCH   2   3
ATOM      3  O   UNL A   1      31.481  27.818  25.943  1.00  0.00    -0.463 OA
BRANCH   3   4
ATOM      4  C   UNL A   1      31.077  26.532  26.090  1.00  0.00     0.310 C 
ATOM      5  O   UNL A   1      31.447  25.774  26.980  1.00  0.00    -0.252 OA
BRANCH   4   6
ATOM      6  C   UNL A   1      30.105  26.092  25.003  1.00  0.00     0.119 C 
ATOM      7  N   UNL A   1      31.809  25.308  23.471  1.00  0.00    -0.340 N 
ATOM      8  C   UNL A   1      31.494  26.263  22.418  1.00  0.00     0.119 C 
ATOM      9  C   UNL A   1      30.680  24.880  24.275  1.00  0.00     0.134 C 
ATOM     10  C   UNL A   1      30.777  27.500  22.950  1.00  0.00     0.022 C 
ATOM     11  C   UNL A   1      29.690  27.163  23.978  1.00  0.00     0.019 C 
BRANCH   7  12
ATOM     12  C   UNL A   1      33.143  25.110  23.820  1.00  0.00     0.245 C 
ATOM     13  O   UNL A   1      33.951  26.043  23.760  1.00  0.00    -0.272 OA
BRANCH  12  14
ATOM     14  C   UNL A   1      33.579  23.716  24.390  1.00  0.00     0.176 C 
BRANCH  14  15
ATOM     15  C   UNL A   1      33.543  22.574  23.322  1.00  0.00     0.018 C 
ATOM     16  C   UNL A   1      33.206  23.095  21.918  1.00  0.00     0.010 C 
BRANCH  15  17
ATOM     17  C   UNL A   1      32.576  21.417  23.675  1.00  0.00     0.002 C 
ATOM     18  C   UNL A   1      31.868  21.649  25.010  1.00  0.00     0.004 C 
ENDBRANCH  15  17
ENDBRANCH  14  15
BRANCH  14  19
ATOM     19  N   UNL A   1      34.907  23.836  25.023  1.00  0.00    -0.326 N 
ATOM     20  C   UNL A   1      35.196  23.194  26.193  1.00  0.00     0.312 C 
ATOM     21  H   UNL A   1      35.599  24.392  24.595  1.00  0.00     0.166 HD
ATOM     22  N   UNL A   1      36.492  23.308  26.561  1.00  0.00    -0.352 N 
ATOM     23  O   UNL A   1      34.399  22.619  26.920  1.00  0.00    -0.249 OA
ATOM     24  H   UNL A   1      37.131  23.771  25.974  1.00  0.00     0.161 HD
ATOM     25  H   UNL A   1      36.796  22.926  27.416  1.00  0.00     0.161 HD
ENDBRANCH  14  19
ENDBRANCH  12  14
ENDBRANCH   7  12
ENDBRANCH   4   6
ENDBRANCH   3   4
ENDBRANCH   2   3
ENDBRANCH   1   2
BRANCH   1  26
ATOM     26  O   UNL A   1      32.666  30.726  26.179  1.00  0.00    -0.374 OA
BRANCH  26  27
ATOM     27  C   UNL A   1      31.617  31.586  26.616  1.00  0.00     0.202 C 
BRANCH  27  28
ATOM     28  C   UNL A   1      31.943  33.072  26.821  1.00  0.00     0.261 C 
BRANCH  28  29
ATOM     29  O   UNL A   1      32.441  33.383  28.134  1.00  0.00    -0.460 OA
BRANCH  29  30
ATOM     30  C   UNL A   1      33.595  34.098  28.134  1.00  0.00     0.338 C 
ATOM     31  O   UNL A   1      33.703  35.313  28.089  1.00  0.00    -0.246 OA
BRANCH  30  32
ATOM     32  C   UNL A   1      34.756  33.220  28.367  1.00  0.00     0.060 A 
ATOM     33  C   UNL A   1      34.522  32.006  29.027  1.00  0.00     0.016 A 
ATOM     34  C   UNL A   1      36.058  33.628  28.070  1.00  0.00     0.016 A 
ATOM     35  C   UNL A   1      35.591  31.226  29.458  1.00  0.00     0.010 A 
ATOM     36  C   UNL A   1      37.131  32.843  28.506  1.00  0.00     0.010 A 
ATOM     37  C   UNL A   1      36.903  31.667  29.245  1.00  0.00    -0.014 A 
BRANCH  37  38
ATOM     38  C   UNL A   1      38.025  30.988  29.939  1.00  0.00     0.031 A 
ATOM     39  C   UNL A   1      38.347  31.376  31.358  1.00  0.00     0.074 A 
ATOM     40  C   UNL A   1      38.736  30.028  29.324  1.00  0.00     0.049 A 
ATOM     41  N   UNL A   1      39.297  30.941  32.144  1.00  0.00    -0.248 NA
ATOM     42  C   UNL A   1      37.483  32.400  31.969  1.00  0.00     0.031 C 
ATOM     43  C   UNL A   1      38.504  29.544  27.965  1.00  0.00     0.029 A 
ATOM     44  N   UNL A   1      39.813  29.299  29.764  1.00  0.00    -0.354 N 
ATOM     45  C   UNL A   1      39.169  31.659  33.328  1.00  0.00     0.074 A 
ATOM     46  C   UNL A   1      38.061  32.573  33.147  1.00  0.00     0.031 C 
ATOM     47  C   UNL A   1      39.421  28.606  27.675  1.00  0.00     0.029 A 
ATOM     48  C   UNL A   1      40.323  28.449  28.814  1.00  0.00     0.049 A 
ATOM     49  H   UNL A   1      40.183  29.378  30.673  1.00  0.00     0.167 HD
ATOM     50  C   UNL A   1      39.897  31.561  34.468  1.00  0.00     0.034 A 
ATOM     51  C   UNL A   1      41.408  27.649  28.853  1.00  0.00     0.034 A 
ATOM     52  C   UNL A   1      40.991  30.644  34.643  1.00  0.00     0.049 A 
ATOM     53  C   UNL A   1      42.236  27.593  30.111  1.00  0.00     0.074 A 
ATOM     54  C   UNL A   1      41.770  30.437  35.767  1.00  0.00     0.029 A 
ATOM     55  N   UNL A   1      41.475  29.792  33.661  1.00  0.00    -0.354 N 
ATOM     56  N   UNL A   1      42.050  28.209  31.255  1.00  0.00    -0.248 NA
ATOM     57  C   UNL A   1      43.410  26.709  30.093  1.00  0.00     0.031 C 
ATOM     58  C   UNL A   1      42.751  29.491  35.452  1.00  0.00     0.029 A 
ATOM     59  C   UNL A   1      42.554  29.071  34.146  1.00  0.00     0.049 A 
ATOM     60  H   UNL A   1      41.105  29.711  32.752  1.00  0.00     0.167 HD
ATOM     61  C   UNL A   1      43.053  27.753  32.104  1.00  0.00     0.074 A 
ATOM     62  C   UNL A   1      43.840  26.802  31.344  1.00  0.00     0.031 C 
ATOM     63  C   UNL A   1      43.302  28.093  33.394  1.00  0.00     0.034 A 
BRANCH  50  64
ATOM     64  C   UNL A   1      39.523  32.474  35.609  1.00  0.00     0.023 A 
ATOM     65  C   UNL A   1      40.032  33.789  35.655  1.00  0.00     0.012 A 
ATOM     66  C   UNL A   1      38.662  32.034  36.635  1.00  0.00     0.148 A 
ATOM     67  C   UNL A   1      39.736  34.630  36.728  1.00  0.00     0.002 A 
ATOM     68  C   UNL A   1      38.330  32.896  37.674  1.00  0.00     0.091 A 
ATOM     69  F   UNL A   1      38.201  30.776  36.589  1.00  0.00    -0.205 F 
ATOM     70  C   UNL A   1      38.881  34.187  37.732  1.00  0.00     0.022 A 
BRANCH  68  71
ATOM     71  S   UNL A   1      37.171  32.445  38.969  1.00  0.00     0.127 S 
ATOM     72  O   UNL A   1      37.563  33.353  40.047  1.00  0.00    -0.237 OA
ATOM     73  O   UNL A   1      35.881  32.755  38.351  1.00  0.00    -0.237 OA
ATOM     74  O   UNL A   1      37.391  31.029  39.229  1.00  0.00    -0.744 OA
ENDBRANCH  68  71
ENDBRANCH  50  64
BRANCH  51  75
ATOM     75  C   UNL A   1      41.739  26.790  27.681  1.00  0.00     0.023 A 
ATOM     76  C   UNL A   1      42.421  27.356  26.586  1.00  0.00     0.012 A 
ATOM     77  C   UNL A   1      41.412  25.419  27.656  1.00  0.00     0.148 A 
ATOM     78  C   UNL A   1      42.752  26.579  25.477  1.00  0.00     0.002 A 
ATOM     79  C   UNL A   1      41.788  24.641  26.568  1.00  0.00     0.091 A 
ATOM     80  F   UNL A   1      40.755  24.905  28.704  1.00  0.00    -0.205 F 
ATOM     81  C   UNL A   1      42.445  25.221  25.471  1.00  0.00     0.022 A 
BRANCH  79  82
ATOM     82  S   UNL A   1      41.528  22.865  26.504  1.00  0.00     0.127 S 
ATOM     83  O   UNL A   1      42.276  22.497  25.302  1.00  0.00    -0.237 OA
ATOM     84  O   UNL A   1      42.136  22.429  27.761  1.00  0.00    -0.237 OA
ATOM     85  O   UNL A   1      40.088  22.675  26.420  1.00  0.00    -0.744 OA
ENDBRANCH  79  82
ENDBRANCH  51  75
BRANCH  63  86
ATOM     86  C   UNL A   1      44.441  27.398  34.098  1.00  0.00     0.023 A 
ATOM     87  C   UNL A   1      45.744  27.929  34.033  1.00  0.00     0.012 A 
ATOM     88  C   UNL A   1      44.200  26.257  34.890  1.00  0.00     0.148 A 
ATOM     89  C   UNL A   1      46.796  27.315  34.716  1.00  0.00     0.002 A 
ATOM     90  C   UNL A   1      45.241  25.684  35.612  1.00  0.00     0.091 A 
ATOM     91  F   UNL A   1      42.957  25.756  34.928  1.00  0.00    -0.205 F 
ATOM     92  C   UNL A   1      46.541  26.202  35.514  1.00  0.00     0.022 A 
BRANCH  90  93
ATOM     93  S   UNL A   1      44.989  24.311  36.744  1.00  0.00     0.127 S 
ATOM     94  O   UNL A   1      43.996  24.861  37.665  1.00  0.00    -0.237 OA
ATOM     95  O   UNL A   1      44.481  23.267  35.852  1.00  0.00    -0.237 OA
ATOM     96  O   UNL A   1      46.292  24.026  37.330  1.00  0.00    -0.744 OA
ENDBRANCH  90  93
ENDBRANCH  63  86
ENDBRANCH  37  38
ENDBRANCH  30  32
ENDBRANCH  29  30
ENDBRANCH  28  29
ENDBRANCH  27  28
ENDBRANCH  26  27
ENDBRANCH   1  26
TORSDOF 22
ENDMDL
MODEL 2
REMARK VINA RESULT:     -10.5      5.060     10.610
REMARK SMILES CC[C@@H](C)[C@@H](NC(N)=O)C(=O)N1CCC[C@H](C(=O)OCCOCCOC(=O)c2ccc(-c3c4nc(c(-c5cccc(S(=O)(=O)[O-])c5F)c5ccc([nH]5)c(-c5cccc(S(=O)(=O)[O-])c5F)c5nc(c(-c6cccc(S(=O)(=O)[O-])c6F)c6ccc3[nH]6)C=C5)C=C4)cc2)C1
REMARK SMILES IDX 21 1 20 2 19 3 17 4 18 5 16 6 12 7 13 8 91 9 14 10 15 11
REMARK SMILES IDX 10 12 11 13 5 14 3 15 4 16 2 17 1 18 6 19 7 20 8 22 9 23
REMARK SMILES IDX 22 26 23 27 24 28 25 29 26 30 27 31 28 32 29 33 90 34 30 35
REMARK SMILES IDX 89 36 31 37 32 38 33 39 83 40 34 41 88 42 82 43 84 44 35 45
REMARK SMILES IDX 87 46 81 47 80 48 36 50 68 51 48 52 67 53 49 54 52 55 66 56
REMARK SMILES IDX 85 57 50 58 51 59 65 61 86 62 53 63 37 64 38 65 46 66 39 67
REMARK SMILES IDX 41 68 47 69 40 70 42 71 43 72 44 73 45 74 69 75 70 76 78 77
REMARK SMILES IDX 71 78 73 79 79 80 72 81 74 82 75 83 76 84 77 85 54 86 55 87
REMARK SMILES IDX 63 88 56 89 58 90 64 91 57 92 59 93 60 94 61 95 62 96
REMARK H PARENT 6 21 8 24 8 25 84 49 52 60
REMARK Flexibility Score: inf
ROOT
ATOM      1  C   UNL A   1      36.874  22.675  25.742  1.00  0.00     0.202 C 
ENDROOT
BRANCH   1   2
ATOM      2  C   UNL A   1      35.862  23.734  25.307  1.00  0.00     0.261 C 
BRANCH   2   3
ATOM      3  O   UNL A   1      34.657  23.130  24.810  1.00  0.00    -0.463 OA
BRANCH   3   4
ATOM      4  C   UNL A   1      34.501  23.029  23.468  1.00  0.00     0.310 C 
ATOM      5  O   UNL A   1      35.300  23.438  22.633  1.00  0.00    -0.252 OA
BRANCH   4   6
ATOM      6  C   UNL A   1      33.191  22.358  23.076  1.00  0.00     0.119 C 
ATOM      7  N   UNL A   1      31.925  24.413  22.880  1.00  0.00    -0.340 N 
ATOM      8  C   UNL A   1      30.983  24.094  23.944  1.00  0.00     0.119 C 
ATOM      9  C   UNL A   1      32.419  23.274  22.130  1.00  0.00     0.134 C 
ATOM     10  C   UNL A   1      31.541  23.068  24.925  1.00  0.00     0.022 C 
ATOM     11  C   UNL A   1      32.274  21.915  24.230  1.00  0.00     0.019 C 
BRANCH   7  12
ATOM     12  C   UNL A   1      32.497  25.683  22.849  1.00  0.00     0.245 C 
ATOM     13  O   UNL A   1      33.505  25.900  22.168  1.00  0.00    -0.272 OA
BRANCH  12  14
ATOM     14  C   UNL A   1      31.782  26.855  23.607  1.00  0.00     0.176 C 
BRANCH  14  15
ATOM     15  C   UNL A   1      32.332  27.081  25.053  1.00  0.00     0.018 C 
ATOM     16  C   UNL A   1      31.251  26.890  26.127  1.00  0.00     0.010 C 
BRANCH  15  17
ATOM     17  C   UNL A   1      33.007  28.460  25.258  1.00  0.00     0.002 C 
ATOM     18  C   UNL A   1      34.143  28.395  26.279  1.00  0.00     0.004 C 
ENDBRANCH  15  17
ENDBRANCH  14  15
BRANCH  14  19
ATOM     19  N   UNL A   1      31.853  28.084  22.791  1.00  0.00    -0.326 N 
ATOM     20  C   UNL A   1      30.722  28.708  22.349  1.00  0.00     0.312 C 
ATOM     21  H   UNL A   1      32.733  28.461  22.561  1.00  0.00     0.166 HD
ATOM     22  N   UNL A   1      30.967  29.885  21.731  1.00  0.00    -0.352 N 
ATOM     23  O   UNL A   1      29.583  28.269  22.407  1.00  0.00    -0.249 OA
ATOM     24  H   UNL A   1      31.885  30.235  21.685  1.00  0.00     0.161 HD
ATOM     25  H   UNL A   1      30.226  30.393  21.328  1.00  0.00     0.161 HD
ENDBRANCH  14  19
ENDBRANCH  12  14
ENDBRANCH   7  12
ENDBRANCH   4   6
ENDBRANCH   3   4
ENDBRANCH   2   3
ENDBRANCH   1   2
BRANCH   1  26
ATOM     26  O   UNL A   1      37.377  21.806  24.727  1.00  0.00    -0.374 OA
BRANCH  26  27
ATOM     27  C   UNL A   1      37.388  20.407  25.000  1.00  0.00     0.202 C 
BRANCH  27  28
ATOM     28  C   UNL A   1      38.724  19.759  25.386  1.00  0.00     0.261 C 
BRANCH  28  29
ATOM     29  O   UNL A   1      39.825  20.682  25.439  1.00  0.00    -0.460 OA
BRANCH  29  30
ATOM     30  C   UNL A   1      40.538  20.629  26.593  1.00  0.00     0.338 C 
ATOM     31  O   UNL A   1      41.127  19.661  27.047  1.00  0.00    -0.246 OA
BRANCH  30  32
ATOM     32  C   UNL A   1      40.666  21.971  27.192  1.00  0.00     0.060 A 
ATOM     33  C   UNL A   1      40.004  23.027  26.551  1.00  0.00     0.016 A 
ATOM     34  C   UNL A   1      41.517  22.217  28.271  1.00  0.00     0.016 A 
ATOM     35  C   UNL A   1      40.243  24.342  26.939  1.00  0.00     0.010 A 
ATOM     36  C   UNL A   1      41.758  23.540  28.658  1.00  0.00     0.010 A 
ATOM     37  C   UNL A   1      41.162  24.608  27.961  1.00  0.00    -0.014 A 
BRANCH  37  38
ATOM     38  C   UNL A   1      41.625  26.000  28.186  1.00  0.00     0.031 A 
ATOM     39  C   UNL A   1      43.020  26.382  27.766  1.00  0.00     0.074 A 
ATOM     40  C   UNL A   1      40.811  26.917  28.737  1.00  0.00     0.049 A 
ATOM     41  N   UNL A   1      43.642  27.525  27.892  1.00  0.00    -0.248 NA
ATOM     42  C   UNL A   1      43.822  25.328  27.123  1.00  0.00     0.031 C 
ATOM     43  C   UNL A   1      39.432  26.678  29.158  1.00  0.00     0.029 A 
ATOM     44  N   UNL A   1      41.039  28.233  29.053  1.00  0.00    -0.354 N 
ATOM     45  C   UNL A   1      44.918  27.321  27.379  1.00  0.00     0.074 A 
ATOM     46  C   UNL A   1      44.986  25.938  26.958  1.00  0.00     0.031 C 
ATOM     47  C   UNL A   1      38.938  27.808  29.690  1.00  0.00     0.029 A 
ATOM     48  C   UNL A   1      39.976  28.837  29.678  1.00  0.00     0.049 A 
ATOM     49  H   UNL A   1      41.882  28.699  28.849  1.00  0.00     0.167 HD
ATOM     50  C   UNL A   1      45.939  28.205  27.255  1.00  0.00     0.034 A 
ATOM     51  C   UNL A   1      39.861  30.075  30.200  1.00  0.00     0.034 A 
ATOM     52  C   UNL A   1      45.862  29.581  27.667  1.00  0.00     0.049 A 
ATOM     53  C   UNL A   1      41.026  31.026  30.100  1.00  0.00     0.074 A 
ATOM     54  C   UNL A   1      46.822  30.569  27.553  1.00  0.00     0.029 A 
ATOM     55  N   UNL A   1      44.766  30.160  28.290  1.00  0.00    -0.354 N 
ATOM     56  N   UNL A   1      42.195  30.850  29.530  1.00  0.00    -0.248 NA
ATOM     57  C   UNL A   1      40.845  32.360  30.693  1.00  0.00     0.031 C 
ATOM     58  C   UNL A   1      46.324  31.735  28.146  1.00  0.00     0.029 A 
ATOM     59  C   UNL A   1      45.033  31.487  28.585  1.00  0.00     0.049 A 
ATOM     60  H   UNL A   1      43.922  29.696  28.494  1.00  0.00     0.167 HD
ATOM     61  C   UNL A   1      42.869  32.061  29.653  1.00  0.00     0.074 A 
ATOM     62  C   UNL A   1      41.974  32.965  30.347  1.00  0.00     0.031 C 
ATOM     63  C   UNL A   1      44.116  32.392  29.235  1.00  0.00     0.034 A 
BRANCH  50  64
ATOM     64  C   UNL A   1      47.223  27.699  26.646  1.00  0.00     0.023 A 
ATOM     65  C   UNL A   1      48.238  27.178  27.476  1.00  0.00     0.012 A 
ATOM     66  C   UNL A   1      47.425  27.732  25.252  1.00  0.00     0.148 A 
ATOM     67  C   UNL A   1      49.451  26.751  26.934  1.00  0.00     0.002 A 
ATOM     68  C   UNL A   1      48.617  27.257  24.715  1.00  0.00     0.091 A 
ATOM     69  F   UNL A   1      46.461  28.249  24.477  1.00  0.00    -0.205 F 
ATOM     70  C   UNL A   1      49.637  26.784  25.556  1.00  0.00     0.022 A 
BRANCH  68  71
ATOM     71  S   UNL A   1      48.917  27.182  22.946  1.00  0.00     0.127 S 
ATOM     72  O   UNL A   1      50.378  27.203  22.893  1.00  0.00    -0.237 OA
ATOM     73  O   UNL A   1      48.313  25.899  22.585  1.00  0.00    -0.237 OA
ATOM     74  O   UNL A   1      48.250  28.345  22.377  1.00  0.00    -0.744 OA
ENDBRANCH  68  71
ENDBRANCH  50  64
BRANCH  51  75
ATOM     75  C   UNL A   1      38.573  30.506  30.812  1.00  0.00     0.023 A 
ATOM     76  C   UNL A   1      38.340  30.246  32.177  1.00  0.00     0.012 A 
ATOM     77  C   UNL A   1      37.594  31.192  30.065  1.00  0.00     0.148 A 
ATOM     78  C   UNL A   1      37.148  30.642  32.783  1.00  0.00     0.002 A 
ATOM     79  C   UNL A   1      36.430  31.626  30.687  1.00  0.00     0.091 A 
ATOM     80  F   UNL A   1      37.833  31.419  28.766  1.00  0.00    -0.205 F 
ATOM     81  C   UNL A   1      36.198  31.339  32.042  1.00  0.00     0.022 A 
BRANCH  79  82
ATOM     82  S   UNL A   1      35.187  32.616  29.849  1.00  0.00     0.127 S 
ATOM     83  O   UNL A   1      34.706  31.689  28.826  1.00  0.00    -0.237 OA
ATOM     84  O   UNL A   1      34.240  32.882  30.931  1.00  0.00    -0.237 OA
ATOM     85  O   UNL A   1      35.887  33.788  29.344  1.00  0.00    -0.744 OA
ENDBRANCH  79  82
ENDBRANCH  51  75
BRANCH  63  86
ATOM     86  C   UNL A   1      44.582  33.809  29.461  1.00  0.00     0.023 A 
ATOM     87  C   UNL A   1      45.168  34.176  30.689  1.00  0.00     0.012 A 
ATOM     88  C   UNL A   1      44.507  34.759  28.422  1.00  0.00     0.148 A 
ATOM     89  C   UNL A   1      45.639  35.474  30.890  1.00  0.00     0.002 A 
ATOM     90  C   UNL A   1      45.028  36.033  28.611  1.00  0.00     0.091 A 
ATOM     91  F   UNL A   1      43.932  34.397  27.266  1.00  0.00    -0.205 F 
ATOM     92  C   UNL A   1      45.581  36.397  29.849  1.00  0.00     0.022 A 
BRANCH  90  93
ATOM     93  S   UNL A   1      45.089  37.257  27.296  1.00  0.00     0.127 S 
ATOM     94  O   UNL A   1      43.673  37.402  26.959  1.00  0.00    -0.237 OA
ATOM     95  O   UNL A   1      45.674  38.412  27.978  1.00  0.00    -0.237 OA
ATOM     96  O   UNL A   1      45.923  36.685  26.249  1.00  0.00    -0.744 OA
ENDBRANCH  90  93
ENDBRANCH  63  86
ENDBRANCH  37  38
ENDBRANCH  30  32
ENDBRANCH  29  30
ENDBRANCH  28  29
ENDBRANCH  27  28
ENDBRANCH  26  27
ENDBRANCH   1  26
TORSDOF 22
ENDMDL
MODEL 3
REMARK VINA RESULT:     -10.0      1.799      2.167
REMARK SMILES CC[C@@H](C)[C@@H](NC(N)=O)C(=O)N1CCC[C@H](C(=O)OCCOCCOC(=O)c2ccc(-c3c4nc(c(-c5cccc(S(=O)(=O)[O-])c5F)c5ccc([nH]5)c(-c5cccc(S(=O)(=O)[O-])c5F)c5nc(c(-c6cccc(S(=O)(=O)[O-])c6F)c6ccc3[nH]6)C=C5)C=C4)cc2)C1
REMARK SMILES IDX 21 1 20 2 19 3 17 4 18 5 16 6 12 7 13 8 91 9 14 10 15 11
REMARK SMILES IDX 10 12 11 13 5 14 3 15 4 16 2 17 1 18 6 19 7 20 8 22 9 23
REMARK SMILES IDX 22 26 23 27 24 28 25 29 26 30 27 31 28 32 29 33 90 34 30 35
REMARK SMILES IDX 89 36 31 37 32 38 33 39 83 40 34 41 88 42 82 43 84 44 35 45
REMARK SMILES IDX 87 46 81 47 80 48 36 50 68 51 48 52 67 53 49 54 52 55 66 56
REMARK SMILES IDX 85 57 50 58 51 59 65 61 86 62 53 63 37 64 38 65 46 66 39 67
REMARK SMILES IDX 41 68 47 69 40 70 42 71 43 72 44 73 45 74 69 75 70 76 78 77
REMARK SMILES IDX 71 78 73 79 79 80 72 81 74 82 75 83 76 84 77 85 54 86 55 87
REMARK SMILES IDX 63 88 56 89 58 90 64 91 57 92 59 93 60 94 61 95 62 96
REMARK H PARENT 6 21 8 24 8 25 84 49 52 60
REMARK Flexibility Score: inf
ROOT
ATOM      1  C   UNL A   1      32.902  29.532  27.105  1.00  0.00     0.202 C 
ENDROOT
BRANCH   1   2
ATOM      2  C   UNL A   1      31.724  28.581  27.311  1.00  0.00     0.261 C 
BRANCH   2   3
ATOM      3  O   UNL A   1      31.355  27.936  26.082  1.00  0.00    -0.463 OA
BRANCH   3   4
ATOM      4  C   UNL A   1      31.020  26.624  26.127  1.00  0.00     0.310 C 
ATOM      5  O   UNL A   1      31.412  25.824  26.968  1.00  0.00    -0.252 OA
BRANCH   4   6
ATOM      6  C   UNL A   1      30.096  26.213  24.987  1.00  0.00     0.119 C 
ATOM      7  N   UNL A   1      31.855  25.371  23.552  1.00  0.00    -0.340 N 
ATOM      8  C   UNL A   1      31.630  26.334  22.483  1.00  0.00     0.119 C 
ATOM      9  C   UNL A   1      30.670  24.982  24.292  1.00  0.00     0.134 C 
ATOM     10  C   UNL A   1      30.925  27.594  22.974  1.00  0.00     0.022 C 
ATOM     11  C   UNL A   1      29.773  27.294  23.941  1.00  0.00     0.019 C 
BRANCH   7  12
ATOM     12  C   UNL A   1      33.161  25.131  23.975  1.00  0.00     0.245 C 
ATOM     13  O   UNL A   1      33.979  26.055  24.035  1.00  0.00    -0.272 OA
BRANCH  12  14
ATOM     14  C   UNL A   1      33.545  23.695  24.471  1.00  0.00     0.176 C 
BRANCH  14  15
ATOM     15  C   UNL A   1      32.428  22.632  24.212  1.00  0.00     0.018 C 
ATOM     16  C   UNL A   1      31.843  22.068  25.514  1.00  0.00     0.010 C 
BRANCH  15  17
ATOM     17  C   UNL A   1      32.879  21.456  23.311  1.00  0.00     0.002 C 
ATOM     18  C   UNL A   1      31.948  21.262  22.114  1.00  0.00     0.004 C 
ENDBRANCH  15  17
ENDBRANCH  14  15
BRANCH  14  19
ATOM     19  N   UNL A   1      34.835  23.296  23.872  1.00  0.00    -0.326 N 
ATOM     20  C   UNL A   1      36.004  23.407  24.568  1.00  0.00     0.312 C 
ATOM     21  H   UNL A   1      34.852  22.944  22.953  1.00  0.00     0.166 HD
ATOM     22  N   UNL A   1      37.065  22.877  23.919  1.00  0.00    -0.352 N 
ATOM     23  O   UNL A   1      36.160  23.978  25.637  1.00  0.00    -0.249 OA
ATOM     24  H   UNL A   1      36.937  22.417  23.059  1.00  0.00     0.161 HD
ATOM     25  H   UNL A   1      37.967  22.949  24.309  1.00  0.00     0.161 HD
ENDBRANCH  14  19
ENDBRANCH  12  14
ENDBRANCH   7  12
ENDBRANCH   4   6
ENDBRANCH   3   4
ENDBRANCH   2   3
ENDBRANCH   1   2
BRANCH   1  26
ATOM     26  O   UNL A   1      32.681  30.665  26.265  1.00  0.00    -0.374 OA
BRANCH  26  27
ATOM     27  C   UNL A   1      31.597  31.530  26.592  1.00  0.00     0.202 C 
BRANCH  27  28
ATOM     28  C   UNL A   1      31.908  33.012  26.845  1.00  0.00     0.261 C 
BRANCH  28  29
ATOM     29  O   UNL A   1      32.522  33.268  28.119  1.00  0.00    -0.460 OA
BRANCH  29  30
ATOM     30  C   UNL A   1      33.668  33.991  28.047  1.00  0.00     0.338 C 
ATOM     31  O   UNL A   1      33.764  35.203  27.932  1.00  0.00    -0.246 OA
BRANCH  30  32
ATOM     32  C   UNL A   1      34.844  33.137  28.296  1.00  0.00     0.060 A 
ATOM     33  C   UNL A   1      34.616  31.883  28.881  1.00  0.00     0.016 A 
ATOM     34  C   UNL A   1      36.145  33.597  28.089  1.00  0.00     0.016 A 
ATOM     35  C   UNL A   1      35.686  31.114  29.326  1.00  0.00     0.010 A 
ATOM     36  C   UNL A   1      37.220  32.823  28.540  1.00  0.00     0.010 A 
ATOM     37  C   UNL A   1      36.992  31.603  29.205  1.00  0.00    -0.014 A 
BRANCH  37  38
ATOM     38  C   UNL A   1      38.099  30.922  29.922  1.00  0.00     0.031 A 
ATOM     39  C   UNL A   1      38.378  31.293  31.355  1.00  0.00     0.074 A 
ATOM     40  C   UNL A   1      38.834  29.975  29.315  1.00  0.00     0.049 A 
ATOM     41  N   UNL A   1      39.307  30.852  32.162  1.00  0.00    -0.248 NA
ATOM     42  C   UNL A   1      37.489  32.302  31.955  1.00  0.00     0.031 C 
ATOM     43  C   UNL A   1      38.644  29.508  27.943  1.00  0.00     0.029 A 
ATOM     44  N   UNL A   1      39.903  29.247  29.775  1.00  0.00    -0.354 N 
ATOM     45  C   UNL A   1      39.141  31.554  33.351  1.00  0.00     0.074 A 
ATOM     46  C   UNL A   1      38.033  32.463  33.151  1.00  0.00     0.031 C 
ATOM     47  C   UNL A   1      39.575  28.580  27.667  1.00  0.00     0.029 A 
ATOM     48  C   UNL A   1      40.446  28.413  28.829  1.00  0.00     0.049 A 
ATOM     49  H   UNL A   1      40.246  29.316  30.696  1.00  0.00     0.167 HD
ATOM     50  C   UNL A   1      39.837  31.444  34.509  1.00  0.00     0.034 A 
ATOM     51  C   UNL A   1      41.534  27.620  28.888  1.00  0.00     0.034 A 
ATOM     52  C   UNL A   1      40.932  30.532  34.704  1.00  0.00     0.049 A 
ATOM     53  C   UNL A   1      42.326  27.553  30.168  1.00  0.00     0.074 A 
ATOM     54  C   UNL A   1      41.680  30.315  35.847  1.00  0.00     0.029 A 
ATOM     55  N   UNL A   1      41.449  29.697  33.724  1.00  0.00    -0.354 N 
ATOM     56  N   UNL A   1      42.103  28.151  31.314  1.00  0.00    -0.248 NA
ATOM     57  C   UNL A   1      43.507  26.676  30.171  1.00  0.00     0.031 C 
ATOM     58  C   UNL A   1      42.677  29.379  35.546  1.00  0.00     0.029 A 
ATOM     59  C   UNL A   1      42.519  28.977  34.230  1.00  0.00     0.049 A 
ATOM     60  H   UNL A   1      41.106  29.626  32.804  1.00  0.00     0.167 HD
ATOM     61  C   UNL A   1      43.085  27.690  32.186  1.00  0.00     0.074 A 
ATOM     62  C   UNL A   1      43.900  26.755  31.435  1.00  0.00     0.031 C 
ATOM     63  C   UNL A   1      43.295  28.014  33.486  1.00  0.00     0.034 A 
BRANCH  50  64
ATOM     64  C   UNL A   1      39.425  32.339  35.652  1.00  0.00     0.023 A 
ATOM     65  C   UNL A   1      38.546  31.855  36.645  1.00  0.00     0.012 A 
ATOM     66  C   UNL A   1      39.913  33.658  35.750  1.00  0.00     0.148 A 
ATOM     67  C   UNL A   1      38.117  32.684  37.681  1.00  0.00     0.002 A 
ATOM     68  C   UNL A   1      39.521  34.462  36.815  1.00  0.00     0.091 A 
ATOM     69  F   UNL A   1      40.731  34.111  34.790  1.00  0.00    -0.205 F 
ATOM     70  C   UNL A   1      38.609  33.983  37.771  1.00  0.00     0.022 A 
BRANCH  68  71
ATOM     71  S   UNL A   1      40.165  36.119  37.061  1.00  0.00     0.127 S 
ATOM     72  O   UNL A   1      41.584  35.854  37.294  1.00  0.00    -0.237 OA
ATOM     73  O   UNL A   1      39.868  36.760  35.780  1.00  0.00    -0.237 OA
ATOM     74  O   UNL A   1      39.434  36.669  38.195  1.00  0.00    -0.744 OA
ENDBRANCH  68  71
ENDBRANCH  50  64
BRANCH  51  75
ATOM     75  C   UNL A   1      41.904  26.780  27.714  1.00  0.00     0.023 A 
ATOM     76  C   UNL A   1      42.651  27.354  26.667  1.00  0.00     0.012 A 
ATOM     77  C   UNL A   1      41.550  25.418  27.641  1.00  0.00     0.148 A 
ATOM     78  C   UNL A   1      43.020  26.594  25.558  1.00  0.00     0.002 A 
ATOM     79  C   UNL A   1      41.963  24.655  26.556  1.00  0.00     0.091 A 
ATOM     80  F   UNL A   1      40.831  24.896  28.645  1.00  0.00    -0.205 F 
ATOM     81  C   UNL A   1      42.685  25.244  25.506  1.00  0.00     0.022 A 
BRANCH  79  82
ATOM     82  S   UNL A   1      41.669  22.886  26.439  1.00  0.00     0.127 S 
ATOM     83  O   UNL A   1      42.279  22.400  27.675  1.00  0.00    -0.237 OA
ATOM     84  O   UNL A   1      40.208  22.829  26.412  1.00  0.00    -0.237 OA
ATOM     85  O   UNL A   1      42.322  22.454  25.212  1.00  0.00    -0.744 OA
ENDBRANCH  79  82
ENDBRANCH  51  75
BRANCH  63  86
ATOM     86  C   UNL A   1      44.418  27.317  34.213  1.00  0.00     0.023 A 
ATOM     87  C   UNL A   1      44.184  26.094  34.874  1.00  0.00     0.012 A 
ATOM     88  C   UNL A   1      45.726  27.840  34.174  1.00  0.00     0.148 A 
ATOM     89  C   UNL A   1      45.228  25.422  35.513  1.00  0.00     0.002 A 
ATOM     90  C   UNL A   1      46.770  27.138  34.765  1.00  0.00     0.091 A 
ATOM     91  F   UNL A   1      45.928  29.012  33.555  1.00  0.00    -0.205 F 
ATOM     92  C   UNL A   1      46.520  25.937  35.448  1.00  0.00     0.022 A 
BRANCH  90  93
ATOM     93  S   UNL A   1      48.482  27.671  34.646  1.00  0.00     0.127 S 
ATOM     94  O   UNL A   1      49.174  26.621  35.393  1.00  0.00    -0.237 OA
ATOM     95  O   UNL A   1      48.713  27.643  33.201  1.00  0.00    -0.237 OA
ATOM     96  O   UNL A   1      48.535  28.998  35.243  1.00  0.00    -0.744 OA
ENDBRANCH  90  93
ENDBRANCH  63  86
ENDBRANCH  37  38
ENDBRANCH  30  32
ENDBRANCH  29  30
ENDBRANCH  28  29
ENDBRANCH  27  28
ENDBRANCH  26  27
ENDBRANCH   1  26
TORSDOF 22
ENDMDL
