MODEL 1
REMARK VINA RESULT:     -11.2      0.000      0.000
REMARK SMILES Cc1ccc(Nc2c(Cl)cccc2Cl)c(CC(=O)OCCOCCOC(=O)c2ccc(-c3c4nc(c(-c5cccc(S(=O)(=O)[O-])c5F)c5ccc([nH]5)c(-c5cccc(S(=O)(=O)[O-])c5F)c5nc(c(-c6cccc(S(=O)(=O)[O-])c6F)c6ccc3[nH]6)C=C5)C=C4)cc2)c1
REMARK SMILES IDX 22 1 21 2 20 3 19 4 17 5 18 6 16 7 15 8 1 9 2 10 3 11 91 12
REMARK SMILES IDX 4 13 5 14 6 15 7 17 8 18 13 19 9 20 10 21 12 22 14 23 11 24
REMARK SMILES IDX 23 25 24 26 25 27 26 28 27 29 28 30 29 31 90 32 30 33 89 34
REMARK SMILES IDX 31 35 32 36 33 37 83 38 34 39 88 40 82 41 84 42 35 43 87 44
REMARK SMILES IDX 81 45 80 46 36 48 68 49 48 50 67 51 49 52 52 53 66 54 85 55
REMARK SMILES IDX 50 56 51 57 65 59 86 60 53 61 37 62 38 63 46 64 39 65 41 66
REMARK SMILES IDX 47 67 40 68 42 69 43 70 44 71 45 72 69 73 70 74 78 75 71 76
REMARK SMILES IDX 73 77 79 78 72 79 74 80 75 81 76 82 77 83 54 84 55 85 63 86
REMARK SMILES IDX 56 87 58 88 64 89 57 90 59 91 60 92 61 93 62 94
REMARK H PARENT 6 16 84 47 52 58
REMARK Flexibility Score: inf
ROOT
ATOM      1  O   UNL A   1      36.965  22.824  25.826  1.00  0.00    -0.374 OA
ENDROOT
BRANCH   1   2
ATOM      2  C   UNL A   1      35.619  22.442  25.999  1.00  0.00     0.202 C 
BRANCH   2   3
ATOM      3  C   UNL A   1      34.727  23.663  25.892  1.00  0.00     0.261 C 
BRANCH   3   4
ATOM      4  O   UNL A   1      35.053  24.519  24.801  1.00  0.00    -0.463 OA
BRANCH   4   5
ATOM      5  C   UNL A   1      34.034  25.229  24.220  1.00  0.00     0.310 C 
ATOM      6  O   UNL A   1      33.834  25.385  23.025  1.00  0.00    -0.252 OA
BRANCH   5   7
ATOM      7  C   UNL A   1      33.146  25.863  25.275  1.00  0.00     0.160 C 
BRANCH   7   8
ATOM      8  C   UNL A   1      33.263  27.374  25.220  1.00  0.00    -0.013 A 
ATOM      9  C   UNL A   1      34.481  29.816  27.896  1.00  0.00     0.044 C 
ATOM     10  C   UNL A   1      33.842  29.280  26.651  1.00  0.00    -0.051 A 
ATOM     11  C   UNL A   1      32.998  30.071  25.880  1.00  0.00     0.005 A 
ATOM     12  C   UNL A   1      34.015  27.951  26.278  1.00  0.00     0.009 A 
ATOM     13  C   UNL A   1      32.311  29.525  24.787  1.00  0.00     0.026 A 
ATOM     14  C   UNL A   1      32.406  28.167  24.431  1.00  0.00     0.042 A 
BRANCH  14  15
ATOM     15  N   UNL A   1      31.650  27.624  23.353  1.00  0.00    -0.353 N 
ATOM     16  H   UNL A   1      32.178  27.216  22.629  1.00  0.00     0.167 HD
BRANCH  15  17
ATOM     17  C   UNL A   1      30.235  27.591  23.181  1.00  0.00     0.076 A 
ATOM     18  C   UNL A   1      29.493  28.694  22.730  1.00  0.00     0.066 A 
ATOM     19  C   UNL A   1      29.490  26.487  23.646  1.00  0.00     0.066 A 
ATOM     20  Cl  UNL A   1      30.213  29.942  21.763  1.00  0.00    -0.082 Cl
ATOM     21  C   UNL A   1      28.116  28.790  22.967  1.00  0.00     0.023 A 
ATOM     22  C   UNL A   1      28.124  26.596  23.936  1.00  0.00     0.023 A 
ATOM     23  Cl  UNL A   1      30.209  24.924  23.783  1.00  0.00    -0.082 Cl
ATOM     24  C   UNL A   1      27.445  27.771  23.638  1.00  0.00     0.003 A 
ENDBRANCH  15  17
ENDBRANCH  14  15
ENDBRANCH   7   8
ENDBRANCH   5   7
ENDBRANCH   4   5
ENDBRANCH   3   4
ENDBRANCH   2   3
ENDBRANCH   1   2
BRANCH   1  25
ATOM     25  C   UNL A   1      37.723  22.018  24.949  1.00  0.00     0.202 C 
BRANCH  25  26
ATOM     26  C   UNL A   1      38.717  21.225  25.791  1.00  0.00     0.261 C 
BRANCH  26  27
ATOM     27  O   UNL A   1      39.273  22.044  26.842  1.00  0.00    -0.460 OA
BRANCH  27  28
ATOM     28  C   UNL A   1      40.316  22.827  26.435  1.00  0.00     0.338 C 
ATOM     29  O   UNL A   1      41.381  22.369  26.035  1.00  0.00    -0.246 OA
BRANCH  28  30
ATOM     30  C   UNL A   1      40.031  24.265  26.698  1.00  0.00     0.060 A 
ATOM     31  C   UNL A   1      40.724  25.239  25.964  1.00  0.00     0.016 A 
ATOM     32  C   UNL A   1      39.370  24.617  27.876  1.00  0.00     0.016 A 
ATOM     33  C   UNL A   1      40.938  26.506  26.513  1.00  0.00     0.010 A 
ATOM     34  C   UNL A   1      39.681  25.826  28.465  1.00  0.00     0.010 A 
ATOM     35  C   UNL A   1      40.502  26.759  27.805  1.00  0.00    -0.014 A 
BRANCH  35  36
ATOM     36  C   UNL A   1      40.815  27.954  28.580  1.00  0.00     0.031 A 
ATOM     37  C   UNL A   1      39.872  29.080  28.519  1.00  0.00     0.074 A 
ATOM     38  C   UNL A   1      41.683  27.887  29.615  1.00  0.00     0.049 A 
ATOM     39  N   UNL A   1      39.998  30.140  29.232  1.00  0.00    -0.248 NA
ATOM     40  C   UNL A   1      38.728  29.130  27.612  1.00  0.00     0.031 C 
ATOM     41  C   UNL A   1      41.561  28.542  30.918  1.00  0.00     0.029 A 
ATOM     42  N   UNL A   1      42.897  27.221  29.697  1.00  0.00    -0.354 N 
ATOM     43  C   UNL A   1      38.795  30.790  29.185  1.00  0.00     0.074 A 
ATOM     44  C   UNL A   1      38.110  30.233  28.047  1.00  0.00     0.031 C 
ATOM     45  C   UNL A   1      42.699  28.389  31.606  1.00  0.00     0.029 A 
ATOM     46  C   UNL A   1      43.671  27.798  30.708  1.00  0.00     0.049 A 
ATOM     47  H   UNL A   1      43.170  26.462  29.132  1.00  0.00     0.167 HD
ATOM     48  C   UNL A   1      38.482  31.611  30.220  1.00  0.00     0.034 A 
ATOM     49  C   UNL A   1      44.958  28.205  30.537  1.00  0.00     0.034 A 
ATOM     50  C   UNL A   1      39.657  31.848  31.092  1.00  0.00     0.049 A 
ATOM     51  C   UNL A   1      45.004  29.724  30.589  1.00  0.00     0.074 A 
ATOM     52  C   UNL A   1      40.014  31.530  32.392  1.00  0.00     0.029 A 
ATOM     53  N   UNL A   1      40.830  32.300  30.495  1.00  0.00    -0.354 N 
ATOM     54  N   UNL A   1      44.057  30.471  31.100  1.00  0.00    -0.248 NA
ATOM     55  C   UNL A   1      46.065  30.529  29.998  1.00  0.00     0.031 C 
ATOM     56  C   UNL A   1      41.427  31.762  32.535  1.00  0.00     0.029 A 
ATOM     57  C   UNL A   1      41.923  32.275  31.347  1.00  0.00     0.049 A 
ATOM     58  H   UNL A   1      40.878  32.607  29.561  1.00  0.00     0.167 HD
ATOM     59  C   UNL A   1      44.211  31.766  30.690  1.00  0.00     0.074 A 
ATOM     60  C   UNL A   1      45.529  31.761  30.060  1.00  0.00     0.031 C 
ATOM     61  C   UNL A   1      43.227  32.717  30.829  1.00  0.00     0.034 A 
BRANCH  48  62
ATOM     62  C   UNL A   1      37.086  32.129  30.511  1.00  0.00     0.023 A 
ATOM     63  C   UNL A   1      36.559  31.847  31.787  1.00  0.00     0.012 A 
ATOM     64  C   UNL A   1      36.218  32.807  29.610  1.00  0.00     0.148 A 
ATOM     65  C   UNL A   1      35.260  32.214  32.158  1.00  0.00     0.002 A 
ATOM     66  C   UNL A   1      34.945  33.237  30.004  1.00  0.00     0.091 A 
ATOM     67  F   UNL A   1      36.567  32.967  28.329  1.00  0.00    -0.205 F 
ATOM     68  C   UNL A   1      34.459  32.926  31.275  1.00  0.00     0.022 A 
BRANCH  66  69
ATOM     69  S   UNL A   1      33.863  34.212  28.938  1.00  0.00     0.127 S 
ATOM     70  O   UNL A   1      34.772  35.240  28.434  1.00  0.00    -0.237 OA
ATOM     71  O   UNL A   1      33.442  33.232  27.936  1.00  0.00    -0.237 OA
ATOM     72  O   UNL A   1      32.783  34.702  29.786  1.00  0.00    -0.744 OA
ENDBRANCH  66  69
ENDBRANCH  48  62
BRANCH  49  73
ATOM     73  C   UNL A   1      45.699  27.248  29.652  1.00  0.00     0.023 A 
ATOM     74  C   UNL A   1      45.896  25.959  30.219  1.00  0.00     0.012 A 
ATOM     75  C   UNL A   1      45.643  27.365  28.252  1.00  0.00     0.148 A 
ATOM     76  C   UNL A   1      45.818  24.808  29.431  1.00  0.00     0.002 A 
ATOM     77  C   UNL A   1      45.552  26.208  27.474  1.00  0.00     0.091 A 
ATOM     78  F   UNL A   1      45.502  28.586  27.721  1.00  0.00    -0.205 F 
ATOM     79  C   UNL A   1      45.591  24.933  28.065  1.00  0.00     0.022 A 
BRANCH  77  80
ATOM     80  S   UNL A   1      45.151  26.288  25.721  1.00  0.00     0.127 S 
ATOM     81  O   UNL A   1      46.453  26.585  25.136  1.00  0.00    -0.237 OA
ATOM     82  O   UNL A   1      44.646  24.942  25.453  1.00  0.00    -0.237 OA
ATOM     83  O   UNL A   1      44.143  27.332  25.622  1.00  0.00    -0.744 OA
ENDBRANCH  77  80
ENDBRANCH  49  73
BRANCH  61  84
ATOM     84  C   UNL A   1      43.424  34.174  30.421  1.00  0.00     0.023 A 
ATOM     85  C   UNL A   1      43.404  35.195  31.390  1.00  0.00     0.012 A 
ATOM     86  C   UNL A   1      43.528  34.599  29.069  1.00  0.00     0.148 A 
ATOM     87  C   UNL A   1      43.629  36.536  31.064  1.00  0.00     0.002 A 
ATOM     88  C   UNL A   1      43.666  35.943  28.738  1.00  0.00     0.091 A 
ATOM     89  F   UNL A   1      43.498  33.709  28.076  1.00  0.00    -0.205 F 
ATOM     90  C   UNL A   1      43.767  36.911  29.736  1.00  0.00     0.022 A 
BRANCH  88  91
ATOM     91  S   UNL A   1      43.637  36.526  27.034  1.00  0.00     0.127 S 
ATOM     92  O   UNL A   1      43.957  37.943  27.207  1.00  0.00    -0.237 OA
ATOM     93  O   UNL A   1      44.701  35.727  26.428  1.00  0.00    -0.237 OA
ATOM     94  O   UNL A   1      42.298  36.262  26.529  1.00  0.00    -0.744 OA
ENDBRANCH  88  91
ENDBRANCH  61  84
ENDBRANCH  35  36
ENDBRANCH  28  30
ENDBRANCH  27  28
ENDBRANCH  26  27
ENDBRANCH  25  26
ENDBRANCH   1  25
TORSDOF 20
ENDMDL
MODEL 2
REMARK VINA RESULT:     -10.8      4.284      9.554
REMARK SMILES Cc1ccc(Nc2c(Cl)cccc2Cl)c(CC(=O)OCCOCCOC(=O)c2ccc(-c3c4nc(c(-c5cccc(S(=O)(=O)[O-])c5F)c5ccc([nH]5)c(-c5cccc(S(=O)(=O)[O-])c5F)c5nc(c(-c6cccc(S(=O)(=O)[O-])c6F)c6ccc3[nH]6)C=C5)C=C4)cc2)c1
REMARK SMILES IDX 22 1 21 2 20 3 19 4 17 5 18 6 16 7 15 8 1 9 2 10 3 11 91 12
REMARK SMILES IDX 4 13 5 14 6 15 7 17 8 18 13 19 9 20 10 21 12 22 14 23 11 24
REMARK SMILES IDX 23 25 24 26 25 27 26 28 27 29 28 30 29 31 90 32 30 33 89 34
REMARK SMILES IDX 31 35 32 36 33 37 83 38 34 39 88 40 82 41 84 42 35 43 87 44
REMARK SMILES IDX 81 45 80 46 36 48 68 49 48 50 67 51 49 52 52 53 66 54 85 55
REMARK SMILES IDX 50 56 51 57 65 59 86 60 53 61 37 62 38 63 46 64 39 65 41 66
REMARK SMILES IDX 47 67 40 68 42 69 43 70 44 71 45 72 69 73 70 74 78 75 71 76
REMARK SMILES IDX 73 77 79 78 72 79 74 80 75 81 76 82 77 83 54 84 55 85 63 86
REMARK SMILES IDX 56 87 58 88 64 89 57 90 59 91 60 92 61 93 62 94
REMARK H PARENT 6 16 84 47 52 58
REMARK Flexibility Score: inf
ROOT
ATOM      1  O   UNL A   1      32.702  28.500  25.955  1.00  0.00    -0.374 OA
ENDROOT
BRANCH   1   2
ATOM      2  C   UNL A   1      32.467  29.420  24.913  1.00  0.00     0.202 C 
BRANCH   2   3
ATOM      3  C   UNL A   1      33.249  29.004  23.683  1.00  0.00     0.261 C 
BRANCH   3   4
ATOM      4  O   UNL A   1      33.845  27.715  23.790  1.00  0.00    -0.463 OA
BRANCH   4   5
ATOM      5  C   UNL A   1      33.759  26.879  22.706  1.00  0.00     0.310 C 
ATOM      6  O   UNL A   1      33.773  27.199  21.527  1.00  0.00    -0.252 OA
BRANCH   5   7
ATOM      7  C   UNL A   1      33.606  25.435  23.147  1.00  0.00     0.160 C 
BRANCH   7   8
ATOM      8  C   UNL A   1      32.396  25.288  24.050  1.00  0.00    -0.013 A 
ATOM      9  C   UNL A   1      28.977  26.981  23.828  1.00  0.00     0.044 C 
ATOM     10  C   UNL A   1      30.145  26.211  24.363  1.00  0.00    -0.051 A 
ATOM     11  C   UNL A   1      30.251  25.918  25.717  1.00  0.00     0.005 A 
ATOM     12  C   UNL A   1      31.194  25.838  23.529  1.00  0.00     0.009 A 
ATOM     13  C   UNL A   1      31.405  25.304  26.226  1.00  0.00     0.026 A 
ATOM     14  C   UNL A   1      32.514  24.985  25.421  1.00  0.00     0.042 A 
BRANCH  14  15
ATOM     15  N   UNL A   1      33.697  24.418  25.973  1.00  0.00    -0.353 N 
ATOM     16  H   UNL A   1      34.273  25.040  26.473  1.00  0.00     0.167 HD
BRANCH  15  17
ATOM     17  C   UNL A   1      34.161  23.071  25.901  1.00  0.00     0.076 A 
ATOM     18  C   UNL A   1      35.221  22.670  25.071  1.00  0.00     0.066 A 
ATOM     19  C   UNL A   1      33.436  22.037  26.530  1.00  0.00     0.066 A 
ATOM     20  Cl  UNL A   1      36.448  23.785  24.559  1.00  0.00    -0.082 Cl
ATOM     21  C   UNL A   1      35.381  21.331  24.692  1.00  0.00     0.023 A 
ATOM     22  C   UNL A   1      33.554  20.703  26.115  1.00  0.00     0.023 A 
ATOM     23  Cl  UNL A   1      32.445  22.356  27.905  1.00  0.00    -0.082 Cl
ATOM     24  C   UNL A   1      34.500  20.358  25.158  1.00  0.00     0.003 A 
ENDBRANCH  15  17
ENDBRANCH  14  15
ENDBRANCH   7   8
ENDBRANCH   5   7
ENDBRANCH   4   5
ENDBRANCH   3   4
ENDBRANCH   2   3
ENDBRANCH   1   2
BRANCH   1  25
ATOM     25  C   UNL A   1      33.327  29.025  27.107  1.00  0.00     0.202 C 
BRANCH  25  26
ATOM     26  C   UNL A   1      33.042  30.522  27.147  1.00  0.00     0.261 C 
BRANCH  26  27
ATOM     27  O   UNL A   1      34.267  31.279  27.256  1.00  0.00    -0.460 OA
BRANCH  27  28
ATOM     28  C   UNL A   1      34.204  32.297  28.164  1.00  0.00     0.338 C 
ATOM     29  O   UNL A   1      33.333  33.160  28.145  1.00  0.00    -0.246 OA
BRANCH  28  30
ATOM     30  C   UNL A   1      35.405  32.293  29.046  1.00  0.00     0.060 A 
ATOM     31  C   UNL A   1      36.625  32.757  28.532  1.00  0.00     0.016 A 
ATOM     32  C   UNL A   1      35.385  31.523  30.209  1.00  0.00     0.016 A 
ATOM     33  C   UNL A   1      37.830  32.274  29.051  1.00  0.00     0.010 A 
ATOM     34  C   UNL A   1      36.569  30.959  30.642  1.00  0.00     0.010 A 
ATOM     35  C   UNL A   1      37.792  31.300  30.036  1.00  0.00    -0.014 A 
BRANCH  35  36
ATOM     36  C   UNL A   1      38.948  30.566  30.539  1.00  0.00     0.031 A 
ATOM     37  C   UNL A   1      39.234  29.248  29.952  1.00  0.00     0.074 A 
ATOM     38  C   UNL A   1      39.937  31.216  31.193  1.00  0.00     0.049 A 
ATOM     39  N   UNL A   1      40.274  28.559  30.250  1.00  0.00    -0.248 NA
ATOM     40  C   UNL A   1      38.345  28.570  29.012  1.00  0.00     0.031 C 
ATOM     41  C   UNL A   1      41.379  31.001  31.058  1.00  0.00     0.029 A 
ATOM     42  N   UNL A   1      39.843  32.208  32.158  1.00  0.00    -0.354 N 
ATOM     43  C   UNL A   1      40.396  27.596  29.286  1.00  0.00     0.074 A 
ATOM     44  C   UNL A   1      39.103  27.530  28.655  1.00  0.00     0.031 C 
ATOM     45  C   UNL A   1      42.026  31.702  31.998  1.00  0.00     0.029 A 
ATOM     46  C   UNL A   1      41.029  32.243  32.898  1.00  0.00     0.049 A 
ATOM     47  H   UNL A   1      39.065  32.794  32.299  1.00  0.00     0.167 HD
ATOM     48  C   UNL A   1      41.635  27.090  29.053  1.00  0.00     0.034 A 
ATOM     49  C   UNL A   1      41.072  32.213  34.258  1.00  0.00     0.034 A 
ATOM     50  C   UNL A   1      42.592  27.508  30.105  1.00  0.00     0.049 A 
ATOM     51  C   UNL A   1      41.649  30.877  34.701  1.00  0.00     0.074 A 
ATOM     52  C   UNL A   1      43.717  28.313  30.167  1.00  0.00     0.029 A 
ATOM     53  N   UNL A   1      42.247  27.268  31.432  1.00  0.00    -0.354 N 
ATOM     54  N   UNL A   1      42.339  30.081  33.924  1.00  0.00    -0.248 NA
ATOM     55  C   UNL A   1      41.426  30.287  36.015  1.00  0.00     0.031 C 
ATOM     56  C   UNL A   1      44.001  28.577  31.552  1.00  0.00     0.029 A 
ATOM     57  C   UNL A   1      43.090  27.891  32.338  1.00  0.00     0.049 A 
ATOM     58  H   UNL A   1      41.480  26.711  31.700  1.00  0.00     0.167 HD
ATOM     59  C   UNL A   1      42.412  28.833  34.478  1.00  0.00     0.074 A 
ATOM     60  C   UNL A   1      41.885  29.037  35.825  1.00  0.00     0.031 C 
ATOM     61  C   UNL A   1      42.822  27.724  33.775  1.00  0.00     0.034 A 
BRANCH  48  62
ATOM     62  C   UNL A   1      42.017  26.294  27.820  1.00  0.00     0.023 A 
ATOM     63  C   UNL A   1      42.484  27.028  26.711  1.00  0.00     0.012 A 
ATOM     64  C   UNL A   1      41.889  24.889  27.632  1.00  0.00     0.148 A 
ATOM     65  C   UNL A   1      42.810  26.419  25.494  1.00  0.00     0.002 A 
ATOM     66  C   UNL A   1      42.281  24.272  26.439  1.00  0.00     0.091 A 
ATOM     67  F   UNL A   1      41.298  24.135  28.565  1.00  0.00    -0.205 F 
ATOM     68  C   UNL A   1      42.727  25.039  25.362  1.00  0.00     0.022 A 
BRANCH  66  69
ATOM     69  S   UNL A   1      42.257  22.482  26.203  1.00  0.00     0.127 S 
ATOM     70  O   UNL A   1      40.830  22.215  26.021  1.00  0.00    -0.237 OA
ATOM     71  O   UNL A   1      43.063  22.313  24.993  1.00  0.00    -0.237 OA
ATOM     72  O   UNL A   1      42.847  21.901  27.402  1.00  0.00    -0.744 OA
ENDBRANCH  66  69
ENDBRANCH  48  62
BRANCH  49  73
ATOM     73  C   UNL A   1      39.949  33.017  34.839  1.00  0.00     0.023 A 
ATOM     74  C   UNL A   1      38.751  32.282  35.051  1.00  0.00     0.012 A 
ATOM     75  C   UNL A   1      40.204  34.135  35.652  1.00  0.00     0.148 A 
ATOM     76  C   UNL A   1      37.951  32.519  36.172  1.00  0.00     0.002 A 
ATOM     77  C   UNL A   1      39.406  34.356  36.778  1.00  0.00     0.091 A 
ATOM     78  F   UNL A   1      41.310  34.851  35.419  1.00  0.00    -0.205 F 
ATOM     79  C   UNL A   1      38.312  33.522  37.064  1.00  0.00     0.022 A 
BRANCH  77  80
ATOM     80  S   UNL A   1      39.870  35.562  38.032  1.00  0.00     0.127 S 
ATOM     81  O   UNL A   1      38.864  35.316  39.060  1.00  0.00    -0.237 OA
ATOM     82  O   UNL A   1      41.226  35.144  38.383  1.00  0.00    -0.237 OA
ATOM     83  O   UNL A   1      39.799  36.846  37.351  1.00  0.00    -0.744 OA
ENDBRANCH  77  80
ENDBRANCH  49  73
BRANCH  61  84
ATOM     84  C   UNL A   1      42.953  26.345  34.415  1.00  0.00     0.023 A 
ATOM     85  C   UNL A   1      41.830  25.711  34.981  1.00  0.00     0.012 A 
ATOM     86  C   UNL A   1      44.195  25.675  34.578  1.00  0.00     0.148 A 
ATOM     87  C   UNL A   1      41.898  24.428  35.533  1.00  0.00     0.002 A 
ATOM     88  C   UNL A   1      44.277  24.436  35.205  1.00  0.00     0.091 A 
ATOM     89  F   UNL A   1      45.324  26.224  34.127  1.00  0.00    -0.205 F 
ATOM     90  C   UNL A   1      43.123  23.786  35.639  1.00  0.00     0.022 A 
BRANCH  88  91
ATOM     91  S   UNL A   1      45.850  23.640  35.570  1.00  0.00     0.127 S 
ATOM     92  O   UNL A   1      45.407  22.408  36.224  1.00  0.00    -0.237 OA
ATOM     93  O   UNL A   1      46.408  23.455  34.231  1.00  0.00    -0.237 OA
ATOM     94  O   UNL A   1      46.588  24.554  36.429  1.00  0.00    -0.744 OA
ENDBRANCH  88  91
ENDBRANCH  61  84
ENDBRANCH  35  36
ENDBRANCH  28  30
ENDBRANCH  27  28
ENDBRANCH  26  27
ENDBRANCH  25  26
ENDBRANCH   1  25
TORSDOF 20
ENDMDL
MODEL 3
REMARK VINA RESULT:     -10.7      4.255      9.725
REMARK SMILES Cc1ccc(Nc2c(Cl)cccc2Cl)c(CC(=O)OCCOCCOC(=O)c2ccc(-c3c4nc(c(-c5cccc(S(=O)(=O)[O-])c5F)c5ccc([nH]5)c(-c5cccc(S(=O)(=O)[O-])c5F)c5nc(c(-c6cccc(S(=O)(=O)[O-])c6F)c6ccc3[nH]6)C=C5)C=C4)cc2)c1
REMARK SMILES IDX 22 1 21 2 20 3 19 4 17 5 18 6 16 7 15 8 1 9 2 10 3 11 91 12
REMARK SMILES IDX 4 13 5 14 6 15 7 17 8 18 13 19 9 20 10 21 12 22 14 23 11 24
REMARK SMILES IDX 23 25 24 26 25 27 26 28 27 29 28 30 29 31 90 32 30 33 89 34
REMARK SMILES IDX 31 35 32 36 33 37 83 38 34 39 88 40 82 41 84 42 35 43 87 44
REMARK SMILES IDX 81 45 80 46 36 48 68 49 48 50 67 51 49 52 52 53 66 54 85 55
REMARK SMILES IDX 50 56 51 57 65 59 86 60 53 61 37 62 38 63 46 64 39 65 41 66
REMARK SMILES IDX 47 67 40 68 42 69 43 70 44 71 45 72 69 73 70 74 78 75 71 76
REMARK SMILES IDX 73 77 79 78 72 79 74 80 75 81 76 82 77 83 54 84 55 85 63 86
REMARK SMILES IDX 56 87 58 88 64 89 57 90 59 91 60 92 61 93 62 94
REMARK H PARENT 6 16 84 47 52 58
REMARK Flexibility Score: inf
ROOT
ATOM      1  O   UNL A   1      32.756  27.470  24.766  1.00  0.00    -0.374 OA
ENDROOT
BRANCH   1   2
ATOM      2  C   UNL A   1      33.287  27.112  23.510  1.00  0.00     0.202 C 
BRANCH   2   3
ATOM      3  C   UNL A   1      33.809  25.689  23.566  1.00  0.00     0.261 C 
BRANCH   3   4
ATOM      4  O   UNL A   1      33.225  24.824  22.597  1.00  0.00    -0.463 OA
BRANCH   4   5
ATOM      5  C   UNL A   1      31.975  24.323  22.858  1.00  0.00     0.310 C 
ATOM      6  O   UNL A   1      30.928  24.949  22.909  1.00  0.00    -0.252 OA
BRANCH   5   7
ATOM      7  C   UNL A   1      32.035  22.830  23.122  1.00  0.00     0.160 C 
BRANCH   7   8
ATOM      8  C   UNL A   1      32.098  22.563  24.614  1.00  0.00    -0.013 A 
ATOM      9  C   UNL A   1      29.441  23.138  27.300  1.00  0.00     0.044 C 
ATOM     10  C   UNL A   1      30.763  22.869  26.649  1.00  0.00    -0.051 A 
ATOM     11  C   UNL A   1      31.947  22.935  27.374  1.00  0.00     0.005 A 
ATOM     12  C   UNL A   1      30.846  22.622  25.282  1.00  0.00     0.009 A 
ATOM     13  C   UNL A   1      33.185  22.801  26.731  1.00  0.00     0.026 A 
ATOM     14  C   UNL A   1      33.305  22.627  25.339  1.00  0.00     0.042 A 
BRANCH  14  15
ATOM     15  N   UNL A   1      34.576  22.555  24.703  1.00  0.00    -0.353 N 
ATOM     16  H   UNL A   1      34.677  23.106  23.893  1.00  0.00     0.167 HD
BRANCH  15  17
ATOM     17  C   UNL A   1      35.722  21.794  25.079  1.00  0.00     0.076 A 
ATOM     18  C   UNL A   1      36.937  22.381  25.469  1.00  0.00     0.066 A 
ATOM     19  C   UNL A   1      35.739  20.396  24.887  1.00  0.00     0.066 A 
ATOM     20  Cl  UNL A   1      37.000  23.982  26.134  1.00  0.00    -0.082 Cl
ATOM     21  C   UNL A   1      38.140  21.666  25.419  1.00  0.00     0.023 A 
ATOM     22  C   UNL A   1      36.943  19.687  24.782  1.00  0.00     0.023 A 
ATOM     23  Cl  UNL A   1      34.275  19.484  24.873  1.00  0.00    -0.082 Cl
ATOM     24  C   UNL A   1      38.150  20.337  25.003  1.00  0.00     0.003 A 
ENDBRANCH  15  17
ENDBRANCH  14  15
ENDBRANCH   7   8
ENDBRANCH   5   7
ENDBRANCH   4   5
ENDBRANCH   3   4
ENDBRANCH   2   3
ENDBRANCH   1   2
BRANCH   1  25
ATOM     25  C   UNL A   1      33.618  27.285  25.869  1.00  0.00     0.202 C 
BRANCH  25  26
ATOM     26  C   UNL A   1      33.882  28.655  26.485  1.00  0.00     0.261 C 
BRANCH  26  27
ATOM     27  O   UNL A   1      35.088  28.640  27.279  1.00  0.00    -0.460 OA
BRANCH  27  28
ATOM     28  C   UNL A   1      35.321  29.810  27.946  1.00  0.00     0.338 C 
ATOM     29  O   UNL A   1      34.482  30.697  28.055  1.00  0.00    -0.246 OA
BRANCH  28  30
ATOM     30  C   UNL A   1      36.748  29.906  28.361  1.00  0.00     0.060 A 
ATOM     31  C   UNL A   1      37.747  29.835  27.378  1.00  0.00     0.016 A 
ATOM     32  C   UNL A   1      37.074  29.710  29.704  1.00  0.00     0.016 A 
ATOM     33  C   UNL A   1      39.018  29.357  27.708  1.00  0.00     0.010 A 
ATOM     34  C   UNL A   1      38.291  29.130  30.004  1.00  0.00     0.010 A 
ATOM     35  C   UNL A   1      39.252  28.912  29.000  1.00  0.00    -0.014 A 
BRANCH  35  36
ATOM     36  C   UNL A   1      40.454  28.216  29.446  1.00  0.00     0.031 A 
ATOM     37  C   UNL A   1      40.625  26.812  29.043  1.00  0.00     0.074 A 
ATOM     38  C   UNL A   1      41.540  28.916  29.841  1.00  0.00     0.049 A 
ATOM     39  N   UNL A   1      41.684  26.134  29.298  1.00  0.00    -0.248 NA
ATOM     40  C   UNL A   1      39.596  26.034  28.358  1.00  0.00     0.031 C 
ATOM     41  C   UNL A   1      42.942  28.622  29.541  1.00  0.00     0.029 A 
ATOM     42  N   UNL A   1      41.608  30.050  30.639  1.00  0.00    -0.354 N 
ATOM     43  C   UNL A   1      41.645  25.028  28.493  1.00  0.00     0.074 A 
ATOM     44  C   UNL A   1      40.273  24.920  28.069  1.00  0.00     0.031 C 
ATOM     45  C   UNL A   1      43.734  29.432  30.256  1.00  0.00     0.029 A 
ATOM     46  C   UNL A   1      42.889  30.148  31.190  1.00  0.00     0.049 A 
ATOM     47  H   UNL A   1      40.870  30.684  30.792  1.00  0.00     0.167 HD
ATOM     48  C   UNL A   1      42.826  24.440  28.172  1.00  0.00     0.034 A 
ATOM     49  C   UNL A   1      43.129  30.328  32.517  1.00  0.00     0.034 A 
ATOM     50  C   UNL A   1      43.934  24.975  28.999  1.00  0.00     0.049 A 
ATOM     51  C   UNL A   1      43.738  29.055  33.082  1.00  0.00     0.074 A 
ATOM     52  C   UNL A   1      45.072  25.731  28.772  1.00  0.00     0.029 A 
ATOM     53  N   UNL A   1      43.782  24.959  30.382  1.00  0.00    -0.354 N 
ATOM     54  N   UNL A   1      44.292  28.118  32.353  1.00  0.00    -0.248 NA
ATOM     55  C   UNL A   1      43.697  28.686  34.492  1.00  0.00     0.031 C 
ATOM     56  C   UNL A   1      45.560  26.195  30.043  1.00  0.00     0.029 A 
ATOM     57  C   UNL A   1      44.760  25.678  31.049  1.00  0.00     0.049 A 
ATOM     58  H   UNL A   1      43.051  24.483  30.840  1.00  0.00     0.167 HD
ATOM     59  C   UNL A   1      44.419  26.970  33.084  1.00  0.00     0.074 A 
ATOM     60  C   UNL A   1      44.099  27.403  34.442  1.00  0.00     0.031 C 
ATOM     61  C   UNL A   1      44.700  25.749  32.517  1.00  0.00     0.034 A 
BRANCH  48  62
ATOM     62  C   UNL A   1      43.009  23.446  27.041  1.00  0.00     0.023 A 
ATOM     63  C   UNL A   1      43.526  23.951  25.831  1.00  0.00     0.012 A 
ATOM     64  C   UNL A   1      42.648  22.069  27.042  1.00  0.00     0.148 A 
ATOM     65  C   UNL A   1      43.684  23.152  24.693  1.00  0.00     0.002 A 
ATOM     66  C   UNL A   1      42.872  21.254  25.926  1.00  0.00     0.091 A 
ATOM     67  F   UNL A   1      41.995  21.544  28.084  1.00  0.00    -0.205 F 
ATOM     68  C   UNL A   1      43.376  21.799  24.745  1.00  0.00     0.022 A 
BRANCH  66  69
ATOM     69  S   UNL A   1      42.549  19.478  25.926  1.00  0.00     0.127 S 
ATOM     70  O   UNL A   1      41.091  19.430  25.808  1.00  0.00    -0.237 OA
ATOM     71  O   UNL A   1      43.267  19.027  24.734  1.00  0.00    -0.237 OA
ATOM     72  O   UNL A   1      43.085  18.962  27.179  1.00  0.00    -0.744 OA
ENDBRANCH  66  69
ENDBRANCH  48  62
BRANCH  49  73
ATOM     73  C   UNL A   1      42.119  31.261  33.114  1.00  0.00     0.023 A 
ATOM     74  C   UNL A   1      42.091  32.552  32.520  1.00  0.00     0.012 A 
ATOM     75  C   UNL A   1      40.943  30.770  33.709  1.00  0.00     0.148 A 
ATOM     76  C   UNL A   1      40.885  33.231  32.332  1.00  0.00     0.002 A 
ATOM     77  C   UNL A   1      39.739  31.450  33.503  1.00  0.00     0.091 A 
ATOM     78  F   UNL A   1      40.985  29.573  34.305  1.00  0.00    -0.205 F 
ATOM     79  C   UNL A   1      39.703  32.652  32.776  1.00  0.00     0.022 A 
BRANCH  77  80
ATOM     80  S   UNL A   1      38.159  30.713  33.952  1.00  0.00     0.127 S 
ATOM     81  O   UNL A   1      37.224  31.552  33.211  1.00  0.00    -0.237 OA
ATOM     82  O   UNL A   1      38.296  29.347  33.448  1.00  0.00    -0.237 OA
ATOM     83  O   UNL A   1      38.107  30.810  35.403  1.00  0.00    -0.744 OA
ENDBRANCH  77  80
ENDBRANCH  49  73
BRANCH  61  84
ATOM     84  C   UNL A   1      44.897  24.482  33.344  1.00  0.00     0.023 A 
ATOM     85  C   UNL A   1      43.784  23.731  33.775  1.00  0.00     0.012 A 
ATOM     86  C   UNL A   1      46.163  24.046  33.817  1.00  0.00     0.148 A 
ATOM     87  C   UNL A   1      43.923  22.540  34.492  1.00  0.00     0.002 A 
ATOM     88  C   UNL A   1      46.293  22.906  34.604  1.00  0.00     0.091 A 
ATOM     89  F   UNL A   1      47.270  24.725  33.511  1.00  0.00    -0.205 F 
ATOM     90  C   UNL A   1      45.181  22.122  34.903  1.00  0.00     0.022 A 
BRANCH  88  91
ATOM     91  S   UNL A   1      47.859  22.421  35.350  1.00  0.00     0.127 S 
ATOM     92  O   UNL A   1      47.931  23.334  36.493  1.00  0.00    -0.237 OA
ATOM     93  O   UNL A   1      47.603  21.025  35.699  1.00  0.00    -0.237 OA
ATOM     94  O   UNL A   1      48.883  22.631  34.338  1.00  0.00    -0.744 OA
ENDBRANCH  88  91
ENDBRANCH  61  84
ENDBRANCH  35  36
ENDBRANCH  28  30
ENDBRANCH  27  28
ENDBRANCH  26  27
ENDBRANCH  25  26
ENDBRANCH   1  25
TORSDOF 20
ENDMDL
