MODEL 1
REMARK VINA RESULT:     -12.2      0.000      0.000
REMARK SMILES Cc1ccnc(C(=O)c2[nH]c3ccc(F)cc3c2CC(=O)OCCOCCOC(=O)c2ccc(-c3c4nc(c(-c5cccc(S(=O)(=O)[O-])c5F)c5ccc([nH]5)c(-c5cccc(S(=O)(=O)[O-])c5F)c5nc(c(-c6cccc(S(=O)(=O)[O-])c6F)c6ccc3[nH]6)C=C5)C=C4)cc2)c1
REMARK SMILES IDX 25 1 24 2 23 3 22 4 20 5 21 6 19 7 18 8 9 9 10 10 11 11
REMARK SMILES IDX 17 13 12 14 16 15 13 16 14 17 15 18 7 19 8 20 6 21 1 22 2 23
REMARK SMILES IDX 3 24 94 25 4 26 5 27 26 28 27 29 28 30 29 31 30 32 31 33
REMARK SMILES IDX 32 34 93 35 33 36 92 37 34 38 35 39 36 40 86 41 37 42 91 43
REMARK SMILES IDX 85 44 87 45 38 46 90 47 84 48 83 49 39 51 71 52 51 53 70 54
REMARK SMILES IDX 52 55 55 56 69 57 88 58 53 59 54 60 68 62 89 63 56 64 40 65
REMARK SMILES IDX 41 66 49 67 42 68 44 69 50 70 43 71 45 72 46 73 47 74 48 75
REMARK SMILES IDX 72 76 73 77 81 78 74 79 76 80 82 81 75 82 77 83 78 84 79 85
REMARK SMILES IDX 80 86 57 87 58 88 66 89 59 90 61 91 67 92 60 93 62 94 63 95
REMARK SMILES IDX 64 96 65 97
REMARK H PARENT 10 12 87 50 55 61
REMARK Flexibility Score: inf
ROOT
ATOM      1  O   UNL A   1      35.446  22.230  25.297  1.00  0.00    -0.374 OA
ENDROOT
BRANCH   1   2
ATOM      2  C   UNL A   1      36.067  23.195  24.423  1.00  0.00     0.202 C 
BRANCH   2   3
ATOM      3  C   UNL A   1      35.474  23.336  22.999  1.00  0.00     0.261 C 
BRANCH   3   4
ATOM      4  O   UNL A   1      34.230  24.072  22.951  1.00  0.00    -0.463 OA
BRANCH   4   5
ATOM      5  C   UNL A   1      33.239  23.543  22.173  1.00  0.00     0.310 C 
ATOM      6  O   UNL A   1      33.335  23.338  20.968  1.00  0.00    -0.252 OA
BRANCH   5   7
ATOM      7  C   UNL A   1      31.965  23.251  22.943  1.00  0.00     0.161 C 
BRANCH   7   8
ATOM      8  C   UNL A   1      32.091  22.316  24.116  1.00  0.00     0.000 A 
ATOM      9  C   UNL A   1      32.010  22.581  25.493  1.00  0.00     0.093 A 
ATOM     10  N   UNL A   1      32.439  21.408  26.112  1.00  0.00    -0.352 N 
ATOM     11  C   UNL A   1      32.492  20.351  25.239  1.00  0.00     0.046 A 
ATOM     12  H   UNL A   1      32.675  21.345  27.065  1.00  0.00     0.167 HD
ATOM     13  C   UNL A   1      32.318  20.886  23.968  1.00  0.00     0.007 A 
ATOM     14  C   UNL A   1      32.635  18.974  25.489  1.00  0.00     0.030 A 
ATOM     15  C   UNL A   1      32.336  19.994  22.871  1.00  0.00     0.049 A 
ATOM     16  C   UNL A   1      32.594  18.111  24.392  1.00  0.00     0.041 A 
ATOM     17  C   UNL A   1      32.459  18.620  23.109  1.00  0.00     0.123 A 
ATOM     18  F   UNL A   1      32.427  17.773  22.071  1.00  0.00    -0.207 F 
BRANCH   9  19
ATOM     19  C   UNL A   1      31.748  23.731  26.375  1.00  0.00     0.227 C 
ATOM     20  O   UNL A   1      30.918  23.559  27.274  1.00  0.00    -0.285 OA
BRANCH  19  21
ATOM     21  C   UNL A   1      32.248  25.167  26.208  1.00  0.00     0.113 A 
ATOM     22  C   UNL A   1      31.684  28.796  27.275  1.00  0.00     0.044 C 
ATOM     23  C   UNL A   1      32.317  27.546  26.724  1.00  0.00    -0.047 A 
ATOM     24  C   UNL A   1      33.601  27.599  26.196  1.00  0.00     0.023 A 
ATOM     25  C   UNL A   1      31.634  26.312  26.710  1.00  0.00     0.036 A 
ATOM     26  C   UNL A   1      34.145  26.430  25.701  1.00  0.00     0.112 A 
ATOM     27  N   UNL A   1      33.508  25.236  25.690  1.00  0.00    -0.253 NA
ENDBRANCH  19  21
ENDBRANCH   9  19
ENDBRANCH   7   8
ENDBRANCH   5   7
ENDBRANCH   4   5
ENDBRANCH   3   4
ENDBRANCH   2   3
ENDBRANCH   1   2
BRANCH   1  28
ATOM     28  C   UNL A   1      36.071  20.955  25.173  1.00  0.00     0.202 C 
BRANCH  28  29
ATOM     29  C   UNL A   1      37.591  20.904  25.009  1.00  0.00     0.261 C 
BRANCH  29  30
ATOM     30  O   UNL A   1      38.262  21.580  26.026  1.00  0.00    -0.460 OA
BRANCH  30  31
ATOM     31  C   UNL A   1      39.501  21.121  26.307  1.00  0.00     0.338 C 
ATOM     32  O   UNL A   1      39.973  20.027  26.134  1.00  0.00    -0.246 OA
BRANCH  31  33
ATOM     33  C   UNL A   1      40.189  22.385  26.573  1.00  0.00     0.060 A 
ATOM     34  C   UNL A   1      39.631  23.558  26.065  1.00  0.00     0.016 A 
ATOM     35  C   UNL A   1      41.184  22.382  27.562  1.00  0.00     0.016 A 
ATOM     36  C   UNL A   1      40.086  24.766  26.564  1.00  0.00     0.010 A 
ATOM     37  C   UNL A   1      41.549  23.569  28.132  1.00  0.00     0.010 A 
ATOM     38  C   UNL A   1      41.044  24.755  27.585  1.00  0.00    -0.014 A 
BRANCH  38  39
ATOM     39  C   UNL A   1      41.770  25.965  27.957  1.00  0.00     0.031 A 
ATOM     40  C   UNL A   1      40.969  27.000  28.686  1.00  0.00     0.074 A 
ATOM     41  C   UNL A   1      43.014  26.154  27.501  1.00  0.00     0.049 A 
ATOM     42  N   UNL A   1      41.266  28.239  28.941  1.00  0.00    -0.248 NA
ATOM     43  C   UNL A   1      39.613  26.600  29.122  1.00  0.00     0.031 C 
ATOM     44  C   UNL A   1      43.791  25.189  26.719  1.00  0.00     0.029 A 
ATOM     45  N   UNL A   1      43.818  27.251  27.590  1.00  0.00    -0.354 N 
ATOM     46  C   UNL A   1      40.121  28.776  29.513  1.00  0.00     0.074 A 
ATOM     47  C   UNL A   1      39.106  27.753  29.519  1.00  0.00     0.031 C 
ATOM     48  C   UNL A   1      44.965  25.750  26.384  1.00  0.00     0.029 A 
ATOM     49  C   UNL A   1      44.996  27.114  26.900  1.00  0.00     0.049 A 
ATOM     50  H   UNL A   1      43.578  28.059  28.098  1.00  0.00     0.167 HD
ATOM     51  C   UNL A   1      39.953  30.016  30.016  1.00  0.00     0.034 A 
ATOM     52  C   UNL A   1      45.970  28.022  26.707  1.00  0.00     0.034 A 
ATOM     53  C   UNL A   1      41.011  30.983  30.020  1.00  0.00     0.049 A 
ATOM     54  C   UNL A   1      45.789  29.376  27.340  1.00  0.00     0.074 A 
ATOM     55  C   UNL A   1      41.027  32.246  30.572  1.00  0.00     0.029 A 
ATOM     56  N   UNL A   1      42.253  30.776  29.431  1.00  0.00    -0.354 N 
ATOM     57  N   UNL A   1      44.759  29.842  28.009  1.00  0.00    -0.248 NA
ATOM     58  C   UNL A   1      46.910  30.313  27.229  1.00  0.00     0.031 C 
ATOM     59  C   UNL A   1      42.275  32.813  30.295  1.00  0.00     0.029 A 
ATOM     60  C   UNL A   1      43.047  31.890  29.601  1.00  0.00     0.049 A 
ATOM     61  H   UNL A   1      42.524  29.954  28.962  1.00  0.00     0.167 HD
ATOM     62  C   UNL A   1      45.118  31.113  28.431  1.00  0.00     0.074 A 
ATOM     63  C   UNL A   1      46.472  31.333  27.954  1.00  0.00     0.031 C 
ATOM     64  C   UNL A   1      44.405  32.028  29.138  1.00  0.00     0.034 A 
BRANCH  51  65
ATOM     65  C   UNL A   1      38.614  30.349  30.612  1.00  0.00     0.023 A 
ATOM     66  C   UNL A   1      38.310  29.946  31.931  1.00  0.00     0.012 A 
ATOM     67  C   UNL A   1      37.649  31.050  29.867  1.00  0.00     0.148 A 
ATOM     68  C   UNL A   1      37.054  30.196  32.480  1.00  0.00     0.002 A 
ATOM     69  C   UNL A   1      36.418  31.343  30.441  1.00  0.00     0.091 A 
ATOM     70  F   UNL A   1      37.939  31.390  28.603  1.00  0.00    -0.205 F 
ATOM     71  C   UNL A   1      36.113  30.904  31.740  1.00  0.00     0.022 A 
BRANCH  69  72
ATOM     72  S   UNL A   1      35.166  32.316  29.600  1.00  0.00     0.127 S 
ATOM     73  O   UNL A   1      34.643  31.353  28.632  1.00  0.00    -0.237 OA
ATOM     74  O   UNL A   1      34.249  32.642  30.693  1.00  0.00    -0.237 OA
ATOM     75  O   UNL A   1      35.861  33.461  29.028  1.00  0.00    -0.744 OA
ENDBRANCH  69  72
ENDBRANCH  51  65
BRANCH  52  76
ATOM     76  C   UNL A   1      47.202  27.642  25.965  1.00  0.00     0.023 A 
ATOM     77  C   UNL A   1      48.243  26.987  26.648  1.00  0.00     0.012 A 
ATOM     78  C   UNL A   1      47.319  27.858  24.578  1.00  0.00     0.148 A 
ATOM     79  C   UNL A   1      49.393  26.580  25.971  1.00  0.00     0.002 A 
ATOM     80  C   UNL A   1      48.445  27.403  23.900  1.00  0.00     0.091 A 
ATOM     81  F   UNL A   1      46.316  28.483  23.945  1.00  0.00    -0.205 F 
ATOM     82  C   UNL A   1      49.489  26.778  24.597  1.00  0.00     0.022 A 
BRANCH  80  83
ATOM     83  S   UNL A   1      48.595  27.491  22.111  1.00  0.00     0.127 S 
ATOM     84  O   UNL A   1      49.784  28.323  21.952  1.00  0.00    -0.237 OA
ATOM     85  O   UNL A   1      48.773  26.083  21.755  1.00  0.00    -0.237 OA
ATOM     86  O   UNL A   1      47.346  28.074  21.639  1.00  0.00    -0.744 OA
ENDBRANCH  80  83
ENDBRANCH  52  76
BRANCH  64  87
ATOM     87  C   UNL A   1      45.093  33.321  29.464  1.00  0.00     0.023 A 
ATOM     88  C   UNL A   1      45.893  33.418  30.618  1.00  0.00     0.012 A 
ATOM     89  C   UNL A   1      45.016  34.406  28.571  1.00  0.00     0.148 A 
ATOM     90  C   UNL A   1      46.582  34.595  30.897  1.00  0.00     0.002 A 
ATOM     91  C   UNL A   1      45.750  35.555  28.826  1.00  0.00     0.091 A 
ATOM     92  F   UNL A   1      44.234  34.290  27.487  1.00  0.00    -0.205 F 
ATOM     93  C   UNL A   1      46.521  35.657  29.996  1.00  0.00     0.022 A 
BRANCH  91  94
ATOM     94  S   UNL A   1      45.819  36.923  27.666  1.00  0.00     0.127 S 
ATOM     95  O   UNL A   1      46.886  36.492  26.764  1.00  0.00    -0.237 OA
ATOM     96  O   UNL A   1      44.478  36.901  27.083  1.00  0.00    -0.237 OA
ATOM     97  O   UNL A   1      46.113  38.108  28.460  1.00  0.00    -0.744 OA
ENDBRANCH  91  94
ENDBRANCH  64  87
ENDBRANCH  38  39
ENDBRANCH  31  33
ENDBRANCH  30  31
ENDBRANCH  29  30
ENDBRANCH  28  29
ENDBRANCH   1  28
TORSDOF 20
ENDMDL
MODEL 2
REMARK VINA RESULT:     -11.8      5.266      8.158
REMARK SMILES Cc1ccnc(C(=O)c2[nH]c3ccc(F)cc3c2CC(=O)OCCOCCOC(=O)c2ccc(-c3c4nc(c(-c5cccc(S(=O)(=O)[O-])c5F)c5ccc([nH]5)c(-c5cccc(S(=O)(=O)[O-])c5F)c5nc(c(-c6cccc(S(=O)(=O)[O-])c6F)c6ccc3[nH]6)C=C5)C=C4)cc2)c1
REMARK SMILES IDX 25 1 24 2 23 3 22 4 20 5 21 6 19 7 18 8 9 9 10 10 11 11
REMARK SMILES IDX 17 13 12 14 16 15 13 16 14 17 15 18 7 19 8 20 6 21 1 22 2 23
REMARK SMILES IDX 3 24 94 25 4 26 5 27 26 28 27 29 28 30 29 31 30 32 31 33
REMARK SMILES IDX 32 34 93 35 33 36 92 37 34 38 35 39 36 40 86 41 37 42 91 43
REMARK SMILES IDX 85 44 87 45 38 46 90 47 84 48 83 49 39 51 71 52 51 53 70 54
REMARK SMILES IDX 52 55 55 56 69 57 88 58 53 59 54 60 68 62 89 63 56 64 40 65
REMARK SMILES IDX 41 66 49 67 42 68 44 69 50 70 43 71 45 72 46 73 47 74 48 75
REMARK SMILES IDX 72 76 73 77 81 78 74 79 76 80 82 81 75 82 77 83 78 84 79 85
REMARK SMILES IDX 80 86 57 87 58 88 66 89 59 90 61 91 67 92 60 93 62 94 63 95
REMARK SMILES IDX 64 96 65 97
REMARK H PARENT 10 12 87 50 55 61
REMARK Flexibility Score: inf
ROOT
ATOM      1  O   UNL A   1      32.345  30.562  26.354  1.00  0.00    -0.374 OA
ENDROOT
BRANCH   1   2
ATOM      2  C   UNL A   1      31.887  29.479  27.190  1.00  0.00     0.202 C 
BRANCH   2   3
ATOM      3  C   UNL A   1      32.632  28.127  27.061  1.00  0.00     0.261 C 
BRANCH   3   4
ATOM      4  O   UNL A   1      31.760  26.996  26.839  1.00  0.00    -0.463 OA
BRANCH   4   5
ATOM      5  C   UNL A   1      32.287  25.949  26.136  1.00  0.00     0.310 C 
ATOM      6  O   UNL A   1      31.703  24.894  25.916  1.00  0.00    -0.252 OA
BRANCH   5   7
ATOM      7  C   UNL A   1      33.706  26.200  25.662  1.00  0.00     0.161 C 
BRANCH   7   8
ATOM      8  C   UNL A   1      34.225  25.281  24.589  1.00  0.00     0.000 A 
ATOM      9  C   UNL A   1      33.862  25.179  23.236  1.00  0.00     0.093 A 
ATOM     10  N   UNL A   1      34.481  24.014  22.784  1.00  0.00    -0.352 N 
ATOM     11  C   UNL A   1      35.430  23.556  23.662  1.00  0.00     0.046 A 
ATOM     12  H   UNL A   1      34.262  23.572  21.931  1.00  0.00     0.167 HD
ATOM     13  C   UNL A   1      35.275  24.301  24.826  1.00  0.00     0.007 A 
ATOM     14  C   UNL A   1      36.427  22.580  23.492  1.00  0.00     0.030 A 
ATOM     15  C   UNL A   1      36.142  24.018  25.906  1.00  0.00     0.049 A 
ATOM     16  C   UNL A   1      37.305  22.360  24.556  1.00  0.00     0.041 A 
ATOM     17  C   UNL A   1      37.150  23.061  25.743  1.00  0.00     0.123 A 
ATOM     18  F   UNL A   1      38.001  22.831  26.752  1.00  0.00    -0.207 F 
BRANCH   9  19
ATOM     19  C   UNL A   1      32.956  25.852  22.290  1.00  0.00     0.227 C 
ATOM     20  O   UNL A   1      33.215  25.720  21.089  1.00  0.00    -0.285 OA
BRANCH  19  21
ATOM     21  C   UNL A   1      31.833  26.838  22.616  1.00  0.00     0.113 A 
ATOM     22  C   UNL A   1      28.192  27.135  23.747  1.00  0.00     0.044 C 
ATOM     23  C   UNL A   1      29.626  27.467  23.430  1.00  0.00    -0.047 A 
ATOM     24  C   UNL A   1      30.102  28.752  23.657  1.00  0.00     0.023 A 
ATOM     25  C   UNL A   1      30.507  26.508  22.886  1.00  0.00     0.036 A 
ATOM     26  C   UNL A   1      31.424  29.015  23.353  1.00  0.00     0.112 A 
ATOM     27  N   UNL A   1      32.284  28.105  22.841  1.00  0.00    -0.253 NA
ENDBRANCH  19  21
ENDBRANCH   9  19
ENDBRANCH   7   8
ENDBRANCH   5   7
ENDBRANCH   4   5
ENDBRANCH   3   4
ENDBRANCH   2   3
ENDBRANCH   1   2
BRANCH   1  28
ATOM     28  C   UNL A   1      31.543  31.726  26.545  1.00  0.00     0.202 C 
BRANCH  28  29
ATOM     29  C   UNL A   1      32.173  32.936  27.237  1.00  0.00     0.261 C 
BRANCH  29  30
ATOM     30  O   UNL A   1      33.377  32.626  27.866  1.00  0.00    -0.460 OA
BRANCH  30  31
ATOM     31  C   UNL A   1      34.386  33.498  27.647  1.00  0.00     0.338 C 
ATOM     32  O   UNL A   1      34.342  34.660  27.332  1.00  0.00    -0.246 OA
BRANCH  31  33
ATOM     33  C   UNL A   1      35.506  32.741  28.203  1.00  0.00     0.060 A 
ATOM     34  C   UNL A   1      36.726  33.397  28.371  1.00  0.00     0.016 A 
ATOM     35  C   UNL A   1      35.215  31.511  28.812  1.00  0.00     0.016 A 
ATOM     36  C   UNL A   1      37.684  32.799  29.171  1.00  0.00     0.010 A 
ATOM     37  C   UNL A   1      36.117  30.980  29.691  1.00  0.00     0.010 A 
ATOM     38  C   UNL A   1      37.369  31.595  29.814  1.00  0.00    -0.014 A 
BRANCH  38  39
ATOM     39  C   UNL A   1      38.403  30.773  30.434  1.00  0.00     0.031 A 
ATOM     40  C   UNL A   1      38.745  31.124  31.849  1.00  0.00     0.074 A 
ATOM     41  C   UNL A   1      39.083  29.896  29.686  1.00  0.00     0.049 A 
ATOM     42  N   UNL A   1      39.752  30.734  32.571  1.00  0.00    -0.248 NA
ATOM     43  C   UNL A   1      37.866  32.110  32.517  1.00  0.00     0.031 C 
ATOM     44  C   UNL A   1      38.820  29.591  28.278  1.00  0.00     0.029 A 
ATOM     45  N   UNL A   1      40.173  29.141  30.002  1.00  0.00    -0.354 N 
ATOM     46  C   UNL A   1      39.659  31.465  33.748  1.00  0.00     0.074 A 
ATOM     47  C   UNL A   1      38.536  32.359  33.628  1.00  0.00     0.031 C 
ATOM     48  C   UNL A   1      39.743  28.716  27.845  1.00  0.00     0.029 A 
ATOM     49  C   UNL A   1      40.669  28.435  28.936  1.00  0.00     0.049 A 
ATOM     50  H   UNL A   1      40.563  29.105  30.905  1.00  0.00     0.167 HD
ATOM     51  C   UNL A   1      40.437  31.365  34.845  1.00  0.00     0.034 A 
ATOM     52  C   UNL A   1      41.771  27.666  28.874  1.00  0.00     0.034 A 
ATOM     53  C   UNL A   1      41.518  30.428  34.926  1.00  0.00     0.049 A 
ATOM     54  C   UNL A   1      42.582  27.516  30.133  1.00  0.00     0.074 A 
ATOM     55  C   UNL A   1      42.338  30.144  35.998  1.00  0.00     0.029 A 
ATOM     56  N   UNL A   1      41.923  29.618  33.872  1.00  0.00    -0.354 N 
ATOM     57  N   UNL A   1      42.411  28.100  31.297  1.00  0.00    -0.248 NA
ATOM     58  C   UNL A   1      43.708  26.578  30.087  1.00  0.00     0.031 C 
ATOM     59  C   UNL A   1      43.257  29.175  35.582  1.00  0.00     0.029 A 
ATOM     60  C   UNL A   1      42.987  28.833  34.263  1.00  0.00     0.049 A 
ATOM     61  H   UNL A   1      41.511  29.608  32.978  1.00  0.00     0.167 HD
ATOM     62  C   UNL A   1      43.384  27.575  32.136  1.00  0.00     0.074 A 
ATOM     63  C   UNL A   1      44.128  26.611  31.344  1.00  0.00     0.031 C 
ATOM     64  C   UNL A   1      43.656  27.859  33.436  1.00  0.00     0.034 A 
BRANCH  51  65
ATOM     65  C   UNL A   1      40.111  32.256  36.011  1.00  0.00     0.023 A 
ATOM     66  C   UNL A   1      40.878  33.419  36.245  1.00  0.00     0.012 A 
ATOM     67  C   UNL A   1      39.057  31.940  36.887  1.00  0.00     0.148 A 
ATOM     68  C   UNL A   1      40.627  34.227  37.353  1.00  0.00     0.002 A 
ATOM     69  C   UNL A   1      38.779  32.779  37.959  1.00  0.00     0.091 A 
ATOM     70  F   UNL A   1      38.366  30.811  36.674  1.00  0.00    -0.205 F 
ATOM     71  C   UNL A   1      39.572  33.913  38.202  1.00  0.00     0.022 A 
BRANCH  69  72
ATOM     72  S   UNL A   1      37.394  32.506  39.067  1.00  0.00     0.127 S 
ATOM     73  O   UNL A   1      37.667  31.155  39.554  1.00  0.00    -0.237 OA
ATOM     74  O   UNL A   1      37.586  33.563  40.061  1.00  0.00    -0.237 OA
ATOM     75  O   UNL A   1      36.193  32.646  38.254  1.00  0.00    -0.744 OA
ENDBRANCH  69  72
ENDBRANCH  51  65
BRANCH  52  76
ATOM     76  C   UNL A   1      42.099  26.940  27.618  1.00  0.00     0.023 A 
ATOM     77  C   UNL A   1      42.690  27.642  26.551  1.00  0.00     0.012 A 
ATOM     78  C   UNL A   1      41.899  25.550  27.499  1.00  0.00     0.148 A 
ATOM     79  C   UNL A   1      43.050  26.981  25.376  1.00  0.00     0.002 A 
ATOM     80  C   UNL A   1      42.308  24.889  26.346  1.00  0.00     0.091 A 
ATOM     81  F   UNL A   1      41.336  24.900  28.527  1.00  0.00    -0.205 F 
ATOM     82  C   UNL A   1      42.869  25.605  25.277  1.00  0.00     0.022 A 
BRANCH  80  83
ATOM     83  S   UNL A   1      42.241  23.100  26.185  1.00  0.00     0.127 S 
ATOM     84  O   UNL A   1      43.006  22.667  27.351  1.00  0.00    -0.237 OA
ATOM     85  O   UNL A   1      40.802  22.846  26.260  1.00  0.00    -0.237 OA
ATOM     86  O   UNL A   1      42.835  22.799  24.889  1.00  0.00    -0.744 OA
ENDBRANCH  80  83
ENDBRANCH  52  76
BRANCH  64  87
ATOM     87  C   UNL A   1      44.773  27.092  34.081  1.00  0.00     0.023 A 
ATOM     88  C   UNL A   1      46.100  27.536  33.943  1.00  0.00     0.012 A 
ATOM     89  C   UNL A   1      44.485  25.984  34.902  1.00  0.00     0.148 A 
ATOM     90  C   UNL A   1      47.136  26.864  34.586  1.00  0.00     0.002 A 
ATOM     91  C   UNL A   1      45.515  25.356  35.585  1.00  0.00     0.091 A 
ATOM     92  F   UNL A   1      43.212  25.575  35.003  1.00  0.00    -0.205 F 
ATOM     93  C   UNL A   1      46.842  25.784  35.417  1.00  0.00     0.022 A 
BRANCH  91  94
ATOM     94  S   UNL A   1      45.214  24.032  36.760  1.00  0.00     0.127 S 
ATOM     95  O   UNL A   1      44.771  22.952  35.882  1.00  0.00    -0.237 OA
ATOM     96  O   UNL A   1      46.539  23.837  37.350  1.00  0.00    -0.237 OA
ATOM     97  O   UNL A   1      44.210  24.538  37.685  1.00  0.00    -0.744 OA
ENDBRANCH  91  94
ENDBRANCH  64  87
ENDBRANCH  38  39
ENDBRANCH  31  33
ENDBRANCH  30  31
ENDBRANCH  29  30
ENDBRANCH  28  29
ENDBRANCH   1  28
TORSDOF 20
ENDMDL
MODEL 3
REMARK VINA RESULT:     -11.6      5.381     10.228
REMARK SMILES Cc1ccnc(C(=O)c2[nH]c3ccc(F)cc3c2CC(=O)OCCOCCOC(=O)c2ccc(-c3c4nc(c(-c5cccc(S(=O)(=O)[O-])c5F)c5ccc([nH]5)c(-c5cccc(S(=O)(=O)[O-])c5F)c5nc(c(-c6cccc(S(=O)(=O)[O-])c6F)c6ccc3[nH]6)C=C5)C=C4)cc2)c1
REMARK SMILES IDX 25 1 24 2 23 3 22 4 20 5 21 6 19 7 18 8 9 9 10 10 11 11
REMARK SMILES IDX 17 13 12 14 16 15 13 16 14 17 15 18 7 19 8 20 6 21 1 22 2 23
REMARK SMILES IDX 3 24 94 25 4 26 5 27 26 28 27 29 28 30 29 31 30 32 31 33
REMARK SMILES IDX 32 34 93 35 33 36 92 37 34 38 35 39 36 40 86 41 37 42 91 43
REMARK SMILES IDX 85 44 87 45 38 46 90 47 84 48 83 49 39 51 71 52 51 53 70 54
REMARK SMILES IDX 52 55 55 56 69 57 88 58 53 59 54 60 68 62 89 63 56 64 40 65
REMARK SMILES IDX 41 66 49 67 42 68 44 69 50 70 43 71 45 72 46 73 47 74 48 75
REMARK SMILES IDX 72 76 73 77 81 78 74 79 76 80 82 81 75 82 77 83 78 84 79 85
REMARK SMILES IDX 80 86 57 87 58 88 66 89 59 90 61 91 67 92 60 93 62 94 63 95
REMARK SMILES IDX 64 96 65 97
REMARK H PARENT 10 12 87 50 55 61
REMARK Flexibility Score: inf
ROOT
ATOM      1  O   UNL A   1      31.673  28.571  26.084  1.00  0.00    -0.374 OA
ENDROOT
BRANCH   1   2
ATOM      2  C   UNL A   1      32.310  27.544  26.873  1.00  0.00     0.202 C 
BRANCH   2   3
ATOM      3  C   UNL A   1      32.757  26.262  26.128  1.00  0.00     0.261 C 
BRANCH   3   4
ATOM      4  O   UNL A   1      31.862  25.140  26.303  1.00  0.00    -0.463 OA
BRANCH   4   5
ATOM      5  C   UNL A   1      30.590  25.296  25.830  1.00  0.00     0.310 C 
ATOM      6  O   UNL A   1      29.616  25.561  26.527  1.00  0.00    -0.252 OA
BRANCH   5   7
ATOM      7  C   UNL A   1      30.475  25.078  24.333  1.00  0.00     0.161 C 
BRANCH   7   8
ATOM      8  C   UNL A   1      30.737  26.276  23.461  1.00  0.00     0.000 A 
ATOM      9  C   UNL A   1      31.878  26.619  22.717  1.00  0.00     0.093 A 
ATOM     10  N   UNL A   1      31.660  27.932  22.305  1.00  0.00    -0.352 N 
ATOM     11  C   UNL A   1      30.356  28.321  22.482  1.00  0.00     0.046 A 
ATOM     12  H   UNL A   1      32.360  28.513  21.929  1.00  0.00     0.167 HD
ATOM     13  C   UNL A   1      29.752  27.325  23.240  1.00  0.00     0.007 A 
ATOM     14  C   UNL A   1      29.671  29.447  21.992  1.00  0.00     0.030 A 
ATOM     15  C   UNL A   1      28.386  27.488  23.570  1.00  0.00     0.049 A 
ATOM     16  C   UNL A   1      28.310  29.555  22.287  1.00  0.00     0.041 A 
ATOM     17  C   UNL A   1      27.690  28.596  23.073  1.00  0.00     0.123 A 
ATOM     18  F   UNL A   1      26.384  28.722  23.348  1.00  0.00    -0.207 F 
BRANCH   9  19
ATOM     19  C   UNL A   1      33.198  26.043  22.407  1.00  0.00     0.227 C 
ATOM     20  O   UNL A   1      33.873  26.635  21.558  1.00  0.00    -0.285 OA
BRANCH  19  21
ATOM     21  C   UNL A   1      33.766  24.705  22.881  1.00  0.00     0.113 A 
ATOM     22  C   UNL A   1      36.224  23.057  25.304  1.00  0.00     0.044 C 
ATOM     23  C   UNL A   1      35.092  23.269  24.333  1.00  0.00    -0.047 A 
ATOM     24  C   UNL A   1      34.291  22.196  23.965  1.00  0.00     0.023 A 
ATOM     25  C   UNL A   1      34.828  24.533  23.766  1.00  0.00     0.036 A 
ATOM     26  C   UNL A   1      33.264  22.432  23.071  1.00  0.00     0.112 A 
ATOM     27  N   UNL A   1      32.991  23.640  22.526  1.00  0.00    -0.253 NA
ENDBRANCH  19  21
ENDBRANCH   9  19
ENDBRANCH   7   8
ENDBRANCH   5   7
ENDBRANCH   4   5
ENDBRANCH   3   4
ENDBRANCH   2   3
ENDBRANCH   1   2
BRANCH   1  28
ATOM     28  C   UNL A   1      32.585  29.629  25.796  1.00  0.00     0.202 C 
BRANCH  28  29
ATOM     29  C   UNL A   1      32.382  30.974  26.495  1.00  0.00     0.261 C 
BRANCH  29  30
ATOM     30  O   UNL A   1      33.235  31.145  27.584  1.00  0.00    -0.460 OA
BRANCH  30  31
ATOM     31  C   UNL A   1      33.903  32.319  27.618  1.00  0.00     0.338 C 
ATOM     32  O   UNL A   1      33.526  33.427  27.331  1.00  0.00    -0.246 OA
BRANCH  31  33
ATOM     33  C   UNL A   1      35.079  31.924  28.392  1.00  0.00     0.060 A 
ATOM     34  C   UNL A   1      35.184  30.594  28.798  1.00  0.00     0.016 A 
ATOM     35  C   UNL A   1      36.163  32.815  28.419  1.00  0.00     0.016 A 
ATOM     36  C   UNL A   1      36.413  30.143  29.247  1.00  0.00     0.010 A 
ATOM     37  C   UNL A   1      37.399  32.338  28.754  1.00  0.00     0.010 A 
ATOM     38  C   UNL A   1      37.502  31.024  29.226  1.00  0.00    -0.014 A 
BRANCH  38  39
ATOM     39  C   UNL A   1      38.739  30.717  29.936  1.00  0.00     0.031 A 
ATOM     40  C   UNL A   1      39.620  29.695  29.287  1.00  0.00     0.074 A 
ATOM     41  C   UNL A   1      38.936  31.217  31.162  1.00  0.00     0.049 A 
ATOM     42  N   UNL A   1      40.645  29.064  29.776  1.00  0.00    -0.248 NA
ATOM     43  C   UNL A   1      39.245  29.271  27.919  1.00  0.00     0.031 C 
ATOM     44  C   UNL A   1      38.051  32.158  31.852  1.00  0.00     0.029 A 
ATOM     45  N   UNL A   1      39.925  30.954  32.062  1.00  0.00    -0.354 N 
ATOM     46  C   UNL A   1      41.000  28.139  28.804  1.00  0.00     0.074 A 
ATOM     47  C   UNL A   1      40.053  28.245  27.723  1.00  0.00     0.031 C 
ATOM     48  C   UNL A   1      38.534  32.383  33.084  1.00  0.00     0.029 A 
ATOM     49  C   UNL A   1      39.736  31.576  33.270  1.00  0.00     0.049 A 
ATOM     50  H   UNL A   1      40.698  30.377  31.865  1.00  0.00     0.167 HD
ATOM     51  C   UNL A   1      42.051  27.294  28.813  1.00  0.00     0.034 A 
ATOM     52  C   UNL A   1      40.464  31.470  34.396  1.00  0.00     0.034 A 
ATOM     53  C   UNL A   1      42.985  27.257  29.899  1.00  0.00     0.049 A 
ATOM     54  C   UNL A   1      41.673  30.574  34.356  1.00  0.00     0.074 A 
ATOM     55  C   UNL A   1      44.148  26.525  30.015  1.00  0.00     0.029 A 
ATOM     56  N   UNL A   1      42.849  28.001  31.065  1.00  0.00    -0.354 N 
ATOM     57  N   UNL A   1      42.094  29.801  33.381  1.00  0.00    -0.248 NA
ATOM     58  C   UNL A   1      42.528  30.563  35.547  1.00  0.00     0.031 C 
ATOM     59  C   UNL A   1      44.704  26.810  31.267  1.00  0.00     0.029 A 
ATOM     60  C   UNL A   1      43.905  27.744  31.914  1.00  0.00     0.049 A 
ATOM     61  H   UNL A   1      42.107  28.618  31.256  1.00  0.00     0.167 HD
ATOM     62  C   UNL A   1      43.282  29.237  33.823  1.00  0.00     0.074 A 
ATOM     63  C   UNL A   1      43.519  29.776  35.150  1.00  0.00     0.031 C 
ATOM     64  C   UNL A   1      44.105  28.349  33.207  1.00  0.00     0.034 A 
BRANCH  51  65
ATOM     65  C   UNL A   1      42.236  26.401  27.618  1.00  0.00     0.023 A 
ATOM     66  C   UNL A   1      42.801  26.920  26.432  1.00  0.00     0.012 A 
ATOM     67  C   UNL A   1      41.840  25.052  27.658  1.00  0.00     0.148 A 
ATOM     68  C   UNL A   1      42.929  26.123  25.296  1.00  0.00     0.002 A 
ATOM     69  C   UNL A   1      42.019  24.250  26.538  1.00  0.00     0.091 A 
ATOM     70  F   UNL A   1      41.267  24.588  28.778  1.00  0.00    -0.205 F 
ATOM     71  C   UNL A   1      42.549  24.786  25.353  1.00  0.00     0.022 A 
BRANCH  69  72
ATOM     72  S   UNL A   1      41.633  22.496  26.533  1.00  0.00     0.127 S 
ATOM     73  O   UNL A   1      40.175  22.514  26.632  1.00  0.00    -0.237 OA
ATOM     74  O   UNL A   1      42.152  22.075  25.232  1.00  0.00    -0.237 OA
ATOM     75  O   UNL A   1      42.330  21.927  27.679  1.00  0.00    -0.744 OA
ENDBRANCH  69  72
ENDBRANCH  51  65
BRANCH  52  76
ATOM     76  C   UNL A   1      40.109  32.284  35.589  1.00  0.00     0.023 A 
ATOM     77  C   UNL A   1      40.765  33.511  35.805  1.00  0.00     0.012 A 
ATOM     78  C   UNL A   1      39.080  31.891  36.467  1.00  0.00     0.148 A 
ATOM     79  C   UNL A   1      40.424  34.318  36.891  1.00  0.00     0.002 A 
ATOM     80  C   UNL A   1      38.710  32.725  37.517  1.00  0.00     0.091 A 
ATOM     81  F   UNL A   1      38.467  30.720  36.243  1.00  0.00    -0.205 F 
ATOM     82  C   UNL A   1      39.391  33.931  37.740  1.00  0.00     0.022 A 
BRANCH  80  83
ATOM     83  S   UNL A   1      37.302  32.374  38.577  1.00  0.00     0.127 S 
ATOM     84  O   UNL A   1      37.659  33.095  39.796  1.00  0.00    -0.237 OA
ATOM     85  O   UNL A   1      36.199  32.959  37.814  1.00  0.00    -0.237 OA
ATOM     86  O   UNL A   1      37.248  30.923  38.692  1.00  0.00    -0.744 OA
ENDBRANCH  80  83
ENDBRANCH  52  76
BRANCH  64  87
ATOM     87  C   UNL A   1      45.346  27.945  33.948  1.00  0.00     0.023 A 
ATOM     88  C   UNL A   1      46.492  28.759  33.892  1.00  0.00     0.012 A 
ATOM     89  C   UNL A   1      45.334  26.805  34.774  1.00  0.00     0.148 A 
ATOM     90  C   UNL A   1      47.628  28.423  34.623  1.00  0.00     0.002 A 
ATOM     91  C   UNL A   1      46.450  26.508  35.543  1.00  0.00     0.091 A 
ATOM     92  F   UNL A   1      44.233  26.041  34.796  1.00  0.00    -0.205 F 
ATOM     93  C   UNL A   1      47.602  27.307  35.458  1.00  0.00     0.022 A 
BRANCH  91  94
ATOM     94  S   UNL A   1      46.462  25.159  36.727  1.00  0.00     0.127 S 
ATOM     95  O   UNL A   1      46.657  24.002  35.854  1.00  0.00    -0.237 OA
ATOM     96  O   UNL A   1      47.614  25.494  37.565  1.00  0.00    -0.237 OA
ATOM     97  O   UNL A   1      45.179  25.215  37.413  1.00  0.00    -0.744 OA
ENDBRANCH  91  94
ENDBRANCH  64  87
ENDBRANCH  38  39
ENDBRANCH  31  33
ENDBRANCH  30  31
ENDBRANCH  29  30
ENDBRANCH  28  29
ENDBRANCH   1  28
TORSDOF 20
ENDMDL
