MODEL 1
REMARK VINA RESULT:     -11.4      0.000      0.000
REMARK SMILES CC(C)CN(C)c1cc2c(cc1Cl)C=C(C(=O)OCCOCCOC(=O)c1ccc(-c3c4nc(c(-c5cccc(S(=O)(=O)[O-])c5F)c5ccc([nH]5)c(-c5cccc(S(=O)(=O)[O-])c5F)c5nc(c(-c6cccc(S(=O)(=O)[O-])c6F)c6ccc3[nH]6)C=C5)C=C4)cc1)[C@@H](C(F)(F)F)O2
REMARK SMILES IDX 21 1 20 2 19 3 18 4 16 5 17 6 15 7 7 8 8 9 12 10 9 11 11 12
REMARK SMILES IDX 13 13 10 14 95 15 14 16 90 17 5 18 6 19 4 20 2 21 1 22 3 23
REMARK SMILES IDX 91 24 92 25 93 26 94 27 22 28 23 29 24 30 25 31 26 32 27 33
REMARK SMILES IDX 28 34 89 35 29 36 88 37 30 38 31 39 32 40 82 41 33 42 87 43
REMARK SMILES IDX 81 44 83 45 34 46 86 47 80 48 79 49 35 51 67 52 47 53 66 54
REMARK SMILES IDX 48 55 51 56 65 57 84 58 49 59 50 60 64 62 85 63 52 64 36 65
REMARK SMILES IDX 37 66 45 67 38 68 40 69 46 70 39 71 41 72 42 73 43 74 44 75
REMARK SMILES IDX 68 76 69 77 77 78 70 79 72 80 78 81 71 82 73 83 74 84 75 85
REMARK SMILES IDX 76 86 53 87 54 88 62 89 55 90 57 91 63 92 56 93 58 94 59 95
REMARK SMILES IDX 60 96 61 97
REMARK H PARENT 83 50 51 61
REMARK Flexibility Score: inf
ROOT
ATOM      1  O   UNL A   1      32.196  30.357  26.992  1.00  0.00    -0.374 OA
ENDROOT
BRANCH   1   2
ATOM      2  C   UNL A   1      33.152  29.708  26.158  1.00  0.00     0.202 C 
BRANCH   2   3
ATOM      3  C   UNL A   1      32.692  28.510  25.322  1.00  0.00     0.261 C 
BRANCH   3   4
ATOM      4  O   UNL A   1      33.014  27.254  25.939  1.00  0.00    -0.460 OA
BRANCH   4   5
ATOM      5  C   UNL A   1      31.981  26.717  26.625  1.00  0.00     0.338 C 
ATOM      6  O   UNL A   1      31.213  27.309  27.369  1.00  0.00    -0.246 OA
BRANCH   5   7
ATOM      7  C   UNL A   1      31.789  25.301  26.266  1.00  0.00     0.087 C 
ATOM      8  C   UNL A   1      33.004  20.702  24.681  1.00  0.00     0.059 A 
ATOM      9  C   UNL A   1      31.775  21.391  24.813  1.00  0.00     0.074 A 
ATOM     10  C   UNL A   1      34.169  21.373  25.115  1.00  0.00     0.065 A 
ATOM     11  C   UNL A   1      31.720  22.671  25.380  1.00  0.00     0.130 A 
ATOM     12  C   UNL A   1      34.092  22.575  25.809  1.00  0.00     0.034 A 
ATOM     13  Cl  UNL A   1      35.768  20.834  24.725  1.00  0.00    -0.082 Cl
ATOM     14  C   UNL A   1      32.869  23.222  25.939  1.00  0.00     0.019 A 
ATOM     15  O   UNL A   1      30.525  23.346  25.372  1.00  0.00    -0.475 OA
ATOM     16  C   UNL A   1      32.840  24.528  26.551  1.00  0.00     0.027 C 
ATOM     17  C   UNL A   1      30.583  24.809  25.514  1.00  0.00     0.316 C 
BRANCH   8  18
ATOM     18  N   UNL A   1      33.064  19.414  24.131  1.00  0.00    -0.373 N 
ATOM     19  C   UNL A   1      32.231  19.186  22.955  1.00  0.00     0.143 C 
BRANCH  18  20
ATOM     20  C   UNL A   1      33.293  18.268  25.039  1.00  0.00     0.119 C 
BRANCH  20  21
ATOM     21  C   UNL A   1      33.103  16.895  24.356  1.00  0.00     0.002 C 
ATOM     22  C   UNL A   1      34.246  16.560  23.390  1.00  0.00     0.009 C 
ATOM     23  C   UNL A   1      32.967  15.754  25.368  1.00  0.00     0.009 C 
ENDBRANCH  20  21
ENDBRANCH  18  20
ENDBRANCH   8  18
BRANCH  17  24
ATOM     24  C   UNL A   1      30.461  25.494  24.144  1.00  0.00     0.430 C 
ATOM     25  F   UNL A   1      31.676  25.745  23.605  1.00  0.00    -0.167 F 
ATOM     26  F   UNL A   1      29.793  24.712  23.262  1.00  0.00    -0.167 F 
ATOM     27  F   UNL A   1      29.798  26.671  24.223  1.00  0.00    -0.167 F 
ENDBRANCH  17  24
ENDBRANCH   5   7
ENDBRANCH   4   5
ENDBRANCH   3   4
ENDBRANCH   2   3
ENDBRANCH   1   2
BRANCH   1  28
ATOM     28  C   UNL A   1      31.436  31.438  26.455  1.00  0.00     0.202 C 
BRANCH  28  29
ATOM     29  C   UNL A   1      31.890  32.879  26.726  1.00  0.00     0.261 C 
BRANCH  29  30
ATOM     30  O   UNL A   1      32.653  33.016  27.934  1.00  0.00    -0.460 OA
BRANCH  30  31
ATOM     31  C   UNL A   1      33.761  33.795  27.826  1.00  0.00     0.338 C 
ATOM     32  O   UNL A   1      33.801  34.980  27.532  1.00  0.00    -0.246 OA
BRANCH  31  33
ATOM     33  C   UNL A   1      34.924  33.041  28.326  1.00  0.00     0.060 A 
ATOM     34  C   UNL A   1      36.210  33.573  28.238  1.00  0.00     0.016 A 
ATOM     35  C   UNL A   1      34.709  31.789  28.915  1.00  0.00     0.016 A 
ATOM     36  C   UNL A   1      37.285  32.850  28.758  1.00  0.00     0.010 A 
ATOM     37  C   UNL A   1      35.785  31.066  29.432  1.00  0.00     0.010 A 
ATOM     38  C   UNL A   1      37.080  31.597  29.370  1.00  0.00    -0.014 A 
BRANCH  38  39
ATOM     39  C   UNL A   1      38.205  30.915  30.053  1.00  0.00     0.031 A 
ATOM     40  C   UNL A   1      39.021  29.860  29.367  1.00  0.00     0.074 A 
ATOM     41  C   UNL A   1      38.472  31.249  31.332  1.00  0.00     0.049 A 
ATOM     42  N   UNL A   1      40.070  29.221  29.818  1.00  0.00    -0.248 NA
ATOM     43  C   UNL A   1      38.616  29.465  28.009  1.00  0.00     0.031 C 
ATOM     44  C   UNL A   1      37.701  32.207  32.127  1.00  0.00     0.029 A 
ATOM     45  N   UNL A   1      39.452  30.815  32.188  1.00  0.00    -0.354 N 
ATOM     46  C   UNL A   1      40.448  28.346  28.809  1.00  0.00     0.074 A 
ATOM     47  C   UNL A   1      39.507  28.523  27.723  1.00  0.00     0.031 C 
ATOM     48  C   UNL A   1      38.241  32.293  33.353  1.00  0.00     0.029 A 
ATOM     49  C   UNL A   1      39.379  31.383  33.438  1.00  0.00     0.049 A 
ATOM     50  H   UNL A   1      40.141  30.161  31.933  1.00  0.00     0.167 HD
ATOM     51  C   UNL A   1      41.497  27.492  28.788  1.00  0.00     0.034 A 
ATOM     52  C   UNL A   1      40.136  31.191  34.536  1.00  0.00     0.034 A 
ATOM     53  C   UNL A   1      42.443  27.333  29.860  1.00  0.00     0.049 A 
ATOM     54  C   UNL A   1      41.304  30.252  34.473  1.00  0.00     0.074 A 
ATOM     55  C   UNL A   1      43.577  26.538  29.887  1.00  0.00     0.029 A 
ATOM     56  N   UNL A   1      42.363  27.957  31.094  1.00  0.00    -0.354 N 
ATOM     57  N   UNL A   1      41.731  29.541  33.459  1.00  0.00    -0.248 NA
ATOM     58  C   UNL A   1      42.115  30.107  35.692  1.00  0.00     0.031 C 
ATOM     59  C   UNL A   1      44.172  26.666  31.144  1.00  0.00     0.029 A 
ATOM     60  C   UNL A   1      43.421  27.559  31.891  1.00  0.00     0.049 A 
ATOM     61  H   UNL A   1      41.659  28.591  31.362  1.00  0.00     0.167 HD
ATOM     62  C   UNL A   1      42.864  28.877  33.908  1.00  0.00     0.074 A 
ATOM     63  C   UNL A   1      43.073  29.284  35.283  1.00  0.00     0.031 C 
ATOM     64  C   UNL A   1      43.648  27.998  33.243  1.00  0.00     0.034 A 
BRANCH  51  65
ATOM     65  C   UNL A   1      41.749  26.690  27.541  1.00  0.00     0.023 A 
ATOM     66  C   UNL A   1      42.344  27.323  26.433  1.00  0.00     0.012 A 
ATOM     67  C   UNL A   1      41.566  25.294  27.533  1.00  0.00     0.148 A 
ATOM     68  C   UNL A   1      42.764  26.575  25.334  1.00  0.00     0.002 A 
ATOM     69  C   UNL A   1      42.011  24.552  26.445  1.00  0.00     0.091 A 
ATOM     70  F   UNL A   1      40.995  24.719  28.601  1.00  0.00    -0.205 F 
ATOM     71  C   UNL A   1      42.611  25.191  25.347  1.00  0.00     0.022 A 
BRANCH  69  72
ATOM     72  S   UNL A   1      41.912  22.759  26.380  1.00  0.00     0.127 S 
ATOM     73  O   UNL A   1      40.477  22.537  26.558  1.00  0.00    -0.237 OA
ATOM     74  O   UNL A   1      42.413  22.475  25.036  1.00  0.00    -0.237 OA
ATOM     75  O   UNL A   1      42.747  22.268  27.468  1.00  0.00    -0.744 OA
ENDBRANCH  69  72
ENDBRANCH  51  65
BRANCH  52  76
ATOM     76  C   UNL A   1      39.817  31.943  35.778  1.00  0.00     0.023 A 
ATOM     77  C   UNL A   1      40.443  33.178  36.029  1.00  0.00     0.012 A 
ATOM     78  C   UNL A   1      38.843  31.463  36.675  1.00  0.00     0.148 A 
ATOM     79  C   UNL A   1      40.111  33.919  37.163  1.00  0.00     0.002 A 
ATOM     80  C   UNL A   1      38.488  32.226  37.779  1.00  0.00     0.091 A 
ATOM     81  F   UNL A   1      38.265  30.283  36.409  1.00  0.00    -0.205 F 
ATOM     82  C   UNL A   1      39.127  33.449  38.031  1.00  0.00     0.022 A 
BRANCH  80  83
ATOM     83  S   UNL A   1      37.168  31.750  38.899  1.00  0.00     0.127 S 
ATOM     84  O   UNL A   1      36.129  32.720  38.563  1.00  0.00    -0.237 OA
ATOM     85  O   UNL A   1      36.894  30.379  38.469  1.00  0.00    -0.237 OA
ATOM     86  O   UNL A   1      37.723  31.866  40.240  1.00  0.00    -0.744 OA
ENDBRANCH  80  83
ENDBRANCH  52  76
BRANCH  64  87
ATOM     87  C   UNL A   1      44.826  27.404  33.965  1.00  0.00     0.023 A 
ATOM     88  C   UNL A   1      46.055  28.090  33.966  1.00  0.00     0.012 A 
ATOM     89  C   UNL A   1      44.674  26.244  34.751  1.00  0.00     0.148 A 
ATOM     90  C   UNL A   1      47.121  27.627  34.735  1.00  0.00     0.002 A 
ATOM     91  C   UNL A   1      45.731  25.806  35.540  1.00  0.00     0.091 A 
ATOM     92  F   UNL A   1      43.493  25.609  34.728  1.00  0.00    -0.205 F 
ATOM     93  C   UNL A   1      46.955  26.495  35.531  1.00  0.00     0.022 A 
BRANCH  91  94
ATOM     94  S   UNL A   1      45.595  24.400  36.648  1.00  0.00     0.127 S 
ATOM     95  O   UNL A   1      44.566  24.854  37.581  1.00  0.00    -0.237 OA
ATOM     96  O   UNL A   1      45.171  23.332  35.742  1.00  0.00    -0.237 OA
ATOM     97  O   UNL A   1      46.917  24.214  37.232  1.00  0.00    -0.744 OA
ENDBRANCH  91  94
ENDBRANCH  64  87
ENDBRANCH  38  39
ENDBRANCH  31  33
ENDBRANCH  30  31
ENDBRANCH  29  30
ENDBRANCH  28  29
ENDBRANCH   1  28
TORSDOF 21
ENDMDL
MODEL 2
REMARK VINA RESULT:     -10.9      5.558     10.922
REMARK SMILES CC(C)CN(C)c1cc2c(cc1Cl)C=C(C(=O)OCCOCCOC(=O)c1ccc(-c3c4nc(c(-c5cccc(S(=O)(=O)[O-])c5F)c5ccc([nH]5)c(-c5cccc(S(=O)(=O)[O-])c5F)c5nc(c(-c6cccc(S(=O)(=O)[O-])c6F)c6ccc3[nH]6)C=C5)C=C4)cc1)[C@@H](C(F)(F)F)O2
REMARK SMILES IDX 21 1 20 2 19 3 18 4 16 5 17 6 15 7 7 8 8 9 12 10 9 11 11 12
REMARK SMILES IDX 13 13 10 14 95 15 14 16 90 17 5 18 6 19 4 20 2 21 1 22 3 23
REMARK SMILES IDX 91 24 92 25 93 26 94 27 22 28 23 29 24 30 25 31 26 32 27 33
REMARK SMILES IDX 28 34 89 35 29 36 88 37 30 38 31 39 32 40 82 41 33 42 87 43
REMARK SMILES IDX 81 44 83 45 34 46 86 47 80 48 79 49 35 51 67 52 47 53 66 54
REMARK SMILES IDX 48 55 51 56 65 57 84 58 49 59 50 60 64 62 85 63 52 64 36 65
REMARK SMILES IDX 37 66 45 67 38 68 40 69 46 70 39 71 41 72 42 73 43 74 44 75
REMARK SMILES IDX 68 76 69 77 77 78 70 79 72 80 78 81 71 82 73 83 74 84 75 85
REMARK SMILES IDX 76 86 53 87 54 88 62 89 55 90 57 91 63 92 56 93 58 94 59 95
REMARK SMILES IDX 60 96 61 97
REMARK H PARENT 83 50 51 61
REMARK Flexibility Score: inf
ROOT
ATOM      1  O   UNL A   1      37.185  20.900  24.784  1.00  0.00    -0.374 OA
ENDROOT
BRANCH   1   2
ATOM      2  C   UNL A   1      35.850  20.605  25.183  1.00  0.00     0.202 C 
BRANCH   2   3
ATOM      3  C   UNL A   1      34.798  21.713  25.078  1.00  0.00     0.261 C 
BRANCH   3   4
ATOM      4  O   UNL A   1      34.391  21.957  23.723  1.00  0.00    -0.460 OA
BRANCH   4   5
ATOM      5  C   UNL A   1      33.080  21.709  23.506  1.00  0.00     0.338 C 
ATOM      6  O   UNL A   1      32.533  20.617  23.520  1.00  0.00    -0.246 OA
BRANCH   5   7
ATOM      7  C   UNL A   1      32.322  22.965  23.373  1.00  0.00     0.087 C 
ATOM      8  C   UNL A   1      31.523  27.908  23.114  1.00  0.00     0.059 A 
ATOM      9  C   UNL A   1      30.681  26.801  23.372  1.00  0.00     0.074 A 
ATOM     10  C   UNL A   1      32.875  27.633  22.809  1.00  0.00     0.065 A 
ATOM     11  C   UNL A   1      31.167  25.488  23.294  1.00  0.00     0.130 A 
ATOM     12  C   UNL A   1      33.314  26.333  22.588  1.00  0.00     0.034 A 
ATOM     13  Cl  UNL A   1      34.106  28.851  22.801  1.00  0.00    -0.082 Cl
ATOM     14  C   UNL A   1      32.460  25.264  22.832  1.00  0.00     0.019 A 
ATOM     15  O   UNL A   1      30.346  24.456  23.673  1.00  0.00    -0.475 OA
ATOM     16  C   UNL A   1      32.982  23.924  22.718  1.00  0.00     0.027 C 
ATOM     17  C   UNL A   1      30.993  23.187  24.041  1.00  0.00     0.316 C 
BRANCH   8  18
ATOM     18  N   UNL A   1      31.040  29.222  23.173  1.00  0.00    -0.373 N 
ATOM     19  C   UNL A   1      30.976  29.817  24.504  1.00  0.00     0.143 C 
BRANCH  18  20
ATOM     20  C   UNL A   1      30.020  29.645  22.186  1.00  0.00     0.119 C 
BRANCH  20  21
ATOM     21  C   UNL A   1      28.677  30.061  22.830  1.00  0.00     0.002 C 
ATOM     22  C   UNL A   1      28.016  31.233  22.096  1.00  0.00     0.009 C 
ATOM     23  C   UNL A   1      27.680  28.901  22.899  1.00  0.00     0.009 C 
ENDBRANCH  20  21
ENDBRANCH  18  20
ENDBRANCH   8  18
BRANCH  17  24
ATOM     24  C   UNL A   1      31.107  23.058  25.568  1.00  0.00     0.430 C 
ATOM     25  F   UNL A   1      29.989  23.502  26.188  1.00  0.00    -0.167 F 
ATOM     26  F   UNL A   1      31.278  21.768  25.941  1.00  0.00    -0.167 F 
ATOM     27  F   UNL A   1      32.152  23.763  26.059  1.00  0.00    -0.167 F 
ENDBRANCH  17  24
ENDBRANCH   5   7
ENDBRANCH   4   5
ENDBRANCH   3   4
ENDBRANCH   2   3
ENDBRANCH   1   2
BRANCH   1  28
ATOM     28  C   UNL A   1      38.234  20.017  25.179  1.00  0.00     0.202 C 
BRANCH  28  29
ATOM     29  C   UNL A   1      39.465  20.590  25.893  1.00  0.00     0.261 C 
BRANCH  29  30
ATOM     30  O   UNL A   1      40.310  19.581  26.466  1.00  0.00    -0.460 OA
BRANCH  30  31
ATOM     31  C   UNL A   1      41.622  19.672  26.125  1.00  0.00     0.338 C 
ATOM     32  O   UNL A   1      42.285  18.841  25.524  1.00  0.00    -0.246 OA
BRANCH  31  33
ATOM     33  C   UNL A   1      42.094  21.039  26.409  1.00  0.00     0.060 A 
ATOM     34  C   UNL A   1      42.332  21.941  25.372  1.00  0.00     0.016 A 
ATOM     35  C   UNL A   1      42.276  21.422  27.744  1.00  0.00     0.016 A 
ATOM     36  C   UNL A   1      42.741  23.240  25.680  1.00  0.00     0.010 A 
ATOM     37  C   UNL A   1      42.688  22.720  28.048  1.00  0.00     0.010 A 
ATOM     38  C   UNL A   1      42.910  23.644  27.019  1.00  0.00    -0.014 A 
BRANCH  38  39
ATOM     39  C   UNL A   1      43.193  25.065  27.332  1.00  0.00     0.031 A 
ATOM     40  C   UNL A   1      42.130  25.981  27.864  1.00  0.00     0.074 A 
ATOM     41  C   UNL A   1      44.436  25.535  27.104  1.00  0.00     0.049 A 
ATOM     42  N   UNL A   1      42.245  27.230  28.238  1.00  0.00    -0.248 NA
ATOM     43  C   UNL A   1      40.768  25.439  27.993  1.00  0.00     0.031 C 
ATOM     44  C   UNL A   1      45.531  24.758  26.519  1.00  0.00     0.029 A 
ATOM     45  N   UNL A   1      44.984  26.773  27.324  1.00  0.00    -0.354 N 
ATOM     46  C   UNL A   1      40.978  27.627  28.640  1.00  0.00     0.074 A 
ATOM     47  C   UNL A   1      40.100  26.491  28.451  1.00  0.00     0.031 C 
ATOM     48  C   UNL A   1      46.622  25.536  26.432  1.00  0.00     0.029 A 
ATOM     49  C   UNL A   1      46.298  26.868  26.933  1.00  0.00     0.049 A 
ATOM     50  H   UNL A   1      44.484  27.521  27.723  1.00  0.00     0.167 HD
ATOM     51  C   UNL A   1      40.592  28.824  29.140  1.00  0.00     0.034 A 
ATOM     52  C   UNL A   1      47.150  27.911  26.964  1.00  0.00     0.034 A 
ATOM     53  C   UNL A   1      41.471  29.944  29.346  1.00  0.00     0.049 A 
ATOM     54  C   UNL A   1      46.698  29.219  27.544  1.00  0.00     0.074 A 
ATOM     55  C   UNL A   1      41.170  31.170  29.917  1.00  0.00     0.029 A 
ATOM     56  N   UNL A   1      42.805  29.990  28.980  1.00  0.00    -0.354 N 
ATOM     57  N   UNL A   1      45.531  29.529  28.052  1.00  0.00    -0.248 NA
ATOM     58  C   UNL A   1      47.681  30.312  27.582  1.00  0.00     0.031 C 
ATOM     59  C   UNL A   1      42.318  31.965  29.877  1.00  0.00     0.029 A 
ATOM     60  C   UNL A   1      43.339  31.225  29.303  1.00  0.00     0.049 A 
ATOM     61  H   UNL A   1      43.300  29.253  28.554  1.00  0.00     0.167 HD
ATOM     62  C   UNL A   1      45.641  30.844  28.484  1.00  0.00     0.074 A 
ATOM     63  C   UNL A   1      46.996  31.269  28.197  1.00  0.00     0.031 C 
ATOM     64  C   UNL A   1      44.697  31.629  29.053  1.00  0.00     0.034 A 
BRANCH  51  65
ATOM     65  C   UNL A   1      39.164  28.996  29.577  1.00  0.00     0.023 A 
ATOM     66  C   UNL A   1      38.804  28.626  30.888  1.00  0.00     0.012 A 
ATOM     67  C   UNL A   1      38.239  29.680  28.765  1.00  0.00     0.148 A 
ATOM     68  C   UNL A   1      37.543  28.944  31.389  1.00  0.00     0.002 A 
ATOM     69  C   UNL A   1      36.993  30.016  29.281  1.00  0.00     0.091 A 
ATOM     70  F   UNL A   1      38.609  30.018  27.522  1.00  0.00    -0.205 F 
ATOM     71  C   UNL A   1      36.645  29.649  30.593  1.00  0.00     0.022 A 
BRANCH  69  72
ATOM     72  S   UNL A   1      35.780  30.971  28.362  1.00  0.00     0.127 S 
ATOM     73  O   UNL A   1      34.785  31.255  29.396  1.00  0.00    -0.237 OA
ATOM     74  O   UNL A   1      36.565  32.128  27.934  1.00  0.00    -0.237 OA
ATOM     75  O   UNL A   1      35.316  30.107  27.286  1.00  0.00    -0.744 OA
ENDBRANCH  69  72
ENDBRANCH  51  65
BRANCH  52  76
ATOM     76  C   UNL A   1      48.535  27.732  26.454  1.00  0.00     0.023 A 
ATOM     77  C   UNL A   1      49.573  27.408  27.348  1.00  0.00     0.012 A 
ATOM     78  C   UNL A   1      48.807  27.817  25.076  1.00  0.00     0.148 A 
ATOM     79  C   UNL A   1      50.866  27.183  26.875  1.00  0.00     0.002 A 
ATOM     80  C   UNL A   1      50.088  27.551  24.608  1.00  0.00     0.091 A 
ATOM     81  F   UNL A   1      47.798  28.128  24.250  1.00  0.00    -0.205 F 
ATOM     82  C   UNL A   1      51.121  27.244  25.507  1.00  0.00     0.022 A 
BRANCH  80  83
ATOM     83  S   UNL A   1      50.489  27.511  22.859  1.00  0.00     0.127 S 
ATOM     84  O   UNL A   1      51.782  26.831  22.866  1.00  0.00    -0.237 OA
ATOM     85  O   UNL A   1      49.381  26.723  22.318  1.00  0.00    -0.237 OA
ATOM     86  O   UNL A   1      50.515  28.901  22.425  1.00  0.00    -0.744 OA
ENDBRANCH  80  83
ENDBRANCH  52  76
BRANCH  64  87
ATOM     87  C   UNL A   1      45.071  33.037  29.426  1.00  0.00     0.023 A 
ATOM     88  C   UNL A   1      45.747  33.276  30.637  1.00  0.00     0.012 A 
ATOM     89  C   UNL A   1      44.874  34.095  28.517  1.00  0.00     0.148 A 
ATOM     90  C   UNL A   1      46.218  34.552  30.943  1.00  0.00     0.002 A 
ATOM     91  C   UNL A   1      45.376  35.357  28.813  1.00  0.00     0.091 A 
ATOM     92  F   UNL A   1      44.224  33.840  27.372  1.00  0.00    -0.205 F 
ATOM     93  C   UNL A   1      46.045  35.587  30.027  1.00  0.00     0.022 A 
BRANCH  91  94
ATOM     94  S   UNL A   1      45.261  36.739  27.671  1.00  0.00     0.127 S 
ATOM     95  O   UNL A   1      46.366  36.460  26.755  1.00  0.00    -0.237 OA
ATOM     96  O   UNL A   1      43.928  36.554  27.096  1.00  0.00    -0.237 OA
ATOM     97  O   UNL A   1      45.417  37.944  28.475  1.00  0.00    -0.744 OA
ENDBRANCH  91  94
ENDBRANCH  64  87
ENDBRANCH  38  39
ENDBRANCH  31  33
ENDBRANCH  30  31
ENDBRANCH  29  30
ENDBRANCH  28  29
ENDBRANCH   1  28
TORSDOF 21
ENDMDL
MODEL 3
REMARK VINA RESULT:     -10.7      2.300      3.164
REMARK SMILES CC(C)CN(C)c1cc2c(cc1Cl)C=C(C(=O)OCCOCCOC(=O)c1ccc(-c3c4nc(c(-c5cccc(S(=O)(=O)[O-])c5F)c5ccc([nH]5)c(-c5cccc(S(=O)(=O)[O-])c5F)c5nc(c(-c6cccc(S(=O)(=O)[O-])c6F)c6ccc3[nH]6)C=C5)C=C4)cc1)[C@@H](C(F)(F)F)O2
REMARK SMILES IDX 21 1 20 2 19 3 18 4 16 5 17 6 15 7 7 8 8 9 12 10 9 11 11 12
REMARK SMILES IDX 13 13 10 14 95 15 14 16 90 17 5 18 6 19 4 20 2 21 1 22 3 23
REMARK SMILES IDX 91 24 92 25 93 26 94 27 22 28 23 29 24 30 25 31 26 32 27 33
REMARK SMILES IDX 28 34 89 35 29 36 88 37 30 38 31 39 32 40 82 41 33 42 87 43
REMARK SMILES IDX 81 44 83 45 34 46 86 47 80 48 79 49 35 51 67 52 47 53 66 54
REMARK SMILES IDX 48 55 51 56 65 57 84 58 49 59 50 60 64 62 85 63 52 64 36 65
REMARK SMILES IDX 37 66 45 67 38 68 40 69 46 70 39 71 41 72 42 73 43 74 44 75
REMARK SMILES IDX 68 76 69 77 77 78 70 79 72 80 78 81 71 82 73 83 74 84 75 85
REMARK SMILES IDX 76 86 53 87 54 88 62 89 55 90 57 91 63 92 56 93 58 94 59 95
REMARK SMILES IDX 60 96 61 97
REMARK H PARENT 83 50 51 61
REMARK Flexibility Score: inf
ROOT
ATOM      1  O   UNL A   1      32.642  30.479  25.991  1.00  0.00    -0.374 OA
ENDROOT
BRANCH   1   2
ATOM      2  C   UNL A   1      31.248  30.501  25.703  1.00  0.00     0.202 C 
BRANCH   2   3
ATOM      3  C   UNL A   1      30.784  30.037  24.318  1.00  0.00     0.261 C 
BRANCH   3   4
ATOM      4  O   UNL A   1      30.268  28.697  24.334  1.00  0.00    -0.460 OA
BRANCH   4   5
ATOM      5  C   UNL A   1      30.110  28.172  23.099  1.00  0.00     0.338 C 
ATOM      6  O   UNL A   1      29.493  28.669  22.169  1.00  0.00    -0.246 OA
BRANCH   5   7
ATOM      7  C   UNL A   1      30.904  26.941  22.944  1.00  0.00     0.087 C 
ATOM      8  C   UNL A   1      33.250  22.722  24.299  1.00  0.00     0.059 A 
ATOM      9  C   UNL A   1      33.340  23.561  23.164  1.00  0.00     0.074 A 
ATOM     10  C   UNL A   1      32.282  23.056  25.273  1.00  0.00     0.065 A 
ATOM     11  C   UNL A   1      32.479  24.656  23.003  1.00  0.00     0.130 A 
ATOM     12  C   UNL A   1      31.337  24.048  25.040  1.00  0.00     0.034 A 
ATOM     13  Cl  UNL A   1      32.260  22.357  26.857  1.00  0.00    -0.082 Cl
ATOM     14  C   UNL A   1      31.439  24.847  23.907  1.00  0.00     0.019 A 
ATOM     15  O   UNL A   1      32.687  25.510  21.949  1.00  0.00    -0.475 OA
ATOM     16  C   UNL A   1      30.523  25.950  23.756  1.00  0.00     0.027 C 
ATOM     17  C   UNL A   1      32.119  26.862  22.062  1.00  0.00     0.316 C 
BRANCH   8  18
ATOM     18  N   UNL A   1      34.095  21.615  24.458  1.00  0.00    -0.373 N 
ATOM     19  C   UNL A   1      33.439  20.312  24.486  1.00  0.00     0.143 C 
BRANCH  18  20
ATOM     20  C   UNL A   1      35.327  21.777  25.263  1.00  0.00     0.119 C 
BRANCH  20  21
ATOM     21  C   UNL A   1      36.625  21.627  24.438  1.00  0.00     0.002 C 
ATOM     22  C   UNL A   1      36.765  22.712  23.365  1.00  0.00     0.009 C 
ATOM     23  C   UNL A   1      37.880  21.642  25.316  1.00  0.00     0.009 C 
ENDBRANCH  20  21
ENDBRANCH  18  20
ENDBRANCH   8  18
BRANCH  17  24
ATOM     24  C   UNL A   1      33.195  27.868  22.502  1.00  0.00     0.430 C 
ATOM     25  F   UNL A   1      34.386  27.608  21.917  1.00  0.00    -0.167 F 
ATOM     26  F   UNL A   1      32.855  29.133  22.158  1.00  0.00    -0.167 F 
ATOM     27  F   UNL A   1      33.386  27.852  23.842  1.00  0.00    -0.167 F 
ENDBRANCH  17  24
ENDBRANCH   5   7
ENDBRANCH   4   5
ENDBRANCH   3   4
ENDBRANCH   2   3
ENDBRANCH   1   2
BRANCH   1  28
ATOM     28  C   UNL A   1      33.078  30.800  27.311  1.00  0.00     0.202 C 
BRANCH  28  29
ATOM     29  C   UNL A   1      33.811  32.126  27.556  1.00  0.00     0.261 C 
BRANCH  29  30
ATOM     30  O   UNL A   1      32.930  33.258  27.623  1.00  0.00    -0.460 OA
BRANCH  30  31
ATOM     31  C   UNL A   1      33.319  34.234  28.483  1.00  0.00     0.338 C 
ATOM     32  O   UNL A   1      32.755  35.297  28.692  1.00  0.00    -0.246 OA
BRANCH  31  33
ATOM     33  C   UNL A   1      34.435  33.731  29.304  1.00  0.00     0.060 A 
ATOM     34  C   UNL A   1      34.201  32.876  30.380  1.00  0.00     0.016 A 
ATOM     35  C   UNL A   1      35.741  34.109  28.964  1.00  0.00     0.016 A 
ATOM     36  C   UNL A   1      35.285  32.387  31.111  1.00  0.00     0.010 A 
ATOM     37  C   UNL A   1      36.822  33.621  29.699  1.00  0.00     0.010 A 
ATOM     38  C   UNL A   1      36.603  32.744  30.769  1.00  0.00    -0.014 A 
BRANCH  38  39
ATOM     39  C   UNL A   1      37.747  32.096  31.455  1.00  0.00     0.031 A 
ATOM     40  C   UNL A   1      38.487  30.947  30.838  1.00  0.00     0.074 A 
ATOM     41  C   UNL A   1      38.099  32.548  32.676  1.00  0.00     0.049 A 
ATOM     42  N   UNL A   1      39.541  30.319  31.293  1.00  0.00    -0.248 NA
ATOM     43  C   UNL A   1      37.989  30.430  29.553  1.00  0.00     0.031 C 
ATOM     44  C   UNL A   1      37.407  33.610  33.408  1.00  0.00     0.029 A 
ATOM     45  N   UNL A   1      39.115  32.169  33.515  1.00  0.00    -0.354 N 
ATOM     46  C   UNL A   1      39.831  29.332  30.361  1.00  0.00     0.074 A 
ATOM     47  C   UNL A   1      38.833  29.432  29.317  1.00  0.00     0.031 C 
ATOM     48  C   UNL A   1      38.022  33.801  34.587  1.00  0.00     0.029 A 
ATOM     49  C   UNL A   1      39.135  32.864  34.701  1.00  0.00     0.049 A 
ATOM     50  H   UNL A   1      39.768  31.467  33.291  1.00  0.00     0.167 HD
ATOM     51  C   UNL A   1      40.852  28.444  30.369  1.00  0.00     0.034 A 
ATOM     52  C   UNL A   1      39.950  32.758  35.769  1.00  0.00     0.034 A 
ATOM     53  C   UNL A   1      41.854  28.361  31.397  1.00  0.00     0.049 A 
ATOM     54  C   UNL A   1      41.084  31.776  35.738  1.00  0.00     0.074 A 
ATOM     55  C   UNL A   1      42.963  27.532  31.442  1.00  0.00     0.029 A 
ATOM     56  N   UNL A   1      41.868  29.110  32.562  1.00  0.00    -0.354 N 
ATOM     57  N   UNL A   1      41.427  30.950  34.781  1.00  0.00    -0.248 NA
ATOM     58  C   UNL A   1      41.961  31.727  36.918  1.00  0.00     0.031 C 
ATOM     59  C   UNL A   1      43.636  27.766  32.643  1.00  0.00     0.029 A 
ATOM     60  C   UNL A   1      42.959  28.757  33.335  1.00  0.00     0.049 A 
ATOM     61  H   UNL A   1      41.200  29.793  32.802  1.00  0.00     0.167 HD
ATOM     62  C   UNL A   1      42.564  30.294  35.232  1.00  0.00     0.074 A 
ATOM     63  C   UNL A   1      42.867  30.832  36.543  1.00  0.00     0.031 C 
ATOM     64  C   UNL A   1      43.280  29.324  34.619  1.00  0.00     0.034 A 
BRANCH  51  65
ATOM     65  C   UNL A   1      41.003  27.509  29.201  1.00  0.00     0.023 A 
ATOM     66  C   UNL A   1      40.168  26.378  29.122  1.00  0.00     0.012 A 
ATOM     67  C   UNL A   1      41.830  27.844  28.112  1.00  0.00     0.148 A 
ATOM     68  C   UNL A   1      40.146  25.596  27.968  1.00  0.00     0.002 A 
ATOM     69  C   UNL A   1      41.783  27.075  26.955  1.00  0.00     0.091 A 
ATOM     70  F   UNL A   1      42.615  28.926  28.216  1.00  0.00    -0.205 F 
ATOM     71  C   UNL A   1      40.941  25.952  26.883  1.00  0.00     0.022 A 
BRANCH  69  72
ATOM     72  S   UNL A   1      42.725  27.475  25.478  1.00  0.00     0.127 S 
ATOM     73  O   UNL A   1      44.048  27.749  26.039  1.00  0.00    -0.237 OA
ATOM     74  O   UNL A   1      42.631  26.233  24.712  1.00  0.00    -0.237 OA
ATOM     75  O   UNL A   1      42.065  28.624  24.877  1.00  0.00    -0.744 OA
ENDBRANCH  69  72
ENDBRANCH  51  65
BRANCH  52  76
ATOM     76  C   UNL A   1      39.729  33.644  36.941  1.00  0.00     0.023 A 
ATOM     77  C   UNL A   1      40.136  34.990  36.888  1.00  0.00     0.012 A 
ATOM     78  C   UNL A   1      39.055  33.167  38.082  1.00  0.00     0.148 A 
ATOM     79  C   UNL A   1      39.884  35.846  37.961  1.00  0.00     0.002 A 
ATOM     80  C   UNL A   1      38.771  34.035  39.128  1.00  0.00     0.091 A 
ATOM     81  F   UNL A   1      38.680  31.880  38.102  1.00  0.00    -0.205 F 
ATOM     82  C   UNL A   1      39.194  35.372  39.075  1.00  0.00     0.022 A 
BRANCH  80  83
ATOM     83  S   UNL A   1      37.804  33.542  40.558  1.00  0.00     0.127 S 
ATOM     84  O   UNL A   1      38.659  32.519  41.156  1.00  0.00    -0.237 OA
ATOM     85  O   UNL A   1      37.724  34.795  41.308  1.00  0.00    -0.237 OA
ATOM     86  O   UNL A   1      36.532  33.066  40.033  1.00  0.00    -0.744 OA
ENDBRANCH  80  83
ENDBRANCH  52  76
BRANCH  64  87
ATOM     87  C   UNL A   1      44.480  28.764  35.331  1.00  0.00     0.023 A 
ATOM     88  C   UNL A   1      45.749  29.326  35.095  1.00  0.00     0.012 A 
ATOM     89  C   UNL A   1      44.327  27.781  36.329  1.00  0.00     0.148 A 
ATOM     90  C   UNL A   1      46.853  28.913  35.839  1.00  0.00     0.002 A 
ATOM     91  C   UNL A   1      45.426  27.398  37.089  1.00  0.00     0.091 A 
ATOM     92  F   UNL A   1      43.108  27.261  36.530  1.00  0.00    -0.205 F 
ATOM     93  C   UNL A   1      46.690  27.961  36.843  1.00  0.00     0.022 A 
BRANCH  91  94
ATOM     94  S   UNL A   1      45.306  26.229  38.447  1.00  0.00     0.127 S 
ATOM     95  O   UNL A   1      44.955  24.995  37.746  1.00  0.00    -0.237 OA
ATOM     96  O   UNL A   1      46.661  26.255  38.998  1.00  0.00    -0.237 OA
ATOM     97  O   UNL A   1      44.275  26.745  39.337  1.00  0.00    -0.744 OA
ENDBRANCH  91  94
ENDBRANCH  64  87
ENDBRANCH  38  39
ENDBRANCH  31  33
ENDBRANCH  30  31
ENDBRANCH  29  30
ENDBRANCH  28  29
ENDBRANCH   1  28
TORSDOF 21
ENDMDL
