MODEL 1
REMARK VINA RESULT:     -10.8      0.000      0.000
REMARK SMILES O=C(OCCOCCOC(=O)c1ccc(-c2c3nc(c(-c4cccc(S(=O)(=O)[O-])c4F)c4ccc([nH]4)c(-c4cccc(S(=O)(=O)[O-])c4F)c4nc(c(-c5cccc(S(=O)(=O)[O-])c5F)c5ccc2[nH]5)C=C4)C=C3)cc1)c1ccc(NS(=O)(=O)Cc2c(Cl)cccc2Cl)cc1
REMARK SMILES IDX 5 1 4 2 3 3 2 4 1 5 75 6 76 7 93 8 77 9 92 10 78 11 79 12
REMARK SMILES IDX 80 14 81 15 82 16 83 17 84 18 85 19 90 20 86 21 87 22 89 23
REMARK SMILES IDX 91 24 88 25 6 26 7 27 8 28 9 29 10 30 11 31 12 32 13 33
REMARK SMILES IDX 74 34 14 35 73 36 15 37 16 38 17 39 67 40 18 41 72 42 66 43
REMARK SMILES IDX 68 44 19 45 71 46 65 47 64 48 20 50 52 51 32 52 51 53 33 54
REMARK SMILES IDX 36 55 50 56 69 57 34 58 35 59 49 61 70 62 37 63 21 64 22 65
REMARK SMILES IDX 30 66 23 67 25 68 31 69 24 70 26 71 27 72 28 73 29 74 53 75
REMARK SMILES IDX 54 76 62 77 55 78 57 79 63 80 56 81 58 82 59 83 60 84 61 85
REMARK SMILES IDX 38 86 39 87 47 88 40 89 42 90 48 91 41 92 43 93 44 94 45 95
REMARK SMILES IDX 46 96
REMARK H PARENT 79 13 68 49 36 60
REMARK Flexibility Score: inf
ROOT
ATOM      1  C   UNL A   1      31.794  27.946  26.652  1.00  0.00     0.202 C 
ENDROOT
BRANCH   1   2
ATOM      2  C   UNL A   1      30.940  27.757  25.402  1.00  0.00     0.261 C 
BRANCH   2   3
ATOM      3  O   UNL A   1      31.773  27.379  24.283  1.00  0.00    -0.460 OA
BRANCH   3   4
ATOM      4  C   UNL A   1      31.442  26.487  23.318  1.00  0.00     0.338 C 
ATOM      5  O   UNL A   1      30.908  26.840  22.273  1.00  0.00    -0.246 OA
BRANCH   4   6
ATOM      6  C   UNL A   1      31.768  25.057  23.494  1.00  0.00     0.060 A 
ATOM      7  C   UNL A   1      31.192  24.292  24.508  1.00  0.00     0.018 A 
ATOM      8  C   UNL A   1      32.603  24.441  22.563  1.00  0.00     0.018 A 
ATOM      9  C   UNL A   1      31.533  22.954  24.672  1.00  0.00     0.027 A 
ATOM     10  C   UNL A   1      32.946  23.096  22.729  1.00  0.00     0.027 A 
ATOM     11  C   UNL A   1      32.445  22.361  23.811  1.00  0.00     0.049 A 
BRANCH  11  12
ATOM     12  N   UNL A   1      33.037  21.102  24.075  1.00  0.00    -0.283 N 
ATOM     13  H   UNL A   1      32.558  20.308  23.745  1.00  0.00     0.180 HD
BRANCH  12  14
ATOM     14  S   UNL A   1      34.454  20.840  24.885  1.00  0.00     0.237 S 
ATOM     15  O   UNL A   1      34.275  21.296  26.249  1.00  0.00    -0.206 OA
ATOM     16  O   UNL A   1      34.749  19.438  24.649  1.00  0.00    -0.206 OA
BRANCH  14  17
ATOM     17  C   UNL A   1      35.783  21.802  24.121  1.00  0.00     0.198 C 
BRANCH  17  18
ATOM     18  C   UNL A   1      36.917  22.325  24.981  1.00  0.00     0.006 A 
ATOM     19  C   UNL A   1      36.803  23.605  25.584  1.00  0.00     0.046 A 
ATOM     20  C   UNL A   1      38.034  21.561  25.370  1.00  0.00     0.046 A 
ATOM     21  Cl  UNL A   1      35.401  24.607  25.387  1.00  0.00    -0.084 Cl
ATOM     22  C   UNL A   1      37.788  24.119  26.440  1.00  0.00     0.021 A 
ATOM     23  C   UNL A   1      39.041  22.097  26.191  1.00  0.00     0.021 A 
ATOM     24  Cl  UNL A   1      38.202  19.884  24.986  1.00  0.00    -0.084 Cl
ATOM     25  C   UNL A   1      38.922  23.376  26.724  1.00  0.00     0.003 A 
ENDBRANCH  17  18
ENDBRANCH  14  17
ENDBRANCH  12  14
ENDBRANCH  11  12
ENDBRANCH   4   6
ENDBRANCH   3   4
ENDBRANCH   2   3
ENDBRANCH   1   2
BRANCH   1  26
ATOM     26  O   UNL A   1      31.600  29.229  27.239  1.00  0.00    -0.374 OA
BRANCH  26  27
ATOM     27  C   UNL A   1      31.830  30.343  26.362  1.00  0.00     0.202 C 
BRANCH  27  28
ATOM     28  C   UNL A   1      32.333  31.521  27.197  1.00  0.00     0.261 C 
BRANCH  28  29
ATOM     29  O   UNL A   1      33.760  31.552  27.079  1.00  0.00    -0.460 OA
BRANCH  29  30
ATOM     30  C   UNL A   1      34.377  32.294  28.036  1.00  0.00     0.338 C 
ATOM     31  O   UNL A   1      33.913  33.234  28.646  1.00  0.00    -0.246 OA
BRANCH  30  32
ATOM     32  C   UNL A   1      35.665  31.640  28.366  1.00  0.00     0.060 A 
ATOM     33  C   UNL A   1      35.651  30.263  28.629  1.00  0.00     0.016 A 
ATOM     34  C   UNL A   1      36.869  32.352  28.392  1.00  0.00     0.016 A 
ATOM     35  C   UNL A   1      36.827  29.619  29.003  1.00  0.00     0.010 A 
ATOM     36  C   UNL A   1      38.049  31.704  28.749  1.00  0.00     0.010 A 
ATOM     37  C   UNL A   1      38.017  30.351  29.112  1.00  0.00    -0.014 A 
BRANCH  37  38
ATOM     38  C   UNL A   1      39.184  29.744  29.786  1.00  0.00     0.031 A 
ATOM     39  C   UNL A   1      39.543  30.225  31.165  1.00  0.00     0.074 A 
ATOM     40  C   UNL A   1      39.895  28.778  29.180  1.00  0.00     0.049 A 
ATOM     41  N   UNL A   1      40.502  29.826  31.955  1.00  0.00    -0.248 NA
ATOM     42  C   UNL A   1      38.711  31.304  31.727  1.00  0.00     0.031 C 
ATOM     43  C   UNL A   1      39.648  28.268  27.831  1.00  0.00     0.029 A 
ATOM     44  N   UNL A   1      40.982  28.070  29.616  1.00  0.00    -0.354 N 
ATOM     45  C   UNL A   1      40.399  30.611  33.099  1.00  0.00     0.074 A 
ATOM     46  C   UNL A   1      39.307  31.533  32.887  1.00  0.00     0.031 C 
ATOM     47  C   UNL A   1      40.575  27.341  27.541  1.00  0.00     0.029 A 
ATOM     48  C   UNL A   1      41.486  27.206  28.675  1.00  0.00     0.049 A 
ATOM     49  H   UNL A   1      41.366  28.171  30.517  1.00  0.00     0.167 HD
ATOM     50  C   UNL A   1      41.130  30.549  34.235  1.00  0.00     0.034 A 
ATOM     51  C   UNL A   1      42.572  26.410  28.726  1.00  0.00     0.034 A 
ATOM     52  C   UNL A   1      42.212  29.623  34.434  1.00  0.00     0.049 A 
ATOM     53  C   UNL A   1      43.370  26.359  30.001  1.00  0.00     0.074 A 
ATOM     54  C   UNL A   1      43.004  29.450  35.554  1.00  0.00     0.029 A 
ATOM     55  N   UNL A   1      42.660  28.720  33.482  1.00  0.00    -0.354 N 
ATOM     56  N   UNL A   1      43.187  27.021  31.119  1.00  0.00    -0.248 NA
ATOM     57  C   UNL A   1      44.498  25.418  30.038  1.00  0.00     0.031 C 
ATOM     58  C   UNL A   1      43.950  28.459  35.269  1.00  0.00     0.029 A 
ATOM     59  C   UNL A   1      43.721  27.988  33.985  1.00  0.00     0.049 A 
ATOM     60  H   UNL A   1      42.279  28.615  32.580  1.00  0.00     0.167 HD
ATOM     61  C   UNL A   1      44.156  26.557  32.002  1.00  0.00     0.074 A 
ATOM     62  C   UNL A   1      44.899  25.533  31.297  1.00  0.00     0.031 C 
ATOM     63  C   UNL A   1      44.422  26.950  33.273  1.00  0.00     0.034 A 
BRANCH  50  64
ATOM     64  C   UNL A   1      40.759  31.483  35.357  1.00  0.00     0.023 A 
ATOM     65  C   UNL A   1      41.640  32.523  35.718  1.00  0.00     0.012 A 
ATOM     66  C   UNL A   1      39.525  31.362  36.025  1.00  0.00     0.148 A 
ATOM     67  C   UNL A   1      41.315  33.409  36.745  1.00  0.00     0.002 A 
ATOM     68  C   UNL A   1      39.187  32.277  37.016  1.00  0.00     0.091 A 
ATOM     69  F   UNL A   1      38.711  30.353  35.686  1.00  0.00    -0.205 F 
ATOM     70  C   UNL A   1      40.085  33.293  37.385  1.00  0.00     0.022 A 
BRANCH  68  71
ATOM     71  S   UNL A   1      37.597  32.263  37.851  1.00  0.00     0.127 S 
ATOM     72  O   UNL A   1      37.414  30.836  38.114  1.00  0.00    -0.237 OA
ATOM     73  O   UNL A   1      37.870  33.072  39.040  1.00  0.00    -0.237 OA
ATOM     74  O   UNL A   1      36.645  32.849  36.918  1.00  0.00    -0.744 OA
ENDBRANCH  68  71
ENDBRANCH  50  64
BRANCH  51  75
ATOM     75  C   UNL A   1      42.944  25.579  27.546  1.00  0.00     0.023 A 
ATOM     76  C   UNL A   1      43.644  26.155  26.470  1.00  0.00     0.012 A 
ATOM     77  C   UNL A   1      42.619  24.210  27.500  1.00  0.00     0.148 A 
ATOM     78  C   UNL A   1      43.981  25.391  25.351  1.00  0.00     0.002 A 
ATOM     79  C   UNL A   1      43.011  23.440  26.411  1.00  0.00     0.091 A 
ATOM     80  F   UNL A   1      41.940  23.682  28.529  1.00  0.00    -0.205 F 
ATOM     81  C   UNL A   1      43.674  24.033  25.326  1.00  0.00     0.022 A 
BRANCH  79  82
ATOM     82  S   UNL A   1      42.785  21.659  26.364  1.00  0.00     0.127 S 
ATOM     83  O   UNL A   1      42.397  21.372  27.742  1.00  0.00    -0.237 OA
ATOM     84  O   UNL A   1      41.712  21.520  25.377  1.00  0.00    -0.237 OA
ATOM     85  O   UNL A   1      44.065  21.113  25.936  1.00  0.00    -0.744 OA
ENDBRANCH  79  82
ENDBRANCH  51  75
BRANCH  63  86
ATOM     86  C   UNL A   1      45.546  26.246  33.988  1.00  0.00     0.023 A 
ATOM     87  C   UNL A   1      46.858  26.757  33.912  1.00  0.00     0.012 A 
ATOM     88  C   UNL A   1      45.295  25.098  34.763  1.00  0.00     0.148 A 
ATOM     89  C   UNL A   1      47.910  26.104  34.552  1.00  0.00     0.002 A 
ATOM     90  C   UNL A   1      46.340  24.485  35.445  1.00  0.00     0.091 A 
ATOM     91  F   UNL A   1      44.044  24.616  34.811  1.00  0.00    -0.205 F 
ATOM     92  C   UNL A   1      47.650  24.975  35.326  1.00  0.00     0.022 A 
BRANCH  90  93
ATOM     93  S   UNL A   1      46.079  23.087  36.541  1.00  0.00     0.127 S 
ATOM     94  O   UNL A   1      45.272  23.686  37.601  1.00  0.00    -0.237 OA
ATOM     95  O   UNL A   1      45.356  22.149  35.680  1.00  0.00    -0.237 OA
ATOM     96  O   UNL A   1      47.406  22.638  36.939  1.00  0.00    -0.744 OA
ENDBRANCH  90  93
ENDBRANCH  63  86
ENDBRANCH  37  38
ENDBRANCH  30  32
ENDBRANCH  29  30
ENDBRANCH  28  29
ENDBRANCH  27  28
ENDBRANCH  26  27
ENDBRANCH   1  26
TORSDOF 21
ENDMDL
MODEL 2
REMARK VINA RESULT:     -10.5      3.335      5.043
REMARK SMILES O=C(OCCOCCOC(=O)c1ccc(-c2c3nc(c(-c4cccc(S(=O)(=O)[O-])c4F)c4ccc([nH]4)c(-c4cccc(S(=O)(=O)[O-])c4F)c4nc(c(-c5cccc(S(=O)(=O)[O-])c5F)c5ccc2[nH]5)C=C4)C=C3)cc1)c1ccc(NS(=O)(=O)Cc2c(Cl)cccc2Cl)cc1
REMARK SMILES IDX 5 1 4 2 3 3 2 4 1 5 75 6 76 7 93 8 77 9 92 10 78 11 79 12
REMARK SMILES IDX 80 14 81 15 82 16 83 17 84 18 85 19 90 20 86 21 87 22 89 23
REMARK SMILES IDX 91 24 88 25 6 26 7 27 8 28 9 29 10 30 11 31 12 32 13 33
REMARK SMILES IDX 74 34 14 35 73 36 15 37 16 38 17 39 67 40 18 41 72 42 66 43
REMARK SMILES IDX 68 44 19 45 71 46 65 47 64 48 20 50 52 51 32 52 51 53 33 54
REMARK SMILES IDX 36 55 50 56 69 57 34 58 35 59 49 61 70 62 37 63 21 64 22 65
REMARK SMILES IDX 30 66 23 67 25 68 31 69 24 70 26 71 27 72 28 73 29 74 53 75
REMARK SMILES IDX 54 76 62 77 55 78 57 79 63 80 56 81 58 82 59 83 60 84 61 85
REMARK SMILES IDX 38 86 39 87 47 88 40 89 42 90 48 91 41 92 43 93 44 94 45 95
REMARK SMILES IDX 46 96
REMARK H PARENT 79 13 68 49 36 60
REMARK Flexibility Score: inf
ROOT
ATOM      1  C   UNL A   1      34.470  32.164  28.862  1.00  0.00     0.202 C 
ENDROOT
BRANCH   1   2
ATOM      2  C   UNL A   1      33.751  31.629  27.627  1.00  0.00     0.261 C 
BRANCH   2   3
ATOM      3  O   UNL A   1      33.874  30.190  27.565  1.00  0.00    -0.460 OA
BRANCH   3   4
ATOM      4  C   UNL A   1      32.937  29.337  27.085  1.00  0.00     0.338 C 
ATOM      5  O   UNL A   1      31.835  29.232  27.611  1.00  0.00    -0.246 OA
BRANCH   4   6
ATOM      6  C   UNL A   1      33.216  28.543  25.871  1.00  0.00     0.060 A 
ATOM      7  C   UNL A   1      33.076  29.081  24.593  1.00  0.00     0.018 A 
ATOM      8  C   UNL A   1      33.722  27.252  26.019  1.00  0.00     0.018 A 
ATOM      9  C   UNL A   1      33.319  28.308  23.464  1.00  0.00     0.027 A 
ATOM     10  C   UNL A   1      33.965  26.474  24.883  1.00  0.00     0.027 A 
ATOM     11  C   UNL A   1      33.722  26.987  23.602  1.00  0.00     0.049 A 
BRANCH  11  12
ATOM     12  N   UNL A   1      33.727  26.073  22.521  1.00  0.00    -0.283 N 
ATOM     13  H   UNL A   1      34.589  25.655  22.296  1.00  0.00     0.180 HD
BRANCH  12  14
ATOM     14  S   UNL A   1      32.423  25.642  21.601  1.00  0.00     0.237 S 
ATOM     15  O   UNL A   1      31.523  26.778  21.548  1.00  0.00    -0.206 OA
ATOM     16  O   UNL A   1      33.002  25.150  20.364  1.00  0.00    -0.206 OA
BRANCH  14  17
ATOM     17  C   UNL A   1      31.559  24.254  22.376  1.00  0.00     0.198 C 
BRANCH  17  18
ATOM     18  C   UNL A   1      31.577  24.111  23.887  1.00  0.00     0.006 A 
ATOM     19  C   UNL A   1      32.529  23.251  24.495  1.00  0.00     0.046 A 
ATOM     20  C   UNL A   1      30.813  24.901  24.766  1.00  0.00     0.046 A 
ATOM     21  Cl  UNL A   1      33.695  22.353  23.578  1.00  0.00    -0.084 Cl
ATOM     22  C   UNL A   1      32.638  23.124  25.888  1.00  0.00     0.021 A 
ATOM     23  C   UNL A   1      30.893  24.737  26.160  1.00  0.00     0.021 A 
ATOM     24  Cl  UNL A   1      29.820  26.210  24.228  1.00  0.00    -0.084 Cl
ATOM     25  C   UNL A   1      31.801  23.847  26.722  1.00  0.00     0.003 A 
ENDBRANCH  17  18
ENDBRANCH  14  17
ENDBRANCH  12  14
ENDBRANCH  11  12
ENDBRANCH   4   6
ENDBRANCH   3   4
ENDBRANCH   2   3
ENDBRANCH   1   2
BRANCH   1  26
ATOM     26  O   UNL A   1      34.697  33.568  28.778  1.00  0.00    -0.374 OA
BRANCH  26  27
ATOM     27  C   UNL A   1      33.595  34.334  28.266  1.00  0.00     0.202 C 
BRANCH  27  28
ATOM     28  C   UNL A   1      33.315  35.485  29.233  1.00  0.00     0.261 C 
BRANCH  28  29
ATOM     29  O   UNL A   1      32.618  34.940  30.359  1.00  0.00    -0.460 OA
BRANCH  29  30
ATOM     30  C   UNL A   1      32.926  35.536  31.541  1.00  0.00     0.338 C 
ATOM     31  O   UNL A   1      32.291  36.396  32.114  1.00  0.00    -0.246 OA
BRANCH  30  32
ATOM     32  C   UNL A   1      34.082  34.820  32.131  1.00  0.00     0.060 A 
ATOM     33  C   UNL A   1      35.264  35.544  32.334  1.00  0.00     0.016 A 
ATOM     34  C   UNL A   1      34.004  33.473  32.502  1.00  0.00     0.016 A 
ATOM     35  C   UNL A   1      36.393  34.898  32.828  1.00  0.00     0.010 A 
ATOM     36  C   UNL A   1      35.129  32.831  33.013  1.00  0.00     0.010 A 
ATOM     37  C   UNL A   1      36.340  33.528  33.120  1.00  0.00    -0.014 A 
BRANCH  37  38
ATOM     38  C   UNL A   1      37.596  32.786  33.357  1.00  0.00     0.031 A 
ATOM     39  C   UNL A   1      38.336  33.024  34.645  1.00  0.00     0.074 A 
ATOM     40  C   UNL A   1      38.054  31.912  32.444  1.00  0.00     0.049 A 
ATOM     41  N   UNL A   1      39.437  32.475  35.079  1.00  0.00    -0.248 NA
ATOM     42  C   UNL A   1      37.757  34.021  35.565  1.00  0.00     0.031 C 
ATOM     43  C   UNL A   1      37.428  31.637  31.151  1.00  0.00     0.029 A 
ATOM     44  N   UNL A   1      39.164  31.112  32.461  1.00  0.00    -0.354 N 
ATOM     45  C   UNL A   1      39.691  33.065  36.313  1.00  0.00     0.074 A 
ATOM     46  C   UNL A   1      38.651  34.040  36.542  1.00  0.00     0.031 C 
ATOM     47  C   UNL A   1      38.180  30.744  30.486  1.00  0.00     0.029 A 
ATOM     48  C   UNL A   1      39.343  30.400  31.301  1.00  0.00     0.049 A 
ATOM     49  H   UNL A   1      39.776  31.054  33.231  1.00  0.00     0.167 HD
ATOM     50  C   UNL A   1      40.687  32.797  37.188  1.00  0.00     0.034 A 
ATOM     51  C   UNL A   1      40.345  29.575  30.938  1.00  0.00     0.034 A 
ATOM     52  C   UNL A   1      41.715  31.821  36.948  1.00  0.00     0.049 A 
ATOM     53  C   UNL A   1      41.442  29.293  31.929  1.00  0.00     0.074 A 
ATOM     54  C   UNL A   1      42.757  31.444  37.775  1.00  0.00     0.029 A 
ATOM     55  N   UNL A   1      41.834  31.073  35.786  1.00  0.00    -0.354 N 
ATOM     56  N   UNL A   1      41.605  29.769  33.142  1.00  0.00    -0.248 NA
ATOM     57  C   UNL A   1      42.471  28.328  31.520  1.00  0.00     0.031 C 
ATOM     58  C   UNL A   1      43.523  30.487  37.101  1.00  0.00     0.029 A 
ATOM     59  C   UNL A   1      42.935  30.239  35.870  1.00  0.00     0.049 A 
ATOM     60  H   UNL A   1      41.225  31.128  35.015  1.00  0.00     0.167 HD
ATOM     61  C   UNL A   1      42.735  29.139  33.651  1.00  0.00     0.074 A 
ATOM     62  C   UNL A   1      43.194  28.223  32.627  1.00  0.00     0.031 C 
ATOM     63  C   UNL A   1      43.350  29.312  34.848  1.00  0.00     0.034 A 
BRANCH  50  64
ATOM     64  C   UNL A   1      40.688  33.545  38.496  1.00  0.00     0.023 A 
ATOM     65  C   UNL A   1      39.991  33.016  39.602  1.00  0.00     0.012 A 
ATOM     66  C   UNL A   1      41.410  34.745  38.646  1.00  0.00     0.148 A 
ATOM     67  C   UNL A   1      39.986  33.683  40.826  1.00  0.00     0.002 A 
ATOM     68  C   UNL A   1      41.439  35.380  39.882  1.00  0.00     0.091 A 
ATOM     69  F   UNL A   1      42.046  35.246  37.577  1.00  0.00    -0.205 F 
ATOM     70  C   UNL A   1      40.718  34.858  40.969  1.00  0.00     0.022 A 
BRANCH  68  71
ATOM     71  S   UNL A   1      42.411  36.858  40.194  1.00  0.00     0.127 S 
ATOM     72  O   UNL A   1      42.151  37.089  41.614  1.00  0.00    -0.237 OA
ATOM     73  O   UNL A   1      43.767  36.400  39.888  1.00  0.00    -0.237 OA
ATOM     74  O   UNL A   1      41.894  37.879  39.294  1.00  0.00    -0.744 OA
ENDBRANCH  68  71
ENDBRANCH  50  64
BRANCH  51  75
ATOM     75  C   UNL A   1      40.337  28.938  29.591  1.00  0.00     0.023 A 
ATOM     76  C   UNL A   1      40.723  29.678  28.458  1.00  0.00     0.012 A 
ATOM     77  C   UNL A   1      39.963  27.589  29.435  1.00  0.00     0.148 A 
ATOM     78  C   UNL A   1      40.701  29.097  27.188  1.00  0.00     0.002 A 
ATOM     79  C   UNL A   1      40.002  26.999  28.178  1.00  0.00     0.091 A 
ATOM     80  F   UNL A   1      39.585  26.905  30.525  1.00  0.00    -0.205 F 
ATOM     81  C   UNL A   1      40.351  27.756  27.050  1.00  0.00     0.022 A 
BRANCH  79  82
ATOM     82  S   UNL A   1      39.707  25.245  27.933  1.00  0.00     0.127 S 
ATOM     83  O   UNL A   1      39.475  25.180  26.493  1.00  0.00    -0.237 OA
ATOM     84  O   UNL A   1      40.973  24.663  28.383  1.00  0.00    -0.237 OA
ATOM     85  O   UNL A   1      38.566  24.918  28.777  1.00  0.00    -0.744 OA
ENDBRANCH  79  82
ENDBRANCH  51  75
BRANCH  63  86
ATOM     86  C   UNL A   1      44.569  28.469  35.121  1.00  0.00     0.023 A 
ATOM     87  C   UNL A   1      45.852  28.966  34.814  1.00  0.00     0.012 A 
ATOM     88  C   UNL A   1      44.444  27.197  35.713  1.00  0.00     0.148 A 
ATOM     89  C   UNL A   1      46.986  28.188  35.042  1.00  0.00     0.002 A 
ATOM     90  C   UNL A   1      45.583  26.451  35.990  1.00  0.00     0.091 A 
ATOM     91  F   UNL A   1      43.215  26.733  35.983  1.00  0.00    -0.205 F 
ATOM     92  C   UNL A   1      46.853  26.937  35.639  1.00  0.00     0.022 A 
BRANCH  90  93
ATOM     93  S   UNL A   1      45.511  24.873  36.845  1.00  0.00     0.127 S 
ATOM     94  O   UNL A   1      44.786  24.047  35.882  1.00  0.00    -0.237 OA
ATOM     95  O   UNL A   1      46.928  24.536  36.993  1.00  0.00    -0.237 OA
ATOM     96  O   UNL A   1      44.819  25.130  38.100  1.00  0.00    -0.744 OA
ENDBRANCH  90  93
ENDBRANCH  63  86
ENDBRANCH  37  38
ENDBRANCH  30  32
ENDBRANCH  29  30
ENDBRANCH  28  29
ENDBRANCH  27  28
ENDBRANCH  26  27
ENDBRANCH   1  26
TORSDOF 21
ENDMDL
MODEL 3
REMARK VINA RESULT:     -10.5      2.859      9.027
REMARK SMILES O=C(OCCOCCOC(=O)c1ccc(-c2c3nc(c(-c4cccc(S(=O)(=O)[O-])c4F)c4ccc([nH]4)c(-c4cccc(S(=O)(=O)[O-])c4F)c4nc(c(-c5cccc(S(=O)(=O)[O-])c5F)c5ccc2[nH]5)C=C4)C=C3)cc1)c1ccc(NS(=O)(=O)Cc2c(Cl)cccc2Cl)cc1
REMARK SMILES IDX 5 1 4 2 3 3 2 4 1 5 75 6 76 7 93 8 77 9 92 10 78 11 79 12
REMARK SMILES IDX 80 14 81 15 82 16 83 17 84 18 85 19 90 20 86 21 87 22 89 23
REMARK SMILES IDX 91 24 88 25 6 26 7 27 8 28 9 29 10 30 11 31 12 32 13 33
REMARK SMILES IDX 74 34 14 35 73 36 15 37 16 38 17 39 67 40 18 41 72 42 66 43
REMARK SMILES IDX 68 44 19 45 71 46 65 47 64 48 20 50 52 51 32 52 51 53 33 54
REMARK SMILES IDX 36 55 50 56 69 57 34 58 35 59 49 61 70 62 37 63 21 64 22 65
REMARK SMILES IDX 30 66 23 67 25 68 31 69 24 70 26 71 27 72 28 73 29 74 53 75
REMARK SMILES IDX 54 76 62 77 55 78 57 79 63 80 56 81 58 82 59 83 60 84 61 85
REMARK SMILES IDX 38 86 39 87 47 88 40 89 42 90 48 91 41 92 43 93 44 94 45 95
REMARK SMILES IDX 46 96
REMARK H PARENT 79 13 68 49 36 60
REMARK Flexibility Score: inf
ROOT
ATOM      1  C   UNL A   1      40.666  21.220  27.128  1.00  0.00     0.202 C 
ENDROOT
BRANCH   1   2
ATOM      2  C   UNL A   1      39.858  20.448  26.090  1.00  0.00     0.261 C 
BRANCH   2   3
ATOM      3  O   UNL A   1      38.753  21.253  25.621  1.00  0.00    -0.460 OA
BRANCH   3   4
ATOM      4  C   UNL A   1      37.596  20.778  25.098  1.00  0.00     0.338 C 
ATOM      5  O   UNL A   1      37.584  19.830  24.322  1.00  0.00    -0.246 OA
BRANCH   4   6
ATOM      6  C   UNL A   1      36.307  21.377  25.499  1.00  0.00     0.060 A 
ATOM      7  C   UNL A   1      36.225  22.674  26.002  1.00  0.00     0.018 A 
ATOM      8  C   UNL A   1      35.136  20.652  25.279  1.00  0.00     0.018 A 
ATOM      9  C   UNL A   1      35.004  23.208  26.398  1.00  0.00     0.027 A 
ATOM     10  C   UNL A   1      33.909  21.190  25.679  1.00  0.00     0.027 A 
ATOM     11  C   UNL A   1      33.846  22.453  26.280  1.00  0.00     0.049 A 
BRANCH  11  12
ATOM     12  N   UNL A   1      32.628  22.820  26.902  1.00  0.00    -0.283 N 
ATOM     13  H   UNL A   1      32.404  22.366  27.745  1.00  0.00     0.180 HD
BRANCH  12  14
ATOM     14  S   UNL A   1      31.547  23.940  26.345  1.00  0.00     0.237 S 
ATOM     15  O   UNL A   1      30.367  23.873  27.185  1.00  0.00    -0.206 OA
ATOM     16  O   UNL A   1      32.303  25.178  26.299  1.00  0.00    -0.206 OA
BRANCH  14  17
ATOM     17  C   UNL A   1      31.072  23.540  24.645  1.00  0.00     0.198 C 
BRANCH  17  18
ATOM     18  C   UNL A   1      31.386  24.521  23.531  1.00  0.00     0.006 A 
ATOM     19  C   UNL A   1      30.652  25.733  23.442  1.00  0.00     0.046 A 
ATOM     20  C   UNL A   1      32.476  24.398  22.650  1.00  0.00     0.046 A 
ATOM     21  Cl  UNL A   1      29.406  26.155  24.572  1.00  0.00    -0.084 Cl
ATOM     22  C   UNL A   1      30.935  26.709  22.475  1.00  0.00     0.021 A 
ATOM     23  C   UNL A   1      32.727  25.356  21.652  1.00  0.00     0.021 A 
ATOM     24  Cl  UNL A   1      33.661  23.147  22.794  1.00  0.00    -0.084 Cl
ATOM     25  C   UNL A   1      31.957  26.509  21.560  1.00  0.00     0.003 A 
ENDBRANCH  17  18
ENDBRANCH  14  17
ENDBRANCH  12  14
ENDBRANCH  11  12
ENDBRANCH   4   6
ENDBRANCH   3   4
ENDBRANCH   2   3
ENDBRANCH   1   2
BRANCH   1  26
ATOM     26  O   UNL A   1      41.765  21.910  26.541  1.00  0.00    -0.374 OA
BRANCH  26  27
ATOM     27  C   UNL A   1      43.008  21.796  27.252  1.00  0.00     0.202 C 
BRANCH  27  28
ATOM     28  C   UNL A   1      44.130  22.310  26.350  1.00  0.00     0.261 C 
BRANCH  28  29
ATOM     29  O   UNL A   1      43.522  23.063  25.295  1.00  0.00    -0.460 OA
BRANCH  29  30
ATOM     30  C   UNL A   1      44.074  24.290  25.102  1.00  0.00     0.338 C 
ATOM     31  O   UNL A   1      44.876  24.606  24.249  1.00  0.00    -0.246 OA
BRANCH  30  32
ATOM     32  C   UNL A   1      43.383  25.251  25.994  1.00  0.00     0.060 A 
ATOM     33  C   UNL A   1      44.122  26.339  26.479  1.00  0.00     0.016 A 
ATOM     34  C   UNL A   1      42.033  25.107  26.331  1.00  0.00     0.016 A 
ATOM     35  C   UNL A   1      43.532  27.233  27.368  1.00  0.00     0.010 A 
ATOM     36  C   UNL A   1      41.438  26.011  27.207  1.00  0.00     0.010 A 
ATOM     37  C   UNL A   1      42.204  27.039  27.772  1.00  0.00    -0.014 A 
BRANCH  37  38
ATOM     38  C   UNL A   1      41.677  27.798  28.925  1.00  0.00     0.031 A 
ATOM     39  C   UNL A   1      42.370  27.655  30.253  1.00  0.00     0.074 A 
ATOM     40  C   UNL A   1      40.613  28.606  28.781  1.00  0.00     0.049 A 
ATOM     41  N   UNL A   1      42.104  28.236  31.390  1.00  0.00    -0.248 NA
ATOM     42  C   UNL A   1      43.513  26.725  30.305  1.00  0.00     0.031 C 
ATOM     43  C   UNL A   1      39.852  28.786  27.544  1.00  0.00     0.029 A 
ATOM     44  N   UNL A   1      39.977  29.408  29.690  1.00  0.00    -0.354 N 
ATOM     45  C   UNL A   1      43.034  27.736  32.295  1.00  0.00     0.074 A 
ATOM     46  C   UNL A   1      43.849  26.778  31.585  1.00  0.00     0.031 C 
ATOM     47  C   UNL A   1      38.835  29.632  27.780  1.00  0.00     0.029 A 
ATOM     48  C   UNL A   1      38.866  30.035  29.184  1.00  0.00     0.049 A 
ATOM     49  H   UNL A   1      40.287  29.522  30.618  1.00  0.00     0.167 HD
ATOM     50  C   UNL A   1      43.212  28.069  33.595  1.00  0.00     0.034 A 
ATOM     51  C   UNL A   1      37.970  30.834  29.796  1.00  0.00     0.034 A 
ATOM     52  C   UNL A   1      42.395  29.027  34.289  1.00  0.00     0.049 A 
ATOM     53  C   UNL A   1      38.189  31.188  31.243  1.00  0.00     0.074 A 
ATOM     54  C   UNL A   1      42.501  29.463  35.596  1.00  0.00     0.029 A 
ATOM     55  N   UNL A   1      41.313  29.690  33.730  1.00  0.00    -0.354 N 
ATOM     56  N   UNL A   1      39.145  30.801  32.054  1.00  0.00    -0.248 NA
ATOM     57  C   UNL A   1      37.231  32.124  31.847  1.00  0.00     0.031 C 
ATOM     58  C   UNL A   1      41.464  30.372  35.836  1.00  0.00     0.029 A 
ATOM     59  C   UNL A   1      40.737  30.530  34.666  1.00  0.00     0.049 A 
ATOM     60  H   UNL A   1      41.000  29.579  32.803  1.00  0.00     0.167 HD
ATOM     61  C   UNL A   1      38.922  31.467  33.254  1.00  0.00     0.074 A 
ATOM     62  C   UNL A   1      37.760  32.309  33.048  1.00  0.00     0.031 C 
ATOM     63  C   UNL A   1      39.601  31.382  34.425  1.00  0.00     0.034 A 
BRANCH  50  64
ATOM     64  C   UNL A   1      44.351  27.415  34.333  1.00  0.00     0.023 A 
ATOM     65  C   UNL A   1      44.133  26.201  35.017  1.00  0.00     0.012 A 
ATOM     66  C   UNL A   1      45.644  27.975  34.317  1.00  0.00     0.148 A 
ATOM     67  C   UNL A   1      45.173  25.570  35.698  1.00  0.00     0.002 A 
ATOM     68  C   UNL A   1      46.686  27.316  34.959  1.00  0.00     0.091 A 
ATOM     69  F   UNL A   1      45.827  29.141  33.683  1.00  0.00    -0.205 F 
ATOM     70  C   UNL A   1      46.450  26.121  35.660  1.00  0.00     0.022 A 
BRANCH  68  71
ATOM     71  S   UNL A   1      48.384  27.900  34.908  1.00  0.00     0.127 S 
ATOM     72  O   UNL A   1      49.127  26.642  34.846  1.00  0.00    -0.237 OA
ATOM     73  O   UNL A   1      48.400  28.681  33.670  1.00  0.00    -0.237 OA
ATOM     74  O   UNL A   1      48.580  28.678  36.123  1.00  0.00    -0.744 OA
ENDBRANCH  68  71
ENDBRANCH  50  64
BRANCH  51  75
ATOM     75  C   UNL A   1      36.808  31.373  29.034  1.00  0.00     0.023 A 
ATOM     76  C   UNL A   1      36.740  32.745  28.729  1.00  0.00     0.012 A 
ATOM     77  C   UNL A   1      35.777  30.520  28.595  1.00  0.00     0.148 A 
ATOM     78  C   UNL A   1      35.647  33.265  28.033  1.00  0.00     0.002 A 
ATOM     79  C   UNL A   1      34.722  31.033  27.849  1.00  0.00     0.091 A 
ATOM     80  F   UNL A   1      35.853  29.218  28.907  1.00  0.00    -0.205 F 
ATOM     81  C   UNL A   1      34.644  32.409  27.585  1.00  0.00     0.022 A 
BRANCH  79  82
ATOM     82  S   UNL A   1      33.469  29.980  27.111  1.00  0.00     0.127 S 
ATOM     83  O   UNL A   1      32.407  30.939  26.822  1.00  0.00    -0.237 OA
ATOM     84  O   UNL A   1      34.169  29.459  25.936  1.00  0.00    -0.237 OA
ATOM     85  O   UNL A   1      33.161  28.974  28.117  1.00  0.00    -0.744 OA
ENDBRANCH  79  82
ENDBRANCH  51  75
BRANCH  63  86
ATOM     86  C   UNL A   1      39.118  32.245  35.562  1.00  0.00     0.023 A 
ATOM     87  C   UNL A   1      38.151  31.750  36.461  1.00  0.00     0.012 A 
ATOM     88  C   UNL A   1      39.650  33.534  35.760  1.00  0.00     0.148 A 
ATOM     89  C   UNL A   1      37.681  32.545  37.504  1.00  0.00     0.002 A 
ATOM     90  C   UNL A   1      39.219  34.299  36.837  1.00  0.00     0.091 A 
ATOM     91  F   UNL A   1      40.558  33.995  34.887  1.00  0.00    -0.205 F 
ATOM     92  C   UNL A   1      38.222  33.814  37.699  1.00  0.00     0.022 A 
BRANCH  90  93
ATOM     93  S   UNL A   1      39.930  35.903  37.219  1.00  0.00     0.127 S 
ATOM     94  O   UNL A   1      41.339  35.567  37.408  1.00  0.00    -0.237 OA
ATOM     95  O   UNL A   1      39.643  36.667  36.003  1.00  0.00    -0.237 OA
ATOM     96  O   UNL A   1      39.232  36.377  38.406  1.00  0.00    -0.744 OA
ENDBRANCH  90  93
ENDBRANCH  63  86
ENDBRANCH  37  38
ENDBRANCH  30  32
ENDBRANCH  29  30
ENDBRANCH  28  29
ENDBRANCH  27  28
ENDBRANCH  26  27
ENDBRANCH   1  26
TORSDOF 21
ENDMDL
