MODEL 1
REMARK VINA RESULT:     -11.9      0.000      0.000
REMARK SMILES Cc1ccc(C(=O)OCCOCCOC(=O)c2ccc(-c3c4nc(c(-c5cccc(S(=O)(=O)[O-])c5F)c5ccc([nH]5)c(-c5cccc(S(=O)(=O)[O-])c5F)c5nc(c(-c6cccc(S(=O)(=O)[O-])c6F)c6ccc3[nH]6)C=C5)C=C4)cc2)cc1NC(=O)c1ccc(Br)o1
REMARK SMILES IDX 12 1 11 2 10 3 9 4 8 5 6 6 7 7 5 8 1 9 2 10 3 11 81 12 4 13
REMARK SMILES IDX 80 14 82 15 83 16 84 18 85 19 86 20 90 21 87 22 88 23 89 24
REMARK SMILES IDX 13 25 14 26 15 27 16 28 17 29 18 30 79 31 19 32 78 33 20 34
REMARK SMILES IDX 21 35 22 36 72 37 23 38 77 39 71 40 73 41 24 42 76 43 70 44
REMARK SMILES IDX 69 45 25 47 57 48 37 49 56 50 38 51 41 52 55 53 74 54 39 55
REMARK SMILES IDX 40 56 54 58 75 59 42 60 26 61 27 62 35 63 28 64 30 65 36 66
REMARK SMILES IDX 29 67 31 68 32 69 33 70 34 71 58 72 59 73 67 74 60 75 62 76
REMARK SMILES IDX 68 77 61 78 63 79 64 80 65 81 66 82 43 83 44 84 52 85 45 86
REMARK SMILES IDX 47 87 53 88 46 89 48 90 49 91 50 92 51 93
REMARK H PARENT 82 17 73 46 41 57
REMARK Flexibility Score: inf
ROOT
ATOM      1  C   UNL A   1      42.467  18.891  26.060  1.00  0.00     0.202 C 
ENDROOT
BRANCH   1   2
ATOM      2  O   UNL A   1      41.420  19.541  25.359  1.00  0.00    -0.374 OA
BRANCH   2   3
ATOM      3  C   UNL A   1      40.327  19.872  26.176  1.00  0.00     0.202 C 
BRANCH   3   4
ATOM      4  C   UNL A   1      39.863  21.344  26.159  1.00  0.00     0.261 C 
BRANCH   4   5
ATOM      5  O   UNL A   1      38.577  21.482  25.621  1.00  0.00    -0.460 OA
BRANCH   5   6
ATOM      6  C   UNL A   1      38.069  22.685  25.941  1.00  0.00     0.338 C 
ATOM      7  O   UNL A   1      38.632  23.638  26.452  1.00  0.00    -0.246 OA
BRANCH   6   8
ATOM      8  C   UNL A   1      36.754  22.729  25.327  1.00  0.00     0.062 A 
ATOM      9  C   UNL A   1      33.044  22.631  23.286  1.00  0.00     0.046 C 
ATOM     10  C   UNL A   1      34.299  22.744  24.099  1.00  0.00    -0.027 A 
ATOM     11  C   UNL A   1      35.493  22.702  23.339  1.00  0.00     0.006 A 
ATOM     12  C   UNL A   1      34.340  22.798  25.511  1.00  0.00     0.045 A 
ATOM     13  C   UNL A   1      36.723  22.756  23.949  1.00  0.00     0.016 A 
ATOM     14  C   UNL A   1      35.581  22.665  26.093  1.00  0.00     0.042 A 
BRANCH  12  15
ATOM     15  N   UNL A   1      33.161  23.036  26.252  1.00  0.00    -0.319 N 
ATOM     16  C   UNL A   1      32.352  24.123  26.551  1.00  0.00     0.291 C 
ATOM     17  H   UNL A   1      32.823  22.210  26.668  1.00  0.00     0.170 HD
ATOM     18  O   UNL A   1      31.340  23.850  27.208  1.00  0.00    -0.265 OA
BRANCH  16  19
ATOM     19  C   UNL A   1      32.683  25.487  26.216  1.00  0.00     0.193 A 
ATOM     20  C   UNL A   1      33.584  26.092  25.358  1.00  0.00     0.057 A 
ATOM     21  O   UNL A   1      31.955  26.469  26.844  1.00  0.00    -0.444 OA
ATOM     22  C   UNL A   1      33.606  27.465  25.710  1.00  0.00     0.059 A 
ATOM     23  C   UNL A   1      32.533  27.660  26.544  1.00  0.00     0.170 A 
ATOM     24  Br  UNL A   1      31.966  29.303  27.217  1.00  0.00    -0.008 Br
ENDBRANCH  16  19
ENDBRANCH  12  15
ENDBRANCH   6   8
ENDBRANCH   5   6
ENDBRANCH   4   5
ENDBRANCH   3   4
ENDBRANCH   2   3
ENDBRANCH   1   2
BRANCH   1  25
ATOM     25  C   UNL A   1      43.986  18.873  25.513  1.00  0.00     0.261 C 
BRANCH  25  26
ATOM     26  O   UNL A   1      44.549  20.236  25.115  1.00  0.00    -0.460 OA
BRANCH  26  27
ATOM     27  C   UNL A   1      44.839  21.472  25.699  1.00  0.00     0.338 C 
ATOM     28  O   UNL A   1      45.923  21.892  25.971  1.00  0.00    -0.246 OA
BRANCH  27  29
ATOM     29  C   UNL A   1      43.524  22.238  26.064  1.00  0.00     0.060 A 
ATOM     30  C   UNL A   1      42.930  23.140  25.188  1.00  0.00     0.016 A 
ATOM     31  C   UNL A   1      42.998  22.309  27.335  1.00  0.00     0.016 A 
ATOM     32  C   UNL A   1      42.421  24.370  25.670  1.00  0.00     0.010 A 
ATOM     33  C   UNL A   1      42.681  23.575  27.830  1.00  0.00     0.010 A 
ATOM     34  C   UNL A   1      42.661  24.679  26.975  1.00  0.00    -0.014 A 
BRANCH  34  35
ATOM     35  C   UNL A   1      42.975  26.019  27.524  1.00  0.00     0.031 A 
ATOM     36  C   UNL A   1      41.801  26.913  27.743  1.00  0.00     0.074 A 
ATOM     37  C   UNL A   1      44.191  26.307  28.100  1.00  0.00     0.049 A 
ATOM     38  N   UNL A   1      41.847  28.145  28.113  1.00  0.00    -0.248 NA
ATOM     39  C   UNL A   1      40.427  26.469  27.483  1.00  0.00     0.031 C 
ATOM     40  C   UNL A   1      44.389  27.243  29.226  1.00  0.00     0.029 A 
ATOM     41  N   UNL A   1      45.507  25.816  27.911  1.00  0.00    -0.354 N 
ATOM     42  C   UNL A   1      40.561  28.503  28.481  1.00  0.00     0.074 A 
ATOM     43  C   UNL A   1      39.711  27.511  27.898  1.00  0.00     0.031 C 
ATOM     44  C   UNL A   1      45.701  27.408  29.468  1.00  0.00     0.029 A 
ATOM     45  C   UNL A   1      46.414  26.800  28.359  1.00  0.00     0.049 A 
ATOM     46  H   UNL A   1      45.747  24.939  27.534  1.00  0.00     0.167 HD
ATOM     47  C   UNL A   1      40.388  29.496  29.394  1.00  0.00     0.034 A 
ATOM     48  C   UNL A   1      47.360  27.484  27.632  1.00  0.00     0.034 A 
ATOM     49  C   UNL A   1      41.681  30.151  29.662  1.00  0.00     0.049 A 
ATOM     50  C   UNL A   1      47.030  28.981  27.563  1.00  0.00     0.074 A 
ATOM     51  C   UNL A   1      42.563  30.099  30.726  1.00  0.00     0.029 A 
ATOM     52  N   UNL A   1      42.383  30.724  28.602  1.00  0.00    -0.354 N 
ATOM     53  N   UNL A   1      45.940  29.491  28.071  1.00  0.00    -0.248 NA
ATOM     54  C   UNL A   1      47.850  30.014  26.925  1.00  0.00     0.031 C 
ATOM     55  C   UNL A   1      43.833  30.548  30.259  1.00  0.00     0.029 A 
ATOM     56  C   UNL A   1      43.716  30.922  28.928  1.00  0.00     0.049 A 
ATOM     57  H   UNL A   1      41.983  30.958  27.733  1.00  0.00     0.167 HD
ATOM     58  C   UNL A   1      45.808  30.799  27.724  1.00  0.00     0.074 A 
ATOM     59  C   UNL A   1      47.066  31.101  27.061  1.00  0.00     0.031 C 
ATOM     60  C   UNL A   1      44.647  31.486  27.947  1.00  0.00     0.034 A 
BRANCH  47  61
ATOM     61  C   UNL A   1      39.128  29.763  30.222  1.00  0.00     0.023 A 
ATOM     62  C   UNL A   1      38.863  28.847  31.267  1.00  0.00     0.012 A 
ATOM     63  C   UNL A   1      38.137  30.767  30.031  1.00  0.00     0.148 A 
ATOM     64  C   UNL A   1      37.704  28.903  32.053  1.00  0.00     0.002 A 
ATOM     65  C   UNL A   1      37.001  30.855  30.850  1.00  0.00     0.091 A 
ATOM     66  F   UNL A   1      38.230  31.631  29.022  1.00  0.00    -0.205 F 
ATOM     67  C   UNL A   1      36.776  29.913  31.852  1.00  0.00     0.022 A 
BRANCH  65  68
ATOM     68  S   UNL A   1      35.758  32.157  30.679  1.00  0.00     0.127 S 
ATOM     69  O   UNL A   1      36.578  33.370  30.679  1.00  0.00    -0.237 OA
ATOM     70  O   UNL A   1      35.150  31.839  29.387  1.00  0.00    -0.237 OA
ATOM     71  O   UNL A   1      34.858  32.032  31.820  1.00  0.00    -0.744 OA
ENDBRANCH  65  68
ENDBRANCH  47  61
BRANCH  48  72
ATOM     72  C   UNL A   1      48.055  26.722  26.557  1.00  0.00     0.023 A 
ATOM     73  C   UNL A   1      47.871  27.150  25.222  1.00  0.00     0.012 A 
ATOM     74  C   UNL A   1      49.189  25.979  26.876  1.00  0.00     0.148 A 
ATOM     75  C   UNL A   1      48.896  27.040  24.276  1.00  0.00     0.002 A 
ATOM     76  C   UNL A   1      50.240  25.960  25.964  1.00  0.00     0.091 A 
ATOM     77  F   UNL A   1      49.321  25.502  28.120  1.00  0.00    -0.205 F 
ATOM     78  C   UNL A   1      50.101  26.486  24.662  1.00  0.00     0.022 A 
BRANCH  76  79
ATOM     79  S   UNL A   1      51.863  26.303  26.635  1.00  0.00     0.127 S 
ATOM     80  O   UNL A   1      52.532  25.008  26.652  1.00  0.00    -0.237 OA
ATOM     81  O   UNL A   1      52.256  27.185  25.542  1.00  0.00    -0.237 OA
ATOM     82  O   UNL A   1      51.662  26.925  27.933  1.00  0.00    -0.744 OA
ENDBRANCH  76  79
ENDBRANCH  48  72
BRANCH  60  83
ATOM     83  C   UNL A   1      44.297  32.771  27.231  1.00  0.00     0.023 A 
ATOM     84  C   UNL A   1      44.195  32.829  25.826  1.00  0.00     0.012 A 
ATOM     85  C   UNL A   1      43.895  33.923  27.950  1.00  0.00     0.148 A 
ATOM     86  C   UNL A   1      43.821  33.999  25.161  1.00  0.00     0.002 A 
ATOM     87  C   UNL A   1      43.391  35.036  27.288  1.00  0.00     0.091 A 
ATOM     88  F   UNL A   1      44.014  33.955  29.284  1.00  0.00    -0.205 F 
ATOM     89  C   UNL A   1      43.400  35.098  25.893  1.00  0.00     0.022 A 
BRANCH  87  90
ATOM     90  S   UNL A   1      42.569  36.361  28.181  1.00  0.00     0.127 S 
ATOM     91  O   UNL A   1      42.120  37.221  27.090  1.00  0.00    -0.237 OA
ATOM     92  O   UNL A   1      41.497  35.643  28.875  1.00  0.00    -0.237 OA
ATOM     93  O   UNL A   1      43.580  36.921  29.065  1.00  0.00    -0.744 OA
ENDBRANCH  87  90
ENDBRANCH  60  83
ENDBRANCH  34  35
ENDBRANCH  27  29
ENDBRANCH  26  27
ENDBRANCH  25  26
ENDBRANCH   1  25
TORSDOF 19
ENDMDL
MODEL 2
REMARK VINA RESULT:     -11.4      4.325     10.075
REMARK SMILES Cc1ccc(C(=O)OCCOCCOC(=O)c2ccc(-c3c4nc(c(-c5cccc(S(=O)(=O)[O-])c5F)c5ccc([nH]5)c(-c5cccc(S(=O)(=O)[O-])c5F)c5nc(c(-c6cccc(S(=O)(=O)[O-])c6F)c6ccc3[nH]6)C=C5)C=C4)cc2)cc1NC(=O)c1ccc(Br)o1
REMARK SMILES IDX 12 1 11 2 10 3 9 4 8 5 6 6 7 7 5 8 1 9 2 10 3 11 81 12 4 13
REMARK SMILES IDX 80 14 82 15 83 16 84 18 85 19 86 20 90 21 87 22 88 23 89 24
REMARK SMILES IDX 13 25 14 26 15 27 16 28 17 29 18 30 79 31 19 32 78 33 20 34
REMARK SMILES IDX 21 35 22 36 72 37 23 38 77 39 71 40 73 41 24 42 76 43 70 44
REMARK SMILES IDX 69 45 25 47 57 48 37 49 56 50 38 51 41 52 55 53 74 54 39 55
REMARK SMILES IDX 40 56 54 58 75 59 42 60 26 61 27 62 35 63 28 64 30 65 36 66
REMARK SMILES IDX 29 67 31 68 32 69 33 70 34 71 58 72 59 73 67 74 60 75 62 76
REMARK SMILES IDX 68 77 61 78 63 79 64 80 65 81 66 82 43 83 44 84 52 85 45 86
REMARK SMILES IDX 47 87 53 88 46 89 48 90 49 91 50 92 51 93
REMARK H PARENT 82 17 73 46 41 57
REMARK Flexibility Score: inf
ROOT
ATOM      1  C   UNL A   1      33.005  31.691  27.263  1.00  0.00     0.202 C 
ENDROOT
BRANCH   1   2
ATOM      2  O   UNL A   1      33.166  30.339  27.661  1.00  0.00    -0.374 OA
BRANCH   2   3
ATOM      3  C   UNL A   1      33.670  29.516  26.641  1.00  0.00     0.202 C 
BRANCH   3   4
ATOM      4  C   UNL A   1      33.068  29.701  25.233  1.00  0.00     0.261 C 
BRANCH   4   5
ATOM      5  O   UNL A   1      32.843  28.475  24.594  1.00  0.00    -0.460 OA
BRANCH   5   6
ATOM      6  C   UNL A   1      31.538  28.157  24.650  1.00  0.00     0.338 C 
ATOM      7  O   UNL A   1      30.589  28.740  24.153  1.00  0.00    -0.246 OA
BRANCH   6   8
ATOM      8  C   UNL A   1      31.486  26.824  25.223  1.00  0.00     0.062 A 
ATOM      9  C   UNL A   1      31.018  22.891  26.726  1.00  0.00     0.046 C 
ATOM     10  C   UNL A   1      31.303  24.286  26.254  1.00  0.00    -0.027 A 
ATOM     11  C   UNL A   1      30.154  25.105  26.126  1.00  0.00     0.006 A 
ATOM     12  C   UNL A   1      32.578  24.761  25.872  1.00  0.00     0.045 A 
ATOM     13  C   UNL A   1      30.253  26.396  25.667  1.00  0.00     0.016 A 
ATOM     14  C   UNL A   1      32.612  25.989  25.247  1.00  0.00     0.042 A 
BRANCH  12  15
ATOM     15  N   UNL A   1      33.739  24.019  26.182  1.00  0.00    -0.319 N 
ATOM     16  C   UNL A   1      34.347  22.853  25.739  1.00  0.00     0.291 C 
ATOM     17  H   UNL A   1      34.256  24.442  26.905  1.00  0.00     0.170 HD
ATOM     18  O   UNL A   1      35.436  22.603  26.270  1.00  0.00    -0.265 OA
BRANCH  16  19
ATOM     19  C   UNL A   1      33.740  21.936  24.804  1.00  0.00     0.193 A 
ATOM     20  C   UNL A   1      33.145  22.059  23.561  1.00  0.00     0.057 A 
ATOM     21  O   UNL A   1      33.740  20.608  25.156  1.00  0.00    -0.444 OA
ATOM     22  C   UNL A   1      32.500  20.822  23.307  1.00  0.00     0.059 A 
ATOM     23  C   UNL A   1      32.973  19.947  24.253  1.00  0.00     0.170 A 
ATOM     24  Br  UNL A   1      32.590  18.124  24.333  1.00  0.00    -0.008 Br
ENDBRANCH  16  19
ENDBRANCH  12  15
ENDBRANCH   6   8
ENDBRANCH   5   6
ENDBRANCH   4   5
ENDBRANCH   3   4
ENDBRANCH   2   3
ENDBRANCH   1   2
BRANCH   1  25
ATOM     25  C   UNL A   1      33.840  32.893  27.944  1.00  0.00     0.261 C 
BRANCH  25  26
ATOM     26  O   UNL A   1      34.688  32.492  29.150  1.00  0.00    -0.460 OA
BRANCH  26  27
ATOM     27  C   UNL A   1      36.013  32.164  29.449  1.00  0.00     0.338 C 
ATOM     28  O   UNL A   1      36.837  32.893  29.914  1.00  0.00    -0.246 OA
BRANCH  27  29
ATOM     29  C   UNL A   1      36.341  30.702  28.997  1.00  0.00     0.060 A 
ATOM     30  C   UNL A   1      36.353  29.639  29.894  1.00  0.00     0.016 A 
ATOM     31  C   UNL A   1      36.900  30.376  27.781  1.00  0.00     0.016 A 
ATOM     32  C   UNL A   1      37.379  28.666  29.831  1.00  0.00     0.010 A 
ATOM     33  C   UNL A   1      38.028  29.554  27.793  1.00  0.00     0.010 A 
ATOM     34  C   UNL A   1      38.405  28.893  28.963  1.00  0.00    -0.014 A 
BRANCH  34  35
ATOM     35  C   UNL A   1      39.837  28.589  29.188  1.00  0.00     0.031 A 
ATOM     36  C   UNL A   1      40.232  27.166  28.969  1.00  0.00     0.074 A 
ATOM     37  C   UNL A   1      40.793  29.576  29.264  1.00  0.00     0.049 A 
ATOM     38  N   UNL A   1      41.391  26.659  29.201  1.00  0.00    -0.248 NA
ATOM     39  C   UNL A   1      39.273  26.156  28.508  1.00  0.00     0.031 C 
ATOM     40  C   UNL A   1      42.187  29.437  28.795  1.00  0.00     0.029 A 
ATOM     41  N   UNL A   1      40.772  30.931  29.679  1.00  0.00    -0.354 N 
ATOM     42  C   UNL A   1      41.417  25.417  28.590  1.00  0.00     0.074 A 
ATOM     43  C   UNL A   1      40.047  25.084  28.351  1.00  0.00     0.031 C 
ATOM     44  C   UNL A   1      42.900  30.526  29.129  1.00  0.00     0.029 A 
ATOM     45  C   UNL A   1      42.084  31.300  30.048  1.00  0.00     0.049 A 
ATOM     46  H   UNL A   1      39.980  31.514  29.706  1.00  0.00     0.167 HD
ATOM     47  C   UNL A   1      42.611  24.902  28.191  1.00  0.00     0.034 A 
ATOM     48  C   UNL A   1      42.544  31.700  31.280  1.00  0.00     0.034 A 
ATOM     49  C   UNL A   1      43.708  25.741  28.705  1.00  0.00     0.049 A 
ATOM     50  C   UNL A   1      43.540  30.685  31.856  1.00  0.00     0.074 A 
ATOM     51  C   UNL A   1      44.549  26.664  28.111  1.00  0.00     0.029 A 
ATOM     52  N   UNL A   1      43.819  25.943  30.081  1.00  0.00    -0.354 N 
ATOM     53  N   UNL A   1      43.826  29.556  31.263  1.00  0.00    -0.248 NA
ATOM     54  C   UNL A   1      44.272  30.819  33.118  1.00  0.00     0.031 C 
ATOM     55  C   UNL A   1      45.084  27.491  29.142  1.00  0.00     0.029 A 
ATOM     56  C   UNL A   1      44.611  27.044  30.367  1.00  0.00     0.049 A 
ATOM     57  H   UNL A   1      43.389  25.375  30.761  1.00  0.00     0.167 HD
ATOM     58  C   UNL A   1      44.594  28.769  32.061  1.00  0.00     0.074 A 
ATOM     59  C   UNL A   1      44.906  29.632  33.188  1.00  0.00     0.031 C 
ATOM     60  C   UNL A   1      44.837  27.458  31.755  1.00  0.00     0.034 A 
BRANCH  47  61
ATOM     61  C   UNL A   1      42.824  23.783  27.167  1.00  0.00     0.023 A 
ATOM     62  C   UNL A   1      43.562  24.128  26.010  1.00  0.00     0.012 A 
ATOM     63  C   UNL A   1      42.310  22.456  27.184  1.00  0.00     0.148 A 
ATOM     64  C   UNL A   1      43.762  23.242  24.943  1.00  0.00     0.002 A 
ATOM     65  C   UNL A   1      42.553  21.552  26.138  1.00  0.00     0.091 A 
ATOM     66  F   UNL A   1      41.525  22.043  28.177  1.00  0.00    -0.205 F 
ATOM     67  C   UNL A   1      43.268  21.950  25.010  1.00  0.00     0.022 A 
BRANCH  65  68
ATOM     68  S   UNL A   1      41.973  19.838  26.158  1.00  0.00     0.127 S 
ATOM     69  O   UNL A   1      42.660  19.265  24.999  1.00  0.00    -0.237 OA
ATOM     70  O   UNL A   1      42.467  19.359  27.450  1.00  0.00    -0.237 OA
ATOM     71  O   UNL A   1      40.521  19.885  26.043  1.00  0.00    -0.744 OA
ENDBRANCH  65  68
ENDBRANCH  47  61
BRANCH  48  72
ATOM     72  C   UNL A   1      41.622  32.537  32.097  1.00  0.00     0.023 A 
ATOM     73  C   UNL A   1      41.198  33.772  31.552  1.00  0.00     0.012 A 
ATOM     74  C   UNL A   1      40.843  31.930  33.078  1.00  0.00     0.148 A 
ATOM     75  C   UNL A   1      39.919  34.277  31.809  1.00  0.00     0.002 A 
ATOM     76  C   UNL A   1      39.539  32.382  33.254  1.00  0.00     0.091 A 
ATOM     77  F   UNL A   1      41.287  30.805  33.653  1.00  0.00    -0.205 F 
ATOM     78  C   UNL A   1      39.070  33.555  32.626  1.00  0.00     0.022 A 
BRANCH  76  79
ATOM     79  S   UNL A   1      38.272  31.118  33.300  1.00  0.00     0.127 S 
ATOM     80  O   UNL A   1      37.030  31.836  33.045  1.00  0.00    -0.237 OA
ATOM     81  O   UNL A   1      38.803  30.380  32.160  1.00  0.00    -0.237 OA
ATOM     82  O   UNL A   1      38.369  30.469  34.597  1.00  0.00    -0.744 OA
ENDBRANCH  76  79
ENDBRANCH  48  72
BRANCH  60  83
ATOM     83  C   UNL A   1      45.313  26.446  32.773  1.00  0.00     0.023 A 
ATOM     84  C   UNL A   1      46.684  26.182  32.967  1.00  0.00     0.012 A 
ATOM     85  C   UNL A   1      44.411  25.848  33.686  1.00  0.00     0.148 A 
ATOM     86  C   UNL A   1      47.133  25.288  33.942  1.00  0.00     0.002 A 
ATOM     87  C   UNL A   1      44.875  25.071  34.740  1.00  0.00     0.091 A 
ATOM     88  F   UNL A   1      43.090  26.016  33.529  1.00  0.00    -0.205 F 
ATOM     89  C   UNL A   1      46.229  24.747  34.841  1.00  0.00     0.022 A 
BRANCH  87  90
ATOM     90  S   UNL A   1      43.793  24.588  36.091  1.00  0.00     0.127 S 
ATOM     91  O   UNL A   1      44.734  23.966  37.018  1.00  0.00    -0.237 OA
ATOM     92  O   UNL A   1      43.260  25.878  36.533  1.00  0.00    -0.237 OA
ATOM     93  O   UNL A   1      42.800  23.704  35.498  1.00  0.00    -0.744 OA
ENDBRANCH  87  90
ENDBRANCH  60  83
ENDBRANCH  34  35
ENDBRANCH  27  29
ENDBRANCH  26  27
ENDBRANCH  25  26
ENDBRANCH   1  25
TORSDOF 19
ENDMDL
MODEL 3
REMARK VINA RESULT:     -11.4      4.738     10.711
REMARK SMILES Cc1ccc(C(=O)OCCOCCOC(=O)c2ccc(-c3c4nc(c(-c5cccc(S(=O)(=O)[O-])c5F)c5ccc([nH]5)c(-c5cccc(S(=O)(=O)[O-])c5F)c5nc(c(-c6cccc(S(=O)(=O)[O-])c6F)c6ccc3[nH]6)C=C5)C=C4)cc2)cc1NC(=O)c1ccc(Br)o1
REMARK SMILES IDX 12 1 11 2 10 3 9 4 8 5 6 6 7 7 5 8 1 9 2 10 3 11 81 12 4 13
REMARK SMILES IDX 80 14 82 15 83 16 84 18 85 19 86 20 90 21 87 22 88 23 89 24
REMARK SMILES IDX 13 25 14 26 15 27 16 28 17 29 18 30 79 31 19 32 78 33 20 34
REMARK SMILES IDX 21 35 22 36 72 37 23 38 77 39 71 40 73 41 24 42 76 43 70 44
REMARK SMILES IDX 69 45 25 47 57 48 37 49 56 50 38 51 41 52 55 53 74 54 39 55
REMARK SMILES IDX 40 56 54 58 75 59 42 60 26 61 27 62 35 63 28 64 30 65 36 66
REMARK SMILES IDX 29 67 31 68 32 69 33 70 34 71 58 72 59 73 67 74 60 75 62 76
REMARK SMILES IDX 68 77 61 78 63 79 64 80 65 81 66 82 43 83 44 84 52 85 45 86
REMARK SMILES IDX 47 87 53 88 46 89 48 90 49 91 50 92 51 93
REMARK H PARENT 82 17 73 46 41 57
REMARK Flexibility Score: inf
ROOT
ATOM      1  C   UNL A   1      32.070  30.015  26.082  1.00  0.00     0.202 C 
ENDROOT
BRANCH   1   2
ATOM      2  O   UNL A   1      31.210  30.000  24.954  1.00  0.00    -0.374 OA
BRANCH   2   3
ATOM      3  C   UNL A   1      31.107  28.737  24.350  1.00  0.00     0.202 C 
BRANCH   3   4
ATOM      4  C   UNL A   1      32.168  28.383  23.287  1.00  0.00     0.261 C 
BRANCH   4   5
ATOM      5  O   UNL A   1      32.905  27.245  23.639  1.00  0.00    -0.460 OA
BRANCH   5   6
ATOM      6  C   UNL A   1      32.198  26.134  23.367  1.00  0.00     0.338 C 
ATOM      7  O   UNL A   1      31.618  25.833  22.338  1.00  0.00    -0.246 OA
BRANCH   6   8
ATOM      8  C   UNL A   1      32.462  25.224  24.468  1.00  0.00     0.062 A 
ATOM      9  C   UNL A   1      32.877  22.547  27.724  1.00  0.00     0.046 C 
ATOM     10  C   UNL A   1      32.863  23.491  26.558  1.00  0.00    -0.027 A 
ATOM     11  C   UNL A   1      31.821  24.451  26.597  1.00  0.00     0.006 A 
ATOM     12  C   UNL A   1      33.737  23.414  25.450  1.00  0.00     0.045 A 
ATOM     13  C   UNL A   1      31.658  25.358  25.578  1.00  0.00     0.016 A 
ATOM     14  C   UNL A   1      33.430  24.214  24.371  1.00  0.00     0.042 A 
BRANCH  12  15
ATOM     15  N   UNL A   1      34.886  22.594  25.502  1.00  0.00    -0.319 N 
ATOM     16  C   UNL A   1      35.222  21.295  25.150  1.00  0.00     0.291 C 
ATOM     17  H   UNL A   1      35.653  23.072  25.891  1.00  0.00     0.170 HD
ATOM     18  O   UNL A   1      36.413  21.005  25.319  1.00  0.00    -0.265 OA
BRANCH  16  19
ATOM     19  C   UNL A   1      34.266  20.309  24.708  1.00  0.00     0.193 A 
ATOM     20  C   UNL A   1      32.936  20.339  24.327  1.00  0.00     0.057 A 
ATOM     21  O   UNL A   1      34.721  19.017  24.593  1.00  0.00    -0.444 OA
ATOM     22  C   UNL A   1      32.507  18.989  24.280  1.00  0.00     0.059 A 
ATOM     23  C   UNL A   1      33.645  18.226  24.351  1.00  0.00     0.170 A 
ATOM     24  Br  UNL A   1      33.720  16.371  24.190  1.00  0.00    -0.008 Br
ENDBRANCH  16  19
ENDBRANCH  12  15
ENDBRANCH   6   8
ENDBRANCH   5   6
ENDBRANCH   4   5
ENDBRANCH   3   4
ENDBRANCH   2   3
ENDBRANCH   1   2
BRANCH   1  25
ATOM     25  C   UNL A   1      32.346  31.357  26.934  1.00  0.00     0.261 C 
BRANCH  25  26
ATOM     26  O   UNL A   1      33.804  31.586  27.332  1.00  0.00    -0.460 OA
BRANCH  26  27
ATOM     27  C   UNL A   1      34.890  30.861  27.830  1.00  0.00     0.338 C 
ATOM     28  O   UNL A   1      35.163  29.727  27.575  1.00  0.00    -0.246 OA
BRANCH  27  29
ATOM     29  C   UNL A   1      35.688  31.704  28.879  1.00  0.00     0.060 A 
ATOM     30  C   UNL A   1      36.745  32.530  28.511  1.00  0.00     0.016 A 
ATOM     31  C   UNL A   1      35.615  31.511  30.241  1.00  0.00     0.016 A 
ATOM     32  C   UNL A   1      37.927  32.562  29.289  1.00  0.00     0.010 A 
ATOM     33  C   UNL A   1      36.819  31.368  30.935  1.00  0.00     0.010 A 
ATOM     34  C   UNL A   1      38.030  31.664  30.309  1.00  0.00    -0.014 A 
BRANCH  34  35
ATOM     35  C   UNL A   1      39.254  30.943  30.732  1.00  0.00     0.031 A 
ATOM     36  C   UNL A   1      39.456  29.604  30.106  1.00  0.00     0.074 A 
ATOM     37  C   UNL A   1      40.289  31.576  31.382  1.00  0.00     0.049 A 
ATOM     38  N   UNL A   1      40.388  28.766  30.398  1.00  0.00    -0.248 NA
ATOM     39  C   UNL A   1      38.533  29.069  29.100  1.00  0.00     0.031 C 
ATOM     40  C   UNL A   1      41.717  31.227  31.231  1.00  0.00     0.029 A 
ATOM     41  N   UNL A   1      40.366  32.696  32.247  1.00  0.00    -0.354 N 
ATOM     42  C   UNL A   1      40.396  27.808  29.399  1.00  0.00     0.074 A 
ATOM     43  C   UNL A   1      39.129  27.933  28.745  1.00  0.00     0.031 C 
ATOM     44  C   UNL A   1      42.462  31.937  32.095  1.00  0.00     0.029 A 
ATOM     45  C   UNL A   1      41.543  32.579  33.018  1.00  0.00     0.049 A 
ATOM     46  H   UNL A   1      39.711  33.429  32.302  1.00  0.00     0.167 HD
ATOM     47  C   UNL A   1      41.552  27.146  29.127  1.00  0.00     0.034 A 
ATOM     48  C   UNL A   1      41.662  32.450  34.381  1.00  0.00     0.034 A 
ATOM     49  C   UNL A   1      42.560  27.472  30.151  1.00  0.00     0.049 A 
ATOM     50  C   UNL A   1      42.251  31.085  34.760  1.00  0.00     0.074 A 
ATOM     51  C   UNL A   1      43.684  28.279  30.147  1.00  0.00     0.029 A 
ATOM     52  N   UNL A   1      42.275  27.209  31.491  1.00  0.00    -0.354 N 
ATOM     53  N   UNL A   1      42.515  30.158  33.878  1.00  0.00    -0.248 NA
ATOM     54  C   UNL A   1      42.571  30.633  36.116  1.00  0.00     0.031 C 
ATOM     55  C   UNL A   1      44.004  28.583  31.502  1.00  0.00     0.029 A 
ATOM     56  C   UNL A   1      43.111  27.924  32.334  1.00  0.00     0.049 A 
ATOM     57  H   UNL A   1      41.570  26.593  31.797  1.00  0.00     0.167 HD
ATOM     58  C   UNL A   1      42.860  28.993  34.488  1.00  0.00     0.074 A 
ATOM     59  C   UNL A   1      42.948  29.359  35.892  1.00  0.00     0.031 C 
ATOM     60  C   UNL A   1      42.966  27.822  33.789  1.00  0.00     0.034 A 
BRANCH  47  61
ATOM     61  C   UNL A   1      41.881  26.377  27.844  1.00  0.00     0.023 A 
ATOM     62  C   UNL A   1      42.115  27.161  26.690  1.00  0.00     0.012 A 
ATOM     63  C   UNL A   1      41.907  24.970  27.635  1.00  0.00     0.148 A 
ATOM     64  C   UNL A   1      42.337  26.603  25.424  1.00  0.00     0.002 A 
ATOM     65  C   UNL A   1      42.180  24.409  26.378  1.00  0.00     0.091 A 
ATOM     66  F   UNL A   1      41.613  24.130  28.626  1.00  0.00    -0.205 F 
ATOM     67  C   UNL A   1      42.380  25.227  25.267  1.00  0.00     0.022 A 
BRANCH  65  68
ATOM     68  S   UNL A   1      42.287  22.626  26.092  1.00  0.00     0.127 S 
ATOM     69  O   UNL A   1      40.882  22.218  26.150  1.00  0.00    -0.237 OA
ATOM     70  O   UNL A   1      42.879  22.562  24.755  1.00  0.00    -0.237 OA
ATOM     71  O   UNL A   1      43.123  22.081  27.153  1.00  0.00    -0.744 OA
ENDBRANCH  65  68
ENDBRANCH  47  61
BRANCH  48  72
ATOM     72  C   UNL A   1      40.684  33.209  35.211  1.00  0.00     0.023 A 
ATOM     73  C   UNL A   1      41.019  34.534  35.575  1.00  0.00     0.012 A 
ATOM     74  C   UNL A   1      39.344  32.833  35.196  1.00  0.00     0.148 A 
ATOM     75  C   UNL A   1      40.038  35.523  35.699  1.00  0.00     0.002 A 
ATOM     76  C   UNL A   1      38.380  33.836  35.222  1.00  0.00     0.091 A 
ATOM     77  F   UNL A   1      39.033  31.557  34.933  1.00  0.00    -0.205 F 
ATOM     78  C   UNL A   1      38.718  35.182  35.475  1.00  0.00     0.022 A 
BRANCH  76  79
ATOM     79  S   UNL A   1      37.087  33.710  33.991  1.00  0.00     0.127 S 
ATOM     80  O   UNL A   1      36.467  32.416  34.244  1.00  0.00    -0.237 OA
ATOM     81  O   UNL A   1      36.340  34.859  34.490  1.00  0.00    -0.237 OA
ATOM     82  O   UNL A   1      37.722  33.862  32.693  1.00  0.00    -0.744 OA
ENDBRANCH  76  79
ENDBRANCH  48  72
BRANCH  60  83
ATOM     83  C   UNL A   1      42.932  26.461  34.447  1.00  0.00     0.023 A 
ATOM     84  C   UNL A   1      41.799  26.010  35.155  1.00  0.00     0.012 A 
ATOM     85  C   UNL A   1      43.971  25.521  34.238  1.00  0.00     0.148 A 
ATOM     86  C   UNL A   1      41.741  24.734  35.721  1.00  0.00     0.002 A 
ATOM     87  C   UNL A   1      43.847  24.211  34.683  1.00  0.00     0.091 A 
ATOM     88  F   UNL A   1      45.098  25.897  33.618  1.00  0.00    -0.205 F 
ATOM     89  C   UNL A   1      42.758  23.828  35.469  1.00  0.00     0.022 A 
BRANCH  87  90
ATOM     90  S   UNL A   1      44.984  22.929  34.142  1.00  0.00     0.127 S 
ATOM     91  O   UNL A   1      44.888  23.040  32.689  1.00  0.00    -0.237 OA
ATOM     92  O   UNL A   1      46.254  23.388  34.709  1.00  0.00    -0.237 OA
ATOM     93  O   UNL A   1      44.484  21.693  34.725  1.00  0.00    -0.744 OA
ENDBRANCH  87  90
ENDBRANCH  60  83
ENDBRANCH  34  35
ENDBRANCH  27  29
ENDBRANCH  26  27
ENDBRANCH  25  26
ENDBRANCH   1  25
TORSDOF 19
ENDMDL
