MODEL 1
REMARK VINA RESULT:     -11.9      0.000      0.000
REMARK SMILES O=C(OCCOCCOC(=O)c1ccc(N[C@@H]2CCCS(=O)(=O)C2)c(F)c1F)c1ccc(-c2c3nc(c(-c4cccc(S(=O)(=O)[O-])c4F)c4ccc([nH]4)c(-c4cccc(S(=O)(=O)[O-])c4F)c4nc(c(-c5cccc(S(=O)(=O)[O-])c5F)c5ccc2[nH]5)C=C4)C=C3)cc1
REMARK SMILES IDX 5 1 4 2 3 3 2 4 1 5 29 6 30 7 91 8 31 9 90 10 32 11 33 12
REMARK SMILES IDX 34 13 84 14 35 15 89 16 83 17 85 18 36 19 88 20 82 21 81 22
REMARK SMILES IDX 37 24 69 25 49 26 68 27 50 28 53 29 67 30 86 31 51 32 52 33
REMARK SMILES IDX 66 35 87 36 54 37 38 38 39 39 47 40 40 41 42 42 48 43 41 44
REMARK SMILES IDX 43 45 44 46 45 47 46 48 70 49 71 50 79 51 72 52 74 53 80 54
REMARK SMILES IDX 73 55 75 56 76 57 77 58 78 59 55 60 56 61 64 62 57 63 59 64
REMARK SMILES IDX 65 65 58 66 60 67 61 68 62 69 63 70 6 71 7 72 8 73 9 74
REMARK SMILES IDX 10 75 11 76 12 77 13 78 27 79 14 80 25 81 28 82 15 83 26 84
REMARK SMILES IDX 16 85 17 87 18 88 24 89 19 90 21 91 20 92 22 93 23 94
REMARK H PARENT 85 23 53 34 16 86
REMARK Flexibility Score: inf
ROOT
ATOM      1  C   UNL A   1      34.786  20.668  25.057  1.00  0.00     0.202 C 
ENDROOT
BRANCH   1   2
ATOM      2  C   UNL A   1      36.268  20.296  24.966  1.00  0.00     0.261 C 
BRANCH   2   3
ATOM      3  O   UNL A   1      37.056  21.225  25.728  1.00  0.00    -0.460 OA
BRANCH   3   4
ATOM      4  C   UNL A   1      38.400  21.235  25.898  1.00  0.00     0.338 C 
ATOM      5  O   UNL A   1      39.017  20.183  25.742  1.00  0.00    -0.246 OA
BRANCH   4   6
ATOM      6  C   UNL A   1      39.169  22.457  26.281  1.00  0.00     0.060 A 
ATOM      7  C   UNL A   1      40.444  22.444  26.852  1.00  0.00     0.016 A 
ATOM      8  C   UNL A   1      38.608  23.701  25.954  1.00  0.00     0.016 A 
ATOM      9  C   UNL A   1      41.116  23.613  27.161  1.00  0.00     0.010 A 
ATOM     10  C   UNL A   1      39.300  24.889  26.214  1.00  0.00     0.010 A 
ATOM     11  C   UNL A   1      40.553  24.842  26.835  1.00  0.00    -0.014 A 
BRANCH  11  12
ATOM     12  C   UNL A   1      41.287  26.054  27.228  1.00  0.00     0.031 A 
ATOM     13  C   UNL A   1      40.614  27.035  28.133  1.00  0.00     0.074 A 
ATOM     14  C   UNL A   1      42.574  26.189  26.862  1.00  0.00     0.049 A 
ATOM     15  N   UNL A   1      41.062  28.167  28.599  1.00  0.00    -0.248 NA
ATOM     16  C   UNL A   1      39.256  26.688  28.589  1.00  0.00     0.031 C 
ATOM     17  C   UNL A   1      43.325  25.221  26.057  1.00  0.00     0.029 A 
ATOM     18  N   UNL A   1      43.484  27.176  27.129  1.00  0.00    -0.354 N 
ATOM     19  C   UNL A   1      40.027  28.692  29.360  1.00  0.00     0.074 A 
ATOM     20  C   UNL A   1      38.933  27.749  29.312  1.00  0.00     0.031 C 
ATOM     21  C   UNL A   1      44.584  25.660  25.903  1.00  0.00     0.029 A 
ATOM     22  C   UNL A   1      44.710  26.964  26.542  1.00  0.00     0.049 A 
ATOM     23  H   UNL A   1      43.281  27.961  27.687  1.00  0.00     0.167 HD
ATOM     24  C   UNL A   1      40.000  29.865  30.033  1.00  0.00     0.034 A 
ATOM     25  C   UNL A   1      45.795  27.758  26.503  1.00  0.00     0.034 A 
ATOM     26  C   UNL A   1      41.110  30.775  30.068  1.00  0.00     0.049 A 
ATOM     27  C   UNL A   1      45.720  29.078  27.223  1.00  0.00     0.074 A 
ATOM     28  C   UNL A   1      41.195  32.012  30.675  1.00  0.00     0.029 A 
ATOM     29  N   UNL A   1      42.335  30.537  29.457  1.00  0.00    -0.354 N 
ATOM     30  N   UNL A   1      44.742  29.562  27.952  1.00  0.00    -0.248 NA
ATOM     31  C   UNL A   1      46.893  29.955  27.127  1.00  0.00     0.031 C 
ATOM     32  C   UNL A   1      42.468  32.533  30.412  1.00  0.00     0.029 A 
ATOM     33  C   UNL A   1      43.183  31.608  29.666  1.00  0.00     0.049 A 
ATOM     34  H   UNL A   1      42.566  29.725  28.951  1.00  0.00     0.167 HD
ATOM     35  C   UNL A   1      45.186  30.792  28.420  1.00  0.00     0.074 A 
ATOM     36  C   UNL A   1      46.534  30.963  27.912  1.00  0.00     0.031 C 
ATOM     37  C   UNL A   1      44.537  31.710  29.179  1.00  0.00     0.034 A 
BRANCH  24  38
ATOM     38  C   UNL A   1      38.720  30.223  30.735  1.00  0.00     0.023 A 
ATOM     39  C   UNL A   1      38.460  29.725  32.028  1.00  0.00     0.012 A 
ATOM     40  C   UNL A   1      37.761  31.035  30.100  1.00  0.00     0.148 A 
ATOM     41  C   UNL A   1      37.248  30.001  32.663  1.00  0.00     0.002 A 
ATOM     42  C   UNL A   1      36.571  31.336  30.753  1.00  0.00     0.091 A 
ATOM     43  F   UNL A   1      38.015  31.472  28.858  1.00  0.00    -0.205 F 
ATOM     44  C   UNL A   1      36.307  30.809  32.028  1.00  0.00     0.022 A 
BRANCH  42  45
ATOM     45  S   UNL A   1      35.319  32.407  30.040  1.00  0.00     0.127 S 
ATOM     46  O   UNL A   1      34.377  32.539  31.150  1.00  0.00    -0.237 OA
ATOM     47  O   UNL A   1      36.085  33.617  29.743  1.00  0.00    -0.237 OA
ATOM     48  O   UNL A   1      34.809  31.707  28.869  1.00  0.00    -0.744 OA
ENDBRANCH  42  45
ENDBRANCH  24  38
BRANCH  25  49
ATOM     49  C   UNL A   1      47.019  27.331  25.765  1.00  0.00     0.023 A 
ATOM     50  C   UNL A   1      47.968  26.507  26.399  1.00  0.00     0.012 A 
ATOM     51  C   UNL A   1      47.233  27.712  24.424  1.00  0.00     0.148 A 
ATOM     52  C   UNL A   1      49.118  26.093  25.722  1.00  0.00     0.002 A 
ATOM     53  C   UNL A   1      48.350  27.248  23.737  1.00  0.00     0.091 A 
ATOM     54  F   UNL A   1      46.334  28.516  23.840  1.00  0.00    -0.205 F 
ATOM     55  C   UNL A   1      49.303  26.453  24.389  1.00  0.00     0.022 A 
BRANCH  53  56
ATOM     56  S   UNL A   1      48.592  27.557  21.984  1.00  0.00     0.127 S 
ATOM     57  O   UNL A   1      49.796  28.384  21.988  1.00  0.00    -0.237 OA
ATOM     58  O   UNL A   1      48.778  26.203  21.458  1.00  0.00    -0.237 OA
ATOM     59  O   UNL A   1      47.371  28.211  21.530  1.00  0.00    -0.744 OA
ENDBRANCH  53  56
ENDBRANCH  25  49
BRANCH  37  60
ATOM     60  C   UNL A   1      45.288  32.966  29.526  1.00  0.00     0.023 A 
ATOM     61  C   UNL A   1      46.131  32.984  30.654  1.00  0.00     0.012 A 
ATOM     62  C   UNL A   1      45.230  34.087  28.678  1.00  0.00     0.148 A 
ATOM     63  C   UNL A   1      46.888  34.117  30.946  1.00  0.00     0.002 A 
ATOM     64  C   UNL A   1      46.026  35.192  28.948  1.00  0.00     0.091 A 
ATOM     65  F   UNL A   1      44.402  34.050  27.623  1.00  0.00    -0.205 F 
ATOM     66  C   UNL A   1      46.848  35.212  30.087  1.00  0.00     0.022 A 
BRANCH  64  67
ATOM     67  S   UNL A   1      46.115  36.598  27.837  1.00  0.00     0.127 S 
ATOM     68  O   UNL A   1      46.457  35.955  26.569  1.00  0.00    -0.237 OA
ATOM     69  O   UNL A   1      44.755  37.134  27.903  1.00  0.00    -0.237 OA
ATOM     70  O   UNL A   1      47.137  37.479  28.388  1.00  0.00    -0.744 OA
ENDBRANCH  64  67
ENDBRANCH  37  60
ENDBRANCH  11  12
ENDBRANCH   4   6
ENDBRANCH   3   4
ENDBRANCH   2   3
ENDBRANCH   1   2
BRANCH   1  71
ATOM     71  O   UNL A   1      34.443  21.505  26.158  1.00  0.00    -0.374 OA
BRANCH  71  72
ATOM     72  C   UNL A   1      33.057  21.828  26.317  1.00  0.00     0.202 C 
BRANCH  72  73
ATOM     73  C   UNL A   1      32.726  23.014  25.404  1.00  0.00     0.261 C 
BRANCH  73  74
ATOM     74  O   UNL A   1      32.927  24.215  26.166  1.00  0.00    -0.460 OA
BRANCH  74  75
ATOM     75  C   UNL A   1      33.913  25.029  25.700  1.00  0.00     0.341 C 
ATOM     76  O   UNL A   1      35.077  24.738  25.503  1.00  0.00    -0.246 OA
BRANCH  75  77
ATOM     77  C   UNL A   1      33.268  26.301  25.324  1.00  0.00     0.099 A 
ATOM     78  C   UNL A   1      32.451  26.961  26.241  1.00  0.00     0.021 A 
ATOM     79  C   UNL A   1      33.384  26.800  24.030  1.00  0.00     0.175 A 
ATOM     80  C   UNL A   1      31.767  28.111  25.864  1.00  0.00     0.030 A 
ATOM     81  C   UNL A   1      32.694  27.957  23.666  1.00  0.00     0.182 A 
ATOM     82  F   UNL A   1      34.113  26.166  23.100  1.00  0.00    -0.203 F 
ATOM     83  C   UNL A   1      31.891  28.660  24.581  1.00  0.00     0.074 A 
ATOM     84  F   UNL A   1      32.811  28.426  22.411  1.00  0.00    -0.201 F 
BRANCH  83  85
ATOM     85  N   UNL A   1      31.312  29.874  24.220  1.00  0.00    -0.379 N 
ATOM     86  H   UNL A   1      31.903  30.659  24.160  1.00  0.00     0.160 HD
BRANCH  85  87
ATOM     87  C   UNL A   1      29.883  30.073  23.921  1.00  0.00     0.094 C 
ATOM     88  C   UNL A   1      29.501  29.193  22.704  1.00  0.00     0.027 C 
ATOM     89  C   UNL A   1      29.561  31.569  23.943  1.00  0.00     0.161 C 
ATOM     90  C   UNL A   1      28.237  29.563  21.946  1.00  0.00     0.018 C 
ATOM     91  S   UNL A   1      28.103  32.016  23.056  1.00  0.00     0.152 S 
ATOM     92  C   UNL A   1      28.212  31.031  21.583  1.00  0.00     0.137 C 
ATOM     93  O   UNL A   1      28.232  33.406  22.660  1.00  0.00    -0.229 OA
ATOM     94  O   UNL A   1      26.954  31.565  23.816  1.00  0.00    -0.229 OA
ENDBRANCH  85  87
ENDBRANCH  83  85
ENDBRANCH  75  77
ENDBRANCH  74  75
ENDBRANCH  73  74
ENDBRANCH  72  73
ENDBRANCH  71  72
ENDBRANCH   1  71
TORSDOF 19
ENDMDL
MODEL 2
REMARK VINA RESULT:     -11.9      5.694      9.022
REMARK SMILES O=C(OCCOCCOC(=O)c1ccc(N[C@@H]2CCCS(=O)(=O)C2)c(F)c1F)c1ccc(-c2c3nc(c(-c4cccc(S(=O)(=O)[O-])c4F)c4ccc([nH]4)c(-c4cccc(S(=O)(=O)[O-])c4F)c4nc(c(-c5cccc(S(=O)(=O)[O-])c5F)c5ccc2[nH]5)C=C4)C=C3)cc1
REMARK SMILES IDX 5 1 4 2 3 3 2 4 1 5 29 6 30 7 91 8 31 9 90 10 32 11 33 12
REMARK SMILES IDX 34 13 84 14 35 15 89 16 83 17 85 18 36 19 88 20 82 21 81 22
REMARK SMILES IDX 37 24 69 25 49 26 68 27 50 28 53 29 67 30 86 31 51 32 52 33
REMARK SMILES IDX 66 35 87 36 54 37 38 38 39 39 47 40 40 41 42 42 48 43 41 44
REMARK SMILES IDX 43 45 44 46 45 47 46 48 70 49 71 50 79 51 72 52 74 53 80 54
REMARK SMILES IDX 73 55 75 56 76 57 77 58 78 59 55 60 56 61 64 62 57 63 59 64
REMARK SMILES IDX 65 65 58 66 60 67 61 68 62 69 63 70 6 71 7 72 8 73 9 74
REMARK SMILES IDX 10 75 11 76 12 77 13 78 27 79 14 80 25 81 28 82 15 83 26 84
REMARK SMILES IDX 16 85 17 87 18 88 24 89 19 90 21 91 20 92 22 93 23 94
REMARK H PARENT 85 23 53 34 16 86
REMARK Flexibility Score: inf
ROOT
ATOM      1  C   UNL A   1      31.951  30.207  25.992  1.00  0.00     0.202 C 
ENDROOT
BRANCH   1   2
ATOM      2  C   UNL A   1      31.468  31.456  26.734  1.00  0.00     0.261 C 
BRANCH   2   3
ATOM      3  O   UNL A   1      32.452  32.498  26.635  1.00  0.00    -0.460 OA
BRANCH   3   4
ATOM      4  C   UNL A   1      33.143  33.091  27.638  1.00  0.00     0.338 C 
ATOM      5  O   UNL A   1      32.781  34.201  28.022  1.00  0.00    -0.246 OA
BRANCH   4   6
ATOM      6  C   UNL A   1      34.335  32.469  28.291  1.00  0.00     0.060 A 
ATOM      7  C   UNL A   1      34.458  31.110  28.585  1.00  0.00     0.016 A 
ATOM      8  C   UNL A   1      35.443  33.296  28.533  1.00  0.00     0.016 A 
ATOM      9  C   UNL A   1      35.601  30.590  29.167  1.00  0.00     0.010 A 
ATOM     10  C   UNL A   1      36.622  32.773  29.073  1.00  0.00     0.010 A 
ATOM     11  C   UNL A   1      36.693  31.416  29.406  1.00  0.00    -0.014 A 
BRANCH  11  12
ATOM     12  C   UNL A   1      37.864  30.825  30.070  1.00  0.00     0.031 A 
ATOM     13  C   UNL A   1      38.112  31.152  31.507  1.00  0.00     0.074 A 
ATOM     14  C   UNL A   1      38.606  29.921  29.406  1.00  0.00     0.049 A 
ATOM     15  N   UNL A   1      39.078  30.755  32.287  1.00  0.00    -0.248 NA
ATOM     16  C   UNL A   1      37.129  32.033  32.162  1.00  0.00     0.031 C 
ATOM     17  C   UNL A   1      38.364  29.481  28.028  1.00  0.00     0.029 A 
ATOM     18  N   UNL A   1      39.699  29.196  29.798  1.00  0.00    -0.354 N 
ATOM     19  C   UNL A   1      38.851  31.377  33.506  1.00  0.00     0.074 A 
ATOM     20  C   UNL A   1      37.646  32.162  33.374  1.00  0.00     0.031 C 
ATOM     21  C   UNL A   1      39.278  28.557  27.694  1.00  0.00     0.029 A 
ATOM     22  C   UNL A   1      40.203  28.386  28.807  1.00  0.00     0.049 A 
ATOM     23  H   UNL A   1      40.087  29.250  30.701  1.00  0.00     0.167 HD
ATOM     24  C   UNL A   1      39.594  31.296  34.633  1.00  0.00     0.034 A 
ATOM     25  C   UNL A   1      41.310  27.622  28.800  1.00  0.00     0.034 A 
ATOM     26  C   UNL A   1      40.783  30.497  34.734  1.00  0.00     0.049 A 
ATOM     27  C   UNL A   1      42.144  27.587  30.053  1.00  0.00     0.074 A 
ATOM     28  C   UNL A   1      41.648  30.363  35.802  1.00  0.00     0.029 A 
ATOM     29  N   UNL A   1      41.273  29.693  33.711  1.00  0.00    -0.354 N 
ATOM     30  N   UNL A   1      41.915  28.168  31.208  1.00  0.00    -0.248 NA
ATOM     31  C   UNL A   1      43.375  26.790  30.011  1.00  0.00     0.031 C 
ATOM     32  C   UNL A   1      42.676  29.495  35.416  1.00  0.00     0.029 A 
ATOM     33  C   UNL A   1      42.435  29.066  34.119  1.00  0.00     0.049 A 
ATOM     34  H   UNL A   1      40.855  29.587  32.827  1.00  0.00     0.167 HD
ATOM     35  C   UNL A   1      42.963  27.792  32.038  1.00  0.00     0.074 A 
ATOM     36  C   UNL A   1      43.811  26.910  31.259  1.00  0.00     0.031 C 
ATOM     37  C   UNL A   1      43.219  28.156  33.320  1.00  0.00     0.034 A 
BRANCH  24  38
ATOM     38  C   UNL A   1      39.153  32.125  35.807  1.00  0.00     0.023 A 
ATOM     39  C   UNL A   1      39.591  33.458  35.936  1.00  0.00     0.012 A 
ATOM     40  C   UNL A   1      38.322  31.570  36.800  1.00  0.00     0.148 A 
ATOM     41  C   UNL A   1      39.237  34.215  37.054  1.00  0.00     0.002 A 
ATOM     42  C   UNL A   1      37.944  32.342  37.892  1.00  0.00     0.091 A 
ATOM     43  F   UNL A   1      37.943  30.290  36.674  1.00  0.00    -0.205 F 
ATOM     44  C   UNL A   1      38.411  33.660  38.028  1.00  0.00     0.022 A 
BRANCH  42  45
ATOM     45  S   UNL A   1      36.844  31.732  39.175  1.00  0.00     0.127 S 
ATOM     46  O   UNL A   1      37.588  32.072  40.386  1.00  0.00    -0.237 OA
ATOM     47  O   UNL A   1      35.642  32.535  38.952  1.00  0.00    -0.237 OA
ATOM     48  O   UNL A   1      36.681  30.308  38.921  1.00  0.00    -0.744 OA
ENDBRANCH  42  45
ENDBRANCH  24  38
BRANCH  25  49
ATOM     49  C   UNL A   1      41.685  26.846  27.582  1.00  0.00     0.023 A 
ATOM     50  C   UNL A   1      42.237  27.509  26.470  1.00  0.00     0.012 A 
ATOM     51  C   UNL A   1      41.525  25.446  27.530  1.00  0.00     0.148 A 
ATOM     52  C   UNL A   1      42.598  26.799  25.322  1.00  0.00     0.002 A 
ATOM     53  C   UNL A   1      41.940  24.737  26.407  1.00  0.00     0.091 A 
ATOM     54  F   UNL A   1      40.976  24.829  28.586  1.00  0.00    -0.205 F 
ATOM     55  C   UNL A   1      42.461  25.413  25.296  1.00  0.00     0.022 A 
BRANCH  53  56
ATOM     56  S   UNL A   1      41.921  22.941  26.348  1.00  0.00     0.127 S 
ATOM     57  O   UNL A   1      42.712  22.594  27.526  1.00  0.00    -0.237 OA
ATOM     58  O   UNL A   1      40.491  22.647  26.459  1.00  0.00    -0.237 OA
ATOM     59  O   UNL A   1      42.504  22.587  25.061  1.00  0.00    -0.744 OA
ENDBRANCH  53  56
ENDBRANCH  25  49
BRANCH  37  60
ATOM     60  C   UNL A   1      44.450  27.580  33.962  1.00  0.00     0.023 A 
ATOM     61  C   UNL A   1      45.662  28.295  33.910  1.00  0.00     0.012 A 
ATOM     62  C   UNL A   1      44.376  26.381  34.695  1.00  0.00     0.148 A 
ATOM     63  C   UNL A   1      46.794  27.808  34.561  1.00  0.00     0.002 A 
ATOM     64  C   UNL A   1      45.494  25.929  35.383  1.00  0.00     0.091 A 
ATOM     65  F   UNL A   1      43.215  25.709  34.709  1.00  0.00    -0.205 F 
ATOM     66  C   UNL A   1      46.705  26.636  35.309  1.00  0.00     0.022 A 
BRANCH  64  67
ATOM     67  S   UNL A   1      45.438  24.490  36.454  1.00  0.00     0.127 S 
ATOM     68  O   UNL A   1      44.628  24.980  37.569  1.00  0.00    -0.237 OA
ATOM     69  O   UNL A   1      44.775  23.497  35.608  1.00  0.00    -0.237 OA
ATOM     70  O   UNL A   1      46.824  24.178  36.776  1.00  0.00    -0.744 OA
ENDBRANCH  64  67
ENDBRANCH  37  60
ENDBRANCH  11  12
ENDBRANCH   4   6
ENDBRANCH   3   4
ENDBRANCH   2   3
ENDBRANCH   1   2
BRANCH   1  71
ATOM     71  O   UNL A   1      31.700  28.975  26.662  1.00  0.00    -0.374 OA
BRANCH  71  72
ATOM     72  C   UNL A   1      32.401  27.823  26.182  1.00  0.00     0.202 C 
BRANCH  72  73
ATOM     73  C   UNL A   1      31.643  27.259  24.974  1.00  0.00     0.261 C 
BRANCH  73  74
ATOM     74  O   UNL A   1      31.990  25.871  24.856  1.00  0.00    -0.460 OA
BRANCH  74  75
ATOM     75  C   UNL A   1      32.959  25.600  23.939  1.00  0.00     0.341 C 
ATOM     76  O   UNL A   1      33.436  26.366  23.124  1.00  0.00    -0.246 OA
BRANCH  75  77
ATOM     77  C   UNL A   1      33.441  24.236  24.225  1.00  0.00     0.099 A 
ATOM     78  C   UNL A   1      32.894  23.150  23.541  1.00  0.00     0.021 A 
ATOM     79  C   UNL A   1      34.363  24.008  25.242  1.00  0.00     0.175 A 
ATOM     80  C   UNL A   1      33.278  21.855  23.869  1.00  0.00     0.030 A 
ATOM     81  C   UNL A   1      34.742  22.703  25.558  1.00  0.00     0.182 A 
ATOM     82  F   UNL A   1      34.871  25.018  25.963  1.00  0.00    -0.203 F 
ATOM     83  C   UNL A   1      34.231  21.594  24.861  1.00  0.00     0.074 A 
ATOM     84  F   UNL A   1      35.630  22.495  26.546  1.00  0.00    -0.201 F 
BRANCH  83  85
ATOM     85  N   UNL A   1      34.718  20.315  25.123  1.00  0.00    -0.379 N 
ATOM     86  H   UNL A   1      35.508  20.240  25.706  1.00  0.00     0.160 HD
BRANCH  85  87
ATOM     87  C   UNL A   1      34.141  19.067  24.593  1.00  0.00     0.094 C 
ATOM     88  C   UNL A   1      32.752  18.845  25.243  1.00  0.00     0.027 C 
ATOM     89  C   UNL A   1      35.204  17.966  24.613  1.00  0.00     0.161 C 
ATOM     90  C   UNL A   1      32.182  17.437  25.205  1.00  0.00     0.018 C 
ATOM     91  S   UNL A   1      34.557  16.325  24.583  1.00  0.00     0.152 S 
ATOM     92  C   UNL A   1      33.181  16.416  25.702  1.00  0.00     0.137 C 
ATOM     93  O   UNL A   1      35.546  15.446  25.180  1.00  0.00    -0.229 OA
ATOM     94  O   UNL A   1      34.042  16.065  23.253  1.00  0.00    -0.229 OA
ENDBRANCH  85  87
ENDBRANCH  83  85
ENDBRANCH  75  77
ENDBRANCH  74  75
ENDBRANCH  73  74
ENDBRANCH  72  73
ENDBRANCH  71  72
ENDBRANCH   1  71
TORSDOF 19
ENDMDL
MODEL 3
REMARK VINA RESULT:     -11.7      5.553      8.908
REMARK SMILES O=C(OCCOCCOC(=O)c1ccc(N[C@@H]2CCCS(=O)(=O)C2)c(F)c1F)c1ccc(-c2c3nc(c(-c4cccc(S(=O)(=O)[O-])c4F)c4ccc([nH]4)c(-c4cccc(S(=O)(=O)[O-])c4F)c4nc(c(-c5cccc(S(=O)(=O)[O-])c5F)c5ccc2[nH]5)C=C4)C=C3)cc1
REMARK SMILES IDX 5 1 4 2 3 3 2 4 1 5 29 6 30 7 91 8 31 9 90 10 32 11 33 12
REMARK SMILES IDX 34 13 84 14 35 15 89 16 83 17 85 18 36 19 88 20 82 21 81 22
REMARK SMILES IDX 37 24 69 25 49 26 68 27 50 28 53 29 67 30 86 31 51 32 52 33
REMARK SMILES IDX 66 35 87 36 54 37 38 38 39 39 47 40 40 41 42 42 48 43 41 44
REMARK SMILES IDX 43 45 44 46 45 47 46 48 70 49 71 50 79 51 72 52 74 53 80 54
REMARK SMILES IDX 73 55 75 56 76 57 77 58 78 59 55 60 56 61 64 62 57 63 59 64
REMARK SMILES IDX 65 65 58 66 60 67 61 68 62 69 63 70 6 71 7 72 8 73 9 74
REMARK SMILES IDX 10 75 11 76 12 77 13 78 27 79 14 80 25 81 28 82 15 83 26 84
REMARK SMILES IDX 16 85 17 87 18 88 24 89 19 90 21 91 20 92 22 93 23 94
REMARK H PARENT 85 23 53 34 16 86
REMARK Flexibility Score: inf
ROOT
ATOM      1  C   UNL A   1      31.261  31.602  26.601  1.00  0.00     0.202 C 
ENDROOT
BRANCH   1   2
ATOM      2  C   UNL A   1      31.803  33.029  26.494  1.00  0.00     0.261 C 
BRANCH   2   3
ATOM      3  O   UNL A   1      32.274  33.474  27.776  1.00  0.00    -0.460 OA
BRANCH   3   4
ATOM      4  C   UNL A   1      33.457  34.063  28.072  1.00  0.00     0.338 C 
ATOM      5  O   UNL A   1      33.607  35.250  27.788  1.00  0.00    -0.246 OA
BRANCH   4   6
ATOM      6  C   UNL A   1      34.596  33.338  28.712  1.00  0.00     0.060 A 
ATOM      7  C   UNL A   1      34.523  32.037  29.217  1.00  0.00     0.016 A 
ATOM      8  C   UNL A   1      35.846  33.975  28.715  1.00  0.00     0.016 A 
ATOM      9  C   UNL A   1      35.623  31.410  29.775  1.00  0.00     0.010 A 
ATOM     10  C   UNL A   1      36.976  33.331  29.230  1.00  0.00     0.010 A 
ATOM     11  C   UNL A   1      36.858  32.049  29.777  1.00  0.00    -0.014 A 
BRANCH  11  12
ATOM     12  C   UNL A   1      37.983  31.358  30.425  1.00  0.00     0.031 A 
ATOM     13  C   UNL A   1      38.264  31.645  31.864  1.00  0.00     0.074 A 
ATOM     14  C   UNL A   1      38.647  30.407  29.744  1.00  0.00     0.049 A 
ATOM     15  N   UNL A   1      39.200  31.163  32.632  1.00  0.00    -0.248 NA
ATOM     16  C   UNL A   1      37.358  32.593  32.537  1.00  0.00     0.031 C 
ATOM     17  C   UNL A   1      38.363  30.007  28.363  1.00  0.00     0.029 A 
ATOM     18  N   UNL A   1      39.682  29.594  30.119  1.00  0.00    -0.354 N 
ATOM     19  C   UNL A   1      39.030  31.785  33.861  1.00  0.00     0.074 A 
ATOM     20  C   UNL A   1      37.889  32.664  33.747  1.00  0.00     0.031 C 
ATOM     21  C   UNL A   1      39.199  29.018  28.011  1.00  0.00     0.029 A 
ATOM     22  C   UNL A   1      40.115  28.760  29.115  1.00  0.00     0.049 A 
ATOM     23  H   UNL A   1      40.079  29.605  31.021  1.00  0.00     0.167 HD
ATOM     24  C   UNL A   1      39.772  31.631  34.982  1.00  0.00     0.034 A 
ATOM     25  C   UNL A   1      41.159  27.912  29.090  1.00  0.00     0.034 A 
ATOM     26  C   UNL A   1      40.894  30.739  35.064  1.00  0.00     0.049 A 
ATOM     27  C   UNL A   1      41.994  27.795  30.337  1.00  0.00     0.074 A 
ATOM     28  C   UNL A   1      41.752  30.524  36.124  1.00  0.00     0.029 A 
ATOM     29  N   UNL A   1      41.313  29.914  34.028  1.00  0.00    -0.354 N 
ATOM     30  N   UNL A   1      41.819  28.376  31.501  1.00  0.00    -0.248 NA
ATOM     31  C   UNL A   1      43.158  26.904  30.276  1.00  0.00     0.031 C 
ATOM     32  C   UNL A   1      42.707  29.583  35.720  1.00  0.00     0.029 A 
ATOM     33  C   UNL A   1      42.425  29.191  34.419  1.00  0.00     0.049 A 
ATOM     34  H   UNL A   1      40.883  29.852  33.145  1.00  0.00     0.167 HD
ATOM     35  C   UNL A   1      42.839  27.908  32.319  1.00  0.00     0.074 A 
ATOM     36  C   UNL A   1      43.610  26.972  31.522  1.00  0.00     0.031 C 
ATOM     37  C   UNL A   1      43.130  28.233  33.604  1.00  0.00     0.034 A 
BRANCH  24  38
ATOM     38  C   UNL A   1      39.403  32.476  36.169  1.00  0.00     0.023 A 
ATOM     39  C   UNL A   1      40.001  33.740  36.350  1.00  0.00     0.012 A 
ATOM     40  C   UNL A   1      38.481  32.003  37.123  1.00  0.00     0.148 A 
ATOM     41  C   UNL A   1      39.713  34.504  37.482  1.00  0.00     0.002 A 
ATOM     42  C   UNL A   1      38.172  32.786  38.229  1.00  0.00     0.091 A 
ATOM     43  F   UNL A   1      37.949  30.785  36.948  1.00  0.00    -0.205 F 
ATOM     44  C   UNL A   1      38.796  34.030  38.417  1.00  0.00     0.022 A 
BRANCH  42  45
ATOM     45  S   UNL A   1      36.968  32.285  39.464  1.00  0.00     0.127 S 
ATOM     46  O   UNL A   1      37.170  33.296  40.500  1.00  0.00    -0.237 OA
ATOM     47  O   UNL A   1      35.708  32.409  38.730  1.00  0.00    -0.237 OA
ATOM     48  O   UNL A   1      37.321  30.924  39.842  1.00  0.00    -0.744 OA
ENDBRANCH  42  45
ENDBRANCH  24  38
BRANCH  25  49
ATOM     49  C   UNL A   1      41.464  27.125  27.859  1.00  0.00     0.023 A 
ATOM     50  C   UNL A   1      42.037  27.763  26.743  1.00  0.00     0.012 A 
ATOM     51  C   UNL A   1      41.216  25.738  27.799  1.00  0.00     0.148 A 
ATOM     52  C   UNL A   1      42.334  27.041  25.584  1.00  0.00     0.002 A 
ATOM     53  C   UNL A   1      41.568  25.015  26.664  1.00  0.00     0.091 A 
ATOM     54  F   UNL A   1      40.647  25.147  28.859  1.00  0.00    -0.205 F 
ATOM     55  C   UNL A   1      42.111  25.667  25.549  1.00  0.00     0.022 A 
BRANCH  53  56
ATOM     56  S   UNL A   1      41.436  23.224  26.591  1.00  0.00     0.127 S 
ATOM     57  O   UNL A   1      42.195  22.917  25.382  1.00  0.00    -0.237 OA
ATOM     58  O   UNL A   1      42.080  22.819  27.841  1.00  0.00    -0.237 OA
ATOM     59  O   UNL A   1      40.008  22.940  26.536  1.00  0.00    -0.744 OA
ENDBRANCH  53  56
ENDBRANCH  25  49
BRANCH  37  60
ATOM     60  C   UNL A   1      44.316  27.554  34.229  1.00  0.00     0.023 A 
ATOM     61  C   UNL A   1      45.598  28.119  34.088  1.00  0.00     0.012 A 
ATOM     62  C   UNL A   1      44.139  26.413  35.034  1.00  0.00     0.148 A 
ATOM     63  C   UNL A   1      46.695  27.540  34.722  1.00  0.00     0.002 A 
ATOM     64  C   UNL A   1      45.229  25.872  35.703  1.00  0.00     0.091 A 
ATOM     65  F   UNL A   1      42.912  25.883  35.133  1.00  0.00    -0.205 F 
ATOM     66  C   UNL A   1      46.508  26.428  35.540  1.00  0.00     0.022 A 
BRANCH  64  67
ATOM     67  S   UNL A   1      45.059  24.510  36.859  1.00  0.00     0.127 S 
ATOM     68  O   UNL A   1      43.998  24.997  37.739  1.00  0.00    -0.237 OA
ATOM     69  O   UNL A   1      44.667  23.406  35.983  1.00  0.00    -0.237 OA
ATOM     70  O   UNL A   1      46.366  24.349  37.482  1.00  0.00    -0.744 OA
ENDBRANCH  64  67
ENDBRANCH  37  60
ENDBRANCH  11  12
ENDBRANCH   4   6
ENDBRANCH   3   4
ENDBRANCH   2   3
ENDBRANCH   1   2
BRANCH   1  71
ATOM     71  O   UNL A   1      32.246  30.602  26.849  1.00  0.00    -0.374 OA
BRANCH  71  72
ATOM     72  C   UNL A   1      32.809  29.950  25.705  1.00  0.00     0.202 C 
BRANCH  72  73
ATOM     73  C   UNL A   1      32.293  28.507  25.663  1.00  0.00     0.261 C 
BRANCH  73  74
ATOM     74  O   UNL A   1      31.133  28.487  24.818  1.00  0.00    -0.460 OA
BRANCH  74  75
ATOM     75  C   UNL A   1      31.394  28.321  23.493  1.00  0.00     0.341 C 
ATOM     76  O   UNL A   1      31.432  29.183  22.635  1.00  0.00    -0.246 OA
BRANCH  75  77
ATOM     77  C   UNL A   1      31.782  26.910  23.313  1.00  0.00     0.099 A 
ATOM     78  C   UNL A   1      33.098  26.591  22.977  1.00  0.00     0.021 A 
ATOM     79  C   UNL A   1      30.829  25.898  23.374  1.00  0.00     0.175 A 
ATOM     80  C   UNL A   1      33.450  25.271  22.717  1.00  0.00     0.030 A 
ATOM     81  C   UNL A   1      31.197  24.578  23.114  1.00  0.00     0.182 A 
ATOM     82  F   UNL A   1      29.541  26.167  23.637  1.00  0.00    -0.203 F 
ATOM     83  C   UNL A   1      32.523  24.226  22.806  1.00  0.00     0.074 A 
ATOM     84  F   UNL A   1      30.266  23.610  23.172  1.00  0.00    -0.201 F 
BRANCH  83  85
ATOM     85  N   UNL A   1      32.880  22.886  22.668  1.00  0.00    -0.379 N 
ATOM     86  H   UNL A   1      33.164  22.581  21.776  1.00  0.00     0.160 HD
BRANCH  85  87
ATOM     87  C   UNL A   1      32.863  21.891  23.754  1.00  0.00     0.094 C 
ATOM     88  C   UNL A   1      34.217  21.949  24.505  1.00  0.00     0.027 C 
ATOM     89  C   UNL A   1      32.315  20.565  23.222  1.00  0.00     0.161 C 
ATOM     90  C   UNL A   1      34.602  20.742  25.344  1.00  0.00     0.018 C 
ATOM     91  S   UNL A   1      32.764  19.152  24.178  1.00  0.00     0.152 S 
ATOM     92  C   UNL A   1      34.471  19.454  24.562  1.00  0.00     0.137 C 
ATOM     93  O   UNL A   1      32.712  17.992  23.308  1.00  0.00    -0.229 OA
ATOM     94  O   UNL A   1      32.010  19.184  25.416  1.00  0.00    -0.229 OA
ENDBRANCH  85  87
ENDBRANCH  83  85
ENDBRANCH  75  77
ENDBRANCH  74  75
ENDBRANCH  73  74
ENDBRANCH  72  73
ENDBRANCH  71  72
ENDBRANCH   1  71
TORSDOF 19
ENDMDL
