MODEL 1
REMARK VINA RESULT:     -11.1      0.000      0.000
REMARK SMILES C[C@@H](C(=O)OCCOCCOC(=O)c1ccc(-c2c3nc(c(-c4cccc(S(=O)(=O)[O-])c4F)c4ccc([nH]4)c(-c4cccc(S(=O)(=O)[O-])c4F)c4nc(c(-c5cccc(S(=O)(=O)[O-])c5F)c5ccc2[nH]5)C=C4)C=C3)cc1)N(C)c1ccc(C(N)=O)nn1
REMARK SMILES IDX 8 1 7 2 6 3 5 4 3 5 4 6 2 7 1 8 77 9 78 10 79 11 80 12 87 13
REMARK SMILES IDX 81 14 86 15 82 16 83 17 84 18 85 19 9 22 10 23 11 24 12 25
REMARK SMILES IDX 13 26 14 27 15 28 76 29 16 30 75 31 17 32 18 33 19 34 69 35
REMARK SMILES IDX 20 36 74 37 68 38 70 39 21 40 73 41 67 42 66 43 22 45 54 46
REMARK SMILES IDX 34 47 53 48 35 49 38 50 52 51 71 52 36 53 37 54 51 56 72 57
REMARK SMILES IDX 39 58 23 59 24 60 32 61 25 62 27 63 33 64 26 65 28 66 29 67
REMARK SMILES IDX 30 68 31 69 55 70 56 71 64 72 57 73 59 74 65 75 58 76 60 77
REMARK SMILES IDX 61 78 62 79 63 80 40 81 41 82 49 83 42 84 44 85 50 86 43 87
REMARK SMILES IDX 45 88 46 89 47 90 48 91
REMARK H PARENT 84 20 84 21 70 44 38 55
REMARK Flexibility Score: inf
ROOT
ATOM      1  O   UNL A   1      33.169  29.257  25.033  1.00  0.00    -0.374 OA
ENDROOT
BRANCH   1   2
ATOM      2  C   UNL A   1      33.291  28.923  23.647  1.00  0.00     0.202 C 
BRANCH   2   3
ATOM      3  C   UNL A   1      33.454  27.432  23.337  1.00  0.00     0.261 C 
BRANCH   3   4
ATOM      4  O   UNL A   1      32.392  26.989  22.471  1.00  0.00    -0.462 OA
BRANCH   4   5
ATOM      5  C   UNL A   1      31.474  26.143  23.018  1.00  0.00     0.328 C 
ATOM      6  O   UNL A   1      31.403  24.946  22.764  1.00  0.00    -0.250 OA
BRANCH   5   7
ATOM      7  C   UNL A   1      30.504  26.881  23.975  1.00  0.00     0.190 C 
ATOM      8  C   UNL A   1      30.331  26.229  25.348  1.00  0.00     0.044 C 
BRANCH   7   9
ATOM      9  N   UNL A   1      29.197  27.217  23.322  1.00  0.00    -0.345 N 
ATOM     10  C   UNL A   1      28.022  26.602  23.948  1.00  0.00     0.146 C 
BRANCH   9  11
ATOM     11  C   UNL A   1      28.947  28.516  22.870  1.00  0.00     0.151 A 
ATOM     12  C   UNL A   1      29.930  29.244  22.204  1.00  0.00     0.051 A 
ATOM     13  N   UNL A   1      27.715  29.064  22.987  1.00  0.00    -0.132 NA
ATOM     14  C   UNL A   1      29.654  30.518  21.697  1.00  0.00     0.040 A 
ATOM     15  N   UNL A   1      27.420  30.324  22.495  1.00  0.00    -0.143 NA
ATOM     16  C   UNL A   1      28.383  31.027  21.864  1.00  0.00     0.150 A 
BRANCH  16  17
ATOM     17  C   UNL A   1      28.015  32.377  21.354  1.00  0.00     0.269 C 
ATOM     18  N   UNL A   1      27.648  32.452  20.036  1.00  0.00    -0.364 N 
ATOM     19  O   UNL A   1      28.037  33.373  22.067  1.00  0.00    -0.268 OA
ATOM     20  H   UNL A   1      27.638  31.638  19.481  1.00  0.00     0.160 HD
ATOM     21  H   UNL A   1      27.395  33.318  19.644  1.00  0.00     0.160 HD
ENDBRANCH  16  17
ENDBRANCH   9  11
ENDBRANCH   7   9
ENDBRANCH   5   7
ENDBRANCH   4   5
ENDBRANCH   3   4
ENDBRANCH   2   3
ENDBRANCH   1   2
BRANCH   1  22
ATOM     22  C   UNL A   1      31.893  29.710  25.480  1.00  0.00     0.202 C 
BRANCH  22  23
ATOM     23  C   UNL A   1      31.841  31.120  26.079  1.00  0.00     0.261 C 
BRANCH  23  24
ATOM     24  O   UNL A   1      32.448  31.185  27.378  1.00  0.00    -0.460 OA
BRANCH  24  25
ATOM     25  C   UNL A   1      33.307  32.221  27.533  1.00  0.00     0.338 C 
ATOM     26  O   UNL A   1      33.033  33.414  27.517  1.00  0.00    -0.246 OA
BRANCH  25  27
ATOM     27  C   UNL A   1      34.644  31.727  27.904  1.00  0.00     0.060 A 
ATOM     28  C   UNL A   1      34.769  30.354  28.147  1.00  0.00     0.016 A 
ATOM     29  C   UNL A   1      35.733  32.585  28.079  1.00  0.00     0.016 A 
ATOM     30  C   UNL A   1      35.967  29.839  28.631  1.00  0.00     0.010 A 
ATOM     31  C   UNL A   1      36.936  32.066  28.570  1.00  0.00     0.010 A 
ATOM     32  C   UNL A   1      37.043  30.699  28.888  1.00  0.00    -0.014 A 
BRANCH  32  33
ATOM     33  C   UNL A   1      38.217  30.184  29.629  1.00  0.00     0.031 A 
ATOM     34  C   UNL A   1      38.451  30.647  31.041  1.00  0.00     0.074 A 
ATOM     35  C   UNL A   1      39.048  29.291  29.061  1.00  0.00     0.049 A 
ATOM     36  N   UNL A   1      39.401  30.314  31.875  1.00  0.00    -0.248 NA
ATOM     37  C   UNL A   1      37.486  31.618  31.585  1.00  0.00     0.031 C 
ATOM     38  C   UNL A   1      38.921  28.767  27.702  1.00  0.00     0.029 A 
ATOM     39  N   UNL A   1      40.173  28.682  29.554  1.00  0.00    -0.354 N 
ATOM     40  C   UNL A   1      39.163  31.047  33.031  1.00  0.00     0.074 A 
ATOM     41  C   UNL A   1      37.990  31.856  32.787  1.00  0.00     0.031 C 
ATOM     42  C   UNL A   1      39.945  27.932  27.460  1.00  0.00     0.029 A 
ATOM     43  C   UNL A   1      40.808  27.877  28.638  1.00  0.00     0.049 A 
ATOM     44  H   UNL A   1      40.496  28.809  30.476  1.00  0.00     0.167 HD
ATOM     45  C   UNL A   1      39.848  31.031  34.199  1.00  0.00     0.034 A 
ATOM     46  C   UNL A   1      41.962  27.188  28.737  1.00  0.00     0.034 A 
ATOM     47  C   UNL A   1      41.001  30.210  34.446  1.00  0.00     0.049 A 
ATOM     48  C   UNL A   1      42.715  27.201  30.043  1.00  0.00     0.074 A 
ATOM     49  C   UNL A   1      41.737  30.088  35.610  1.00  0.00     0.029 A 
ATOM     50  N   UNL A   1      41.591  29.375  33.510  1.00  0.00    -0.354 N 
ATOM     51  N   UNL A   1      42.409  27.802  31.167  1.00  0.00    -0.248 NA
ATOM     52  C   UNL A   1      43.954  26.410  30.105  1.00  0.00     0.031 C 
ATOM     53  C   UNL A   1      42.789  29.196  35.370  1.00  0.00     0.029 A 
ATOM     54  C   UNL A   1      42.690  28.743  34.064  1.00  0.00     0.049 A 
ATOM     55  H   UNL A   1      41.274  29.251  32.586  1.00  0.00     0.167 HD
ATOM     56  C   UNL A   1      43.394  27.438  32.078  1.00  0.00     0.074 A 
ATOM     57  C   UNL A   1      44.297  26.546  31.378  1.00  0.00     0.031 C 
ATOM     58  C   UNL A   1      43.548  27.817  33.370  1.00  0.00     0.034 A 
BRANCH  45  59
ATOM     59  C   UNL A   1      39.346  31.912  35.313  1.00  0.00     0.023 A 
ATOM     60  C   UNL A   1      38.415  31.399  36.240  1.00  0.00     0.012 A 
ATOM     61  C   UNL A   1      39.832  33.224  35.475  1.00  0.00     0.148 A 
ATOM     62  C   UNL A   1      37.952  32.188  37.292  1.00  0.00     0.002 A 
ATOM     63  C   UNL A   1      39.397  33.990  36.550  1.00  0.00     0.091 A 
ATOM     64  F   UNL A   1      40.697  33.702  34.570  1.00  0.00    -0.205 F 
ATOM     65  C   UNL A   1      38.451  33.477  37.453  1.00  0.00     0.022 A 
BRANCH  63  66
ATOM     66  S   UNL A   1      40.034  35.636  36.885  1.00  0.00     0.127 S 
ATOM     67  O   UNL A   1      39.371  35.958  38.147  1.00  0.00    -0.237 OA
ATOM     68  O   UNL A   1      41.473  35.394  36.998  1.00  0.00    -0.237 OA
ATOM     69  O   UNL A   1      39.644  36.455  35.745  1.00  0.00    -0.744 OA
ENDBRANCH  63  66
ENDBRANCH  45  59
BRANCH  46  70
ATOM     70  C   UNL A   1      42.454  26.396  27.575  1.00  0.00     0.023 A 
ATOM     71  C   UNL A   1      43.327  26.993  26.644  1.00  0.00     0.012 A 
ATOM     72  C   UNL A   1      42.084  25.049  27.404  1.00  0.00     0.148 A 
ATOM     73  C   UNL A   1      43.799  26.269  25.549  1.00  0.00     0.002 A 
ATOM     74  C   UNL A   1      42.602  24.316  26.342  1.00  0.00     0.091 A 
ATOM     75  F   UNL A   1      41.237  24.505  28.290  1.00  0.00    -0.205 F 
ATOM     76  C   UNL A   1      43.447  24.929  25.404  1.00  0.00     0.022 A 
BRANCH  74  77
ATOM     77  S   UNL A   1      42.308  22.554  26.157  1.00  0.00     0.127 S 
ATOM     78  O   UNL A   1      40.851  22.499  26.085  1.00  0.00    -0.237 OA
ATOM     79  O   UNL A   1      43.000  22.262  24.901  1.00  0.00    -0.237 OA
ATOM     80  O   UNL A   1      42.911  21.932  27.329  1.00  0.00    -0.744 OA
ENDBRANCH  74  77
ENDBRANCH  46  70
BRANCH  58  81
ATOM     81  C   UNL A   1      44.718  27.250  34.132  1.00  0.00     0.023 A 
ATOM     82  C   UNL A   1      45.943  27.945  34.151  1.00  0.00     0.012 A 
ATOM     83  C   UNL A   1      44.578  26.074  34.896  1.00  0.00     0.148 A 
ATOM     84  C   UNL A   1      47.021  27.462  34.892  1.00  0.00     0.002 A 
ATOM     85  C   UNL A   1      45.641  25.624  35.670  1.00  0.00     0.091 A 
ATOM     86  F   UNL A   1      43.410  25.417  34.850  1.00  0.00    -0.205 F 
ATOM     87  C   UNL A   1      46.865  26.310  35.660  1.00  0.00     0.022 A 
BRANCH  85  88
ATOM     88  S   UNL A   1      45.502  24.204  36.762  1.00  0.00     0.127 S 
ATOM     89  O   UNL A   1      44.506  24.666  37.727  1.00  0.00    -0.237 OA
ATOM     90  O   UNL A   1      45.031  23.157  35.852  1.00  0.00    -0.237 OA
ATOM     91  O   UNL A   1      46.837  23.979  37.298  1.00  0.00    -0.744 OA
ENDBRANCH  85  88
ENDBRANCH  58  81
ENDBRANCH  32  33
ENDBRANCH  25  27
ENDBRANCH  24  25
ENDBRANCH  23  24
ENDBRANCH  22  23
ENDBRANCH   1  22
TORSDOF 20
ENDMDL
MODEL 2
REMARK VINA RESULT:     -10.5      2.110      3.893
REMARK SMILES C[C@@H](C(=O)OCCOCCOC(=O)c1ccc(-c2c3nc(c(-c4cccc(S(=O)(=O)[O-])c4F)c4ccc([nH]4)c(-c4cccc(S(=O)(=O)[O-])c4F)c4nc(c(-c5cccc(S(=O)(=O)[O-])c5F)c5ccc2[nH]5)C=C4)C=C3)cc1)N(C)c1ccc(C(N)=O)nn1
REMARK SMILES IDX 8 1 7 2 6 3 5 4 3 5 4 6 2 7 1 8 77 9 78 10 79 11 80 12 87 13
REMARK SMILES IDX 81 14 86 15 82 16 83 17 84 18 85 19 9 22 10 23 11 24 12 25
REMARK SMILES IDX 13 26 14 27 15 28 76 29 16 30 75 31 17 32 18 33 19 34 69 35
REMARK SMILES IDX 20 36 74 37 68 38 70 39 21 40 73 41 67 42 66 43 22 45 54 46
REMARK SMILES IDX 34 47 53 48 35 49 38 50 52 51 71 52 36 53 37 54 51 56 72 57
REMARK SMILES IDX 39 58 23 59 24 60 32 61 25 62 27 63 33 64 26 65 28 66 29 67
REMARK SMILES IDX 30 68 31 69 55 70 56 71 64 72 57 73 59 74 65 75 58 76 60 77
REMARK SMILES IDX 61 78 62 79 63 80 40 81 41 82 49 83 42 84 44 85 50 86 43 87
REMARK SMILES IDX 45 88 46 89 47 90 48 91
REMARK H PARENT 84 20 84 21 70 44 38 55
REMARK Flexibility Score: inf
ROOT
ATOM      1  O   UNL A   1      32.319  29.548  24.347  1.00  0.00    -0.374 OA
ENDROOT
BRANCH   1   2
ATOM      2  C   UNL A   1      31.872  28.813  23.204  1.00  0.00     0.202 C 
BRANCH   2   3
ATOM      3  C   UNL A   1      30.851  27.707  23.486  1.00  0.00     0.261 C 
BRANCH   3   4
ATOM      4  O   UNL A   1      31.433  26.417  23.217  1.00  0.00    -0.462 OA
BRANCH   4   5
ATOM      5  C   UNL A   1      32.496  26.057  23.988  1.00  0.00     0.328 C 
ATOM      6  O   UNL A   1      33.531  25.566  23.550  1.00  0.00    -0.250 OA
BRANCH   5   7
ATOM      7  C   UNL A   1      32.232  26.307  25.494  1.00  0.00     0.190 C 
ATOM      8  C   UNL A   1      33.433  26.830  26.283  1.00  0.00     0.044 C 
BRANCH   7   9
ATOM      9  N   UNL A   1      31.560  25.144  26.161  1.00  0.00    -0.345 N 
ATOM     10  C   UNL A   1      30.094  25.199  26.158  1.00  0.00     0.146 C 
BRANCH   9  11
ATOM     11  C   UNL A   1      32.050  23.848  25.983  1.00  0.00     0.151 A 
ATOM     12  C   UNL A   1      33.233  23.440  26.593  1.00  0.00     0.051 A 
ATOM     13  N   UNL A   1      31.339  22.928  25.289  1.00  0.00    -0.132 NA
ATOM     14  C   UNL A   1      33.685  22.122  26.464  1.00  0.00     0.040 A 
ATOM     15  N   UNL A   1      31.768  21.620  25.146  1.00  0.00    -0.143 NA
ATOM     16  C   UNL A   1      32.923  21.239  25.728  1.00  0.00     0.150 A 
BRANCH  16  17
ATOM     17  C   UNL A   1      33.341  19.821  25.545  1.00  0.00     0.269 C 
ATOM     18  N   UNL A   1      32.859  18.920  26.457  1.00  0.00    -0.364 N 
ATOM     19  O   UNL A   1      34.076  19.471  24.629  1.00  0.00    -0.268 OA
ATOM     20  H   UNL A   1      32.270  19.224  27.186  1.00  0.00     0.160 HD
ATOM     21  H   UNL A   1      33.103  17.969  26.386  1.00  0.00     0.160 HD
ENDBRANCH  16  17
ENDBRANCH   9  11
ENDBRANCH   7   9
ENDBRANCH   5   7
ENDBRANCH   4   5
ENDBRANCH   3   4
ENDBRANCH   2   3
ENDBRANCH   1   2
BRANCH   1  22
ATOM     22  C   UNL A   1      31.327  29.945  25.290  1.00  0.00     0.202 C 
BRANCH  22  23
ATOM     23  C   UNL A   1      31.640  31.192  26.125  1.00  0.00     0.261 C 
BRANCH  23  24
ATOM     24  O   UNL A   1      32.592  30.929  27.166  1.00  0.00    -0.460 OA
BRANCH  24  25
ATOM     25  C   UNL A   1      33.386  31.984  27.465  1.00  0.00     0.338 C 
ATOM     26  O   UNL A   1      33.049  33.157  27.562  1.00  0.00    -0.246 OA
BRANCH  25  27
ATOM     27  C   UNL A   1      34.734  31.522  27.840  1.00  0.00     0.060 A 
ATOM     28  C   UNL A   1      34.896  30.149  28.062  1.00  0.00     0.016 A 
ATOM     29  C   UNL A   1      35.797  32.407  28.038  1.00  0.00     0.016 A 
ATOM     30  C   UNL A   1      36.104  29.661  28.548  1.00  0.00     0.010 A 
ATOM     31  C   UNL A   1      37.010  31.914  28.531  1.00  0.00     0.010 A 
ATOM     32  C   UNL A   1      37.152  30.546  28.828  1.00  0.00    -0.014 A 
BRANCH  32  33
ATOM     33  C   UNL A   1      38.335  30.052  29.571  1.00  0.00     0.031 A 
ATOM     34  C   UNL A   1      38.554  30.514  30.986  1.00  0.00     0.074 A 
ATOM     35  C   UNL A   1      39.186  29.179  29.002  1.00  0.00     0.049 A 
ATOM     36  N   UNL A   1      39.507  30.197  31.822  1.00  0.00    -0.248 NA
ATOM     37  C   UNL A   1      37.567  31.461  31.531  1.00  0.00     0.031 C 
ATOM     38  C   UNL A   1      39.074  28.659  27.640  1.00  0.00     0.029 A 
ATOM     39  N   UNL A   1      40.322  28.591  29.496  1.00  0.00    -0.354 N 
ATOM     40  C   UNL A   1      39.250  30.919  32.981  1.00  0.00     0.074 A 
ATOM     41  C   UNL A   1      38.061  31.705  32.736  1.00  0.00     0.031 C 
ATOM     42  C   UNL A   1      40.117  27.846  27.398  1.00  0.00     0.029 A 
ATOM     43  C   UNL A   1      40.976  27.804  28.580  1.00  0.00     0.049 A 
ATOM     44  H   UNL A   1      40.638  28.721  30.420  1.00  0.00     0.167 HD
ATOM     45  C   UNL A   1      39.931  30.912  34.151  1.00  0.00     0.034 A 
ATOM     46  C   UNL A   1      42.144  27.138  28.679  1.00  0.00     0.034 A 
ATOM     47  C   UNL A   1      41.100  30.114  34.398  1.00  0.00     0.049 A 
ATOM     48  C   UNL A   1      42.892  27.161  29.988  1.00  0.00     0.074 A 
ATOM     49  C   UNL A   1      41.835  30.002  35.565  1.00  0.00     0.029 A 
ATOM     50  N   UNL A   1      41.711  29.295  33.460  1.00  0.00    -0.354 N 
ATOM     51  N   UNL A   1      42.569  27.751  31.114  1.00  0.00    -0.248 NA
ATOM     52  C   UNL A   1      44.146  26.396  30.051  1.00  0.00     0.031 C 
ATOM     53  C   UNL A   1      42.906  29.133  35.324  1.00  0.00     0.029 A 
ATOM     54  C   UNL A   1      42.821  28.684  34.016  1.00  0.00     0.049 A 
ATOM     55  H   UNL A   1      41.400  29.169  32.535  1.00  0.00     0.167 HD
ATOM     56  C   UNL A   1      43.559  27.402  32.027  1.00  0.00     0.074 A 
ATOM     57  C   UNL A   1      44.482  26.532  31.326  1.00  0.00     0.031 C 
ATOM     58  C   UNL A   1      43.700  27.779  33.321  1.00  0.00     0.034 A 
BRANCH  45  59
ATOM     59  C   UNL A   1      39.408  31.777  35.267  1.00  0.00     0.023 A 
ATOM     60  C   UNL A   1      38.479  31.243  36.185  1.00  0.00     0.012 A 
ATOM     61  C   UNL A   1      39.870  33.096  35.440  1.00  0.00     0.148 A 
ATOM     62  C   UNL A   1      37.997  32.017  37.238  1.00  0.00     0.002 A 
ATOM     63  C   UNL A   1      39.415  33.848  36.517  1.00  0.00     0.091 A 
ATOM     64  F   UNL A   1      40.732  33.595  34.543  1.00  0.00    -0.205 F 
ATOM     65  C   UNL A   1      38.472  33.314  37.411  1.00  0.00     0.022 A 
BRANCH  63  66
ATOM     66  S   UNL A   1      40.022  35.503  36.866  1.00  0.00     0.127 S 
ATOM     67  O   UNL A   1      39.518  36.250  35.714  1.00  0.00    -0.237 OA
ATOM     68  O   UNL A   1      39.359  35.816  38.132  1.00  0.00    -0.237 OA
ATOM     69  O   UNL A   1      41.472  35.388  36.952  1.00  0.00    -0.744 OA
ENDBRANCH  63  66
ENDBRANCH  45  59
BRANCH  46  70
ATOM     70  C   UNL A   1      42.656  26.362  27.516  1.00  0.00     0.023 A 
ATOM     71  C   UNL A   1      43.520  26.980  26.591  1.00  0.00     0.012 A 
ATOM     72  C   UNL A   1      42.314  25.008  27.337  1.00  0.00     0.148 A 
ATOM     73  C   UNL A   1      44.011  26.271  25.494  1.00  0.00     0.002 A 
ATOM     74  C   UNL A   1      42.851  24.291  26.274  1.00  0.00     0.091 A 
ATOM     75  F   UNL A   1      41.475  24.443  28.217  1.00  0.00    -0.205 F 
ATOM     76  C   UNL A   1      43.687  24.925  25.342  1.00  0.00     0.022 A 
BRANCH  74  77
ATOM     77  S   UNL A   1      42.594  22.525  26.079  1.00  0.00     0.127 S 
ATOM     78  O   UNL A   1      43.212  21.996  27.291  1.00  0.00    -0.237 OA
ATOM     79  O   UNL A   1      41.133  22.433  26.041  1.00  0.00    -0.237 OA
ATOM     80  O   UNL A   1      43.246  22.169  24.825  1.00  0.00    -0.744 OA
ENDBRANCH  74  77
ENDBRANCH  46  70
BRANCH  58  81
ATOM     81  C   UNL A   1      44.879  27.233  34.085  1.00  0.00     0.023 A 
ATOM     82  C   UNL A   1      46.074  27.975  34.150  1.00  0.00     0.012 A 
ATOM     83  C   UNL A   1      44.773  26.026  34.805  1.00  0.00     0.148 A 
ATOM     84  C   UNL A   1      47.158  27.510  34.894  1.00  0.00     0.002 A 
ATOM     85  C   UNL A   1      45.841  25.592  35.583  1.00  0.00     0.091 A 
ATOM     86  F   UNL A   1      43.634  25.325  34.716  1.00  0.00    -0.205 F 
ATOM     87  C   UNL A   1      47.036  26.327  35.619  1.00  0.00     0.022 A 
BRANCH  85  88
ATOM     88  S   UNL A   1      45.740  24.130  36.623  1.00  0.00     0.127 S 
ATOM     89  O   UNL A   1      45.347  23.105  35.658  1.00  0.00    -0.237 OA
ATOM     90  O   UNL A   1      47.112  24.008  37.119  1.00  0.00    -0.237 OA
ATOM     91  O   UNL A   1      44.754  24.437  37.649  1.00  0.00    -0.744 OA
ENDBRANCH  85  88
ENDBRANCH  58  81
ENDBRANCH  32  33
ENDBRANCH  25  27
ENDBRANCH  24  25
ENDBRANCH  23  24
ENDBRANCH  22  23
ENDBRANCH   1  22
TORSDOF 20
ENDMDL
MODEL 3
REMARK VINA RESULT:     -10.1      2.005      2.634
REMARK SMILES C[C@@H](C(=O)OCCOCCOC(=O)c1ccc(-c2c3nc(c(-c4cccc(S(=O)(=O)[O-])c4F)c4ccc([nH]4)c(-c4cccc(S(=O)(=O)[O-])c4F)c4nc(c(-c5cccc(S(=O)(=O)[O-])c5F)c5ccc2[nH]5)C=C4)C=C3)cc1)N(C)c1ccc(C(N)=O)nn1
REMARK SMILES IDX 8 1 7 2 6 3 5 4 3 5 4 6 2 7 1 8 77 9 78 10 79 11 80 12 87 13
REMARK SMILES IDX 81 14 86 15 82 16 83 17 84 18 85 19 9 22 10 23 11 24 12 25
REMARK SMILES IDX 13 26 14 27 15 28 76 29 16 30 75 31 17 32 18 33 19 34 69 35
REMARK SMILES IDX 20 36 74 37 68 38 70 39 21 40 73 41 67 42 66 43 22 45 54 46
REMARK SMILES IDX 34 47 53 48 35 49 38 50 52 51 71 52 36 53 37 54 51 56 72 57
REMARK SMILES IDX 39 58 23 59 24 60 32 61 25 62 27 63 33 64 26 65 28 66 29 67
REMARK SMILES IDX 30 68 31 69 55 70 56 71 64 72 57 73 59 74 65 75 58 76 60 77
REMARK SMILES IDX 61 78 62 79 63 80 40 81 41 82 49 83 42 84 44 85 50 86 43 87
REMARK SMILES IDX 45 88 46 89 47 90 48 91
REMARK H PARENT 84 20 84 21 70 44 38 55
REMARK Flexibility Score: inf
ROOT
ATOM      1  O   UNL A   1      33.896  30.647  27.174  1.00  0.00    -0.374 OA
ENDROOT
BRANCH   1   2
ATOM      2  C   UNL A   1      34.374  29.322  26.922  1.00  0.00     0.202 C 
BRANCH   2   3
ATOM      3  C   UNL A   1      33.341  28.342  26.357  1.00  0.00     0.261 C 
BRANCH   3   4
ATOM      4  O   UNL A   1      33.956  27.488  25.374  1.00  0.00    -0.462 OA
BRANCH   4   5
ATOM      5  C   UNL A   1      33.641  26.164  25.438  1.00  0.00     0.328 C 
ATOM      6  O   UNL A   1      34.466  25.257  25.411  1.00  0.00    -0.250 OA
BRANCH   5   7
ATOM      7  C   UNL A   1      32.111  25.934  25.511  1.00  0.00     0.190 C 
ATOM      8  C   UNL A   1      31.670  24.811  26.451  1.00  0.00     0.044 C 
BRANCH   7   9
ATOM      9  N   UNL A   1      31.477  25.839  24.156  1.00  0.00    -0.345 N 
ATOM     10  C   UNL A   1      31.098  24.483  23.750  1.00  0.00     0.146 C 
BRANCH   9  11
ATOM     11  C   UNL A   1      30.556  26.803  23.737  1.00  0.00     0.151 A 
ATOM     12  C   UNL A   1      29.186  26.574  23.835  1.00  0.00     0.051 A 
ATOM     13  N   UNL A   1      30.972  28.020  23.313  1.00  0.00    -0.132 NA
ATOM     14  C   UNL A   1      28.269  27.567  23.476  1.00  0.00     0.040 A 
ATOM     15  N   UNL A   1      30.082  29.016  22.949  1.00  0.00    -0.143 NA
ATOM     16  C   UNL A   1      28.757  28.779  23.034  1.00  0.00     0.150 A 
BRANCH  16  17
ATOM     17  C   UNL A   1      27.842  29.883  22.631  1.00  0.00     0.269 C 
ATOM     18  N   UNL A   1      27.705  30.102  21.286  1.00  0.00    -0.364 N 
ATOM     19  O   UNL A   1      27.239  30.563  23.453  1.00  0.00    -0.268 OA
ATOM     20  H   UNL A   1      28.200  29.543  20.644  1.00  0.00     0.160 HD
ATOM     21  H   UNL A   1      27.113  30.819  20.962  1.00  0.00     0.160 HD
ENDBRANCH  16  17
ENDBRANCH   9  11
ENDBRANCH   7   9
ENDBRANCH   5   7
ENDBRANCH   4   5
ENDBRANCH   3   4
ENDBRANCH   2   3
ENDBRANCH   1   2
BRANCH   1  22
ATOM     22  C   UNL A   1      32.533  30.916  26.851  1.00  0.00     0.202 C 
BRANCH  22  23
ATOM     23  C   UNL A   1      32.059  32.361  27.047  1.00  0.00     0.261 C 
BRANCH  23  24
ATOM     24  O   UNL A   1      33.143  33.301  27.020  1.00  0.00    -0.460 OA
BRANCH  24  25
ATOM     25  C   UNL A   1      33.226  34.078  28.126  1.00  0.00     0.338 C 
ATOM     26  O   UNL A   1      32.446  34.958  28.469  1.00  0.00    -0.246 OA
BRANCH  25  27
ATOM     27  C   UNL A   1      34.321  33.617  28.995  1.00  0.00     0.060 A 
ATOM     28  C   UNL A   1      35.605  34.101  28.712  1.00  0.00     0.016 A 
ATOM     29  C   UNL A   1      34.121  32.684  30.017  1.00  0.00     0.016 A 
ATOM     30  C   UNL A   1      36.704  33.605  29.404  1.00  0.00     0.010 A 
ATOM     31  C   UNL A   1      35.229  32.184  30.709  1.00  0.00     0.010 A 
ATOM     32  C   UNL A   1      36.527  32.611  30.375  1.00  0.00    -0.014 A 
BRANCH  32  33
ATOM     33  C   UNL A   1      37.716  31.920  30.925  1.00  0.00     0.031 A 
ATOM     34  C   UNL A   1      38.125  32.190  32.348  1.00  0.00     0.074 A 
ATOM     35  C   UNL A   1      38.406  31.041  30.175  1.00  0.00     0.049 A 
ATOM     36  N   UNL A   1      39.116  31.686  33.034  1.00  0.00    -0.248 NA
ATOM     37  C   UNL A   1      37.306  33.159  33.096  1.00  0.00     0.031 C 
ATOM     38  C   UNL A   1      38.102  30.697  28.787  1.00  0.00     0.029 A 
ATOM     39  N   UNL A   1      39.514  30.291  30.475  1.00  0.00    -0.354 N 
ATOM     40  C   UNL A   1      39.057  32.289  34.284  1.00  0.00     0.074 A 
ATOM     41  C   UNL A   1      37.942  33.211  34.258  1.00  0.00     0.031 C 
ATOM     42  C   UNL A   1      39.020  29.821  28.346  1.00  0.00     0.029 A 
ATOM     43  C   UNL A   1      39.984  29.557  29.413  1.00  0.00     0.049 A 
ATOM     44  H   UNL A   1      39.933  30.281  31.366  1.00  0.00     0.167 HD
ATOM     45  C   UNL A   1      39.846  32.080  35.364  1.00  0.00     0.034 A 
ATOM     46  C   UNL A   1      41.076  28.773  29.311  1.00  0.00     0.034 A 
ATOM     47  C   UNL A   1      40.939  31.148  35.393  1.00  0.00     0.049 A 
ATOM     48  C   UNL A   1      41.949  28.570  30.523  1.00  0.00     0.074 A 
ATOM     49  C   UNL A   1      41.771  30.830  36.452  1.00  0.00     0.029 A 
ATOM     50  N   UNL A   1      41.361  30.389  34.312  1.00  0.00    -0.354 N 
ATOM     51  N   UNL A   1      41.806  29.053  31.734  1.00  0.00    -0.248 NA
ATOM     52  C   UNL A   1      43.112  27.684  30.365  1.00  0.00     0.031 C 
ATOM     53  C   UNL A   1      42.711  29.895  36.003  1.00  0.00     0.029 A 
ATOM     54  C   UNL A   1      42.447  29.612  34.672  1.00  0.00     0.049 A 
ATOM     55  H   UNL A   1      40.947  30.403  33.419  1.00  0.00     0.167 HD
ATOM     56  C   UNL A   1      42.838  28.506  32.489  1.00  0.00     0.074 A 
ATOM     57  C   UNL A   1      43.586  27.638  31.602  1.00  0.00     0.031 C 
ATOM     58  C   UNL A   1      43.148  28.713  33.792  1.00  0.00     0.034 A 
BRANCH  45  59
ATOM     59  C   UNL A   1      39.534  32.855  36.616  1.00  0.00     0.023 A 
ATOM     60  C   UNL A   1      40.117  34.124  36.813  1.00  0.00     0.012 A 
ATOM     61  C   UNL A   1      38.629  32.355  37.572  1.00  0.00     0.148 A 
ATOM     62  C   UNL A   1      39.827  34.870  37.954  1.00  0.00     0.002 A 
ATOM     63  C   UNL A   1      38.312  33.122  38.687  1.00  0.00     0.091 A 
ATOM     64  F   UNL A   1      38.105  31.136  37.380  1.00  0.00    -0.205 F 
ATOM     65  C   UNL A   1      38.917  34.374  38.885  1.00  0.00     0.022 A 
BRANCH  63  66
ATOM     66  S   UNL A   1      37.099  32.602  39.905  1.00  0.00     0.127 S 
ATOM     67  O   UNL A   1      37.070  33.756  40.803  1.00  0.00    -0.237 OA
ATOM     68  O   UNL A   1      35.895  32.434  39.091  1.00  0.00    -0.237 OA
ATOM     69  O   UNL A   1      37.616  31.370  40.485  1.00  0.00    -0.744 OA
ENDBRANCH  63  66
ENDBRANCH  45  59
BRANCH  46  70
ATOM     70  C   UNL A   1      41.382  28.093  28.022  1.00  0.00     0.023 A 
ATOM     71  C   UNL A   1      41.831  28.850  26.923  1.00  0.00     0.012 A 
ATOM     72  C   UNL A   1      41.256  26.696  27.889  1.00  0.00     0.148 A 
ATOM     73  C   UNL A   1      42.123  28.231  25.706  1.00  0.00     0.002 A 
ATOM     74  C   UNL A   1      41.602  26.080  26.692  1.00  0.00     0.091 A 
ATOM     75  F   UNL A   1      40.808  25.996  28.941  1.00  0.00    -0.205 F 
ATOM     76  C   UNL A   1      42.020  26.847  25.595  1.00  0.00     0.022 A 
BRANCH  74  77
ATOM     77  S   UNL A   1      41.627  24.293  26.505  1.00  0.00     0.127 S 
ATOM     78  O   UNL A   1      40.203  23.980  26.427  1.00  0.00    -0.237 OA
ATOM     79  O   UNL A   1      42.365  24.130  25.252  1.00  0.00    -0.237 OA
ATOM     80  O   UNL A   1      42.326  23.786  27.679  1.00  0.00    -0.744 OA
ENDBRANCH  74  77
ENDBRANCH  46  70
BRANCH  58  81
ATOM     81  C   UNL A   1      44.330  27.969  34.358  1.00  0.00     0.023 A 
ATOM     82  C   UNL A   1      45.620  28.525  34.254  1.00  0.00     0.012 A 
ATOM     83  C   UNL A   1      44.151  26.762  35.063  1.00  0.00     0.148 A 
ATOM     84  C   UNL A   1      46.719  27.876  34.817  1.00  0.00     0.002 A 
ATOM     85  C   UNL A   1      45.244  26.145  35.661  1.00  0.00     0.091 A 
ATOM     86  F   UNL A   1      42.919  26.240  35.134  1.00  0.00    -0.205 F 
ATOM     87  C   UNL A   1      46.529  26.694  35.529  1.00  0.00     0.022 A 
BRANCH  85  88
ATOM     88  S   UNL A   1      45.078  24.672  36.677  1.00  0.00     0.127 S 
ATOM     89  O   UNL A   1      44.702  23.667  35.685  1.00  0.00    -0.237 OA
ATOM     90  O   UNL A   1      46.428  24.517  37.222  1.00  0.00    -0.237 OA
ATOM     91  O   UNL A   1      44.060  24.984  37.670  1.00  0.00    -0.744 OA
ENDBRANCH  85  88
ENDBRANCH  58  81
ENDBRANCH  32  33
ENDBRANCH  25  27
ENDBRANCH  24  25
ENDBRANCH  23  24
ENDBRANCH  22  23
ENDBRANCH   1  22
TORSDOF 20
ENDMDL
