MODEL 1
REMARK VINA RESULT:     -10.4      0.000      0.000
REMARK SMILES Cc1nc(-c2ccc3c(c2)CCN3S(=O)(=O)c2ccc(F)c(C(=O)OCCOCCOC(=O)c3ccc(-c4c5nc(c(-c6cccc(S(=O)(=O)[O-])c6F)c6ccc([nH]6)c(-c6cccc(S(=O)(=O)[O-])c6F)c6nc(c(-c7cccc(S(=O)(=O)[O-])c7F)c7ccc4[nH]7)C=C6)C=C5)cc3)c2)cs1
REMARK SMILES IDX 28 1 27 2 26 3 25 4 23 5 24 6 22 7 17 8 18 9 97 10 19 11
REMARK SMILES IDX 20 12 21 13 14 14 15 15 16 16 13 17 5 18 6 19 10 20 7 21
REMARK SMILES IDX 9 22 8 23 11 24 12 25 4 26 1 27 2 28 3 29 99 30 98 31 29 32
REMARK SMILES IDX 30 33 31 34 32 35 33 36 34 37 35 38 96 39 36 40 95 41 37 42
REMARK SMILES IDX 38 43 39 44 89 45 40 46 94 47 88 48 90 49 41 50 93 51 87 52
REMARK SMILES IDX 86 53 42 55 74 56 54 57 73 58 55 59 58 60 72 61 91 62 56 63
REMARK SMILES IDX 57 64 71 66 92 67 59 68 43 69 44 70 52 71 45 72 47 73 53 74
REMARK SMILES IDX 46 75 48 76 49 77 50 78 51 79 75 80 76 81 84 82 77 83 79 84
REMARK SMILES IDX 85 85 78 86 80 87 81 88 82 89 83 90 60 91 61 92 69 93 62 94
REMARK SMILES IDX 64 95 70 96 63 97 65 98 66 99 67 100 68 101
REMARK H PARENT 90 54 58 65
REMARK Flexibility Score: inf
ROOT
ATOM      1  O   UNL A   1      39.390  22.775  26.194  1.00  0.00    -0.374 OA
ENDROOT
BRANCH   1   2
ATOM      2  C   UNL A   1      38.269  21.985  25.789  1.00  0.00     0.202 C 
BRANCH   2   3
ATOM      3  C   UNL A   1      37.459  22.507  24.599  1.00  0.00     0.261 C 
BRANCH   3   4
ATOM      4  O   UNL A   1      36.485  23.461  25.042  1.00  0.00    -0.460 OA
BRANCH   4   5
ATOM      5  C   UNL A   1      35.367  23.563  24.296  1.00  0.00     0.341 C 
ATOM      6  O   UNL A   1      35.280  23.479  23.077  1.00  0.00    -0.246 OA
BRANCH   5   7
ATOM      7  C   UNL A   1      34.180  23.570  25.170  1.00  0.00     0.097 A 
ATOM      8  C   UNL A   1      31.964  24.424  25.614  1.00  0.00     0.089 A 
ATOM      9  C   UNL A   1      31.894  23.657  26.787  1.00  0.00     0.025 A 
ATOM     10  C   UNL A   1      33.082  24.354  24.778  1.00  0.00     0.041 A 
ATOM     11  C   UNL A   1      32.981  22.866  27.157  1.00  0.00     0.041 A 
ATOM     12  C   UNL A   1      34.123  22.836  26.358  1.00  0.00     0.137 A 
ATOM     13  F   UNL A   1      35.168  22.113  26.781  1.00  0.00    -0.206 F 
BRANCH   8  14
ATOM     14  S   UNL A   1      30.677  25.593  25.271  1.00  0.00     0.264 S 
ATOM     15  O   UNL A   1      30.015  25.890  26.526  1.00  0.00    -0.201 OA
ATOM     16  O   UNL A   1      29.911  25.067  24.158  1.00  0.00    -0.201 OA
BRANCH  14  17
ATOM     17  N   UNL A   1      31.445  27.022  24.734  1.00  0.00    -0.266 N 
ATOM     18  C   UNL A   1      33.505  29.972  26.930  1.00  0.00     0.001 A 
ATOM     19  C   UNL A   1      33.779  28.629  27.221  1.00  0.00     0.012 A 
ATOM     20  C   UNL A   1      32.553  30.285  25.952  1.00  0.00     0.016 A 
ATOM     21  C   UNL A   1      33.109  27.602  26.561  1.00  0.00     0.028 A 
ATOM     22  C   UNL A   1      31.893  29.239  25.305  1.00  0.00    -0.021 A 
ATOM     23  C   UNL A   1      32.127  27.905  25.639  1.00  0.00     0.055 A 
ATOM     24  C   UNL A   1      31.014  29.338  24.099  1.00  0.00     0.060 C 
ATOM     25  C   UNL A   1      30.511  27.896  23.934  1.00  0.00     0.140 C 
BRANCH  18  26
ATOM     26  C   UNL A   1      34.318  30.972  27.593  1.00  0.00     0.081 A 
ATOM     27  C   UNL A   1      34.361  34.313  29.053  1.00  0.00     0.079 C 
ATOM     28  C   UNL A   1      34.651  32.953  28.521  1.00  0.00     0.090 A 
ATOM     29  N   UNL A   1      33.734  32.140  28.049  1.00  0.00    -0.242 NA
ATOM     30  S   UNL A   1      36.260  32.348  28.475  1.00  0.00    -0.127 S 
ATOM     31  C   UNL A   1      35.686  30.902  27.744  1.00  0.00     0.095 A 
ENDBRANCH  18  26
ENDBRANCH  14  17
ENDBRANCH   8  14
ENDBRANCH   5   7
ENDBRANCH   4   5
ENDBRANCH   3   4
ENDBRANCH   2   3
ENDBRANCH   1   2
BRANCH   1  32
ATOM     32  C   UNL A   1      39.188  23.717  27.247  1.00  0.00     0.202 C 
BRANCH  32  33
ATOM     33  C   UNL A   1      40.054  24.982  27.243  1.00  0.00     0.261 C 
BRANCH  33  34
ATOM     34  O   UNL A   1      40.438  25.391  25.922  1.00  0.00    -0.460 OA
BRANCH  34  35
ATOM     35  C   UNL A   1      41.775  25.507  25.735  1.00  0.00     0.338 C 
ATOM     36  O   UNL A   1      42.500  24.751  25.105  1.00  0.00    -0.246 OA
BRANCH  35  37
ATOM     37  C   UNL A   1      42.249  26.799  26.261  1.00  0.00     0.060 A 
ATOM     38  C   UNL A   1      43.236  26.771  27.255  1.00  0.00     0.016 A 
ATOM     39  C   UNL A   1      41.692  28.010  25.845  1.00  0.00     0.016 A 
ATOM     40  C   UNL A   1      43.639  27.953  27.871  1.00  0.00     0.010 A 
ATOM     41  C   UNL A   1      42.093  29.195  26.471  1.00  0.00     0.010 A 
ATOM     42  C   UNL A   1      43.043  29.166  27.509  1.00  0.00    -0.014 A 
BRANCH  42  43
ATOM     43  C   UNL A   1      43.335  30.393  28.288  1.00  0.00     0.031 A 
ATOM     44  C   UNL A   1      42.431  30.779  29.425  1.00  0.00     0.074 A 
ATOM     45  C   UNL A   1      44.388  31.165  27.971  1.00  0.00     0.049 A 
ATOM     46  N   UNL A   1      42.484  31.828  30.201  1.00  0.00    -0.248 NA
ATOM     47  C   UNL A   1      41.317  29.864  29.721  1.00  0.00     0.031 C 
ATOM     48  C   UNL A   1      45.330  30.897  26.887  1.00  0.00     0.029 A 
ATOM     49  N   UNL A   1      44.821  32.350  28.514  1.00  0.00    -0.354 N 
ATOM     50  C   UNL A   1      41.390  31.726  31.051  1.00  0.00     0.074 A 
ATOM     51  C   UNL A   1      40.690  30.512  30.695  1.00  0.00     0.031 C 
ATOM     52  C   UNL A   1      46.212  31.906  26.821  1.00  0.00     0.029 A 
ATOM     53  C   UNL A   1      45.881  32.904  27.837  1.00  0.00     0.049 A 
ATOM     54  H   UNL A   1      44.411  32.762  29.309  1.00  0.00     0.167 HD
ATOM     55  C   UNL A   1      41.011  32.563  32.044  1.00  0.00     0.034 A 
ATOM     56  C   UNL A   1      46.498  34.091  27.999  1.00  0.00     0.034 A 
ATOM     57  C   UNL A   1      41.729  33.755  32.414  1.00  0.00     0.049 A 
ATOM     58  C   UNL A   1      46.063  35.007  29.110  1.00  0.00     0.074 A 
ATOM     59  C   UNL A   1      41.469  34.621  33.459  1.00  0.00     0.029 A 
ATOM     60  N   UNL A   1      42.830  34.259  31.740  1.00  0.00    -0.354 N 
ATOM     61  N   UNL A   1      45.108  34.835  29.991  1.00  0.00    -0.248 NA
ATOM     62  C   UNL A   1      46.809  36.263  29.274  1.00  0.00     0.031 C 
ATOM     63  C   UNL A   1      42.387  35.673  33.394  1.00  0.00     0.029 A 
ATOM     64  C   UNL A   1      43.247  35.440  32.332  1.00  0.00     0.049 A 
ATOM     65  H   UNL A   1      43.254  33.842  30.956  1.00  0.00     0.167 HD
ATOM     66  C   UNL A   1      45.152  35.945  30.829  1.00  0.00     0.074 A 
ATOM     67  C   UNL A   1      46.242  36.776  30.360  1.00  0.00     0.031 C 
ATOM     68  C   UNL A   1      44.356  36.247  31.884  1.00  0.00     0.034 A 
BRANCH  55  69
ATOM     69  C   UNL A   1      39.767  32.220  32.820  1.00  0.00     0.023 A 
ATOM     70  C   UNL A   1      39.863  31.465  34.006  1.00  0.00     0.012 A 
ATOM     71  C   UNL A   1      38.511  32.710  32.412  1.00  0.00     0.148 A 
ATOM     72  C   UNL A   1      38.725  31.179  34.759  1.00  0.00     0.002 A 
ATOM     73  C   UNL A   1      37.388  32.462  33.194  1.00  0.00     0.091 A 
ATOM     74  F   UNL A   1      38.435  33.404  31.268  1.00  0.00    -0.205 F 
ATOM     75  C   UNL A   1      37.492  31.688  34.361  1.00  0.00     0.022 A 
BRANCH  73  76
ATOM     76  S   UNL A   1      35.774  33.151  32.810  1.00  0.00     0.127 S 
ATOM     77  O   UNL A   1      35.160  33.219  34.134  1.00  0.00    -0.237 OA
ATOM     78  O   UNL A   1      36.123  34.450  32.234  1.00  0.00    -0.237 OA
ATOM     79  O   UNL A   1      35.153  32.221  31.877  1.00  0.00    -0.744 OA
ENDBRANCH  73  76
ENDBRANCH  55  69
BRANCH  56  80
ATOM     80  C   UNL A   1      47.624  34.443  27.089  1.00  0.00     0.023 A 
ATOM     81  C   UNL A   1      47.369  35.196  25.928  1.00  0.00     0.012 A 
ATOM     82  C   UNL A   1      48.953  34.126  27.431  1.00  0.00     0.148 A 
ATOM     83  C   UNL A   1      48.423  35.628  25.121  1.00  0.00     0.002 A 
ATOM     84  C   UNL A   1      50.000  34.609  26.655  1.00  0.00     0.091 A 
ATOM     85  F   UNL A   1      49.167  33.400  28.538  1.00  0.00    -0.205 F 
ATOM     86  C   UNL A   1      49.736  35.349  25.492  1.00  0.00     0.022 A 
BRANCH  84  87
ATOM     87  S   UNL A   1      51.722  34.430  27.133  1.00  0.00     0.127 S 
ATOM     88  O   UNL A   1      52.405  35.187  26.086  1.00  0.00    -0.237 OA
ATOM     89  O   UNL A   1      51.730  35.061  28.454  1.00  0.00    -0.237 OA
ATOM     90  O   UNL A   1      51.988  32.998  27.143  1.00  0.00    -0.744 OA
ENDBRANCH  84  87
ENDBRANCH  56  80
BRANCH  68  91
ATOM     91  C   UNL A   1      44.624  37.525  32.640  1.00  0.00     0.023 A 
ATOM     92  C   UNL A   1      45.471  37.507  33.766  1.00  0.00     0.012 A 
ATOM     93  C   UNL A   1      44.138  38.758  32.161  1.00  0.00     0.148 A 
ATOM     94  C   UNL A   1      45.812  38.695  34.414  1.00  0.00     0.002 A 
ATOM     95  C   UNL A   1      44.525  39.941  32.780  1.00  0.00     0.091 A 
ATOM     96  F   UNL A   1      43.321  38.753  31.098  1.00  0.00    -0.205 F 
ATOM     97  C   UNL A   1      45.353  39.911  33.913  1.00  0.00     0.022 A 
BRANCH  95  98
ATOM     98  S   UNL A   1      44.071  41.558  32.141  1.00  0.00     0.127 S 
ATOM     99  O   UNL A   1      44.728  42.450  33.095  1.00  0.00    -0.237 OA
ATOM    100  O   UNL A   1      44.671  41.545  30.806  1.00  0.00    -0.237 OA
ATOM    101  O   UNL A   1      42.615  41.601  32.148  1.00  0.00    -0.744 OA
ENDBRANCH  95  98
ENDBRANCH  68  91
ENDBRANCH  42  43
ENDBRANCH  35  37
ENDBRANCH  34  35
ENDBRANCH  33  34
ENDBRANCH  32  33
ENDBRANCH   1  32
TORSDOF 20
ENDMDL
MODEL 2
REMARK VINA RESULT:     -10.1      5.646     11.799
REMARK SMILES Cc1nc(-c2ccc3c(c2)CCN3S(=O)(=O)c2ccc(F)c(C(=O)OCCOCCOC(=O)c3ccc(-c4c5nc(c(-c6cccc(S(=O)(=O)[O-])c6F)c6ccc([nH]6)c(-c6cccc(S(=O)(=O)[O-])c6F)c6nc(c(-c7cccc(S(=O)(=O)[O-])c7F)c7ccc4[nH]7)C=C6)C=C5)cc3)c2)cs1
REMARK SMILES IDX 28 1 27 2 26 3 25 4 23 5 24 6 22 7 17 8 18 9 97 10 19 11
REMARK SMILES IDX 20 12 21 13 14 14 15 15 16 16 13 17 5 18 6 19 10 20 7 21
REMARK SMILES IDX 9 22 8 23 11 24 12 25 4 26 1 27 2 28 3 29 99 30 98 31 29 32
REMARK SMILES IDX 30 33 31 34 32 35 33 36 34 37 35 38 96 39 36 40 95 41 37 42
REMARK SMILES IDX 38 43 39 44 89 45 40 46 94 47 88 48 90 49 41 50 93 51 87 52
REMARK SMILES IDX 86 53 42 55 74 56 54 57 73 58 55 59 58 60 72 61 91 62 56 63
REMARK SMILES IDX 57 64 71 66 92 67 59 68 43 69 44 70 52 71 45 72 47 73 53 74
REMARK SMILES IDX 46 75 48 76 49 77 50 78 51 79 75 80 76 81 84 82 77 83 79 84
REMARK SMILES IDX 85 85 78 86 80 87 81 88 82 89 83 90 60 91 61 92 69 93 62 94
REMARK SMILES IDX 64 95 70 96 63 97 65 98 66 99 67 100 68 101
REMARK H PARENT 90 54 58 65
REMARK Flexibility Score: inf
ROOT
ATOM      1  O   UNL A   1      39.358  32.922  38.354  1.00  0.00    -0.374 OA
ENDROOT
BRANCH   1   2
ATOM      2  C   UNL A   1      38.035  32.644  37.889  1.00  0.00     0.202 C 
BRANCH   2   3
ATOM      3  C   UNL A   1      37.624  33.294  36.564  1.00  0.00     0.261 C 
BRANCH   3   4
ATOM      4  O   UNL A   1      37.400  32.288  35.567  1.00  0.00    -0.460 OA
BRANCH   4   5
ATOM      5  C   UNL A   1      36.766  32.690  34.447  1.00  0.00     0.341 C 
ATOM      6  O   UNL A   1      35.592  33.025  34.341  1.00  0.00    -0.246 OA
BRANCH   5   7
ATOM      7  C   UNL A   1      37.744  32.896  33.364  1.00  0.00     0.097 A 
ATOM      8  C   UNL A   1      39.510  31.982  31.993  1.00  0.00     0.089 A 
ATOM      9  C   UNL A   1      39.644  33.211  31.330  1.00  0.00     0.025 A 
ATOM     10  C   UNL A   1      38.536  31.802  32.979  1.00  0.00     0.041 A 
ATOM     11  C   UNL A   1      38.839  34.286  31.705  1.00  0.00     0.041 A 
ATOM     12  C   UNL A   1      37.903  34.130  32.728  1.00  0.00     0.137 A 
ATOM     13  F   UNL A   1      37.195  35.203  33.101  1.00  0.00    -0.206 F 
BRANCH   8  14
ATOM     14  S   UNL A   1      40.684  30.695  31.668  1.00  0.00     0.264 S 
ATOM     15  O   UNL A   1      40.869  29.955  32.902  1.00  0.00    -0.201 OA
ATOM     16  O   UNL A   1      41.825  31.313  31.021  1.00  0.00    -0.201 OA
BRANCH  14  17
ATOM     17  N   UNL A   1      39.958  29.645  30.533  1.00  0.00    -0.266 N 
ATOM     18  C   UNL A   1      41.728  26.894  27.875  1.00  0.00     0.001 A 
ATOM     19  C   UNL A   1      42.194  26.919  29.196  1.00  0.00     0.012 A 
ATOM     20  C   UNL A   1      40.724  27.786  27.480  1.00  0.00     0.016 A 
ATOM     21  C   UNL A   1      41.681  27.827  30.119  1.00  0.00     0.028 A 
ATOM     22  C   UNL A   1      40.226  28.688  28.423  1.00  0.00    -0.021 A 
ATOM     23  C   UNL A   1      40.733  28.749  29.721  1.00  0.00     0.055 A 
ATOM     24  C   UNL A   1      39.023  29.565  28.280  1.00  0.00     0.060 C 
ATOM     25  C   UNL A   1      39.054  30.386  29.578  1.00  0.00     0.140 C 
BRANCH  18  26
ATOM     26  C   UNL A   1      42.248  25.852  27.010  1.00  0.00     0.081 A 
ATOM     27  C   UNL A   1      44.378  22.899  26.820  1.00  0.00     0.079 C 
ATOM     28  C   UNL A   1      43.478  24.063  26.588  1.00  0.00     0.090 A 
ATOM     29  N   UNL A   1      43.023  24.839  27.544  1.00  0.00    -0.242 NA
ATOM     30  S   UNL A   1      42.975  24.486  24.999  1.00  0.00    -0.127 S 
ATOM     31  C   UNL A   1      42.105  25.823  25.640  1.00  0.00     0.095 A 
ENDBRANCH  18  26
ENDBRANCH  14  17
ENDBRANCH   8  14
ENDBRANCH   5   7
ENDBRANCH   4   5
ENDBRANCH   3   4
ENDBRANCH   2   3
ENDBRANCH   1   2
BRANCH   1  32
ATOM     32  C   UNL A   1      39.489  33.677  39.558  1.00  0.00     0.202 C 
BRANCH  32  33
ATOM     33  C   UNL A   1      38.939  35.108  39.562  1.00  0.00     0.261 C 
BRANCH  33  34
ATOM     34  O   UNL A   1      39.288  35.843  38.379  1.00  0.00    -0.460 OA
BRANCH  34  35
ATOM     35  C   UNL A   1      40.579  36.252  38.331  1.00  0.00     0.338 C 
ATOM     36  O   UNL A   1      41.189  36.869  39.193  1.00  0.00    -0.246 OA
BRANCH  35  37
ATOM     37  C   UNL A   1      41.242  35.697  37.138  1.00  0.00     0.060 A 
ATOM     38  C   UNL A   1      40.425  35.257  36.089  1.00  0.00     0.016 A 
ATOM     39  C   UNL A   1      42.628  35.544  37.074  1.00  0.00     0.016 A 
ATOM     40  C   UNL A   1      40.988  34.618  34.988  1.00  0.00     0.010 A 
ATOM     41  C   UNL A   1      43.191  34.895  35.970  1.00  0.00     0.010 A 
ATOM     42  C   UNL A   1      42.370  34.400  34.940  1.00  0.00    -0.014 A 
BRANCH  42  43
ATOM     43  C   UNL A   1      42.947  33.560  33.863  1.00  0.00     0.031 A 
ATOM     44  C   UNL A   1      43.082  34.126  32.478  1.00  0.00     0.074 A 
ATOM     45  C   UNL A   1      43.331  32.298  34.117  1.00  0.00     0.049 A 
ATOM     46  N   UNL A   1      43.519  33.549  31.390  1.00  0.00    -0.248 NA
ATOM     47  C   UNL A   1      42.663  35.524  32.292  1.00  0.00     0.031 C 
ATOM     48  C   UNL A   1      43.243  31.639  35.418  1.00  0.00     0.029 A 
ATOM     49  N   UNL A   1      43.842  31.336  33.282  1.00  0.00    -0.354 N 
ATOM     50  C   UNL A   1      43.391  34.495  30.381  1.00  0.00     0.074 A 
ATOM     51  C   UNL A   1      42.833  35.685  30.987  1.00  0.00     0.031 C 
ATOM     52  C   UNL A   1      43.654  30.368  35.288  1.00  0.00     0.029 A 
ATOM     53  C   UNL A   1      44.006  30.116  33.892  1.00  0.00     0.049 A 
ATOM     54  H   UNL A   1      44.068  31.503  32.338  1.00  0.00     0.167 HD
ATOM     55  C   UNL A   1      43.716  34.384  29.073  1.00  0.00     0.034 A 
ATOM     56  C   UNL A   1      44.371  28.923  33.380  1.00  0.00     0.034 A 
ATOM     57  C   UNL A   1      44.299  33.208  28.483  1.00  0.00     0.049 A 
ATOM     58  C   UNL A   1      44.732  28.821  31.923  1.00  0.00     0.074 A 
ATOM     59  C   UNL A   1      44.740  33.031  27.184  1.00  0.00     0.029 A 
ATOM     60  N   UNL A   1      44.500  32.005  29.142  1.00  0.00    -0.354 N 
ATOM     61  N   UNL A   1      44.730  29.760  31.008  1.00  0.00    -0.248 NA
ATOM     62  C   UNL A   1      45.178  27.509  31.433  1.00  0.00     0.031 C 
ATOM     63  C   UNL A   1      45.170  31.708  27.046  1.00  0.00     0.029 A 
ATOM     64  C   UNL A   1      45.036  31.072  28.270  1.00  0.00     0.049 A 
ATOM     65  H   UNL A   1      44.292  31.838  30.089  1.00  0.00     0.167 HD
ATOM     66  C   UNL A   1      45.197  29.162  29.841  1.00  0.00     0.074 A 
ATOM     67  C   UNL A   1      45.488  27.781  30.170  1.00  0.00     0.031 C 
ATOM     68  C   UNL A   1      45.360  29.708  28.611  1.00  0.00     0.034 A 
BRANCH  55  69
ATOM     69  C   UNL A   1      43.467  35.572  28.181  1.00  0.00     0.023 A 
ATOM     70  C   UNL A   1      42.177  35.806  27.664  1.00  0.00     0.012 A 
ATOM     71  C   UNL A   1      44.496  36.498  27.917  1.00  0.00     0.148 A 
ATOM     72  C   UNL A   1      41.922  36.927  26.875  1.00  0.00     0.002 A 
ATOM     73  C   UNL A   1      44.221  37.638  27.171  1.00  0.00     0.091 A 
ATOM     74  F   UNL A   1      45.722  36.245  28.395  1.00  0.00    -0.205 F 
ATOM     75  C   UNL A   1      42.938  37.847  26.640  1.00  0.00     0.022 A 
BRANCH  73  76
ATOM     76  S   UNL A   1      45.444  38.925  26.891  1.00  0.00     0.127 S 
ATOM     77  O   UNL A   1      44.677  39.894  26.109  1.00  0.00    -0.237 OA
ATOM     78  O   UNL A   1      45.757  39.353  28.254  1.00  0.00    -0.237 OA
ATOM     79  O   UNL A   1      46.546  38.284  26.188  1.00  0.00    -0.744 OA
ENDBRANCH  73  76
ENDBRANCH  55  69
BRANCH  56  80
ATOM     80  C   UNL A   1      44.443  27.745  34.289  1.00  0.00     0.023 A 
ATOM     81  C   UNL A   1      45.600  27.532  35.060  1.00  0.00     0.012 A 
ATOM     82  C   UNL A   1      43.327  26.904  34.468  1.00  0.00     0.148 A 
ATOM     83  C   UNL A   1      45.645  26.498  35.996  1.00  0.00     0.002 A 
ATOM     84  C   UNL A   1      43.358  25.914  35.443  1.00  0.00     0.091 A 
ATOM     85  F   UNL A   1      42.240  27.123  33.714  1.00  0.00    -0.205 F 
ATOM     86  C   UNL A   1      44.521  25.701  36.199  1.00  0.00     0.022 A 
BRANCH  84  87
ATOM     87  S   UNL A   1      41.914  24.939  35.878  1.00  0.00     0.127 S 
ATOM     88  O   UNL A   1      42.147  23.705  35.131  1.00  0.00    -0.237 OA
ATOM     89  O   UNL A   1      42.065  24.817  37.329  1.00  0.00    -0.237 OA
ATOM     90  O   UNL A   1      40.760  25.719  35.452  1.00  0.00    -0.744 OA
ENDBRANCH  84  87
ENDBRANCH  56  80
BRANCH  68  91
ATOM     91  C   UNL A   1      45.896  28.833  27.506  1.00  0.00     0.023 A 
ATOM     92  C   UNL A   1      45.003  28.200  26.618  1.00  0.00     0.012 A 
ATOM     93  C   UNL A   1      47.283  28.739  27.273  1.00  0.00     0.148 A 
ATOM     94  C   UNL A   1      45.483  27.473  25.529  1.00  0.00     0.002 A 
ATOM     95  C   UNL A   1      47.752  28.056  26.157  1.00  0.00     0.091 A 
ATOM     96  F   UNL A   1      48.118  29.334  28.138  1.00  0.00    -0.205 F 
ATOM     97  C   UNL A   1      46.854  27.413  25.290  1.00  0.00     0.022 A 
BRANCH  95  98
ATOM     98  S   UNL A   1      49.492  28.018  25.709  1.00  0.00     0.127 S 
ATOM     99  O   UNL A   1      49.913  29.380  26.036  1.00  0.00    -0.237 OA
ATOM    100  O   UNL A   1      50.020  26.986  26.601  1.00  0.00    -0.237 OA
ATOM    101  O   UNL A   1      49.537  27.675  24.294  1.00  0.00    -0.744 OA
ENDBRANCH  95  98
ENDBRANCH  68  91
ENDBRANCH  42  43
ENDBRANCH  35  37
ENDBRANCH  34  35
ENDBRANCH  33  34
ENDBRANCH  32  33
ENDBRANCH   1  32
TORSDOF 20
ENDMDL
MODEL 3
REMARK VINA RESULT:     -10.1      4.680      8.162
REMARK SMILES Cc1nc(-c2ccc3c(c2)CCN3S(=O)(=O)c2ccc(F)c(C(=O)OCCOCCOC(=O)c3ccc(-c4c5nc(c(-c6cccc(S(=O)(=O)[O-])c6F)c6ccc([nH]6)c(-c6cccc(S(=O)(=O)[O-])c6F)c6nc(c(-c7cccc(S(=O)(=O)[O-])c7F)c7ccc4[nH]7)C=C6)C=C5)cc3)c2)cs1
REMARK SMILES IDX 28 1 27 2 26 3 25 4 23 5 24 6 22 7 17 8 18 9 97 10 19 11
REMARK SMILES IDX 20 12 21 13 14 14 15 15 16 16 13 17 5 18 6 19 10 20 7 21
REMARK SMILES IDX 9 22 8 23 11 24 12 25 4 26 1 27 2 28 3 29 99 30 98 31 29 32
REMARK SMILES IDX 30 33 31 34 32 35 33 36 34 37 35 38 96 39 36 40 95 41 37 42
REMARK SMILES IDX 38 43 39 44 89 45 40 46 94 47 88 48 90 49 41 50 93 51 87 52
REMARK SMILES IDX 86 53 42 55 74 56 54 57 73 58 55 59 58 60 72 61 91 62 56 63
REMARK SMILES IDX 57 64 71 66 92 67 59 68 43 69 44 70 52 71 45 72 47 73 53 74
REMARK SMILES IDX 46 75 48 76 49 77 50 78 51 79 75 80 76 81 84 82 77 83 79 84
REMARK SMILES IDX 85 85 78 86 80 87 81 88 82 89 83 90 60 91 61 92 69 93 62 94
REMARK SMILES IDX 64 95 70 96 63 97 65 98 66 99 67 100 68 101
REMARK H PARENT 90 54 58 65
REMARK Flexibility Score: inf
ROOT
ATOM      1  O   UNL A   1      44.748  23.294  24.090  1.00  0.00    -0.374 OA
ENDROOT
BRANCH   1   2
ATOM      2  C   UNL A   1      43.484  23.294  24.759  1.00  0.00     0.202 C 
BRANCH   2   3
ATOM      3  C   UNL A   1      43.374  22.423  26.013  1.00  0.00     0.261 C 
BRANCH   3   4
ATOM      4  O   UNL A   1      42.116  21.735  26.031  1.00  0.00    -0.460 OA
BRANCH   4   5
ATOM      5  C   UNL A   1      41.378  21.869  27.151  1.00  0.00     0.341 C 
ATOM      6  O   UNL A   1      41.733  21.643  28.302  1.00  0.00    -0.246 OA
BRANCH   5   7
ATOM      7  C   UNL A   1      40.112  22.557  26.839  1.00  0.00     0.097 A 
ATOM      8  C   UNL A   1      37.952  22.487  25.761  1.00  0.00     0.089 A 
ATOM      9  C   UNL A   1      37.689  23.798  26.184  1.00  0.00     0.025 A 
ATOM     10  C   UNL A   1      39.140  21.843  26.119  1.00  0.00     0.041 A 
ATOM     11  C   UNL A   1      38.652  24.491  26.915  1.00  0.00     0.041 A 
ATOM     12  C   UNL A   1      39.864  23.876  27.228  1.00  0.00     0.137 A 
ATOM     13  F   UNL A   1      40.787  24.597  27.876  1.00  0.00    -0.206 F 
BRANCH   8  14
ATOM     14  S   UNL A   1      36.823  21.698  24.645  1.00  0.00     0.264 S 
ATOM     15  O   UNL A   1      36.995  20.265  24.796  1.00  0.00    -0.201 OA
ATOM     16  O   UNL A   1      37.009  22.313  23.346  1.00  0.00    -0.201 OA
BRANCH  14  17
ATOM     17  N   UNL A   1      35.250  22.094  25.180  1.00  0.00    -0.266 N 
ATOM     18  C   UNL A   1      33.163  25.750  24.966  1.00  0.00     0.001 A 
ATOM     19  C   UNL A   1      33.852  25.323  23.823  1.00  0.00     0.012 A 
ATOM     20  C   UNL A   1      33.210  24.974  26.131  1.00  0.00     0.016 A 
ATOM     21  C   UNL A   1      34.593  24.144  23.833  1.00  0.00     0.028 A 
ATOM     22  C   UNL A   1      33.959  23.797  26.117  1.00  0.00    -0.021 A 
ATOM     23  C   UNL A   1      34.692  23.405  24.996  1.00  0.00     0.055 A 
ATOM     24  C   UNL A   1      33.971  22.725  27.160  1.00  0.00     0.060 C 
ATOM     25  C   UNL A   1      35.051  21.765  26.639  1.00  0.00     0.140 C 
BRANCH  18  26
ATOM     26  C   UNL A   1      32.339  26.936  24.836  1.00  0.00     0.081 A 
ATOM     27  C   UNL A   1      29.512  28.447  23.099  1.00  0.00     0.079 C 
ATOM     28  C   UNL A   1      30.692  28.113  23.943  1.00  0.00     0.090 A 
ATOM     29  N   UNL A   1      31.238  26.920  24.000  1.00  0.00    -0.242 NA
ATOM     30  S   UNL A   1      31.450  29.312  24.915  1.00  0.00    -0.127 S 
ATOM     31  C   UNL A   1      32.609  28.151  25.428  1.00  0.00     0.095 A 
ENDBRANCH  18  26
ENDBRANCH  14  17
ENDBRANCH   8  14
ENDBRANCH   5   7
ENDBRANCH   4   5
ENDBRANCH   3   4
ENDBRANCH   2   3
ENDBRANCH   1   2
BRANCH   1  32
ATOM     32  C   UNL A   1      45.917  23.112  24.888  1.00  0.00     0.202 C 
BRANCH  32  33
ATOM     33  C   UNL A   1      46.724  24.362  25.259  1.00  0.00     0.261 C 
BRANCH  33  34
ATOM     34  O   UNL A   1      46.360  25.513  24.480  1.00  0.00    -0.460 OA
BRANCH  34  35
ATOM     35  C   UNL A   1      46.911  26.675  24.904  1.00  0.00     0.338 C 
ATOM     36  O   UNL A   1      47.734  27.360  24.313  1.00  0.00    -0.246 OA
BRANCH  35  37
ATOM     37  C   UNL A   1      46.247  27.129  26.139  1.00  0.00     0.060 A 
ATOM     38  C   UNL A   1      44.847  27.140  26.155  1.00  0.00     0.016 A 
ATOM     39  C   UNL A   1      46.976  27.601  27.232  1.00  0.00     0.016 A 
ATOM     40  C   UNL A   1      44.166  27.668  27.249  1.00  0.00     0.010 A 
ATOM     41  C   UNL A   1      46.290  28.137  28.327  1.00  0.00     0.010 A 
ATOM     42  C   UNL A   1      44.884  28.203  28.325  1.00  0.00    -0.014 A 
BRANCH  42  43
ATOM     43  C   UNL A   1      44.169  28.928  29.401  1.00  0.00     0.031 A 
ATOM     44  C   UNL A   1      43.850  30.385  29.224  1.00  0.00     0.074 A 
ATOM     45  C   UNL A   1      43.823  28.294  30.535  1.00  0.00     0.049 A 
ATOM     46  N   UNL A   1      43.271  31.211  30.056  1.00  0.00    -0.248 NA
ATOM     47  C   UNL A   1      44.239  30.996  27.943  1.00  0.00     0.031 C 
ATOM     48  C   UNL A   1      44.085  26.887  30.823  1.00  0.00     0.029 A 
ATOM     49  N   UNL A   1      43.205  28.765  31.667  1.00  0.00    -0.354 N 
ATOM     50  C   UNL A   1      43.263  32.446  29.421  1.00  0.00     0.074 A 
ATOM     51  C   UNL A   1      43.896  32.263  28.133  1.00  0.00     0.031 C 
ATOM     52  C   UNL A   1      43.661  26.613  32.067  1.00  0.00     0.029 A 
ATOM     53  C   UNL A   1      43.125  27.831  32.672  1.00  0.00     0.049 A 
ATOM     54  H   UNL A   1      42.855  29.681  31.751  1.00  0.00     0.167 HD
ATOM     55  C   UNL A   1      42.765  33.622  29.867  1.00  0.00     0.034 A 
ATOM     56  C   UNL A   1      42.695  27.950  33.944  1.00  0.00     0.034 A 
ATOM     57  C   UNL A   1      42.110  33.791  31.137  1.00  0.00     0.049 A 
ATOM     58  C   UNL A   1      42.143  29.265  34.421  1.00  0.00     0.074 A 
ATOM     59  C   UNL A   1      41.499  34.925  31.641  1.00  0.00     0.029 A 
ATOM     60  N   UNL A   1      42.000  32.810  32.111  1.00  0.00    -0.354 N 
ATOM     61  N   UNL A   1      42.022  30.393  33.763  1.00  0.00    -0.248 NA
ATOM     62  C   UNL A   1      41.636  29.319  35.800  1.00  0.00     0.031 C 
ATOM     63  C   UNL A   1      41.055  34.643  32.936  1.00  0.00     0.029 A 
ATOM     64  C   UNL A   1      41.352  33.320  33.224  1.00  0.00     0.049 A 
ATOM     65  H   UNL A   1      42.332  31.888  32.025  1.00  0.00     0.167 HD
ATOM     66  C   UNL A   1      41.404  31.283  34.636  1.00  0.00     0.074 A 
ATOM     67  C   UNL A   1      41.160  30.557  35.865  1.00  0.00     0.031 C 
ATOM     68  C   UNL A   1      41.078  32.584  34.434  1.00  0.00     0.034 A 
BRANCH  55  69
ATOM     69  C   UNL A   1      42.893  34.827  28.973  1.00  0.00     0.023 A 
ATOM     70  C   UNL A   1      41.804  35.228  28.173  1.00  0.00     0.012 A 
ATOM     71  C   UNL A   1      44.067  35.605  28.983  1.00  0.00     0.148 A 
ATOM     72  C   UNL A   1      41.893  36.368  27.375  1.00  0.00     0.002 A 
ATOM     73  C   UNL A   1      44.130  36.767  28.222  1.00  0.00     0.091 A 
ATOM     74  F   UNL A   1      45.101  35.193  29.729  1.00  0.00    -0.205 F 
ATOM     75  C   UNL A   1      43.048  37.143  27.410  1.00  0.00     0.022 A 
BRANCH  73  76
ATOM     76  S   UNL A   1      45.542  37.877  28.272  1.00  0.00     0.127 S 
ATOM     77  O   UNL A   1      45.368  38.629  27.030  1.00  0.00    -0.237 OA
ATOM     78  O   UNL A   1      45.287  38.645  29.490  1.00  0.00    -0.237 OA
ATOM     79  O   UNL A   1      46.721  37.023  28.328  1.00  0.00    -0.744 OA
ENDBRANCH  73  76
ENDBRANCH  55  69
BRANCH  56  80
ATOM     80  C   UNL A   1      42.747  26.754  34.831  1.00  0.00     0.023 A 
ATOM     81  C   UNL A   1      41.600  25.952  34.984  1.00  0.00     0.012 A 
ATOM     82  C   UNL A   1      43.956  26.353  35.433  1.00  0.00     0.148 A 
ATOM     83  C   UNL A   1      41.658  24.770  35.723  1.00  0.00     0.002 A 
ATOM     84  C   UNL A   1      44.021  25.146  36.117  1.00  0.00     0.091 A 
ATOM     85  F   UNL A   1      45.031  27.140  35.279  1.00  0.00    -0.205 F 
ATOM     86  C   UNL A   1      42.870  24.359  36.275  1.00  0.00     0.022 A 
BRANCH  84  87
ATOM     87  S   UNL A   1      45.564  24.463  36.731  1.00  0.00     0.127 S 
ATOM     88  O   UNL A   1      46.446  24.627  35.578  1.00  0.00    -0.237 OA
ATOM     89  O   UNL A   1      45.854  25.351  37.858  1.00  0.00    -0.237 OA
ATOM     90  O   UNL A   1      45.273  23.085  37.104  1.00  0.00    -0.744 OA
ENDBRANCH  84  87
ENDBRANCH  56  80
BRANCH  68  91
ATOM     91  C   UNL A   1      40.399  33.332  35.554  1.00  0.00     0.023 A 
ATOM     92  C   UNL A   1      39.001  33.244  35.708  1.00  0.00     0.012 A 
ATOM     93  C   UNL A   1      41.157  34.019  36.523  1.00  0.00     0.148 A 
ATOM     94  C   UNL A   1      38.369  33.844  36.797  1.00  0.00     0.002 A 
ATOM     95  C   UNL A   1      40.527  34.569  37.633  1.00  0.00     0.091 A 
ATOM     96  F   UNL A   1      42.485  34.105  36.351  1.00  0.00    -0.205 F 
ATOM     97  C   UNL A   1      39.131  34.492  37.766  1.00  0.00     0.022 A 
BRANCH  95  98
ATOM     98  S   UNL A   1      41.438  35.327  38.983  1.00  0.00     0.127 S 
ATOM     99  O   UNL A   1      42.193  34.190  39.508  1.00  0.00    -0.237 OA
ATOM    100  O   UNL A   1      42.248  36.328  38.289  1.00  0.00    -0.237 OA
ATOM    101  O   UNL A   1      40.436  35.880  39.886  1.00  0.00    -0.744 OA
ENDBRANCH  95  98
ENDBRANCH  68  91
ENDBRANCH  42  43
ENDBRANCH  35  37
ENDBRANCH  34  35
ENDBRANCH  33  34
ENDBRANCH  32  33
ENDBRANCH   1  32
TORSDOF 20
ENDMDL
