MODEL 1
REMARK VINA RESULT:     -12.0      0.000      0.000
REMARK SMILES CC(=O)N1CC[NH+]([C@@H](C(=O)OCCOCCOC(=O)c2ccc(-c3c4nc(c(-c5cccc(S(=O)(=O)[O-])c5F)c5ccc([nH]5)c(-c5cccc(S(=O)(=O)[O-])c5F)c5nc(c(-c6cccc(S(=O)(=O)[O-])c6F)c6ccc3[nH]6)C=C5)C=C4)cc2)c2c[nH]c3ccc(Cl)cc23)CC1
REMARK SMILES IDX 15 1 14 2 13 3 12 4 11 5 9 6 10 7 8 8 7 9 1 10 2 11 3 12
REMARK SMILES IDX 4 13 5 14 94 15 6 16 93 17 83 19 84 20 92 21 85 22 86 23
REMARK SMILES IDX 91 24 87 26 89 27 88 28 90 29 16 30 17 31 18 32 19 33 20 34
REMARK SMILES IDX 21 35 82 36 22 37 81 38 23 39 24 40 25 41 75 42 26 43 80 44
REMARK SMILES IDX 74 45 76 46 27 47 79 48 73 49 72 50 28 52 60 53 40 54 59 55
REMARK SMILES IDX 41 56 44 57 58 58 77 59 42 60 43 61 57 63 78 64 45 65 29 66
REMARK SMILES IDX 30 67 38 68 31 69 33 70 39 71 32 72 34 73 35 74 36 75 37 76
REMARK SMILES IDX 61 77 62 78 70 79 63 80 65 81 71 82 64 83 66 84 67 85 68 86
REMARK SMILES IDX 69 87 46 88 47 89 55 90 48 91 50 92 56 93 49 94 51 95 52 96
REMARK SMILES IDX 53 97 54 98
REMARK H PARENT 7 18 85 25 76 51 44 62
REMARK Flexibility Score: inf
ROOT
ATOM      1  C   UNL A   1      31.407  30.370  25.704  1.00  0.00     0.202 C 
ENDROOT
BRANCH   1   2
ATOM      2  O   UNL A   1      30.927  29.704  24.542  1.00  0.00    -0.374 OA
BRANCH   2   3
ATOM      3  C   UNL A   1      31.577  28.481  24.203  1.00  0.00     0.202 C 
BRANCH   3   4
ATOM      4  C   UNL A   1      30.768  27.218  24.505  1.00  0.00     0.261 C 
BRANCH   4   5
ATOM      5  O   UNL A   1      31.164  26.671  25.782  1.00  0.00    -0.459 OA
BRANCH   5   6
ATOM      6  C   UNL A   1      32.393  26.101  25.891  1.00  0.00     0.370 C 
ATOM      7  O   UNL A   1      33.330  26.637  26.480  1.00  0.00    -0.245 OA
BRANCH   6   8
ATOM      8  C   UNL A   1      32.527  24.741  25.178  1.00  0.00     0.328 C 
BRANCH   8   9
ATOM      9  N   UNL A   1      32.030  23.471  25.847  1.00  0.00    -0.316 N 
ATOM     10  C   UNL A   1      32.856  18.299  25.818  1.00  0.00     0.114 C 
ATOM     11  C   UNL A   1      32.588  19.343  24.769  1.00  0.00     0.219 C 
ATOM     12  O   UNL A   1      32.220  18.976  23.649  1.00  0.00    -0.275 OA
ATOM     13  N   UNL A   1      32.652  20.678  25.115  1.00  0.00    -0.332 N 
ATOM     14  C   UNL A   1      31.967  21.613  24.238  1.00  0.00     0.181 C 
ATOM     15  C   UNL A   1      33.452  21.309  26.192  1.00  0.00     0.181 C 
ATOM     16  C   UNL A   1      31.155  22.553  25.120  1.00  0.00     0.285 C 
ATOM     17  C   UNL A   1      32.857  22.656  26.762  1.00  0.00     0.285 C 
ATOM     18  H   UNL A   1      31.497  24.107  26.440  1.00  0.00     0.349 HD
ENDBRANCH   8   9
BRANCH   8  19
ATOM     19  C   UNL A   1      33.875  24.526  24.424  1.00  0.00     0.046 A 
ATOM     20  C   UNL A   1      34.015  24.438  23.043  1.00  0.00     0.094 A 
ATOM     21  C   UNL A   1      35.182  24.081  24.819  1.00  0.00     0.011 A 
ATOM     22  N   UNL A   1      34.656  23.225  22.877  1.00  0.00    -0.361 N 
ATOM     23  C   UNL A   1      35.421  22.984  23.993  1.00  0.00     0.046 A 
ATOM     24  C   UNL A   1      36.239  24.453  25.667  1.00  0.00     0.031 A 
ATOM     25  H   UNL A   1      34.578  22.635  22.093  1.00  0.00     0.166 HD
ATOM     26  C   UNL A   1      36.331  21.971  24.293  1.00  0.00     0.028 A 
ATOM     27  C   UNL A   1      37.318  23.564  25.819  1.00  0.00     0.041 A 
ATOM     28  C   UNL A   1      37.302  22.296  25.240  1.00  0.00     0.022 A 
ATOM     29  Cl  UNL A   1      38.713  24.057  26.703  1.00  0.00    -0.084 Cl
ENDBRANCH   8  19
ENDBRANCH   6   8
ENDBRANCH   5   6
ENDBRANCH   4   5
ENDBRANCH   3   4
ENDBRANCH   2   3
ENDBRANCH   1   2
BRANCH   1  30
ATOM     30  C   UNL A   1      32.870  30.140  26.079  1.00  0.00     0.261 C 
BRANCH  30  31
ATOM     31  O   UNL A   1      33.085  30.374  27.471  1.00  0.00    -0.460 OA
BRANCH  31  32
ATOM     32  C   UNL A   1      33.820  31.484  27.724  1.00  0.00     0.338 C 
ATOM     33  O   UNL A   1      33.415  32.618  27.875  1.00  0.00    -0.246 OA
BRANCH  32  34
ATOM     34  C   UNL A   1      35.220  31.089  27.973  1.00  0.00     0.060 A 
ATOM     35  C   UNL A   1      35.480  29.729  28.134  1.00  0.00     0.016 A 
ATOM     36  C   UNL A   1      36.248  32.025  28.083  1.00  0.00     0.016 A 
ATOM     37  C   UNL A   1      36.752  29.311  28.511  1.00  0.00     0.010 A 
ATOM     38  C   UNL A   1      37.539  31.595  28.399  1.00  0.00     0.010 A 
ATOM     39  C   UNL A   1      37.782  30.246  28.695  1.00  0.00    -0.014 A 
BRANCH  39  40
ATOM     40  C   UNL A   1      39.044  29.810  29.353  1.00  0.00     0.031 A 
ATOM     41  C   UNL A   1      39.392  30.337  30.725  1.00  0.00     0.074 A 
ATOM     42  C   UNL A   1      39.835  28.892  28.767  1.00  0.00     0.049 A 
ATOM     43  N   UNL A   1      40.357  29.968  31.530  1.00  0.00    -0.248 NA
ATOM     44  C   UNL A   1      38.564  31.431  31.259  1.00  0.00     0.031 C 
ATOM     45  C   UNL A   1      39.645  28.346  27.422  1.00  0.00     0.029 A 
ATOM     46  N   UNL A   1      40.954  28.248  29.234  1.00  0.00    -0.354 N 
ATOM     47  C   UNL A   1      40.264  30.795  32.643  1.00  0.00     0.074 A 
ATOM     48  C   UNL A   1      39.185  31.721  32.392  1.00  0.00     0.031 C 
ATOM     49  C   UNL A   1      40.599  27.432  27.182  1.00  0.00     0.029 A 
ATOM     50  C   UNL A   1      41.476  27.336  28.347  1.00  0.00     0.049 A 
ATOM     51  H   UNL A   1      41.347  28.424  30.119  1.00  0.00     0.167 HD
ATOM     52  C   UNL A   1      40.981  30.768  33.792  1.00  0.00     0.034 A 
ATOM     53  C   UNL A   1      42.532  26.507  28.465  1.00  0.00     0.034 A 
ATOM     54  C   UNL A   1      42.023  29.817  34.061  1.00  0.00     0.049 A 
ATOM     55  C   UNL A   1      43.292  26.465  29.764  1.00  0.00     0.074 A 
ATOM     56  C   UNL A   1      42.754  29.649  35.224  1.00  0.00     0.029 A 
ATOM     57  N   UNL A   1      42.493  28.881  33.153  1.00  0.00    -0.354 N 
ATOM     58  N   UNL A   1      43.084  27.147  30.865  1.00  0.00    -0.248 NA
ATOM     59  C   UNL A   1      44.404  25.508  29.854  1.00  0.00     0.031 C 
ATOM     60  C   UNL A   1      43.691  28.634  35.006  1.00  0.00     0.029 A 
ATOM     61  C   UNL A   1      43.516  28.142  33.722  1.00  0.00     0.049 A 
ATOM     62  H   UNL A   1      42.150  28.760  32.239  1.00  0.00     0.167 HD
ATOM     63  C   UNL A   1      44.014  26.679  31.786  1.00  0.00     0.074 A 
ATOM     64  C   UNL A   1      44.770  25.638  31.122  1.00  0.00     0.031 C 
ATOM     65  C   UNL A   1      44.231  27.080  33.064  1.00  0.00     0.034 A 
BRANCH  52  66
ATOM     66  C   UNL A   1      40.631  31.770  34.864  1.00  0.00     0.023 A 
ATOM     67  C   UNL A   1      41.405  32.941  35.009  1.00  0.00     0.012 A 
ATOM     68  C   UNL A   1      39.509  31.579  35.693  1.00  0.00     0.148 A 
ATOM     69  C   UNL A   1      41.092  33.884  35.987  1.00  0.00     0.002 A 
ATOM     70  C   UNL A   1      39.173  32.548  36.631  1.00  0.00     0.091 A 
ATOM     71  F   UNL A   1      38.798  30.451  35.556  1.00  0.00    -0.205 F 
ATOM     72  C   UNL A   1      39.971  33.693  36.790  1.00  0.00     0.022 A 
BRANCH  70  73
ATOM     73  S   UNL A   1      37.700  32.438  37.653  1.00  0.00     0.127 S 
ATOM     74  O   UNL A   1      38.071  33.269  38.798  1.00  0.00    -0.237 OA
ATOM     75  O   UNL A   1      36.679  33.021  36.782  1.00  0.00    -0.237 OA
ATOM     76  O   UNL A   1      37.517  31.023  37.943  1.00  0.00    -0.744 OA
ENDBRANCH  70  73
ENDBRANCH  52  66
BRANCH  53  77
ATOM     77  C   UNL A   1      42.892  25.600  27.337  1.00  0.00     0.023 A 
ATOM     78  C   UNL A   1      43.772  26.045  26.332  1.00  0.00     0.012 A 
ATOM     79  C   UNL A   1      42.388  24.287  27.277  1.00  0.00     0.148 A 
ATOM     80  C   UNL A   1      44.119  25.208  25.270  1.00  0.00     0.002 A 
ATOM     81  C   UNL A   1      42.785  23.438  26.251  1.00  0.00     0.091 A 
ATOM     82  F   UNL A   1      41.542  23.888  28.238  1.00  0.00    -0.205 F 
ATOM     83  C   UNL A   1      43.635  23.903  25.235  1.00  0.00     0.022 A 
BRANCH  81  84
ATOM     84  S   UNL A   1      42.324  21.704  26.206  1.00  0.00     0.127 S 
ATOM     85  O   UNL A   1      40.919  21.777  25.810  1.00  0.00    -0.237 OA
ATOM     86  O   UNL A   1      43.228  21.179  25.182  1.00  0.00    -0.237 OA
ATOM     87  O   UNL A   1      42.578  21.194  27.546  1.00  0.00    -0.744 OA
ENDBRANCH  81  84
ENDBRANCH  53  77
BRANCH  65  88
ATOM     88  C   UNL A   1      45.305  26.372  33.849  1.00  0.00     0.023 A 
ATOM     89  C   UNL A   1      46.637  26.826  33.788  1.00  0.00     0.012 A 
ATOM     90  C   UNL A   1      44.977  25.300  34.702  1.00  0.00     0.148 A 
ATOM     91  C   UNL A   1      47.634  26.197  34.534  1.00  0.00     0.002 A 
ATOM     92  C   UNL A   1      45.966  24.714  35.483  1.00  0.00     0.091 A 
ATOM     93  F   UNL A   1      43.707  24.874  34.736  1.00  0.00    -0.205 F 
ATOM     94  C   UNL A   1      47.297  25.151  35.389  1.00  0.00     0.022 A 
BRANCH  92  95
ATOM     95  S   UNL A   1      45.607  23.428  36.685  1.00  0.00     0.127 S 
ATOM     96  O   UNL A   1      46.947  23.085  37.162  1.00  0.00    -0.237 OA
ATOM     97  O   UNL A   1      44.777  24.138  37.659  1.00  0.00    -0.237 OA
ATOM     98  O   UNL A   1      44.916  22.376  35.954  1.00  0.00    -0.744 OA
ENDBRANCH  92  95
ENDBRANCH  65  88
ENDBRANCH  39  40
ENDBRANCH  32  34
ENDBRANCH  31  32
ENDBRANCH  30  31
ENDBRANCH   1  30
TORSDOF 19
ENDMDL
MODEL 2
REMARK VINA RESULT:     -11.9      5.008     10.244
REMARK SMILES CC(=O)N1CC[NH+]([C@@H](C(=O)OCCOCCOC(=O)c2ccc(-c3c4nc(c(-c5cccc(S(=O)(=O)[O-])c5F)c5ccc([nH]5)c(-c5cccc(S(=O)(=O)[O-])c5F)c5nc(c(-c6cccc(S(=O)(=O)[O-])c6F)c6ccc3[nH]6)C=C5)C=C4)cc2)c2c[nH]c3ccc(Cl)cc23)CC1
REMARK SMILES IDX 15 1 14 2 13 3 12 4 11 5 9 6 10 7 8 8 7 9 1 10 2 11 3 12
REMARK SMILES IDX 4 13 5 14 94 15 6 16 93 17 83 19 84 20 92 21 85 22 86 23
REMARK SMILES IDX 91 24 87 26 89 27 88 28 90 29 16 30 17 31 18 32 19 33 20 34
REMARK SMILES IDX 21 35 82 36 22 37 81 38 23 39 24 40 25 41 75 42 26 43 80 44
REMARK SMILES IDX 74 45 76 46 27 47 79 48 73 49 72 50 28 52 60 53 40 54 59 55
REMARK SMILES IDX 41 56 44 57 58 58 77 59 42 60 43 61 57 63 78 64 45 65 29 66
REMARK SMILES IDX 30 67 38 68 31 69 33 70 39 71 32 72 34 73 35 74 36 75 37 76
REMARK SMILES IDX 61 77 62 78 70 79 63 80 65 81 71 82 64 83 66 84 67 85 68 86
REMARK SMILES IDX 69 87 46 88 47 89 55 90 48 91 50 92 56 93 49 94 51 95 52 96
REMARK SMILES IDX 53 97 54 98
REMARK H PARENT 7 18 85 25 76 51 44 62
REMARK Flexibility Score: inf
ROOT
ATOM      1  C   UNL A   1      34.820  21.118  24.644  1.00  0.00     0.202 C 
ENDROOT
BRANCH   1   2
ATOM      2  O   UNL A   1      34.768  22.319  23.883  1.00  0.00    -0.374 OA
BRANCH   2   3
ATOM      3  C   UNL A   1      33.476  22.895  23.701  1.00  0.00     0.202 C 
BRANCH   3   4
ATOM      4  C   UNL A   1      33.353  23.828  22.496  1.00  0.00     0.261 C 
BRANCH   4   5
ATOM      5  O   UNL A   1      32.119  24.575  22.574  1.00  0.00    -0.459 OA
BRANCH   5   6
ATOM      6  C   UNL A   1      32.014  25.732  21.868  1.00  0.00     0.370 C 
ATOM      7  O   UNL A   1      31.842  25.761  20.652  1.00  0.00    -0.245 OA
BRANCH   6   8
ATOM      8  C   UNL A   1      32.172  27.009  22.717  1.00  0.00     0.328 C 
BRANCH   8   9
ATOM      9  N   UNL A   1      33.472  27.286  23.454  1.00  0.00    -0.316 N 
ATOM     10  C   UNL A   1      35.207  29.245  27.991  1.00  0.00     0.114 C 
ATOM     11  C   UNL A   1      34.256  29.709  26.922  1.00  0.00     0.219 C 
ATOM     12  O   UNL A   1      33.946  30.903  26.884  1.00  0.00    -0.275 OA
ATOM     13  N   UNL A   1      33.845  28.816  25.952  1.00  0.00    -0.332 N 
ATOM     14  C   UNL A   1      33.316  29.386  24.723  1.00  0.00     0.181 C 
ATOM     15  C   UNL A   1      33.735  27.342  26.050  1.00  0.00     0.181 C 
ATOM     16  C   UNL A   1      33.976  28.654  23.562  1.00  0.00     0.285 C 
ATOM     17  C   UNL A   1      33.881  26.570  24.680  1.00  0.00     0.285 C 
ATOM     18  H   UNL A   1      33.906  26.787  22.677  1.00  0.00     0.349 HD
ENDBRANCH   8   9
BRANCH   8  19
ATOM     19  C   UNL A   1      30.918  27.395  23.560  1.00  0.00     0.046 A 
ATOM     20  C   UNL A   1      30.255  26.550  24.442  1.00  0.00     0.094 A 
ATOM     21  C   UNL A   1      29.958  28.462  23.492  1.00  0.00     0.011 A 
ATOM     22  N   UNL A   1      28.954  26.580  23.976  1.00  0.00    -0.361 N 
ATOM     23  C   UNL A   1      28.737  27.798  23.379  1.00  0.00     0.046 A 
ATOM     24  C   UNL A   1      29.890  29.861  23.586  1.00  0.00     0.031 A 
ATOM     25  H   UNL A   1      28.296  25.853  24.058  1.00  0.00     0.166 HD
ATOM     26  C   UNL A   1      27.586  28.379  22.846  1.00  0.00     0.028 A 
ATOM     27  C   UNL A   1      28.669  30.492  23.294  1.00  0.00     0.041 A 
ATOM     28  C   UNL A   1      27.575  29.772  22.813  1.00  0.00     0.022 A 
ATOM     29  Cl  UNL A   1      28.493  32.185  23.571  1.00  0.00    -0.084 Cl
ENDBRANCH   8  19
ENDBRANCH   6   8
ENDBRANCH   5   6
ENDBRANCH   4   5
ENDBRANCH   3   4
ENDBRANCH   2   3
ENDBRANCH   1   2
BRANCH   1  30
ATOM     30  C   UNL A   1      36.105  20.850  25.427  1.00  0.00     0.261 C 
BRANCH  30  31
ATOM     31  O   UNL A   1      37.061  21.890  25.213  1.00  0.00    -0.460 OA
BRANCH  31  32
ATOM     32  C   UNL A   1      38.323  21.543  25.566  1.00  0.00     0.338 C 
ATOM     33  O   UNL A   1      38.960  20.586  25.177  1.00  0.00    -0.246 OA
BRANCH  32  34
ATOM     34  C   UNL A   1      38.907  22.620  26.388  1.00  0.00     0.060 A 
ATOM     35  C   UNL A   1      38.312  23.879  26.306  1.00  0.00     0.016 A 
ATOM     36  C   UNL A   1      40.028  22.417  27.192  1.00  0.00     0.016 A 
ATOM     37  C   UNL A   1      38.904  24.963  26.946  1.00  0.00     0.010 A 
ATOM     38  C   UNL A   1      40.582  23.496  27.885  1.00  0.00     0.010 A 
ATOM     39  C   UNL A   1      40.074  24.790  27.702  1.00  0.00    -0.014 A 
BRANCH  39  40
ATOM     40  C   UNL A   1      40.830  25.992  28.146  1.00  0.00     0.031 A 
ATOM     41  C   UNL A   1      42.242  26.210  27.656  1.00  0.00     0.074 A 
ATOM     42  C   UNL A   1      40.238  26.922  28.918  1.00  0.00     0.049 A 
ATOM     43  N   UNL A   1      43.012  27.259  27.799  1.00  0.00    -0.248 NA
ATOM     44  C   UNL A   1      42.883  25.104  26.926  1.00  0.00     0.031 C 
ATOM     45  C   UNL A   1      38.902  26.808  29.506  1.00  0.00     0.029 A 
ATOM     46  N   UNL A   1      40.681  28.154  29.333  1.00  0.00    -0.354 N 
ATOM     47  C   UNL A   1      44.223  26.930  27.202  1.00  0.00     0.074 A 
ATOM     48  C   UNL A   1      44.109  25.566  26.741  1.00  0.00     0.031 C 
ATOM     49  C   UNL A   1      38.624  27.933  30.184  1.00  0.00     0.029 A 
ATOM     50  C   UNL A   1      39.764  28.843  30.092  1.00  0.00     0.049 A 
ATOM     51  H   UNL A   1      41.571  28.510  29.108  1.00  0.00     0.167 HD
ATOM     52  C   UNL A   1      45.322  27.699  27.014  1.00  0.00     0.034 A 
ATOM     53  C   UNL A   1      39.830  30.073  30.640  1.00  0.00     0.034 A 
ATOM     54  C   UNL A   1      45.419  29.070  27.431  1.00  0.00     0.049 A 
ATOM     55  C   UNL A   1      41.045  30.925  30.386  1.00  0.00     0.074 A 
ATOM     56  C   UNL A   1      46.454  29.963  27.216  1.00  0.00     0.029 A 
ATOM     57  N   UNL A   1      44.452  29.745  28.160  1.00  0.00    -0.354 N 
ATOM     58  N   UNL A   1      42.116  30.650  29.681  1.00  0.00    -0.248 NA
ATOM     59  C   UNL A   1      41.042  32.276  30.967  1.00  0.00     0.031 C 
ATOM     60  C   UNL A   1      46.127  31.168  27.846  1.00  0.00     0.029 A 
ATOM     61  C   UNL A   1      44.871  31.038  28.418  1.00  0.00     0.049 A 
ATOM     62  H   UNL A   1      43.594  29.360  28.451  1.00  0.00     0.167 HD
ATOM     63  C   UNL A   1      42.896  31.800  29.704  1.00  0.00     0.074 A 
ATOM     64  C   UNL A   1      42.163  32.785  30.474  1.00  0.00     0.031 C 
ATOM     65  C   UNL A   1      44.114  32.020  29.148  1.00  0.00     0.034 A 
BRANCH  52  66
ATOM     66  C   UNL A   1      46.493  27.087  26.286  1.00  0.00     0.023 A 
ATOM     67  C   UNL A   1      46.519  27.086  24.876  1.00  0.00     0.012 A 
ATOM     68  C   UNL A   1      47.590  26.561  26.995  1.00  0.00     0.148 A 
ATOM     69  C   UNL A   1      47.598  26.535  24.184  1.00  0.00     0.002 A 
ATOM     70  C   UNL A   1      48.684  26.061  26.300  1.00  0.00     0.091 A 
ATOM     71  F   UNL A   1      47.539  26.551  28.336  1.00  0.00    -0.205 F 
ATOM     72  C   UNL A   1      48.684  26.033  24.896  1.00  0.00     0.022 A 
BRANCH  70  73
ATOM     73  S   UNL A   1      50.168  25.471  27.122  1.00  0.00     0.127 S 
ATOM     74  O   UNL A   1      51.080  25.290  25.994  1.00  0.00    -0.237 OA
ATOM     75  O   UNL A   1      50.499  26.595  28.000  1.00  0.00    -0.237 OA
ATOM     76  O   UNL A   1      49.785  24.250  27.817  1.00  0.00    -0.744 OA
ENDBRANCH  70  73
ENDBRANCH  52  66
BRANCH  53  77
ATOM     77  C   UNL A   1      38.678  30.595  31.430  1.00  0.00     0.023 A 
ATOM     78  C   UNL A   1      38.636  30.397  32.823  1.00  0.00     0.012 A 
ATOM     79  C   UNL A   1      37.641  31.314  30.806  1.00  0.00     0.148 A 
ATOM     80  C   UNL A   1      37.564  30.880  33.578  1.00  0.00     0.002 A 
ATOM     81  C   UNL A   1      36.609  31.845  31.570  1.00  0.00     0.091 A 
ATOM     82  F   UNL A   1      37.695  31.480  29.477  1.00  0.00    -0.205 F 
ATOM     83  C   UNL A   1      36.558  31.613  32.954  1.00  0.00     0.022 A 
BRANCH  81  84
ATOM     84  S   UNL A   1      35.351  32.917  30.871  1.00  0.00     0.127 S 
ATOM     85  O   UNL A   1      36.138  34.079  30.466  1.00  0.00    -0.237 OA
ATOM     86  O   UNL A   1      34.840  32.102  29.768  1.00  0.00    -0.237 OA
ATOM     87  O   UNL A   1      34.389  33.146  31.940  1.00  0.00    -0.744 OA
ENDBRANCH  81  84
ENDBRANCH  53  77
BRANCH  65  88
ATOM     88  C   UNL A   1      44.724  33.388  29.316  1.00  0.00     0.023 A 
ATOM     89  C   UNL A   1      45.463  33.692  30.476  1.00  0.00     0.012 A 
ATOM     90  C   UNL A   1      44.622  34.347  28.289  1.00  0.00     0.148 A 
ATOM     91  C   UNL A   1      46.059  34.945  30.628  1.00  0.00     0.002 A 
ATOM     92  C   UNL A   1      45.263  35.573  28.424  1.00  0.00     0.091 A 
ATOM     93  F   UNL A   1      43.902  34.044  27.200  1.00  0.00    -0.205 F 
ATOM     94  C   UNL A   1      45.968  35.879  29.599  1.00  0.00     0.022 A 
BRANCH  92  95
ATOM     95  S   UNL A   1      45.284  36.798  27.111  1.00  0.00     0.127 S 
ATOM     96  O   UNL A   1      45.932  36.061  26.027  1.00  0.00    -0.237 OA
ATOM     97  O   UNL A   1      43.858  37.054  26.905  1.00  0.00    -0.237 OA
ATOM     98  O   UNL A   1      46.034  37.933  27.631  1.00  0.00    -0.744 OA
ENDBRANCH  92  95
ENDBRANCH  65  88
ENDBRANCH  39  40
ENDBRANCH  32  34
ENDBRANCH  31  32
ENDBRANCH  30  31
ENDBRANCH   1  30
TORSDOF 19
ENDMDL
MODEL 3
REMARK VINA RESULT:     -11.9      1.512      1.976
REMARK SMILES CC(=O)N1CC[NH+]([C@@H](C(=O)OCCOCCOC(=O)c2ccc(-c3c4nc(c(-c5cccc(S(=O)(=O)[O-])c5F)c5ccc([nH]5)c(-c5cccc(S(=O)(=O)[O-])c5F)c5nc(c(-c6cccc(S(=O)(=O)[O-])c6F)c6ccc3[nH]6)C=C5)C=C4)cc2)c2c[nH]c3ccc(Cl)cc23)CC1
REMARK SMILES IDX 15 1 14 2 13 3 12 4 11 5 9 6 10 7 8 8 7 9 1 10 2 11 3 12
REMARK SMILES IDX 4 13 5 14 94 15 6 16 93 17 83 19 84 20 92 21 85 22 86 23
REMARK SMILES IDX 91 24 87 26 89 27 88 28 90 29 16 30 17 31 18 32 19 33 20 34
REMARK SMILES IDX 21 35 82 36 22 37 81 38 23 39 24 40 25 41 75 42 26 43 80 44
REMARK SMILES IDX 74 45 76 46 27 47 79 48 73 49 72 50 28 52 60 53 40 54 59 55
REMARK SMILES IDX 41 56 44 57 58 58 77 59 42 60 43 61 57 63 78 64 45 65 29 66
REMARK SMILES IDX 30 67 38 68 31 69 33 70 39 71 32 72 34 73 35 74 36 75 37 76
REMARK SMILES IDX 61 77 62 78 70 79 63 80 65 81 71 82 64 83 66 84 67 85 68 86
REMARK SMILES IDX 69 87 46 88 47 89 55 90 48 91 50 92 56 93 49 94 51 95 52 96
REMARK SMILES IDX 53 97 54 98
REMARK H PARENT 7 18 85 25 76 51 44 62
REMARK Flexibility Score: inf
ROOT
ATOM      1  C   UNL A   1      32.354  29.252  25.320  1.00  0.00     0.202 C 
ENDROOT
BRANCH   1   2
ATOM      2  O   UNL A   1      31.993  28.055  25.998  1.00  0.00    -0.374 OA
BRANCH   2   3
ATOM      3  C   UNL A   1      31.715  26.924  25.176  1.00  0.00     0.202 C 
BRANCH   3   4
ATOM      4  C   UNL A   1      32.951  26.167  24.685  1.00  0.00     0.261 C 
BRANCH   4   5
ATOM      5  O   UNL A   1      33.469  25.330  25.742  1.00  0.00    -0.459 OA
BRANCH   5   6
ATOM      6  C   UNL A   1      32.881  24.124  25.963  1.00  0.00     0.370 C 
ATOM      7  O   UNL A   1      31.970  23.962  26.771  1.00  0.00    -0.245 OA
BRANCH   6   8
ATOM      8  C   UNL A   1      33.482  22.965  25.143  1.00  0.00     0.328 C 
BRANCH   8   9
ATOM      9  N   UNL A   1      33.267  21.525  25.577  1.00  0.00    -0.316 N 
ATOM     10  C   UNL A   1      33.797  16.638  23.769  1.00  0.00     0.114 C 
ATOM     11  C   UNL A   1      33.150  17.898  23.265  1.00  0.00     0.219 C 
ATOM     12  O   UNL A   1      32.326  17.815  22.348  1.00  0.00    -0.275 OA
ATOM     13  N   UNL A   1      33.407  19.093  23.908  1.00  0.00    -0.332 N 
ATOM     14  C   UNL A   1      32.452  20.167  23.696  1.00  0.00     0.181 C 
ATOM     15  C   UNL A   1      34.614  19.477  24.678  1.00  0.00     0.181 C 
ATOM     16  C   UNL A   1      32.131  20.765  25.060  1.00  0.00     0.285 C 
ATOM     17  C   UNL A   1      34.372  20.568  25.795  1.00  0.00     0.285 C 
ATOM     18  H   UNL A   1      33.063  21.932  26.490  1.00  0.00     0.349 HD
ENDBRANCH   8   9
BRANCH   8  19
ATOM     19  C   UNL A   1      34.928  23.217  24.615  1.00  0.00     0.046 A 
ATOM     20  C   UNL A   1      35.343  23.036  23.300  1.00  0.00     0.094 A 
ATOM     21  C   UNL A   1      36.209  23.372  25.245  1.00  0.00     0.011 A 
ATOM     22  N   UNL A   1      36.407  22.165  23.432  1.00  0.00    -0.361 N 
ATOM     23  C   UNL A   1      36.986  22.372  24.660  1.00  0.00     0.046 A 
ATOM     24  C   UNL A   1      36.876  24.223  26.141  1.00  0.00     0.031 A 
ATOM     25  H   UNL A   1      36.700  21.508  22.760  1.00  0.00     0.166 HD
ATOM     26  C   UNL A   1      38.135  21.842  25.246  1.00  0.00     0.028 A 
ATOM     27  C   UNL A   1      38.160  23.856  26.581  1.00  0.00     0.041 A 
ATOM     28  C   UNL A   1      38.723  22.628  26.236  1.00  0.00     0.022 A 
ATOM     29  Cl  UNL A   1      39.083  24.956  27.535  1.00  0.00    -0.084 Cl
ENDBRANCH   8  19
ENDBRANCH   6   8
ENDBRANCH   5   6
ENDBRANCH   4   5
ENDBRANCH   3   4
ENDBRANCH   2   3
ENDBRANCH   1   2
BRANCH   1  30
ATOM     30  C   UNL A   1      32.023  30.570  26.019  1.00  0.00     0.261 C 
BRANCH  30  31
ATOM     31  O   UNL A   1      32.625  30.628  27.313  1.00  0.00    -0.460 OA
BRANCH  31  32
ATOM     32  C   UNL A   1      33.324  31.769  27.531  1.00  0.00     0.338 C 
ATOM     33  O   UNL A   1      32.886  32.899  27.600  1.00  0.00    -0.246 OA
BRANCH  32  34
ATOM     34  C   UNL A   1      34.720  31.425  27.860  1.00  0.00     0.060 A 
ATOM     35  C   UNL A   1      34.998  30.087  28.143  1.00  0.00     0.016 A 
ATOM     36  C   UNL A   1      35.727  32.387  27.925  1.00  0.00     0.016 A 
ATOM     37  C   UNL A   1      36.263  29.728  28.597  1.00  0.00     0.010 A 
ATOM     38  C   UNL A   1      37.013  32.010  28.320  1.00  0.00     0.010 A 
ATOM     39  C   UNL A   1      37.269  30.696  28.736  1.00  0.00    -0.014 A 
BRANCH  39  40
ATOM     40  C   UNL A   1      38.514  30.342  29.470  1.00  0.00     0.031 A 
ATOM     41  C   UNL A   1      38.687  30.783  30.905  1.00  0.00     0.074 A 
ATOM     42  C   UNL A   1      39.449  29.566  28.891  1.00  0.00     0.049 A 
ATOM     43  N   UNL A   1      39.619  30.452  31.763  1.00  0.00    -0.248 NA
ATOM     44  C   UNL A   1      37.701  31.735  31.443  1.00  0.00     0.031 C 
ATOM     45  C   UNL A   1      39.432  29.119  27.497  1.00  0.00     0.029 A 
ATOM     46  N   UNL A   1      40.592  29.007  29.407  1.00  0.00    -0.354 N 
ATOM     47  C   UNL A   1      39.343  31.167  32.922  1.00  0.00     0.074 A 
ATOM     48  C   UNL A   1      38.190  31.991  32.646  1.00  0.00     0.031 C 
ATOM     49  C   UNL A   1      40.499  28.335  27.276  1.00  0.00     0.029 A 
ATOM     50  C   UNL A   1      41.284  28.234  28.505  1.00  0.00     0.049 A 
ATOM     51  H   UNL A   1      40.888  29.147  30.335  1.00  0.00     0.167 HD
ATOM     52  C   UNL A   1      39.962  31.118  34.126  1.00  0.00     0.034 A 
ATOM     53  C   UNL A   1      42.414  27.514  28.654  1.00  0.00     0.034 A 
ATOM     54  C   UNL A   1      41.080  30.263  34.416  1.00  0.00     0.049 A 
ATOM     55  C   UNL A   1      43.064  27.443  30.010  1.00  0.00     0.074 A 
ATOM     56  C   UNL A   1      41.728  30.075  35.624  1.00  0.00     0.029 A 
ATOM     57  N   UNL A   1      41.724  29.463  33.486  1.00  0.00    -0.354 N 
ATOM     58  N   UNL A   1      42.692  28.003  31.136  1.00  0.00    -0.248 NA
ATOM     59  C   UNL A   1      44.267  26.605  30.127  1.00  0.00     0.031 C 
ATOM     60  C   UNL A   1      42.788  29.188  35.416  1.00  0.00     0.029 A 
ATOM     61  C   UNL A   1      42.774  28.791  34.087  1.00  0.00     0.049 A 
ATOM     62  H   UNL A   1      41.473  29.385  32.538  1.00  0.00     0.167 HD
ATOM     63  C   UNL A   1      43.591  27.559  32.099  1.00  0.00     0.074 A 
ATOM     64  C   UNL A   1      44.512  26.664  31.429  1.00  0.00     0.031 C 
ATOM     65  C   UNL A   1      43.656  27.871  33.418  1.00  0.00     0.034 A 
BRANCH  52  66
ATOM     66  C   UNL A   1      39.415  31.982  35.235  1.00  0.00     0.023 A 
ATOM     67  C   UNL A   1      38.449  31.459  36.120  1.00  0.00     0.012 A 
ATOM     68  C   UNL A   1      39.893  33.292  35.433  1.00  0.00     0.148 A 
ATOM     69  C   UNL A   1      37.938  32.239  37.158  1.00  0.00     0.002 A 
ATOM     70  C   UNL A   1      39.418  34.044  36.500  1.00  0.00     0.091 A 
ATOM     71  F   UNL A   1      40.795  33.780  34.569  1.00  0.00    -0.205 F 
ATOM     72  C   UNL A   1      38.431  33.526  37.355  1.00  0.00     0.022 A 
BRANCH  70  73
ATOM     73  S   UNL A   1      40.050  35.680  36.891  1.00  0.00     0.127 S 
ATOM     74  O   UNL A   1      39.363  35.971  38.148  1.00  0.00    -0.237 OA
ATOM     75  O   UNL A   1      41.486  35.429  37.024  1.00  0.00    -0.237 OA
ATOM     76  O   UNL A   1      39.683  36.531  35.768  1.00  0.00    -0.744 OA
ENDBRANCH  70  73
ENDBRANCH  52  66
BRANCH  53  77
ATOM     77  C   UNL A   1      42.964  26.750  27.498  1.00  0.00     0.023 A 
ATOM     78  C   UNL A   1      43.730  27.412  26.520  1.00  0.00     0.012 A 
ATOM     79  C   UNL A   1      42.757  25.362  27.385  1.00  0.00     0.148 A 
ATOM     80  C   UNL A   1      44.253  26.711  25.431  1.00  0.00     0.002 A 
ATOM     81  C   UNL A   1      43.331  24.659  26.333  1.00  0.00     0.091 A 
ATOM     82  F   UNL A   1      42.015  24.754  28.321  1.00  0.00    -0.205 F 
ATOM     83  C   UNL A   1      44.063  25.335  25.344  1.00  0.00     0.022 A 
BRANCH  81  84
ATOM     84  S   UNL A   1      43.256  22.869  26.220  1.00  0.00     0.127 S 
ATOM     85  O   UNL A   1      44.652  22.496  26.434  1.00  0.00    -0.237 OA
ATOM     86  O   UNL A   1      42.352  22.537  27.323  1.00  0.00    -0.237 OA
ATOM     87  O   UNL A   1      42.718  22.579  24.898  1.00  0.00    -0.744 OA
ENDBRANCH  81  84
ENDBRANCH  53  77
BRANCH  65  88
ATOM     88  C   UNL A   1      44.735  27.216  34.241  1.00  0.00     0.023 A 
ATOM     89  C   UNL A   1      46.018  27.795  34.310  1.00  0.00     0.012 A 
ATOM     90  C   UNL A   1      44.454  26.064  35.002  1.00  0.00     0.148 A 
ATOM     91  C   UNL A   1      47.015  27.215  35.093  1.00  0.00     0.002 A 
ATOM     92  C   UNL A   1      45.438  25.523  35.822  1.00  0.00     0.091 A 
ATOM     93  F   UNL A   1      43.233  25.520  34.912  1.00  0.00    -0.205 F 
ATOM     94  C   UNL A   1      46.723  26.088  35.856  1.00  0.00     0.022 A 
BRANCH  92  95
ATOM     95  S   UNL A   1      45.122  24.133  36.914  1.00  0.00     0.127 S 
ATOM     96  O   UNL A   1      44.152  24.704  37.849  1.00  0.00    -0.237 OA
ATOM     97  O   UNL A   1      44.568  23.137  35.995  1.00  0.00    -0.237 OA
ATOM     98  O   UNL A   1      46.410  23.773  37.492  1.00  0.00    -0.744 OA
ENDBRANCH  92  95
ENDBRANCH  65  88
ENDBRANCH  39  40
ENDBRANCH  32  34
ENDBRANCH  31  32
ENDBRANCH  30  31
ENDBRANCH   1  30
TORSDOF 19
ENDMDL
