MODEL 1
REMARK VINA RESULT:     -10.7      0.000      0.000
REMARK SMILES O=C(OCCOCCOC(=O)c1cc2ccccc2cc1OCCO)c1ccc(-c2c3nc(c(-c4cccc(S(=O)(=O)[O-])c4F)c4ccc([nH]4)c(-c4cccc(S(=O)(=O)[O-])c4F)c4nc(c(-c5cccc(S(=O)(=O)[O-])c5F)c5ccc2[nH]5)C=C4)C=C3)cc1
REMARK SMILES IDX 7 1 6 2 5 3 4 4 3 5 2 6 1 7 26 8 27 9 88 10 28 11 87 12
REMARK SMILES IDX 29 13 30 14 31 15 81 16 32 17 86 18 80 19 82 20 33 21 85 22
REMARK SMILES IDX 79 23 78 24 34 26 66 27 46 28 65 29 47 30 50 31 64 32 83 33
REMARK SMILES IDX 48 34 49 35 63 37 84 38 51 39 35 40 36 41 44 42 37 43 39 44
REMARK SMILES IDX 45 45 38 46 40 47 41 48 42 49 43 50 67 51 68 52 76 53 69 54
REMARK SMILES IDX 71 55 77 56 70 57 72 58 73 59 74 60 75 61 52 62 53 63 61 64
REMARK SMILES IDX 54 65 56 66 62 67 55 68 57 69 58 70 59 71 60 72 8 73 9 74
REMARK SMILES IDX 10 75 11 76 12 77 13 78 21 79 14 80 20 81 15 82 19 83 16 84
REMARK SMILES IDX 18 85 17 86 22 87 23 88 24 89 25 90
REMARK H PARENT 82 25 50 36 25 91
REMARK Flexibility Score: inf
ROOT
ATOM      1  C   UNL A   1      38.311  22.210  26.016  1.00  0.00     0.202 C 
ENDROOT
BRANCH   1   2
ATOM      2  O   UNL A   1      38.007  21.469  24.826  1.00  0.00    -0.374 OA
BRANCH   2   3
ATOM      3  C   UNL A   1      38.156  20.052  24.897  1.00  0.00     0.202 C 
BRANCH   3   4
ATOM      4  C   UNL A   1      39.033  19.530  26.038  1.00  0.00     0.261 C 
BRANCH   4   5
ATOM      5  O   UNL A   1      40.370  19.279  25.576  1.00  0.00    -0.460 OA
BRANCH   5   6
ATOM      6  C   UNL A   1      41.540  19.632  26.153  1.00  0.00     0.338 C 
ATOM      7  O   UNL A   1      42.308  18.740  26.509  1.00  0.00    -0.246 OA
BRANCH   6   8
ATOM      8  C   UNL A   1      41.930  21.050  26.431  1.00  0.00     0.060 A 
ATOM      9  C   UNL A   1      41.885  22.082  25.493  1.00  0.00     0.016 A 
ATOM     10  C   UNL A   1      42.244  21.387  27.757  1.00  0.00     0.016 A 
ATOM     11  C   UNL A   1      42.089  23.401  25.836  1.00  0.00     0.010 A 
ATOM     12  C   UNL A   1      42.471  22.717  28.120  1.00  0.00     0.010 A 
ATOM     13  C   UNL A   1      42.378  23.721  27.152  1.00  0.00    -0.014 A 
BRANCH  13  14
ATOM     14  C   UNL A   1      42.722  25.119  27.408  1.00  0.00     0.031 A 
ATOM     15  C   UNL A   1      44.028  25.610  26.885  1.00  0.00     0.074 A 
ATOM     16  C   UNL A   1      41.797  25.934  27.941  1.00  0.00     0.049 A 
ATOM     17  N   UNL A   1      44.565  26.789  26.993  1.00  0.00    -0.248 NA
ATOM     18  C   UNL A   1      44.828  24.643  26.111  1.00  0.00     0.031 C 
ATOM     19  C   UNL A   1      40.442  25.530  28.328  1.00  0.00     0.029 A 
ATOM     20  N   UNL A   1      41.849  27.266  28.237  1.00  0.00    -0.354 N 
ATOM     21  C   UNL A   1      45.795  26.690  26.361  1.00  0.00     0.074 A 
ATOM     22  C   UNL A   1      45.912  25.349  25.838  1.00  0.00     0.031 C 
ATOM     23  C   UNL A   1      39.800  26.591  28.840  1.00  0.00     0.029 A 
ATOM     24  C   UNL A   1      40.721  27.721  28.875  1.00  0.00     0.049 A 
ATOM     25  H   UNL A   1      42.615  27.841  28.014  1.00  0.00     0.167 HD
ATOM     26  C   UNL A   1      46.748  27.642  26.258  1.00  0.00     0.034 A 
ATOM     27  C   UNL A   1      40.499  28.905  29.474  1.00  0.00     0.034 A 
ATOM     28  C   UNL A   1      46.586  28.957  26.807  1.00  0.00     0.049 A 
ATOM     29  C   UNL A   1      41.602  29.925  29.411  1.00  0.00     0.074 A 
ATOM     30  C   UNL A   1      47.481  30.006  26.821  1.00  0.00     0.029 A 
ATOM     31  N   UNL A   1      45.442  29.390  27.470  1.00  0.00    -0.354 N 
ATOM     32  N   UNL A   1      42.770  29.836  28.817  1.00  0.00    -0.248 NA
ATOM     33  C   UNL A   1      41.364  31.206  30.083  1.00  0.00     0.031 C 
ATOM     34  C   UNL A   1      46.895  31.059  27.530  1.00  0.00     0.029 A 
ATOM     35  C   UNL A   1      45.613  30.685  27.915  1.00  0.00     0.049 A 
ATOM     36  H   UNL A   1      44.629  28.851  27.602  1.00  0.00     0.167 HD
ATOM     37  C   UNL A   1      43.400  31.055  29.021  1.00  0.00     0.074 A 
ATOM     38  C   UNL A   1      42.470  31.873  29.780  1.00  0.00     0.031 C 
ATOM     39  C   UNL A   1      44.634  31.465  28.634  1.00  0.00     0.034 A 
BRANCH  26  40
ATOM     40  C   UNL A   1      48.043  27.238  25.614  1.00  0.00     0.023 A 
ATOM     41  C   UNL A   1      49.110  26.742  26.391  1.00  0.00     0.012 A 
ATOM     42  C   UNL A   1      48.225  27.421  24.229  1.00  0.00     0.148 A 
ATOM     43  C   UNL A   1      50.352  26.484  25.808  1.00  0.00     0.002 A 
ATOM     44  C   UNL A   1      49.448  27.117  23.648  1.00  0.00     0.091 A 
ATOM     45  F   UNL A   1      47.211  27.929  23.515  1.00  0.00    -0.205 F 
ATOM     46  C   UNL A   1      50.518  26.667  24.437  1.00  0.00     0.022 A 
BRANCH  44  47
ATOM     47  S   UNL A   1      49.740  27.262  21.883  1.00  0.00     0.127 S 
ATOM     48  O   UNL A   1      48.724  26.361  21.340  1.00  0.00    -0.237 OA
ATOM     49  O   UNL A   1      49.484  28.683  21.648  1.00  0.00    -0.237 OA
ATOM     50  O   UNL A   1      51.119  26.848  21.667  1.00  0.00    -0.744 OA
ENDBRANCH  44  47
ENDBRANCH  26  40
BRANCH  27  51
ATOM     51  C   UNL A   1      39.223  29.147  30.205  1.00  0.00     0.023 A 
ATOM     52  C   UNL A   1      38.983  28.519  31.441  1.00  0.00     0.012 A 
ATOM     53  C   UNL A   1      38.257  30.037  29.691  1.00  0.00     0.148 A 
ATOM     54  C   UNL A   1      37.796  28.755  32.139  1.00  0.00     0.002 A 
ATOM     55  C   UNL A   1      37.103  30.311  30.418  1.00  0.00     0.091 A 
ATOM     56  F   UNL A   1      38.493  30.614  28.505  1.00  0.00    -0.205 F 
ATOM     57  C   UNL A   1      36.863  29.658  31.634  1.00  0.00     0.022 A 
BRANCH  55  58
ATOM     58  S   UNL A   1      35.911  31.554  29.903  1.00  0.00     0.127 S 
ATOM     59  O   UNL A   1      35.207  30.865  28.826  1.00  0.00    -0.237 OA
ATOM     60  O   UNL A   1      35.131  31.746  31.126  1.00  0.00    -0.237 OA
ATOM     61  O   UNL A   1      36.695  32.714  29.504  1.00  0.00    -0.744 OA
ENDBRANCH  55  58
ENDBRANCH  27  51
BRANCH  39  62
ATOM     62  C   UNL A   1      45.030  32.870  28.988  1.00  0.00     0.023 A 
ATOM     63  C   UNL A   1      45.658  33.136  30.219  1.00  0.00     0.012 A 
ATOM     64  C   UNL A   1      44.878  33.900  28.041  1.00  0.00     0.148 A 
ATOM     65  C   UNL A   1      46.109  34.421  30.512  1.00  0.00     0.002 A 
ATOM     66  C   UNL A   1      45.383  35.163  28.317  1.00  0.00     0.091 A 
ATOM     67  F   UNL A   1      44.259  33.620  26.885  1.00  0.00    -0.205 F 
ATOM     68  C   UNL A   1      45.987  35.428  29.556  1.00  0.00     0.022 A 
BRANCH  66  69
ATOM     69  S   UNL A   1      45.375  36.482  27.101  1.00  0.00     0.127 S 
ATOM     70  O   UNL A   1      46.101  35.868  25.992  1.00  0.00    -0.237 OA
ATOM     71  O   UNL A   1      43.943  36.673  26.863  1.00  0.00    -0.237 OA
ATOM     72  O   UNL A   1      46.040  37.616  27.729  1.00  0.00    -0.744 OA
ENDBRANCH  66  69
ENDBRANCH  39  62
ENDBRANCH  13  14
ENDBRANCH   6   8
ENDBRANCH   5   6
ENDBRANCH   4   5
ENDBRANCH   3   4
ENDBRANCH   2   3
ENDBRANCH   1   2
BRANCH   1  73
ATOM     73  C   UNL A   1      37.256  23.299  26.185  1.00  0.00     0.261 C 
BRANCH  73  74
ATOM     74  O   UNL A   1      36.134  22.903  25.391  1.00  0.00    -0.460 OA
BRANCH  74  75
ATOM     75  C   UNL A   1      34.950  22.778  26.016  1.00  0.00     0.342 C 
ATOM     76  O   UNL A   1      34.535  23.462  26.928  1.00  0.00    -0.246 OA
BRANCH  75  77
ATOM     77  C   UNL A   1      34.101  21.834  25.240  1.00  0.00     0.102 A 
ATOM     78  C   UNL A   1      34.644  20.526  25.185  1.00  0.00     0.028 A 
ATOM     79  C   UNL A   1      32.887  22.094  24.594  1.00  0.00     0.134 A 
ATOM     80  C   UNL A   1      34.023  19.483  24.480  1.00  0.00    -0.017 A 
ATOM     81  C   UNL A   1      32.315  21.066  23.817  1.00  0.00     0.056 A 
ATOM     82  C   UNL A   1      34.533  18.172  24.474  1.00  0.00     0.009 A 
ATOM     83  C   UNL A   1      32.860  19.773  23.750  1.00  0.00    -0.015 A 
ATOM     84  C   UNL A   1      33.919  17.173  23.716  1.00  0.00     0.001 A 
ATOM     85  C   UNL A   1      32.268  18.767  22.970  1.00  0.00     0.009 A 
ATOM     86  C   UNL A   1      32.798  17.475  22.949  1.00  0.00     0.001 A 
BRANCH  79  87
ATOM     87  O   UNL A   1      32.143  23.235  24.496  1.00  0.00    -0.490 OA
BRANCH  87  88
ATOM     88  C   UNL A   1      31.429  23.797  25.596  1.00  0.00     0.257 C 
BRANCH  88  89
ATOM     89  C   UNL A   1      30.936  22.859  26.713  1.00  0.00     0.197 C 
BRANCH  89  90
ATOM     90  O   UNL A   1      29.805  23.310  27.440  1.00  0.00    -0.393 OA
ATOM     91  H   UNL A   1      30.095  23.892  28.160  1.00  0.00     0.210 HD
ENDBRANCH  89  90
ENDBRANCH  88  89
ENDBRANCH  87  88
ENDBRANCH  79  87
ENDBRANCH  75  77
ENDBRANCH  74  75
ENDBRANCH  73  74
ENDBRANCH   1  73
TORSDOF 21
ENDMDL
MODEL 2
REMARK VINA RESULT:     -10.6      5.879     11.379
REMARK SMILES O=C(OCCOCCOC(=O)c1cc2ccccc2cc1OCCO)c1ccc(-c2c3nc(c(-c4cccc(S(=O)(=O)[O-])c4F)c4ccc([nH]4)c(-c4cccc(S(=O)(=O)[O-])c4F)c4nc(c(-c5cccc(S(=O)(=O)[O-])c5F)c5ccc2[nH]5)C=C4)C=C3)cc1
REMARK SMILES IDX 7 1 6 2 5 3 4 4 3 5 2 6 1 7 26 8 27 9 88 10 28 11 87 12
REMARK SMILES IDX 29 13 30 14 31 15 81 16 32 17 86 18 80 19 82 20 33 21 85 22
REMARK SMILES IDX 79 23 78 24 34 26 66 27 46 28 65 29 47 30 50 31 64 32 83 33
REMARK SMILES IDX 48 34 49 35 63 37 84 38 51 39 35 40 36 41 44 42 37 43 39 44
REMARK SMILES IDX 45 45 38 46 40 47 41 48 42 49 43 50 67 51 68 52 76 53 69 54
REMARK SMILES IDX 71 55 77 56 70 57 72 58 73 59 74 60 75 61 52 62 53 63 61 64
REMARK SMILES IDX 54 65 56 66 62 67 55 68 57 69 58 70 59 71 60 72 8 73 9 74
REMARK SMILES IDX 10 75 11 76 12 77 13 78 21 79 14 80 20 81 15 82 19 83 16 84
REMARK SMILES IDX 18 85 17 86 22 87 23 88 24 89 25 90
REMARK H PARENT 82 25 50 36 25 91
REMARK Flexibility Score: inf
ROOT
ATOM      1  C   UNL A   1      33.324  29.216  26.928  1.00  0.00     0.202 C 
ENDROOT
BRANCH   1   2
ATOM      2  O   UNL A   1      33.035  30.577  26.578  1.00  0.00    -0.374 OA
BRANCH   2   3
ATOM      3  C   UNL A   1      31.710  31.038  26.838  1.00  0.00     0.202 C 
BRANCH   3   4
ATOM      4  C   UNL A   1      31.516  32.556  26.825  1.00  0.00     0.261 C 
BRANCH   4   5
ATOM      5  O   UNL A   1      32.783  33.230  26.894  1.00  0.00    -0.460 OA
BRANCH   5   6
ATOM      6  C   UNL A   1      33.406  33.741  27.980  1.00  0.00     0.338 C 
ATOM      7  O   UNL A   1      33.034  34.833  28.406  1.00  0.00    -0.246 OA
BRANCH   6   8
ATOM      8  C   UNL A   1      34.559  33.075  28.662  1.00  0.00     0.060 A 
ATOM      9  C   UNL A   1      34.473  31.880  29.378  1.00  0.00     0.016 A 
ATOM     10  C   UNL A   1      35.835  33.625  28.463  1.00  0.00     0.016 A 
ATOM     11  C   UNL A   1      35.587  31.215  29.842  1.00  0.00     0.010 A 
ATOM     12  C   UNL A   1      36.975  32.975  28.943  1.00  0.00     0.010 A 
ATOM     13  C   UNL A   1      36.841  31.760  29.621  1.00  0.00    -0.014 A 
BRANCH  13  14
ATOM     14  C   UNL A   1      37.958  31.073  30.268  1.00  0.00     0.031 A 
ATOM     15  C   UNL A   1      38.208  31.373  31.706  1.00  0.00     0.074 A 
ATOM     16  C   UNL A   1      38.595  30.093  29.606  1.00  0.00     0.049 A 
ATOM     17  N   UNL A   1      39.136  30.914  32.492  1.00  0.00    -0.248 NA
ATOM     18  C   UNL A   1      37.264  32.303  32.353  1.00  0.00     0.031 C 
ATOM     19  C   UNL A   1      38.281  29.656  28.243  1.00  0.00     0.029 A 
ATOM     20  N   UNL A   1      39.624  29.283  29.991  1.00  0.00    -0.354 N 
ATOM     21  C   UNL A   1      38.931  31.547  33.708  1.00  0.00     0.074 A 
ATOM     22  C   UNL A   1      37.771  32.394  33.571  1.00  0.00     0.031 C 
ATOM     23  C   UNL A   1      39.126  28.673  27.895  1.00  0.00     0.029 A 
ATOM     24  C   UNL A   1      40.073  28.464  28.983  1.00  0.00     0.049 A 
ATOM     25  H   UNL A   1      40.005  29.284  30.899  1.00  0.00     0.167 HD
ATOM     26  C   UNL A   1      39.676  31.438  34.830  1.00  0.00     0.034 A 
ATOM     27  C   UNL A   1      41.169  27.686  28.940  1.00  0.00     0.034 A 
ATOM     28  C   UNL A   1      40.830  30.589  34.909  1.00  0.00     0.049 A 
ATOM     29  C   UNL A   1      42.027  27.637  30.175  1.00  0.00     0.074 A 
ATOM     30  C   UNL A   1      41.706  30.414  35.961  1.00  0.00     0.029 A 
ATOM     31  N   UNL A   1      41.279  29.784  33.868  1.00  0.00    -0.354 N 
ATOM     32  N   UNL A   1      41.840  28.237  31.329  1.00  0.00    -0.248 NA
ATOM     33  C   UNL A   1      43.232  26.804  30.117  1.00  0.00     0.031 C 
ATOM     34  C   UNL A   1      42.709  29.536  35.539  1.00  0.00     0.029 A 
ATOM     35  C   UNL A   1      42.431  29.123  34.242  1.00  0.00     0.049 A 
ATOM     36  H   UNL A   1      40.839  29.698  32.991  1.00  0.00     0.167 HD
ATOM     37  C   UNL A   1      42.889  27.838  32.144  1.00  0.00     0.074 A 
ATOM     38  C   UNL A   1      43.697  26.927  31.353  1.00  0.00     0.031 C 
ATOM     39  C   UNL A   1      43.174  28.195  33.422  1.00  0.00     0.034 A 
BRANCH  26  40
ATOM     40  C   UNL A   1      39.300  32.324  35.983  1.00  0.00     0.023 A 
ATOM     41  C   UNL A   1      38.352  31.900  36.937  1.00  0.00     0.012 A 
ATOM     42  C   UNL A   1      39.843  33.620  36.078  1.00  0.00     0.148 A 
ATOM     43  C   UNL A   1      37.913  32.772  37.936  1.00  0.00     0.002 A 
ATOM     44  C   UNL A   1      39.438  34.464  37.102  1.00  0.00     0.091 A 
ATOM     45  F   UNL A   1      40.714  34.016  35.139  1.00  0.00    -0.205 F 
ATOM     46  C   UNL A   1      38.460  34.050  38.020  1.00  0.00     0.022 A 
BRANCH  44  47
ATOM     47  S   UNL A   1      40.127  36.106  37.329  1.00  0.00     0.127 S 
ATOM     48  O   UNL A   1      39.732  36.767  36.086  1.00  0.00    -0.237 OA
ATOM     49  O   UNL A   1      39.417  36.571  38.520  1.00  0.00    -0.237 OA
ATOM     50  O   UNL A   1      41.560  35.920  37.508  1.00  0.00    -0.744 OA
ENDBRANCH  44  47
ENDBRANCH  26  40
BRANCH  27  51
ATOM     51  C   UNL A   1      41.521  26.956  27.690  1.00  0.00     0.023 A 
ATOM     52  C   UNL A   1      42.028  27.654  26.580  1.00  0.00     0.012 A 
ATOM     53  C   UNL A   1      41.389  25.553  27.615  1.00  0.00     0.148 A 
ATOM     54  C   UNL A   1      42.376  26.972  25.410  1.00  0.00     0.002 A 
ATOM     55  C   UNL A   1      41.789  24.875  26.469  1.00  0.00     0.091 A 
ATOM     56  F   UNL A   1      40.888  24.905  28.675  1.00  0.00    -0.205 F 
ATOM     57  C   UNL A   1      42.267  25.584  25.359  1.00  0.00     0.022 A 
BRANCH  55  58
ATOM     58  S   UNL A   1      41.802  23.081  26.364  1.00  0.00     0.127 S 
ATOM     59  O   UNL A   1      42.626  22.856  25.180  1.00  0.00    -0.237 OA
ATOM     60  O   UNL A   1      42.432  22.710  27.632  1.00  0.00    -0.237 OA
ATOM     61  O   UNL A   1      40.407  22.680  26.247  1.00  0.00    -0.744 OA
ENDBRANCH  55  58
ENDBRANCH  27  51
BRANCH  39  62
ATOM     62  C   UNL A   1      44.383  27.568  34.054  1.00  0.00     0.023 A 
ATOM     63  C   UNL A   1      45.632  28.213  33.978  1.00  0.00     0.012 A 
ATOM     64  C   UNL A   1      44.246  26.395  34.820  1.00  0.00     0.148 A 
ATOM     65  C   UNL A   1      46.737  27.682  34.639  1.00  0.00     0.002 A 
ATOM     66  C   UNL A   1      45.336  25.906  35.524  1.00  0.00     0.091 A 
ATOM     67  F   UNL A   1      43.047  25.794  34.858  1.00  0.00    -0.205 F 
ATOM     68  C   UNL A   1      46.585  26.539  35.425  1.00  0.00     0.022 A 
BRANCH  66  69
ATOM     69  S   UNL A   1      45.201  24.515  36.650  1.00  0.00     0.127 S 
ATOM     70  O   UNL A   1      46.550  24.452  37.207  1.00  0.00    -0.237 OA
ATOM     71  O   UNL A   1      44.173  24.975  37.585  1.00  0.00    -0.237 OA
ATOM     72  O   UNL A   1      44.809  23.372  35.836  1.00  0.00    -0.744 OA
ENDBRANCH  66  69
ENDBRANCH  39  62
ENDBRANCH  13  14
ENDBRANCH   6   8
ENDBRANCH   5   6
ENDBRANCH   4   5
ENDBRANCH   3   4
ENDBRANCH   2   3
ENDBRANCH   1   2
BRANCH   1  73
ATOM     73  C   UNL A   1      34.297  28.653  25.897  1.00  0.00     0.261 C 
BRANCH  73  74
ATOM     74  O   UNL A   1      33.553  27.723  25.104  1.00  0.00    -0.460 OA
BRANCH  74  75
ATOM     75  C   UNL A   1      33.355  28.035  23.811  1.00  0.00     0.342 C 
ATOM     76  O   UNL A   1      34.200  28.113  22.946  1.00  0.00    -0.246 OA
BRANCH  75  77
ATOM     77  C   UNL A   1      31.892  28.013  23.538  1.00  0.00     0.102 A 
ATOM     78  C   UNL A   1      31.288  29.287  23.681  1.00  0.00     0.028 A 
ATOM     79  C   UNL A   1      31.097  26.919  23.173  1.00  0.00     0.134 A 
ATOM     80  C   UNL A   1      29.911  29.490  23.498  1.00  0.00    -0.017 A 
ATOM     81  C   UNL A   1      29.706  27.114  23.078  1.00  0.00     0.056 A 
ATOM     82  C   UNL A   1      29.322  30.764  23.584  1.00  0.00     0.009 A 
ATOM     83  C   UNL A   1      29.102  28.374  23.234  1.00  0.00    -0.015 A 
ATOM     84  C   UNL A   1      27.941  30.921  23.452  1.00  0.00     0.001 A 
ATOM     85  C   UNL A   1      27.712  28.540  23.131  1.00  0.00     0.009 A 
ATOM     86  C   UNL A   1      27.134  29.806  23.244  1.00  0.00     0.001 A 
BRANCH  79  87
ATOM     87  O   UNL A   1      31.412  25.608  22.957  1.00  0.00    -0.490 OA
BRANCH  87  88
ATOM     88  C   UNL A   1      32.640  25.188  22.365  1.00  0.00     0.257 C 
BRANCH  88  89
ATOM     89  C   UNL A   1      32.787  25.267  20.835  1.00  0.00     0.197 C 
BRANCH  89  90
ATOM     90  O   UNL A   1      31.749  25.946  20.150  1.00  0.00    -0.393 OA
ATOM     91  H   UNL A   1      31.381  25.367  19.465  1.00  0.00     0.210 HD
ENDBRANCH  89  90
ENDBRANCH  88  89
ENDBRANCH  87  88
ENDBRANCH  79  87
ENDBRANCH  75  77
ENDBRANCH  74  75
ENDBRANCH  73  74
ENDBRANCH   1  73
TORSDOF 21
ENDMDL
MODEL 3
REMARK VINA RESULT:     -10.5      5.512     11.153
REMARK SMILES O=C(OCCOCCOC(=O)c1cc2ccccc2cc1OCCO)c1ccc(-c2c3nc(c(-c4cccc(S(=O)(=O)[O-])c4F)c4ccc([nH]4)c(-c4cccc(S(=O)(=O)[O-])c4F)c4nc(c(-c5cccc(S(=O)(=O)[O-])c5F)c5ccc2[nH]5)C=C4)C=C3)cc1
REMARK SMILES IDX 7 1 6 2 5 3 4 4 3 5 2 6 1 7 26 8 27 9 88 10 28 11 87 12
REMARK SMILES IDX 29 13 30 14 31 15 81 16 32 17 86 18 80 19 82 20 33 21 85 22
REMARK SMILES IDX 79 23 78 24 34 26 66 27 46 28 65 29 47 30 50 31 64 32 83 33
REMARK SMILES IDX 48 34 49 35 63 37 84 38 51 39 35 40 36 41 44 42 37 43 39 44
REMARK SMILES IDX 45 45 38 46 40 47 41 48 42 49 43 50 67 51 68 52 76 53 69 54
REMARK SMILES IDX 71 55 77 56 70 57 72 58 73 59 74 60 75 61 52 62 53 63 61 64
REMARK SMILES IDX 54 65 56 66 62 67 55 68 57 69 58 70 59 71 60 72 8 73 9 74
REMARK SMILES IDX 10 75 11 76 12 77 13 78 21 79 14 80 20 81 15 82 19 83 16 84
REMARK SMILES IDX 18 85 17 86 22 87 23 88 24 89 25 90
REMARK H PARENT 82 25 50 36 25 91
REMARK Flexibility Score: inf
ROOT
ATOM      1  C   UNL A   1      33.762  29.648  27.473  1.00  0.00     0.202 C 
ENDROOT
BRANCH   1   2
ATOM      2  O   UNL A   1      33.343  30.793  26.715  1.00  0.00    -0.374 OA
BRANCH   2   3
ATOM      3  C   UNL A   1      31.941  31.053  26.671  1.00  0.00     0.202 C 
BRANCH   3   4
ATOM      4  C   UNL A   1      31.525  32.508  26.908  1.00  0.00     0.261 C 
BRANCH   4   5
ATOM      5  O   UNL A   1      32.679  33.359  26.983  1.00  0.00    -0.460 OA
BRANCH   5   6
ATOM      6  C   UNL A   1      33.280  33.868  28.083  1.00  0.00     0.338 C 
ATOM      7  O   UNL A   1      32.866  34.936  28.532  1.00  0.00    -0.246 OA
BRANCH   6   8
ATOM      8  C   UNL A   1      34.454  33.229  28.754  1.00  0.00     0.060 A 
ATOM      9  C   UNL A   1      34.364  32.276  29.769  1.00  0.00     0.016 A 
ATOM     10  C   UNL A   1      35.729  33.517  28.242  1.00  0.00     0.016 A 
ATOM     11  C   UNL A   1      35.463  31.590  30.239  1.00  0.00     0.010 A 
ATOM     12  C   UNL A   1      36.857  32.845  28.718  1.00  0.00     0.010 A 
ATOM     13  C   UNL A   1      36.712  31.871  29.710  1.00  0.00    -0.014 A 
BRANCH  13  14
ATOM     14  C   UNL A   1      37.842  31.208  30.358  1.00  0.00     0.031 A 
ATOM     15  C   UNL A   1      38.092  31.525  31.792  1.00  0.00     0.074 A 
ATOM     16  C   UNL A   1      38.493  30.233  29.702  1.00  0.00     0.049 A 
ATOM     17  N   UNL A   1      39.031  31.088  32.579  1.00  0.00    -0.248 NA
ATOM     18  C   UNL A   1      37.136  32.445  32.435  1.00  0.00     0.031 C 
ATOM     19  C   UNL A   1      38.182  29.778  28.344  1.00  0.00     0.029 A 
ATOM     20  N   UNL A   1      39.537  29.443  30.091  1.00  0.00    -0.354 N 
ATOM     21  C   UNL A   1      38.821  31.729  33.790  1.00  0.00     0.074 A 
ATOM     22  C   UNL A   1      37.645  32.556  33.650  1.00  0.00     0.031 C 
ATOM     23  C   UNL A   1      39.041  28.807  28.002  1.00  0.00     0.029 A 
ATOM     24  C   UNL A   1      39.995  28.624  29.088  1.00  0.00     0.049 A 
ATOM     25  H   UNL A   1      39.922  29.459  30.997  1.00  0.00     0.167 HD
ATOM     26  C   UNL A   1      39.572  31.642  34.910  1.00  0.00     0.034 A 
ATOM     27  C   UNL A   1      41.105  27.863  29.048  1.00  0.00     0.034 A 
ATOM     28  C   UNL A   1      40.739  30.813  34.992  1.00  0.00     0.049 A 
ATOM     29  C   UNL A   1      41.967  27.839  30.280  1.00  0.00     0.074 A 
ATOM     30  C   UNL A   1      41.622  30.663  36.042  1.00  0.00     0.029 A 
ATOM     31  N   UNL A   1      41.198  30.006  33.956  1.00  0.00    -0.354 N 
ATOM     32  N   UNL A   1      41.775  28.446  31.429  1.00  0.00    -0.248 NA
ATOM     33  C   UNL A   1      43.186  27.027  30.224  1.00  0.00     0.031 C 
ATOM     34  C   UNL A   1      42.638  29.797  35.624  1.00  0.00     0.029 A 
ATOM     35  C   UNL A   1      42.362  29.369  34.331  1.00  0.00     0.049 A 
ATOM     36  H   UNL A   1      40.756  29.905  33.082  1.00  0.00     0.167 HD
ATOM     37  C   UNL A   1      42.833  28.073  32.244  1.00  0.00     0.074 A 
ATOM     38  C   UNL A   1      43.654  27.168  31.457  1.00  0.00     0.031 C 
ATOM     39  C   UNL A   1      43.117  28.445  33.517  1.00  0.00     0.034 A 
BRANCH  26  40
ATOM     40  C   UNL A   1      39.185  32.532  36.057  1.00  0.00     0.023 A 
ATOM     41  C   UNL A   1      39.724  33.829  36.175  1.00  0.00     0.012 A 
ATOM     42  C   UNL A   1      38.330  32.045  37.065  1.00  0.00     0.148 A 
ATOM     43  C   UNL A   1      39.459  34.606  37.305  1.00  0.00     0.002 A 
ATOM     44  C   UNL A   1      38.033  32.841  38.161  1.00  0.00     0.091 A 
ATOM     45  F   UNL A   1      37.858  30.795  36.952  1.00  0.00    -0.205 F 
ATOM     46  C   UNL A   1      38.610  34.114  38.293  1.00  0.00     0.022 A 
BRANCH  44  47
ATOM     47  S   UNL A   1      36.904  32.319  39.456  1.00  0.00     0.127 S 
ATOM     48  O   UNL A   1      35.613  32.409  38.776  1.00  0.00    -0.237 OA
ATOM     49  O   UNL A   1      37.359  30.955  39.724  1.00  0.00    -0.237 OA
ATOM     50  O   UNL A   1      37.094  33.252  40.557  1.00  0.00    -0.744 OA
ENDBRANCH  44  47
ENDBRANCH  26  40
BRANCH  27  51
ATOM     51  C   UNL A   1      41.464  27.128  27.803  1.00  0.00     0.023 A 
ATOM     52  C   UNL A   1      41.980  27.821  26.693  1.00  0.00     0.012 A 
ATOM     53  C   UNL A   1      41.329  25.725  27.731  1.00  0.00     0.148 A 
ATOM     54  C   UNL A   1      42.335  27.134  25.529  1.00  0.00     0.002 A 
ATOM     55  C   UNL A   1      41.737  25.042  26.591  1.00  0.00     0.091 A 
ATOM     56  F   UNL A   1      40.820  25.082  28.791  1.00  0.00    -0.205 F 
ATOM     57  C   UNL A   1      42.224  25.747  25.482  1.00  0.00     0.022 A 
BRANCH  55  58
ATOM     58  S   UNL A   1      41.747  23.248  26.493  1.00  0.00     0.127 S 
ATOM     59  O   UNL A   1      42.458  23.021  25.239  1.00  0.00    -0.237 OA
ATOM     60  O   UNL A   1      42.493  22.885  27.698  1.00  0.00    -0.237 OA
ATOM     61  O   UNL A   1      40.349  22.841  26.507  1.00  0.00    -0.744 OA
ENDBRANCH  55  58
ENDBRANCH  27  51
BRANCH  39  62
ATOM     62  C   UNL A   1      44.339  27.845  34.150  1.00  0.00     0.023 A 
ATOM     63  C   UNL A   1      45.566  28.533  34.107  1.00  0.00     0.012 A 
ATOM     64  C   UNL A   1      44.232  26.648  34.884  1.00  0.00     0.148 A 
ATOM     65  C   UNL A   1      46.680  28.024  34.770  1.00  0.00     0.002 A 
ATOM     66  C   UNL A   1      45.330  26.179  35.590  1.00  0.00     0.091 A 
ATOM     67  F   UNL A   1      43.055  26.006  34.891  1.00  0.00    -0.205 F 
ATOM     68  C   UNL A   1      46.557  26.857  35.525  1.00  0.00     0.022 A 
BRANCH  66  69
ATOM     69  S   UNL A   1      45.228  24.756  36.679  1.00  0.00     0.127 S 
ATOM     70  O   UNL A   1      46.601  24.660  37.170  1.00  0.00    -0.237 OA
ATOM     71  O   UNL A   1      44.252  25.200  37.675  1.00  0.00    -0.237 OA
ATOM     72  O   UNL A   1      44.784  23.643  35.851  1.00  0.00    -0.744 OA
ENDBRANCH  66  69
ENDBRANCH  39  62
ENDBRANCH  13  14
ENDBRANCH   6   8
ENDBRANCH   5   6
ENDBRANCH   4   5
ENDBRANCH   3   4
ENDBRANCH   2   3
ENDBRANCH   1   2
BRANCH   1  73
ATOM     73  C   UNL A   1      34.634  28.774  26.577  1.00  0.00     0.261 C 
BRANCH  73  74
ATOM     74  O   UNL A   1      33.852  27.621  26.251  1.00  0.00    -0.460 OA
BRANCH  74  75
ATOM     75  C   UNL A   1      33.638  27.369  24.948  1.00  0.00     0.342 C 
ATOM     76  O   UNL A   1      33.690  28.168  24.037  1.00  0.00    -0.246 OA
BRANCH  75  77
ATOM     77  C   UNL A   1      33.587  25.895  24.752  1.00  0.00     0.102 A 
ATOM     78  C   UNL A   1      34.648  25.218  25.403  1.00  0.00     0.028 A 
ATOM     79  C   UNL A   1      32.648  25.151  24.027  1.00  0.00     0.134 A 
ATOM     80  C   UNL A   1      34.811  23.826  25.326  1.00  0.00    -0.017 A 
ATOM     81  C   UNL A   1      32.868  23.767  23.883  1.00  0.00     0.056 A 
ATOM     82  C   UNL A   1      35.830  23.149  26.020  1.00  0.00     0.009 A 
ATOM     83  C   UNL A   1      33.928  23.096  24.516  1.00  0.00    -0.015 A 
ATOM     84  C   UNL A   1      35.996  21.771  25.875  1.00  0.00     0.001 A 
ATOM     85  C   UNL A   1      34.122  21.715  24.357  1.00  0.00     0.009 A 
ATOM     86  C   UNL A   1      35.153  21.057  25.029  1.00  0.00     0.001 A 
BRANCH  79  87
ATOM     87  O   UNL A   1      31.541  25.534  23.326  1.00  0.00    -0.490 OA
BRANCH  87  88
ATOM     88  C   UNL A   1      31.538  25.715  21.911  1.00  0.00     0.257 C 
BRANCH  88  89
ATOM     89  C   UNL A   1      32.880  25.947  21.193  1.00  0.00     0.197 C 
BRANCH  89  90
ATOM     90  O   UNL A   1      33.461  27.228  21.370  1.00  0.00    -0.393 OA
ATOM     91  H   UNL A   1      34.006  27.227  22.173  1.00  0.00     0.210 HD
ENDBRANCH  89  90
ENDBRANCH  88  89
ENDBRANCH  87  88
ENDBRANCH  79  87
ENDBRANCH  75  77
ENDBRANCH  74  75
ENDBRANCH  73  74
ENDBRANCH   1  73
TORSDOF 21
ENDMDL
