MODEL 1
REMARK VINA RESULT:     -10.9      0.000      0.000
REMARK SMILES C[C@@H]1C[N@@H+](C[C@]2(C(=O)OCCOCCOC(=O)c3ccc(-c4c5nc(c(-c6cccc(S(=O)(=O)[O-])c6F)c6ccc([nH]6)c(-c6cccc(S(=O)(=O)[O-])c6F)c6nc(c(-c7cccc(S(=O)(=O)[O-])c7F)c7ccc4[nH]7)C=C6)C=C5)cc3)CCOC2)C[C@@H]1C
REMARK SMILES IDX 13 1 12 2 11 3 10 4 9 5 7 6 8 7 6 8 81 9 84 10 82 11 83 12
REMARK SMILES IDX 5 13 4 14 1 15 2 16 3 17 86 18 85 19 87 20 14 22 15 23 16 24
REMARK SMILES IDX 17 25 18 26 19 27 80 28 20 29 79 30 21 31 22 32 23 33 73 34
REMARK SMILES IDX 24 35 78 36 72 37 74 38 25 39 77 40 71 41 70 42 26 44 58 45
REMARK SMILES IDX 38 46 57 47 39 48 42 49 56 50 75 51 40 52 41 53 55 55 76 56
REMARK SMILES IDX 43 57 27 58 28 59 36 60 29 61 31 62 37 63 30 64 32 65 33 66
REMARK SMILES IDX 34 67 35 68 59 69 60 70 68 71 61 72 63 73 69 74 62 75 64 76
REMARK SMILES IDX 65 77 66 78 67 79 44 80 45 81 53 82 46 83 48 84 54 85 47 86
REMARK SMILES IDX 49 87 50 88 51 89 52 90
REMARK H PARENT 4 21 74 43 42 54
REMARK Flexibility Score: inf
ROOT
ATOM      1  C   UNL A   1      35.670  20.271  24.908  1.00  0.00     0.202 C 
ENDROOT
BRANCH   1   2
ATOM      2  O   UNL A   1      34.969  19.083  24.544  1.00  0.00    -0.374 OA
BRANCH   2   3
ATOM      3  C   UNL A   1      33.547  19.152  24.443  1.00  0.00     0.202 C 
BRANCH   3   4
ATOM      4  C   UNL A   1      32.787  19.743  25.631  1.00  0.00     0.261 C 
BRANCH   4   5
ATOM      5  O   UNL A   1      31.902  20.803  25.222  1.00  0.00    -0.463 OA
BRANCH   5   6
ATOM      6  C   UNL A   1      32.303  22.049  25.575  1.00  0.00     0.320 C 
ATOM      7  O   UNL A   1      32.651  22.362  26.712  1.00  0.00    -0.251 OA
BRANCH   6   8
ATOM      8  C   UNL A   1      32.278  23.064  24.430  1.00  0.00     0.142 C 
ATOM      9  C   UNL A   1      33.756  23.398  24.186  1.00  0.00     0.055 C 
ATOM     10  C   UNL A   1      31.840  22.497  23.078  1.00  0.00     0.185 C 
ATOM     11  C   UNL A   1      33.901  23.491  22.692  1.00  0.00     0.161 C 
ATOM     12  O   UNL A   1      32.955  22.562  22.166  1.00  0.00    -0.380 OA
BRANCH   8  13
ATOM     13  C   UNL A   1      31.355  24.200  24.960  1.00  0.00     0.283 C 
BRANCH  13  14
ATOM     14  N   UNL A   1      31.817  25.552  25.226  1.00  0.00    -0.333 N 
ATOM     15  C   UNL A   1      33.904  28.122  23.545  1.00  0.00     0.014 C 
ATOM     16  C   UNL A   1      33.484  26.883  24.314  1.00  0.00     0.049 C 
ATOM     17  C   UNL A   1      32.017  26.511  24.155  1.00  0.00     0.265 C 
ATOM     18  C   UNL A   1      33.661  26.925  25.842  1.00  0.00     0.049 C 
ATOM     19  C   UNL A   1      32.727  25.806  26.329  1.00  0.00     0.265 C 
ATOM     20  C   UNL A   1      33.297  28.262  26.484  1.00  0.00     0.014 C 
ATOM     21  H   UNL A   1      30.878  25.752  25.569  1.00  0.00     0.348 HD
ENDBRANCH  13  14
ENDBRANCH   8  13
ENDBRANCH   6   8
ENDBRANCH   5   6
ENDBRANCH   4   5
ENDBRANCH   3   4
ENDBRANCH   2   3
ENDBRANCH   1   2
BRANCH   1  22
ATOM     22  C   UNL A   1      37.197  20.176  25.078  1.00  0.00     0.261 C 
BRANCH  22  23
ATOM     23  O   UNL A   1      37.811  21.397  25.528  1.00  0.00    -0.460 OA
BRANCH  23  24
ATOM     24  C   UNL A   1      39.067  21.247  26.019  1.00  0.00     0.338 C 
ATOM     25  O   UNL A   1      39.834  20.315  25.807  1.00  0.00    -0.246 OA
BRANCH  24  26
ATOM     26  C   UNL A   1      39.505  22.469  26.719  1.00  0.00     0.060 A 
ATOM     27  C   UNL A   1      38.850  23.663  26.394  1.00  0.00     0.016 A 
ATOM     28  C   UNL A   1      40.594  22.472  27.593  1.00  0.00     0.016 A 
ATOM     29  C   UNL A   1      39.314  24.876  26.898  1.00  0.00     0.010 A 
ATOM     30  C   UNL A   1      41.064  23.695  28.091  1.00  0.00     0.010 A 
ATOM     31  C   UNL A   1      40.454  24.904  27.710  1.00  0.00    -0.014 A 
BRANCH  31  32
ATOM     32  C   UNL A   1      41.092  26.210  28.008  1.00  0.00     0.031 A 
ATOM     33  C   UNL A   1      42.483  26.475  27.497  1.00  0.00     0.074 A 
ATOM     34  C   UNL A   1      40.431  27.165  28.687  1.00  0.00     0.049 A 
ATOM     35  N   UNL A   1      43.212  27.556  27.599  1.00  0.00    -0.248 NA
ATOM     36  C   UNL A   1      43.140  25.373  26.774  1.00  0.00     0.031 C 
ATOM     37  C   UNL A   1      39.077  27.037  29.220  1.00  0.00     0.029 A 
ATOM     38  N   UNL A   1      40.820  28.430  29.051  1.00  0.00    -0.354 N 
ATOM     39  C   UNL A   1      44.421  27.257  26.982  1.00  0.00     0.074 A 
ATOM     40  C   UNL A   1      44.333  25.890  26.518  1.00  0.00     0.031 C 
ATOM     41  C   UNL A   1      38.750  28.176  29.854  1.00  0.00     0.029 A 
ATOM     42  C   UNL A   1      39.877  29.106  29.788  1.00  0.00     0.049 A 
ATOM     43  H   UNL A   1      41.691  28.817  28.806  1.00  0.00     0.167 HD
ATOM     44  C   UNL A   1      45.504  28.052  26.804  1.00  0.00     0.034 A 
ATOM     45  C   UNL A   1      39.923  30.330  30.351  1.00  0.00     0.034 A 
ATOM     46  C   UNL A   1      45.580  29.420  27.239  1.00  0.00     0.049 A 
ATOM     47  C   UNL A   1      41.148  31.185  30.160  1.00  0.00     0.074 A 
ATOM     48  C   UNL A   1      46.606  30.328  27.045  1.00  0.00     0.029 A 
ATOM     49  N   UNL A   1      44.602  30.072  27.971  1.00  0.00    -0.354 N 
ATOM     50  N   UNL A   1      42.229  30.937  29.461  1.00  0.00    -0.248 NA
ATOM     51  C   UNL A   1      41.147  32.504  30.811  1.00  0.00     0.031 C 
ATOM     52  C   UNL A   1      46.259  31.521  27.687  1.00  0.00     0.029 A 
ATOM     53  C   UNL A   1      45.006  31.365  28.258  1.00  0.00     0.049 A 
ATOM     54  H   UNL A   1      43.744  29.675  28.247  1.00  0.00     0.167 HD
ATOM     55  C   UNL A   1      43.018  32.078  29.556  1.00  0.00     0.074 A 
ATOM     56  C   UNL A   1      42.284  33.026  30.369  1.00  0.00     0.031 C 
ATOM     57  C   UNL A   1      44.244  32.317  29.026  1.00  0.00     0.034 A 
BRANCH  44  58
ATOM     58  C   UNL A   1      46.690  27.460  26.089  1.00  0.00     0.023 A 
ATOM     59  C   UNL A   1      46.785  27.560  24.686  1.00  0.00     0.012 A 
ATOM     60  C   UNL A   1      47.726  26.836  26.810  1.00  0.00     0.148 A 
ATOM     61  C   UNL A   1      47.876  27.015  24.009  1.00  0.00     0.002 A 
ATOM     62  C   UNL A   1      48.830  26.333  26.132  1.00  0.00     0.091 A 
ATOM     63  F   UNL A   1      47.605  26.725  28.141  1.00  0.00    -0.205 F 
ATOM     64  C   UNL A   1      48.902  26.412  24.731  1.00  0.00     0.022 A 
BRANCH  62  65
ATOM     65  S   UNL A   1      50.233  25.606  26.986  1.00  0.00     0.127 S 
ATOM     66  O   UNL A   1      51.174  25.399  25.886  1.00  0.00    -0.237 OA
ATOM     67  O   UNL A   1      50.612  26.665  27.922  1.00  0.00    -0.237 OA
ATOM     68  O   UNL A   1      49.728  24.395  27.619  1.00  0.00    -0.744 OA
ENDBRANCH  62  65
ENDBRANCH  44  58
BRANCH  45  69
ATOM     69  C   UNL A   1      38.743  30.843  31.105  1.00  0.00     0.023 A 
ATOM     70  C   UNL A   1      38.741  30.781  32.512  1.00  0.00     0.012 A 
ATOM     71  C   UNL A   1      37.642  31.416  30.440  1.00  0.00     0.148 A 
ATOM     72  C   UNL A   1      37.655  31.262  33.243  1.00  0.00     0.002 A 
ATOM     73  C   UNL A   1      36.586  31.941  31.176  1.00  0.00     0.091 A 
ATOM     74  F   UNL A   1      37.656  31.448  29.101  1.00  0.00    -0.205 F 
ATOM     75  C   UNL A   1      36.583  31.851  32.577  1.00  0.00     0.022 A 
BRANCH  73  76
ATOM     76  S   UNL A   1      35.223  32.827  30.413  1.00  0.00     0.127 S 
ATOM     77  O   UNL A   1      34.313  33.007  31.541  1.00  0.00    -0.237 OA
ATOM     78  O   UNL A   1      35.882  34.049  29.951  1.00  0.00    -0.237 OA
ATOM     79  O   UNL A   1      34.740  31.964  29.344  1.00  0.00    -0.744 OA
ENDBRANCH  73  76
ENDBRANCH  45  69
BRANCH  57  80
ATOM     80  C   UNL A   1      44.868  33.666  29.277  1.00  0.00     0.023 A 
ATOM     81  C   UNL A   1      45.648  33.872  30.432  1.00  0.00     0.012 A 
ATOM     82  C   UNL A   1      44.748  34.703  28.331  1.00  0.00     0.148 A 
ATOM     83  C   UNL A   1      46.276  35.098  30.655  1.00  0.00     0.002 A 
ATOM     84  C   UNL A   1      45.416  35.905  28.536  1.00  0.00     0.091 A 
ATOM     85  F   UNL A   1      43.986  34.495  27.247  1.00  0.00    -0.205 F 
ATOM     86  C   UNL A   1      46.169  36.108  29.703  1.00  0.00     0.022 A 
BRANCH  84  87
ATOM     87  S   UNL A   1      45.415  37.226  27.316  1.00  0.00     0.127 S 
ATOM     88  O   UNL A   1      46.130  38.286  28.024  1.00  0.00    -0.237 OA
ATOM     89  O   UNL A   1      46.155  36.626  26.206  1.00  0.00    -0.237 OA
ATOM     90  O   UNL A   1      44.013  37.500  27.026  1.00  0.00    -0.744 OA
ENDBRANCH  84  87
ENDBRANCH  57  80
ENDBRANCH  31  32
ENDBRANCH  24  26
ENDBRANCH  23  24
ENDBRANCH  22  23
ENDBRANCH   1  22
TORSDOF 19
ENDMDL
MODEL 2
REMARK VINA RESULT:     -10.8      1.523      1.959
REMARK SMILES C[C@@H]1C[N@@H+](C[C@]2(C(=O)OCCOCCOC(=O)c3ccc(-c4c5nc(c(-c6cccc(S(=O)(=O)[O-])c6F)c6ccc([nH]6)c(-c6cccc(S(=O)(=O)[O-])c6F)c6nc(c(-c7cccc(S(=O)(=O)[O-])c7F)c7ccc4[nH]7)C=C6)C=C5)cc3)CCOC2)C[C@@H]1C
REMARK SMILES IDX 13 1 12 2 11 3 10 4 9 5 7 6 8 7 6 8 81 9 84 10 82 11 83 12
REMARK SMILES IDX 5 13 4 14 1 15 2 16 3 17 86 18 85 19 87 20 14 22 15 23 16 24
REMARK SMILES IDX 17 25 18 26 19 27 80 28 20 29 79 30 21 31 22 32 23 33 73 34
REMARK SMILES IDX 24 35 78 36 72 37 74 38 25 39 77 40 71 41 70 42 26 44 58 45
REMARK SMILES IDX 38 46 57 47 39 48 42 49 56 50 75 51 40 52 41 53 55 55 76 56
REMARK SMILES IDX 43 57 27 58 28 59 36 60 29 61 31 62 37 63 30 64 32 65 33 66
REMARK SMILES IDX 34 67 35 68 59 69 60 70 68 71 61 72 63 73 69 74 62 75 64 76
REMARK SMILES IDX 65 77 66 78 67 79 44 80 45 81 53 82 46 83 48 84 54 85 47 86
REMARK SMILES IDX 49 87 50 88 51 89 52 90
REMARK H PARENT 4 21 74 43 42 54
REMARK Flexibility Score: inf
ROOT
ATOM      1  C   UNL A   1      36.194  20.376  25.032  1.00  0.00     0.202 C 
ENDROOT
BRANCH   1   2
ATOM      2  O   UNL A   1      35.789  21.479  25.841  1.00  0.00    -0.374 OA
BRANCH   2   3
ATOM      3  C   UNL A   1      34.479  21.446  26.407  1.00  0.00     0.202 C 
BRANCH   3   4
ATOM      4  C   UNL A   1      33.624  22.706  26.272  1.00  0.00     0.261 C 
BRANCH   4   5
ATOM      5  O   UNL A   1      34.008  23.489  25.127  1.00  0.00    -0.463 OA
BRANCH   5   6
ATOM      6  C   UNL A   1      33.237  23.307  24.026  1.00  0.00     0.320 C 
ATOM      7  O   UNL A   1      33.021  22.211  23.513  1.00  0.00    -0.251 OA
BRANCH   6   8
ATOM      8  C   UNL A   1      32.650  24.598  23.451  1.00  0.00     0.142 C 
ATOM      9  C   UNL A   1      33.782  25.625  23.588  1.00  0.00     0.055 C 
ATOM     10  C   UNL A   1      32.406  24.575  21.940  1.00  0.00     0.185 C 
ATOM     11  C   UNL A   1      33.738  26.436  22.323  1.00  0.00     0.161 C 
ATOM     12  O   UNL A   1      33.284  25.534  21.316  1.00  0.00    -0.380 OA
BRANCH   8  13
ATOM     13  C   UNL A   1      31.358  24.824  24.288  1.00  0.00     0.283 C 
BRANCH  13  14
ATOM     14  N   UNL A   1      31.166  25.958  25.178  1.00  0.00    -0.333 N 
ATOM     15  C   UNL A   1      31.402  29.659  24.998  1.00  0.00     0.014 C 
ATOM     16  C   UNL A   1      31.782  28.193  25.079  1.00  0.00     0.049 C 
ATOM     17  C   UNL A   1      30.669  27.231  24.687  1.00  0.00     0.265 C 
ATOM     18  C   UNL A   1      32.218  27.666  26.458  1.00  0.00     0.049 C 
ATOM     19  C   UNL A   1      32.044  26.146  26.318  1.00  0.00     0.265 C 
ATOM     20  C   UNL A   1      31.399  28.207  27.629  1.00  0.00     0.014 C 
ATOM     21  H   UNL A   1      30.334  25.482  25.524  1.00  0.00     0.348 HD
ENDBRANCH  13  14
ENDBRANCH   8  13
ENDBRANCH   6   8
ENDBRANCH   5   6
ENDBRANCH   4   5
ENDBRANCH   3   4
ENDBRANCH   2   3
ENDBRANCH   1   2
BRANCH   1  22
ATOM     22  C   UNL A   1      37.694  20.032  24.993  1.00  0.00     0.261 C 
BRANCH  22  23
ATOM     23  O   UNL A   1      38.558  21.167  25.183  1.00  0.00    -0.460 OA
BRANCH  23  24
ATOM     24  C   UNL A   1      39.558  20.969  26.079  1.00  0.00     0.338 C 
ATOM     25  O   UNL A   1      40.233  19.955  26.217  1.00  0.00    -0.246 OA
BRANCH  24  26
ATOM     26  C   UNL A   1      39.891  22.224  26.779  1.00  0.00     0.060 A 
ATOM     27  C   UNL A   1      39.227  23.385  26.364  1.00  0.00     0.016 A 
ATOM     28  C   UNL A   1      40.897  22.289  27.745  1.00  0.00     0.016 A 
ATOM     29  C   UNL A   1      39.602  24.626  26.871  1.00  0.00     0.010 A 
ATOM     30  C   UNL A   1      41.279  23.540  28.247  1.00  0.00     0.010 A 
ATOM     31  C   UNL A   1      40.664  24.716  27.779  1.00  0.00    -0.014 A 
BRANCH  31  32
ATOM     32  C   UNL A   1      41.228  26.053  28.094  1.00  0.00     0.031 A 
ATOM     33  C   UNL A   1      42.625  26.379  27.637  1.00  0.00     0.074 A 
ATOM     34  C   UNL A   1      40.498  26.978  28.741  1.00  0.00     0.049 A 
ATOM     35  N   UNL A   1      43.299  27.494  27.761  1.00  0.00    -0.248 NA
ATOM     36  C   UNL A   1      43.361  25.307  26.947  1.00  0.00     0.031 C 
ATOM     37  C   UNL A   1      39.131  26.790  29.220  1.00  0.00     0.029 A 
ATOM     38  N   UNL A   1      40.812  28.262  29.112  1.00  0.00    -0.354 N 
ATOM     39  C   UNL A   1      44.544  27.248  27.195  1.00  0.00     0.074 A 
ATOM     40  C   UNL A   1      44.538  25.877  26.736  1.00  0.00     0.031 C 
ATOM     41  C   UNL A   1      38.726  27.915  29.834  1.00  0.00     0.029 A 
ATOM     42  C   UNL A   1      39.811  28.896  29.807  1.00  0.00     0.049 A 
ATOM     43  H   UNL A   1      41.674  28.688  28.900  1.00  0.00     0.167 HD
ATOM     44  C   UNL A   1      45.595  28.092  27.055  1.00  0.00     0.034 A 
ATOM     45  C   UNL A   1      39.777  30.123  30.364  1.00  0.00     0.034 A 
ATOM     46  C   UNL A   1      45.590  29.464  27.485  1.00  0.00     0.049 A 
ATOM     47  C   UNL A   1      40.968  31.034  30.217  1.00  0.00     0.074 A 
ATOM     48  C   UNL A   1      46.580  30.418  27.326  1.00  0.00     0.029 A 
ATOM     49  N   UNL A   1      44.554  30.074  28.173  1.00  0.00    -0.354 N 
ATOM     50  N   UNL A   1      42.086  30.833  29.562  1.00  0.00    -0.248 NA
ATOM     51  C   UNL A   1      40.880  32.354  30.859  1.00  0.00     0.031 C 
ATOM     52  C   UNL A   1      46.153  31.597  27.946  1.00  0.00     0.029 A 
ATOM     53  C   UNL A   1      44.886  31.385  28.468  1.00  0.00     0.049 A 
ATOM     54  H   UNL A   1      43.705  29.638  28.417  1.00  0.00     0.167 HD
ATOM     55  C   UNL A   1      42.817  32.010  29.681  1.00  0.00     0.074 A 
ATOM     56  C   UNL A   1      42.008  32.926  30.459  1.00  0.00     0.031 C 
ATOM     57  C   UNL A   1      44.051  32.304  29.200  1.00  0.00     0.034 A 
BRANCH  44  58
ATOM     58  C   UNL A   1      46.835  27.553  26.391  1.00  0.00     0.023 A 
ATOM     59  C   UNL A   1      47.735  26.756  27.128  1.00  0.00     0.012 A 
ATOM     60  C   UNL A   1      47.091  27.807  25.030  1.00  0.00     0.148 A 
ATOM     61  C   UNL A   1      48.889  26.251  26.529  1.00  0.00     0.002 A 
ATOM     62  C   UNL A   1      48.221  27.266  24.430  1.00  0.00     0.091 A 
ATOM     63  F   UNL A   1      46.238  28.590  24.353  1.00  0.00    -0.205 F 
ATOM     64  C   UNL A   1      49.126  26.497  25.179  1.00  0.00     0.022 A 
BRANCH  62  65
ATOM     65  S   UNL A   1      48.568  27.468  22.679  1.00  0.00     0.127 S 
ATOM     66  O   UNL A   1      49.848  28.174  22.712  1.00  0.00    -0.237 OA
ATOM     67  O   UNL A   1      48.647  26.083  22.214  1.00  0.00    -0.237 OA
ATOM     68  O   UNL A   1      47.447  28.223  22.136  1.00  0.00    -0.744 OA
ENDBRANCH  62  65
ENDBRANCH  44  58
BRANCH  45  69
ATOM     69  C   UNL A   1      38.546  30.584  31.067  1.00  0.00     0.023 A 
ATOM     70  C   UNL A   1      38.404  30.339  32.446  1.00  0.00     0.012 A 
ATOM     71  C   UNL A   1      37.533  31.287  30.385  1.00  0.00     0.148 A 
ATOM     72  C   UNL A   1      37.267  30.766  33.131  1.00  0.00     0.002 A 
ATOM     73  C   UNL A   1      36.427  31.756  31.084  1.00  0.00     0.091 A 
ATOM     74  F   UNL A   1      37.679  31.493  29.070  1.00  0.00    -0.205 F 
ATOM     75  C   UNL A   1      36.284  31.484  32.454  1.00  0.00     0.022 A 
BRANCH  73  76
ATOM     76  S   UNL A   1      35.173  32.793  30.324  1.00  0.00     0.127 S 
ATOM     77  O   UNL A   1      34.598  31.890  29.330  1.00  0.00    -0.237 OA
ATOM     78  O   UNL A   1      34.302  33.092  31.462  1.00  0.00    -0.237 OA
ATOM     79  O   UNL A   1      35.884  33.947  29.792  1.00  0.00    -0.744 OA
ENDBRANCH  73  76
ENDBRANCH  45  69
BRANCH  57  80
ATOM     80  C   UNL A   1      44.601  33.681  29.467  1.00  0.00     0.023 A 
ATOM     81  C   UNL A   1      45.464  33.890  30.561  1.00  0.00     0.012 A 
ATOM     82  C   UNL A   1      44.328  34.749  28.589  1.00  0.00     0.148 A 
ATOM     83  C   UNL A   1      46.024  35.146  30.793  1.00  0.00     0.002 A 
ATOM     84  C   UNL A   1      44.927  35.986  28.800  1.00  0.00     0.091 A 
ATOM     85  F   UNL A   1      43.490  34.537  27.565  1.00  0.00    -0.205 F 
ATOM     86  C   UNL A   1      45.765  36.189  29.907  1.00  0.00     0.022 A 
BRANCH  84  87
ATOM     87  S   UNL A   1      44.729  37.358  27.655  1.00  0.00     0.127 S 
ATOM     88  O   UNL A   1      43.336  37.737  27.883  1.00  0.00    -0.237 OA
ATOM     89  O   UNL A   1      45.714  38.321  28.149  1.00  0.00    -0.237 OA
ATOM     90  O   UNL A   1      45.023  36.820  26.333  1.00  0.00    -0.744 OA
ENDBRANCH  84  87
ENDBRANCH  57  80
ENDBRANCH  31  32
ENDBRANCH  24  26
ENDBRANCH  23  24
ENDBRANCH  22  23
ENDBRANCH   1  22
TORSDOF 19
ENDMDL
MODEL 3
REMARK VINA RESULT:     -10.7      4.852     10.349
REMARK SMILES C[C@@H]1C[N@@H+](C[C@]2(C(=O)OCCOCCOC(=O)c3ccc(-c4c5nc(c(-c6cccc(S(=O)(=O)[O-])c6F)c6ccc([nH]6)c(-c6cccc(S(=O)(=O)[O-])c6F)c6nc(c(-c7cccc(S(=O)(=O)[O-])c7F)c7ccc4[nH]7)C=C6)C=C5)cc3)CCOC2)C[C@@H]1C
REMARK SMILES IDX 13 1 12 2 11 3 10 4 9 5 7 6 8 7 6 8 81 9 84 10 82 11 83 12
REMARK SMILES IDX 5 13 4 14 1 15 2 16 3 17 86 18 85 19 87 20 14 22 15 23 16 24
REMARK SMILES IDX 17 25 18 26 19 27 80 28 20 29 79 30 21 31 22 32 23 33 73 34
REMARK SMILES IDX 24 35 78 36 72 37 74 38 25 39 77 40 71 41 70 42 26 44 58 45
REMARK SMILES IDX 38 46 57 47 39 48 42 49 56 50 75 51 40 52 41 53 55 55 76 56
REMARK SMILES IDX 43 57 27 58 28 59 36 60 29 61 31 62 37 63 30 64 32 65 33 66
REMARK SMILES IDX 34 67 35 68 59 69 60 70 68 71 61 72 63 73 69 74 62 75 64 76
REMARK SMILES IDX 65 77 66 78 67 79 44 80 45 81 53 82 46 83 48 84 54 85 47 86
REMARK SMILES IDX 49 87 50 88 51 89 52 90
REMARK H PARENT 4 21 74 43 42 54
REMARK Flexibility Score: inf
ROOT
ATOM      1  C   UNL A   1      31.638  31.103  26.212  1.00  0.00     0.202 C 
ENDROOT
BRANCH   1   2
ATOM      2  O   UNL A   1      31.015  30.751  24.978  1.00  0.00    -0.374 OA
BRANCH   2   3
ATOM      3  C   UNL A   1      30.906  29.364  24.658  1.00  0.00     0.202 C 
BRANCH   3   4
ATOM      4  C   UNL A   1      31.898  28.410  25.323  1.00  0.00     0.261 C 
BRANCH   4   5
ATOM      5  O   UNL A   1      31.666  27.045  24.931  1.00  0.00    -0.463 OA
BRANCH   5   6
ATOM      6  C   UNL A   1      32.773  26.370  24.532  1.00  0.00     0.320 C 
ATOM      7  O   UNL A   1      33.872  26.472  25.073  1.00  0.00    -0.251 OA
BRANCH   6   8
ATOM      8  C   UNL A   1      32.550  25.457  23.324  1.00  0.00     0.142 C 
ATOM      9  C   UNL A   1      31.483  26.182  22.491  1.00  0.00     0.055 C 
ATOM     10  C   UNL A   1      33.729  25.379  22.351  1.00  0.00     0.185 C 
ATOM     11  C   UNL A   1      31.904  26.001  21.060  1.00  0.00     0.161 C 
ATOM     12  O   UNL A   1      33.330  25.958  21.092  1.00  0.00    -0.380 OA
BRANCH   8  13
ATOM     13  C   UNL A   1      32.171  24.087  23.957  1.00  0.00     0.283 C 
BRANCH  13  14
ATOM     14  N   UNL A   1      32.993  23.404  24.942  1.00  0.00    -0.333 N 
ATOM     15  C   UNL A   1      35.450  20.620  25.013  1.00  0.00     0.014 C 
ATOM     16  C   UNL A   1      34.143  21.389  24.947  1.00  0.00     0.049 C 
ATOM     17  C   UNL A   1      34.296  22.862  24.599  1.00  0.00     0.265 C 
ATOM     18  C   UNL A   1      33.298  21.428  26.233  1.00  0.00     0.049 C 
ATOM     19  C   UNL A   1      32.370  22.629  26.000  1.00  0.00     0.265 C 
ATOM     20  C   UNL A   1      34.109  21.602  27.516  1.00  0.00     0.014 C 
ATOM     21  H   UNL A   1      33.199  24.322  25.334  1.00  0.00     0.348 HD
ENDBRANCH  13  14
ENDBRANCH   8  13
ENDBRANCH   6   8
ENDBRANCH   5   6
ENDBRANCH   4   5
ENDBRANCH   3   4
ENDBRANCH   2   3
ENDBRANCH   1   2
BRANCH   1  22
ATOM     22  C   UNL A   1      31.709  32.597  26.576  1.00  0.00     0.261 C 
BRANCH  22  23
ATOM     23  O   UNL A   1      32.216  32.852  27.898  1.00  0.00    -0.460 OA
BRANCH  23  24
ATOM     24  C   UNL A   1      33.266  33.710  27.942  1.00  0.00     0.338 C 
ATOM     25  O   UNL A   1      33.216  34.935  27.932  1.00  0.00    -0.246 OA
BRANCH  24  26
ATOM     26  C   UNL A   1      34.525  32.988  28.203  1.00  0.00     0.060 A 
ATOM     27  C   UNL A   1      34.422  31.685  28.707  1.00  0.00     0.016 A 
ATOM     28  C   UNL A   1      35.773  33.596  28.058  1.00  0.00     0.016 A 
ATOM     29  C   UNL A   1      35.563  31.003  29.122  1.00  0.00     0.010 A 
ATOM     30  C   UNL A   1      36.918  32.911  28.486  1.00  0.00     0.010 A 
ATOM     31  C   UNL A   1      36.813  31.630  29.059  1.00  0.00    -0.014 A 
BRANCH  31  32
ATOM     32  C   UNL A   1      37.966  31.006  29.754  1.00  0.00     0.031 A 
ATOM     33  C   UNL A   1      38.249  31.386  31.183  1.00  0.00     0.074 A 
ATOM     34  C   UNL A   1      38.729  30.083  29.139  1.00  0.00     0.049 A 
ATOM     35  N   UNL A   1      39.171  30.935  31.994  1.00  0.00    -0.248 NA
ATOM     36  C   UNL A   1      37.376  32.411  31.777  1.00  0.00     0.031 C 
ATOM     37  C   UNL A   1      38.548  29.620  27.766  1.00  0.00     0.029 A 
ATOM     38  N   UNL A   1      39.815  29.378  29.594  1.00  0.00    -0.354 N 
ATOM     39  C   UNL A   1      39.009  31.640  33.181  1.00  0.00     0.074 A 
ATOM     40  C   UNL A   1      37.908  32.557  32.982  1.00  0.00     0.031 C 
ATOM     41  C   UNL A   1      39.500  28.713  27.484  1.00  0.00     0.029 A 
ATOM     42  C   UNL A   1      40.367  28.547  28.651  1.00  0.00     0.049 A 
ATOM     43  H   UNL A   1      40.165  29.461  30.511  1.00  0.00     0.167 HD
ATOM     44  C   UNL A   1      39.703  31.526  34.338  1.00  0.00     0.034 A 
ATOM     45  C   UNL A   1      41.452  27.750  28.717  1.00  0.00     0.034 A 
ATOM     46  C   UNL A   1      40.778  30.594  34.546  1.00  0.00     0.049 A 
ATOM     47  C   UNL A   1      42.223  27.660  30.008  1.00  0.00     0.074 A 
ATOM     48  C   UNL A   1      41.497  30.355  35.704  1.00  0.00     0.029 A 
ATOM     49  N   UNL A   1      41.300  29.760  33.571  1.00  0.00    -0.354 N 
ATOM     50  N   UNL A   1      41.976  28.233  31.161  1.00  0.00    -0.248 NA
ATOM     51  C   UNL A   1      43.407  26.786  30.016  1.00  0.00     0.031 C 
ATOM     52  C   UNL A   1      42.476  29.397  35.418  1.00  0.00     0.029 A 
ATOM     53  C   UNL A   1      42.348  29.020  34.091  1.00  0.00     0.049 A 
ATOM     54  H   UNL A   1      40.974  29.702  32.643  1.00  0.00     0.167 HD
ATOM     55  C   UNL A   1      42.946  27.763  32.040  1.00  0.00     0.074 A 
ATOM     56  C   UNL A   1      43.778  26.845  31.289  1.00  0.00     0.031 C 
ATOM     57  C   UNL A   1      43.138  28.071  33.346  1.00  0.00     0.034 A 
BRANCH  44  58
ATOM     58  C   UNL A   1      39.305  32.426  35.479  1.00  0.00     0.023 A 
ATOM     59  C   UNL A   1      38.409  31.959  36.461  1.00  0.00     0.012 A 
ATOM     60  C   UNL A   1      39.845  33.721  35.595  1.00  0.00     0.148 A 
ATOM     61  C   UNL A   1      38.028  32.780  37.522  1.00  0.00     0.002 A 
ATOM     62  C   UNL A   1      39.494  34.518  36.678  1.00  0.00     0.091 A 
ATOM     63  F   UNL A   1      40.675  34.159  34.637  1.00  0.00    -0.205 F 
ATOM     64  C   UNL A   1      38.578  34.055  37.636  1.00  0.00     0.022 A 
BRANCH  62  65
ATOM     65  S   UNL A   1      40.210  36.144  36.946  1.00  0.00     0.127 S 
ATOM     66  O   UNL A   1      39.905  36.813  35.682  1.00  0.00    -0.237 OA
ATOM     67  O   UNL A   1      39.448  36.635  38.095  1.00  0.00    -0.237 OA
ATOM     68  O   UNL A   1      41.624  35.917  37.213  1.00  0.00    -0.744 OA
ENDBRANCH  62  65
ENDBRANCH  44  58
BRANCH  45  69
ATOM     69  C   UNL A   1      41.842  26.927  27.536  1.00  0.00     0.023 A 
ATOM     70  C   UNL A   1      42.497  27.541  26.451  1.00  0.00     0.012 A 
ATOM     71  C   UNL A   1      41.594  25.541  27.495  1.00  0.00     0.148 A 
ATOM     72  C   UNL A   1      42.879  26.794  25.337  1.00  0.00     0.002 A 
ATOM     73  C   UNL A   1      42.025  24.793  26.406  1.00  0.00     0.091 A 
ATOM     74  F   UNL A   1      40.953  24.981  28.530  1.00  0.00    -0.205 F 
ATOM     75  C   UNL A   1      42.655  25.420  25.319  1.00  0.00     0.022 A 
BRANCH  73  76
ATOM     76  S   UNL A   1      41.889  23.003  26.348  1.00  0.00     0.127 S 
ATOM     77  O   UNL A   1      40.442  22.811  26.372  1.00  0.00    -0.237 OA
ATOM     78  O   UNL A   1      42.532  22.696  25.070  1.00  0.00    -0.237 OA
ATOM     79  O   UNL A   1      42.610  22.515  27.516  1.00  0.00    -0.744 OA
ENDBRANCH  73  76
ENDBRANCH  45  69
BRANCH  57  80
ATOM     80  C   UNL A   1      44.273  27.392  34.070  1.00  0.00     0.023 A 
ATOM     81  C   UNL A   1      45.540  28.006  34.117  1.00  0.00     0.012 A 
ATOM     82  C   UNL A   1      44.062  26.187  34.770  1.00  0.00     0.148 A 
ATOM     83  C   UNL A   1      46.588  27.418  34.826  1.00  0.00     0.002 A 
ATOM     84  C   UNL A   1      45.098  25.632  35.514  1.00  0.00     0.091 A 
ATOM     85  F   UNL A   1      42.855  25.608  34.698  1.00  0.00    -0.205 F 
ATOM     86  C   UNL A   1      46.363  26.239  35.533  1.00  0.00     0.022 A 
BRANCH  84  87
ATOM     87  S   UNL A   1      44.871  24.169  36.534  1.00  0.00     0.127 S 
ATOM     88  O   UNL A   1      46.253  23.800  36.836  1.00  0.00    -0.237 OA
ATOM     89  O   UNL A   1      44.117  24.695  37.672  1.00  0.00    -0.237 OA
ATOM     90  O   UNL A   1      44.134  23.219  35.710  1.00  0.00    -0.744 OA
ENDBRANCH  84  87
ENDBRANCH  57  80
ENDBRANCH  31  32
ENDBRANCH  24  26
ENDBRANCH  23  24
ENDBRANCH  22  23
ENDBRANCH   1  22
TORSDOF 19
ENDMDL
