MODEL 1
REMARK VINA RESULT:      -9.5      0.000      0.000
REMARK SMILES CN(C[C@H]1C[C@H](O)C1)C(=O)NCCOCC(=O)OCCOCCOC(=O)c1ccc(-c2c3nc(c(-c4cccc(S(=O)(=O)[O-])c4F)c4ccc([nH]4)c(-c4cccc(S(=O)(=O)[O-])c4F)c4nc(c(-c5cccc(S(=O)(=O)[O-])c5F)c5ccc2[nH]5)C=C4)C=C3)cc1
REMARK SMILES IDX 19 1 18 2 16 3 17 4 15 5 14 6 13 7 12 8 11 9 9 10 10 11 2 13
REMARK SMILES IDX 1 14 3 15 4 16 8 17 5 18 6 19 7 20 20 22 21 23 22 24 23 25
REMARK SMILES IDX 24 26 25 27 26 28 27 29 28 30 89 31 29 32 88 33 30 34 31 35
REMARK SMILES IDX 32 36 82 37 33 38 87 39 81 40 83 41 34 42 86 43 80 44 79 45
REMARK SMILES IDX 35 47 67 48 47 49 66 50 48 51 51 52 65 53 84 54 49 55 50 56
REMARK SMILES IDX 64 58 85 59 52 60 36 61 37 62 45 63 38 64 40 65 46 66 39 67
REMARK SMILES IDX 41 68 42 69 43 70 44 71 68 72 69 73 77 74 70 75 72 76 78 77
REMARK SMILES IDX 71 78 73 79 74 80 75 81 76 82 53 83 54 84 62 85 55 86 57 87
REMARK SMILES IDX 63 88 56 89 58 90 59 91 60 92 61 93
REMARK H PARENT 11 12 7 21 83 46 51 57
REMARK Flexibility Score: inf
ROOT
ATOM      1  C   UNL A   1      32.507  28.694  24.838  1.00  0.00     0.261 C 
ENDROOT
BRANCH   1   2
ATOM      2  O   UNL A   1      33.678  27.850  24.818  1.00  0.00    -0.462 OA
BRANCH   2   3
ATOM      3  C   UNL A   1      33.643  26.872  23.866  1.00  0.00     0.332 C 
ATOM      4  O   UNL A   1      33.299  27.052  22.700  1.00  0.00    -0.250 OA
BRANCH   3   5
ATOM      5  C   UNL A   1      33.993  25.462  24.383  1.00  0.00     0.282 C 
BRANCH   5   6
ATOM      6  O   UNL A   1      34.638  24.426  23.679  1.00  0.00    -0.368 OA
BRANCH   6   7
ATOM      7  C   UNL A   1      35.702  23.742  24.331  1.00  0.00     0.182 C 
BRANCH   7   8
ATOM      8  C   UNL A   1      35.746  22.210  24.160  1.00  0.00     0.146 C 
BRANCH   8   9
ATOM      9  N   UNL A   1      34.995  21.477  25.175  1.00  0.00    -0.336 N 
ATOM     10  C   UNL A   1      33.822  20.836  25.286  1.00  0.00     0.317 C 
ATOM     11  O   UNL A   1      33.491  20.582  26.451  1.00  0.00    -0.249 OA
ATOM     12  H   UNL A   1      35.495  21.443  26.022  1.00  0.00     0.165 HD
BRANCH  10  13
ATOM     13  N   UNL A   1      33.015  20.492  24.236  1.00  0.00    -0.328 N 
ATOM     14  C   UNL A   1      32.266  21.602  23.646  1.00  0.00     0.148 C 
BRANCH  13  15
ATOM     15  C   UNL A   1      32.643  19.155  23.755  1.00  0.00     0.124 C 
BRANCH  15  16
ATOM     16  C   UNL A   1      33.655  18.124  24.268  1.00  0.00     0.014 C 
ATOM     17  C   UNL A   1      33.975  16.889  23.386  1.00  0.00     0.037 C 
ATOM     18  C   UNL A   1      33.171  17.165  25.354  1.00  0.00     0.037 C 
ATOM     19  C   UNL A   1      33.713  15.960  24.587  1.00  0.00     0.115 C 
BRANCH  19  20
ATOM     20  O   UNL A   1      34.858  15.319  25.170  1.00  0.00    -0.393 OA
ATOM     21  H   UNL A   1      35.234  15.891  25.858  1.00  0.00     0.210 HD
ENDBRANCH  19  20
ENDBRANCH  15  16
ENDBRANCH  13  15
ENDBRANCH  10  13
ENDBRANCH   8   9
ENDBRANCH   7   8
ENDBRANCH   6   7
ENDBRANCH   5   6
ENDBRANCH   3   5
ENDBRANCH   2   3
ENDBRANCH   1   2
BRANCH   1  22
ATOM     22  C   UNL A   1      32.456  29.848  25.858  1.00  0.00     0.202 C 
BRANCH  22  23
ATOM     23  O   UNL A   1      31.573  30.942  25.655  1.00  0.00    -0.374 OA
BRANCH  23  24
ATOM     24  C   UNL A   1      31.308  31.787  26.758  1.00  0.00     0.202 C 
BRANCH  24  25
ATOM     25  C   UNL A   1      32.251  32.959  27.023  1.00  0.00     0.261 C 
BRANCH  25  26
ATOM     26  O   UNL A   1      33.633  32.671  27.079  1.00  0.00    -0.460 OA
BRANCH  26  27
ATOM     27  C   UNL A   1      34.283  33.453  27.965  1.00  0.00     0.338 C 
ATOM     28  O   UNL A   1      34.065  34.631  28.220  1.00  0.00    -0.246 OA
BRANCH  27  29
ATOM     29  C   UNL A   1      35.410  32.680  28.472  1.00  0.00     0.060 A 
ATOM     30  C   UNL A   1      35.224  31.369  28.924  1.00  0.00     0.016 A 
ATOM     31  C   UNL A   1      36.664  33.291  28.475  1.00  0.00     0.016 A 
ATOM     32  C   UNL A   1      36.309  30.674  29.435  1.00  0.00     0.010 A 
ATOM     33  C   UNL A   1      37.755  32.578  28.947  1.00  0.00     0.010 A 
ATOM     34  C   UNL A   1      37.569  31.287  29.465  1.00  0.00    -0.014 A 
BRANCH  34  35
ATOM     35  C   UNL A   1      38.691  30.603  30.124  1.00  0.00     0.031 A 
ATOM     36  C   UNL A   1      39.081  31.022  31.507  1.00  0.00     0.074 A 
ATOM     37  C   UNL A   1      39.347  29.637  29.459  1.00  0.00     0.049 A 
ATOM     38  N   UNL A   1      40.032  30.558  32.269  1.00  0.00    -0.248 NA
ATOM     39  C   UNL A   1      38.304  32.120  32.112  1.00  0.00     0.031 C 
ATOM     40  C   UNL A   1      39.045  29.207  28.094  1.00  0.00     0.029 A 
ATOM     41  N   UNL A   1      40.414  28.868  29.832  1.00  0.00    -0.354 N 
ATOM     42  C   UNL A   1      39.997  31.329  33.425  1.00  0.00     0.074 A 
ATOM     43  C   UNL A   1      38.938  32.299  33.260  1.00  0.00     0.031 C 
ATOM     44  C   UNL A   1      39.923  28.259  27.733  1.00  0.00     0.029 A 
ATOM     45  C   UNL A   1      40.863  28.044  28.829  1.00  0.00     0.049 A 
ATOM     46  H   UNL A   1      40.820  28.901  30.727  1.00  0.00     0.167 HD
ATOM     47  C   UNL A   1      40.779  31.226  34.522  1.00  0.00     0.034 A 
ATOM     48  C   UNL A   1      41.935  27.231  28.797  1.00  0.00     0.034 A 
ATOM     49  C   UNL A   1      41.821  30.245  34.654  1.00  0.00     0.049 A 
ATOM     50  C   UNL A   1      42.776  27.118  30.035  1.00  0.00     0.074 A 
ATOM     51  C   UNL A   1      42.631  29.987  35.742  1.00  0.00     0.029 A 
ATOM     52  N   UNL A   1      42.216  29.377  33.643  1.00  0.00    -0.354 N 
ATOM     53  N   UNL A   1      42.643  27.748  31.179  1.00  0.00    -0.248 NA
ATOM     54  C   UNL A   1      43.887  26.162  29.998  1.00  0.00     0.031 C 
ATOM     55  C   UNL A   1      43.548  28.996  35.374  1.00  0.00     0.029 A 
ATOM     56  C   UNL A   1      43.277  28.601  34.071  1.00  0.00     0.049 A 
ATOM     57  H   UNL A   1      41.801  29.323  32.752  1.00  0.00     0.167 HD
ATOM     58  C   UNL A   1      43.639  27.250  32.008  1.00  0.00     0.074 A 
ATOM     59  C   UNL A   1      44.351  26.247  31.238  1.00  0.00     0.031 C 
ATOM     60  C   UNL A   1      43.946  27.594  33.284  1.00  0.00     0.034 A 
BRANCH  47  61
ATOM     61  C   UNL A   1      40.541  32.202  35.644  1.00  0.00     0.023 A 
ATOM     62  C   UNL A   1      41.375  33.329  35.797  1.00  0.00     0.012 A 
ATOM     63  C   UNL A   1      39.475  32.008  36.544  1.00  0.00     0.148 A 
ATOM     64  C   UNL A   1      41.180  34.220  36.853  1.00  0.00     0.002 A 
ATOM     65  C   UNL A   1      39.256  32.926  37.563  1.00  0.00     0.091 A 
ATOM     66  F   UNL A   1      38.710  30.916  36.403  1.00  0.00    -0.205 F 
ATOM     67  C   UNL A   1      40.115  34.025  37.729  1.00  0.00     0.022 A 
BRANCH  65  68
ATOM     68  S   UNL A   1      37.865  32.803  38.693  1.00  0.00     0.127 S 
ATOM     69  O   UNL A   1      37.973  34.059  39.432  1.00  0.00    -0.237 OA
ATOM     70  O   UNL A   1      36.729  32.732  37.773  1.00  0.00    -0.237 OA
ATOM     71  O   UNL A   1      38.089  31.595  39.475  1.00  0.00    -0.744 OA
ENDBRANCH  65  68
ENDBRANCH  47  61
BRANCH  48  72
ATOM     72  C   UNL A   1      42.233  26.465  27.556  1.00  0.00     0.023 A 
ATOM     73  C   UNL A   1      42.936  27.075  26.503  1.00  0.00     0.012 A 
ATOM     74  C   UNL A   1      41.892  25.100  27.460  1.00  0.00     0.148 A 
ATOM     75  C   UNL A   1      43.283  26.343  25.365  1.00  0.00     0.002 A 
ATOM     76  C   UNL A   1      42.290  24.364  26.352  1.00  0.00     0.091 A 
ATOM     77  F   UNL A   1      41.216  24.543  28.475  1.00  0.00    -0.205 F 
ATOM     78  C   UNL A   1      42.972  24.987  25.296  1.00  0.00     0.022 A 
BRANCH  76  79
ATOM     79  S   UNL A   1      42.063  22.585  26.246  1.00  0.00     0.127 S 
ATOM     80  O   UNL A   1      40.607  22.470  26.231  1.00  0.00    -0.237 OA
ATOM     81  O   UNL A   1      42.721  22.275  24.976  1.00  0.00    -0.237 OA
ATOM     82  O   UNL A   1      42.727  22.031  27.418  1.00  0.00    -0.744 OA
ENDBRANCH  76  79
ENDBRANCH  48  72
BRANCH  60  83
ATOM     83  C   UNL A   1      45.089  26.863  33.935  1.00  0.00     0.023 A 
ATOM     84  C   UNL A   1      46.382  27.421  33.922  1.00  0.00     0.012 A 
ATOM     85  C   UNL A   1      44.859  25.656  34.624  1.00  0.00     0.148 A 
ATOM     86  C   UNL A   1      47.437  26.770  34.556  1.00  0.00     0.002 A 
ATOM     87  C   UNL A   1      45.903  25.043  35.302  1.00  0.00     0.091 A 
ATOM     88  F   UNL A   1      43.624  25.135  34.608  1.00  0.00    -0.205 F 
ATOM     89  C   UNL A   1      47.196  25.590  35.257  1.00  0.00     0.022 A 
BRANCH  87  90
ATOM     90  S   UNL A   1      45.665  23.581  36.315  1.00  0.00     0.127 S 
ATOM     91  O   UNL A   1      47.032  23.079  36.441  1.00  0.00    -0.237 OA
ATOM     92  O   UNL A   1      45.106  24.144  37.545  1.00  0.00    -0.237 OA
ATOM     93  O   UNL A   1      44.751  22.721  35.574  1.00  0.00    -0.744 OA
ENDBRANCH  87  90
ENDBRANCH  60  83
ENDBRANCH  34  35
ENDBRANCH  27  29
ENDBRANCH  26  27
ENDBRANCH  25  26
ENDBRANCH  24  25
ENDBRANCH  23  24
ENDBRANCH  22  23
ENDBRANCH   1  22
TORSDOF 25
ENDMDL
MODEL 2
REMARK VINA RESULT:      -9.5      1.559      7.841
REMARK SMILES CN(C[C@H]1C[C@H](O)C1)C(=O)NCCOCC(=O)OCCOCCOC(=O)c1ccc(-c2c3nc(c(-c4cccc(S(=O)(=O)[O-])c4F)c4ccc([nH]4)c(-c4cccc(S(=O)(=O)[O-])c4F)c4nc(c(-c5cccc(S(=O)(=O)[O-])c5F)c5ccc2[nH]5)C=C4)C=C3)cc1
REMARK SMILES IDX 19 1 18 2 16 3 17 4 15 5 14 6 13 7 12 8 11 9 9 10 10 11 2 13
REMARK SMILES IDX 1 14 3 15 4 16 8 17 5 18 6 19 7 20 20 22 21 23 22 24 23 25
REMARK SMILES IDX 24 26 25 27 26 28 27 29 28 30 89 31 29 32 88 33 30 34 31 35
REMARK SMILES IDX 32 36 82 37 33 38 87 39 81 40 83 41 34 42 86 43 80 44 79 45
REMARK SMILES IDX 35 47 67 48 47 49 66 50 48 51 51 52 65 53 84 54 49 55 50 56
REMARK SMILES IDX 64 58 85 59 52 60 36 61 37 62 45 63 38 64 40 65 46 66 39 67
REMARK SMILES IDX 41 68 42 69 43 70 44 71 68 72 69 73 77 74 70 75 72 76 78 77
REMARK SMILES IDX 71 78 73 79 74 80 75 81 76 82 53 83 54 84 62 85 55 86 57 87
REMARK SMILES IDX 63 88 56 89 58 90 59 91 60 92 61 93
REMARK H PARENT 11 12 7 21 83 46 51 57
REMARK Flexibility Score: inf
ROOT
ATOM      1  C   UNL A   1      32.267  25.939  23.433  1.00  0.00     0.261 C 
ENDROOT
BRANCH   1   2
ATOM      2  O   UNL A   1      31.604  25.024  24.332  1.00  0.00    -0.462 OA
BRANCH   2   3
ATOM      3  C   UNL A   1      31.852  25.263  25.653  1.00  0.00     0.332 C 
ATOM      4  O   UNL A   1      30.998  25.602  26.468  1.00  0.00    -0.250 OA
BRANCH   3   5
ATOM      5  C   UNL A   1      33.338  25.160  26.054  1.00  0.00     0.282 C 
BRANCH   5   6
ATOM      6  O   UNL A   1      34.079  23.988  26.305  1.00  0.00    -0.368 OA
BRANCH   6   7
ATOM      7  C   UNL A   1      35.214  23.732  25.487  1.00  0.00     0.182 C 
BRANCH   7   8
ATOM      8  C   UNL A   1      35.047  22.665  24.387  1.00  0.00     0.146 C 
BRANCH   8   9
ATOM      9  N   UNL A   1      33.684  22.543  23.879  1.00  0.00    -0.336 N 
ATOM     10  C   UNL A   1      32.722  21.610  23.799  1.00  0.00     0.317 C 
ATOM     11  O   UNL A   1      31.797  21.900  23.030  1.00  0.00    -0.249 OA
ATOM     12  H   UNL A   1      33.382  23.391  23.481  1.00  0.00     0.165 HD
BRANCH  10  13
ATOM     13  N   UNL A   1      32.731  20.417  24.470  1.00  0.00    -0.328 N 
ATOM     14  C   UNL A   1      33.207  20.492  25.851  1.00  0.00     0.148 C 
BRANCH  13  15
ATOM     15  C   UNL A   1      32.529  19.060  23.944  1.00  0.00     0.124 C 
BRANCH  15  16
ATOM     16  C   UNL A   1      33.396  18.070  24.731  1.00  0.00     0.014 C 
ATOM     17  C   UNL A   1      34.776  17.663  24.152  1.00  0.00     0.037 C 
ATOM     18  C   UNL A   1      32.988  16.599  24.669  1.00  0.00     0.037 C 
ATOM     19  C   UNL A   1      34.418  16.176  24.337  1.00  0.00     0.115 C 
BRANCH  19  20
ATOM     20  O   UNL A   1      35.111  15.468  25.376  1.00  0.00    -0.393 OA
ATOM     21  H   UNL A   1      35.112  16.002  26.186  1.00  0.00     0.210 HD
ENDBRANCH  19  20
ENDBRANCH  15  16
ENDBRANCH  13  15
ENDBRANCH  10  13
ENDBRANCH   8   9
ENDBRANCH   7   8
ENDBRANCH   6   7
ENDBRANCH   5   6
ENDBRANCH   3   5
ENDBRANCH   2   3
ENDBRANCH   1   2
BRANCH   1  22
ATOM     22  C   UNL A   1      31.739  27.384  23.344  1.00  0.00     0.202 C 
BRANCH  22  23
ATOM     23  O   UNL A   1      32.239  28.382  24.224  1.00  0.00    -0.374 OA
BRANCH  23  24
ATOM     24  C   UNL A   1      31.318  29.013  25.092  1.00  0.00     0.202 C 
BRANCH  24  25
ATOM     25  C   UNL A   1      31.741  30.304  25.790  1.00  0.00     0.261 C 
BRANCH  25  26
ATOM     26  O   UNL A   1      33.122  30.484  26.025  1.00  0.00    -0.460 OA
BRANCH  26  27
ATOM     27  C   UNL A   1      33.363  31.379  27.006  1.00  0.00     0.338 C 
ATOM     28  O   UNL A   1      32.736  32.402  27.250  1.00  0.00    -0.246 OA
BRANCH  27  29
ATOM     29  C   UNL A   1      34.612  30.988  27.646  1.00  0.00     0.060 A 
ATOM     30  C   UNL A   1      34.879  29.641  27.915  1.00  0.00     0.016 A 
ATOM     31  C   UNL A   1      35.521  31.997  27.962  1.00  0.00     0.016 A 
ATOM     32  C   UNL A   1      36.059  29.305  28.558  1.00  0.00     0.010 A 
ATOM     33  C   UNL A   1      36.720  31.655  28.567  1.00  0.00     0.010 A 
ATOM     34  C   UNL A   1      36.969  30.315  28.902  1.00  0.00    -0.014 A 
BRANCH  34  35
ATOM     35  C   UNL A   1      38.158  29.977  29.699  1.00  0.00     0.031 A 
ATOM     36  C   UNL A   1      39.173  29.041  29.122  1.00  0.00     0.074 A 
ATOM     37  C   UNL A   1      38.288  30.501  30.929  1.00  0.00     0.049 A 
ATOM     38  N   UNL A   1      40.286  28.610  29.647  1.00  0.00    -0.248 NA
ATOM     39  C   UNL A   1      38.893  28.506  27.777  1.00  0.00     0.031 C 
ATOM     40  C   UNL A   1      37.316  31.388  31.569  1.00  0.00     0.029 A 
ATOM     41  N   UNL A   1      39.271  30.341  31.865  1.00  0.00    -0.354 N 
ATOM     42  C   UNL A   1      40.821  27.725  28.718  1.00  0.00     0.074 A 
ATOM     43  C   UNL A   1      39.906  27.671  27.602  1.00  0.00     0.031 C 
ATOM     44  C   UNL A   1      37.744  31.681  32.807  1.00  0.00     0.029 A 
ATOM     45  C   UNL A   1      38.998  30.976  33.052  1.00  0.00     0.049 A 
ATOM     46  H   UNL A   1      40.093  29.823  31.705  1.00  0.00     0.167 HD
ATOM     47  C   UNL A   1      41.977  27.029  28.798  1.00  0.00     0.034 A 
ATOM     48  C   UNL A   1      39.676  30.959  34.214  1.00  0.00     0.034 A 
ATOM     49  C   UNL A   1      42.867  27.111  29.923  1.00  0.00     0.049 A 
ATOM     50  C   UNL A   1      40.968  30.196  34.270  1.00  0.00     0.074 A 
ATOM     51  C   UNL A   1      44.102  26.517  30.091  1.00  0.00     0.029 A 
ATOM     52  N   UNL A   1      42.595  27.814  31.091  1.00  0.00    -0.354 N 
ATOM     53  N   UNL A   1      41.540  29.479  33.331  1.00  0.00    -0.248 NA
ATOM     54  C   UNL A   1      41.726  30.265  35.523  1.00  0.00     0.031 C 
ATOM     55  C   UNL A   1      44.556  26.821  31.379  1.00  0.00     0.029 A 
ATOM     56  C   UNL A   1      43.626  27.647  31.997  1.00  0.00     0.049 A 
ATOM     57  H   UNL A   1      41.786  28.352  31.250  1.00  0.00     0.167 HD
ATOM     58  C   UNL A   1      42.737  29.028  33.870  1.00  0.00     0.074 A 
ATOM     59  C   UNL A   1      42.816  29.576  35.211  1.00  0.00     0.031 C 
ATOM     60  C   UNL A   1      43.682  28.228  33.316  1.00  0.00     0.034 A 
BRANCH  47  61
ATOM     61  C   UNL A   1      42.325  26.120  27.648  1.00  0.00     0.023 A 
ATOM     62  C   UNL A   1      43.090  26.602  26.566  1.00  0.00     0.012 A 
ATOM     63  C   UNL A   1      41.903  24.776  27.648  1.00  0.00     0.148 A 
ATOM     64  C   UNL A   1      43.389  25.775  25.483  1.00  0.00     0.002 A 
ATOM     65  C   UNL A   1      42.248  23.945  26.590  1.00  0.00     0.091 A 
ATOM     66  F   UNL A   1      41.152  24.342  28.670  1.00  0.00    -0.205 F 
ATOM     67  C   UNL A   1      42.978  24.446  25.499  1.00  0.00     0.022 A 
BRANCH  65  68
ATOM     68  S   UNL A   1      41.831  22.198  26.558  1.00  0.00     0.127 S 
ATOM     69  O   UNL A   1      42.368  21.743  27.839  1.00  0.00    -0.237 OA
ATOM     70  O   UNL A   1      40.369  22.234  26.486  1.00  0.00    -0.237 OA
ATOM     71  O   UNL A   1      42.482  21.652  25.376  1.00  0.00    -0.744 OA
ENDBRANCH  65  68
ENDBRANCH  47  61
BRANCH  48  72
ATOM     72  C   UNL A   1      39.140  31.708  35.383  1.00  0.00     0.023 A 
ATOM     73  C   UNL A   1      38.233  31.088  36.260  1.00  0.00     0.012 A 
ATOM     74  C   UNL A   1      39.600  33.009  35.670  1.00  0.00     0.148 A 
ATOM     75  C   UNL A   1      37.779  31.757  37.399  1.00  0.00     0.002 A 
ATOM     76  C   UNL A   1      39.189  33.647  36.834  1.00  0.00     0.091 A 
ATOM     77  F   UNL A   1      40.459  33.581  34.815  1.00  0.00    -0.205 F 
ATOM     78  C   UNL A   1      38.267  33.029  37.692  1.00  0.00     0.022 A 
BRANCH  76  79
ATOM     79  S   UNL A   1      39.878  35.218  37.365  1.00  0.00     0.127 S 
ATOM     80  O   UNL A   1      39.277  36.145  36.409  1.00  0.00    -0.237 OA
ATOM     81  O   UNL A   1      39.367  35.322  38.732  1.00  0.00    -0.237 OA
ATOM     82  O   UNL A   1      41.324  35.068  37.274  1.00  0.00    -0.744 OA
ENDBRANCH  76  79
ENDBRANCH  48  72
BRANCH  60  83
ATOM     83  C   UNL A   1      44.893  27.916  34.152  1.00  0.00     0.023 A 
ATOM     84  C   UNL A   1      46.031  28.743  34.081  1.00  0.00     0.012 A 
ATOM     85  C   UNL A   1      44.870  26.843  35.064  1.00  0.00     0.148 A 
ATOM     86  C   UNL A   1      47.142  28.485  34.881  1.00  0.00     0.002 A 
ATOM     87  C   UNL A   1      45.957  26.627  35.898  1.00  0.00     0.091 A 
ATOM     88  F   UNL A   1      43.782  26.059  35.101  1.00  0.00    -0.205 F 
ATOM     89  C   UNL A   1      47.100  27.437  35.797  1.00  0.00     0.022 A 
BRANCH  87  90
ATOM     90  S   UNL A   1      45.951  25.369  37.178  1.00  0.00     0.127 S 
ATOM     91  O   UNL A   1      45.989  24.140  36.389  1.00  0.00    -0.237 OA
ATOM     92  O   UNL A   1      47.185  25.664  37.907  1.00  0.00    -0.237 OA
ATOM     93  O   UNL A   1      44.731  25.580  37.946  1.00  0.00    -0.744 OA
ENDBRANCH  87  90
ENDBRANCH  60  83
ENDBRANCH  34  35
ENDBRANCH  27  29
ENDBRANCH  26  27
ENDBRANCH  25  26
ENDBRANCH  24  25
ENDBRANCH  23  24
ENDBRANCH  22  23
ENDBRANCH   1  22
TORSDOF 25
ENDMDL
MODEL 3
REMARK VINA RESULT:      -8.9      3.186      8.733
REMARK SMILES CN(C[C@H]1C[C@H](O)C1)C(=O)NCCOCC(=O)OCCOCCOC(=O)c1ccc(-c2c3nc(c(-c4cccc(S(=O)(=O)[O-])c4F)c4ccc([nH]4)c(-c4cccc(S(=O)(=O)[O-])c4F)c4nc(c(-c5cccc(S(=O)(=O)[O-])c5F)c5ccc2[nH]5)C=C4)C=C3)cc1
REMARK SMILES IDX 19 1 18 2 16 3 17 4 15 5 14 6 13 7 12 8 11 9 9 10 10 11 2 13
REMARK SMILES IDX 1 14 3 15 4 16 8 17 5 18 6 19 7 20 20 22 21 23 22 24 23 25
REMARK SMILES IDX 24 26 25 27 26 28 27 29 28 30 89 31 29 32 88 33 30 34 31 35
REMARK SMILES IDX 32 36 82 37 33 38 87 39 81 40 83 41 34 42 86 43 80 44 79 45
REMARK SMILES IDX 35 47 67 48 47 49 66 50 48 51 51 52 65 53 84 54 49 55 50 56
REMARK SMILES IDX 64 58 85 59 52 60 36 61 37 62 45 63 38 64 40 65 46 66 39 67
REMARK SMILES IDX 41 68 42 69 43 70 44 71 68 72 69 73 77 74 70 75 72 76 78 77
REMARK SMILES IDX 71 78 73 79 74 80 75 81 76 82 53 83 54 84 62 85 55 86 57 87
REMARK SMILES IDX 63 88 56 89 58 90 59 91 60 92 61 93
REMARK H PARENT 11 12 7 21 83 46 51 57
REMARK Flexibility Score: inf
ROOT
ATOM      1  C   UNL A   1      34.935  30.838  28.265  1.00  0.00     0.261 C 
ENDROOT
BRANCH   1   2
ATOM      2  O   UNL A   1      34.683  30.126  27.034  1.00  0.00    -0.462 OA
BRANCH   2   3
ATOM      3  C   UNL A   1      33.376  29.775  26.852  1.00  0.00     0.332 C 
ATOM      4  O   UNL A   1      32.503  30.540  26.449  1.00  0.00    -0.250 OA
BRANCH   3   5
ATOM      5  C   UNL A   1      33.036  28.332  27.278  1.00  0.00     0.282 C 
BRANCH   5   6
ATOM      6  O   UNL A   1      31.798  27.671  27.153  1.00  0.00    -0.368 OA
BRANCH   6   7
ATOM      7  C   UNL A   1      31.626  26.789  26.050  1.00  0.00     0.182 C 
BRANCH   7   8
ATOM      8  C   UNL A   1      30.247  26.111  25.917  1.00  0.00     0.146 C 
BRANCH   8   9
ATOM      9  N   UNL A   1      30.207  24.742  26.423  1.00  0.00    -0.336 N 
ATOM     10  C   UNL A   1      30.556  23.512  26.018  1.00  0.00     0.317 C 
ATOM     11  O   UNL A   1      30.079  22.598  26.701  1.00  0.00    -0.249 OA
ATOM     12  H   UNL A   1      29.808  24.715  27.323  1.00  0.00     0.165 HD
BRANCH  10  13
ATOM     13  N   UNL A   1      31.349  23.240  24.936  1.00  0.00    -0.328 N 
ATOM     14  C   UNL A   1      32.701  22.788  25.262  1.00  0.00     0.148 C 
BRANCH  13  15
ATOM     15  C   UNL A   1      31.106  23.530  23.516  1.00  0.00     0.124 C 
BRANCH  15  16
ATOM     16  C   UNL A   1      32.053  24.640  23.048  1.00  0.00     0.014 C 
ATOM     17  C   UNL A   1      31.463  25.845  22.269  1.00  0.00     0.037 C 
ATOM     18  C   UNL A   1      32.920  24.336  21.827  1.00  0.00     0.037 C 
ATOM     19  C   UNL A   1      32.522  25.654  21.167  1.00  0.00     0.115 C 
BRANCH  19  20
ATOM     20  O   UNL A   1      33.558  26.644  21.088  1.00  0.00    -0.393 OA
ATOM     21  H   UNL A   1      34.425  26.208  21.104  1.00  0.00     0.210 HD
ENDBRANCH  19  20
ENDBRANCH  15  16
ENDBRANCH  13  15
ENDBRANCH  10  13
ENDBRANCH   8   9
ENDBRANCH   7   8
ENDBRANCH   6   7
ENDBRANCH   5   6
ENDBRANCH   3   5
ENDBRANCH   2   3
ENDBRANCH   1   2
BRANCH   1  22
ATOM     22  C   UNL A   1      35.001  32.377  28.218  1.00  0.00     0.202 C 
BRANCH  22  23
ATOM     23  O   UNL A   1      33.803  33.142  28.218  1.00  0.00    -0.374 OA
BRANCH  23  24
ATOM     24  C   UNL A   1      33.923  34.550  28.146  1.00  0.00     0.202 C 
BRANCH  24  25
ATOM     25  C   UNL A   1      33.115  35.402  29.122  1.00  0.00     0.261 C 
BRANCH  25  26
ATOM     26  O   UNL A   1      32.634  34.763  30.285  1.00  0.00    -0.460 OA
BRANCH  26  27
ATOM     27  C   UNL A   1      33.135  35.307  31.414  1.00  0.00     0.338 C 
ATOM     28  O   UNL A   1      32.756  36.323  31.982  1.00  0.00    -0.246 OA
BRANCH  27  29
ATOM     29  C   UNL A   1      34.325  34.542  31.766  1.00  0.00     0.060 A 
ATOM     30  C   UNL A   1      34.207  33.313  32.425  1.00  0.00     0.016 A 
ATOM     31  C   UNL A   1      35.564  35.074  31.411  1.00  0.00     0.016 A 
ATOM     32  C   UNL A   1      35.359  32.629  32.779  1.00  0.00     0.010 A 
ATOM     33  C   UNL A   1      36.713  34.367  31.729  1.00  0.00     0.010 A 
ATOM     34  C   UNL A   1      36.611  33.167  32.449  1.00  0.00    -0.014 A 
BRANCH  34  35
ATOM     35  C   UNL A   1      37.833  32.509  32.937  1.00  0.00     0.031 A 
ATOM     36  C   UNL A   1      38.434  31.407  32.124  1.00  0.00     0.074 A 
ATOM     37  C   UNL A   1      38.361  32.903  34.108  1.00  0.00     0.049 A 
ATOM     38  N   UNL A   1      39.500  30.695  32.365  1.00  0.00    -0.248 NA
ATOM     39  C   UNL A   1      37.736  31.045  30.877  1.00  0.00     0.031 C 
ATOM     40  C   UNL A   1      37.803  33.945  34.971  1.00  0.00     0.029 A 
ATOM     41  N   UNL A   1      39.463  32.456  34.781  1.00  0.00    -0.354 N 
ATOM     42  C   UNL A   1      39.582  29.777  31.325  1.00  0.00     0.074 A 
ATOM     43  C   UNL A   1      38.451  30.013  30.456  1.00  0.00     0.031 C 
ATOM     44  C   UNL A   1      38.558  34.045  36.075  1.00  0.00     0.029 A 
ATOM     45  C   UNL A   1      39.628  33.054  36.007  1.00  0.00     0.049 A 
ATOM     46  H   UNL A   1      40.077  31.775  34.425  1.00  0.00     0.167 HD
ATOM     47  C   UNL A   1      40.523  28.829  31.119  1.00  0.00     0.034 A 
ATOM     48  C   UNL A   1      40.527  32.801  36.975  1.00  0.00     0.034 A 
ATOM     49  C   UNL A   1      41.638  28.626  32.002  1.00  0.00     0.049 A 
ATOM     50  C   UNL A   1      41.576  31.758  36.714  1.00  0.00     0.074 A 
ATOM     51  C   UNL A   1      42.700  27.753  31.865  1.00  0.00     0.029 A 
ATOM     52  N   UNL A   1      41.816  29.290  33.210  1.00  0.00    -0.354 N 
ATOM     53  N   UNL A   1      41.730  30.995  35.657  1.00  0.00    -0.248 NA
ATOM     54  C   UNL A   1      42.592  31.565  37.753  1.00  0.00     0.031 C 
ATOM     55  C   UNL A   1      43.494  27.855  33.012  1.00  0.00     0.029 A 
ATOM     56  C   UNL A   1      42.955  28.828  33.843  1.00  0.00     0.049 A 
ATOM     57  H   UNL A   1      41.218  29.988  33.563  1.00  0.00     0.167 HD
ATOM     58  C   UNL A   1      42.873  30.245  35.891  1.00  0.00     0.074 A 
ATOM     59  C   UNL A   1      43.384  30.666  37.182  1.00  0.00     0.031 C 
ATOM     60  C   UNL A   1      43.447  29.288  35.119  1.00  0.00     0.034 A 
BRANCH  47  61
ATOM     61  C   UNL A   1      40.372  27.946  29.908  1.00  0.00     0.023 A 
ATOM     62  C   UNL A   1      39.443  26.885  29.912  1.00  0.00     0.012 A 
ATOM     63  C   UNL A   1      41.146  28.179  28.754  1.00  0.00     0.148 A 
ATOM     64  C   UNL A   1      39.321  26.043  28.806  1.00  0.00     0.002 A 
ATOM     65  C   UNL A   1      40.983  27.368  27.638  1.00  0.00     0.091 A 
ATOM     66  F   UNL A   1      42.045  29.173  28.778  1.00  0.00    -0.205 F 
ATOM     67  C   UNL A   1      40.082  26.291  27.667  1.00  0.00     0.022 A 
BRANCH  65  68
ATOM     68  S   UNL A   1      41.861  27.655  26.098  1.00  0.00     0.127 S 
ATOM     69  O   UNL A   1      41.402  26.531  25.283  1.00  0.00    -0.237 OA
ATOM     70  O   UNL A   1      41.339  28.960  25.688  1.00  0.00    -0.237 OA
ATOM     71  O   UNL A   1      43.277  27.647  26.436  1.00  0.00    -0.744 OA
ENDBRANCH  65  68
ENDBRANCH  47  61
BRANCH  48  72
ATOM     72  C   UNL A   1      40.466  33.571  38.247  1.00  0.00     0.023 A 
ATOM     73  C   UNL A   1      39.690  33.099  39.320  1.00  0.00     0.012 A 
ATOM     74  C   UNL A   1      41.251  34.729  38.420  1.00  0.00     0.148 A 
ATOM     75  C   UNL A   1      39.683  33.776  40.542  1.00  0.00     0.002 A 
ATOM     76  C   UNL A   1      41.284  35.365  39.654  1.00  0.00     0.091 A 
ATOM     77  F   UNL A   1      41.978  35.163  37.380  1.00  0.00    -0.205 F 
ATOM     78  C   UNL A   1      40.490  34.900  40.712  1.00  0.00     0.022 A 
BRANCH  76  79
ATOM     79  S   UNL A   1      42.404  36.726  40.006  1.00  0.00     0.127 S 
ATOM     80  O   UNL A   1      41.794  37.816  39.250  1.00  0.00    -0.237 OA
ATOM     81  O   UNL A   1      42.286  36.840  41.461  1.00  0.00    -0.237 OA
ATOM     82  O   UNL A   1      43.714  36.291  39.542  1.00  0.00    -0.744 OA
ENDBRANCH  76  79
ENDBRANCH  48  72
BRANCH  60  83
ATOM     83  C   UNL A   1      44.704  28.648  35.640  1.00  0.00     0.023 A 
ATOM     84  C   UNL A   1      45.963  29.128  35.228  1.00  0.00     0.012 A 
ATOM     85  C   UNL A   1      44.633  27.619  36.598  1.00  0.00     0.148 A 
ATOM     86  C   UNL A   1      47.132  28.568  35.735  1.00  0.00     0.002 A 
ATOM     87  C   UNL A   1      45.801  27.105  37.143  1.00  0.00     0.091 A 
ATOM     88  F   UNL A   1      43.425  27.167  36.963  1.00  0.00    -0.205 F 
ATOM     89  C   UNL A   1      47.053  27.567  36.701  1.00  0.00     0.022 A 
BRANCH  87  90
ATOM     90  S   UNL A   1      45.794  25.891  38.465  1.00  0.00     0.127 S 
ATOM     91  O   UNL A   1      45.247  24.717  37.788  1.00  0.00    -0.237 OA
ATOM     92  O   UNL A   1      47.214  25.794  38.803  1.00  0.00    -0.237 OA
ATOM     93  O   UNL A   1      44.957  26.448  39.519  1.00  0.00    -0.744 OA
ENDBRANCH  87  90
ENDBRANCH  60  83
ENDBRANCH  34  35
ENDBRANCH  27  29
ENDBRANCH  26  27
ENDBRANCH  25  26
ENDBRANCH  24  25
ENDBRANCH  23  24
ENDBRANCH  22  23
ENDBRANCH   1  22
TORSDOF 25
ENDMDL
