MODEL 1
REMARK VINA RESULT:     -10.5      0.000      0.000
REMARK SMILES CN(CCCC(=O)OCCOCCOC(=O)c1ccc(-c2c3nc(c(-c4cccc(S(=O)(=O)[O-])c4F)c4ccc([nH]4)c(-c4cccc(S(=O)(=O)[O-])c4F)c4nc(c(-c5cccc(S(=O)(=O)[O-])c5F)c5ccc2[nH]5)C=C4)C=C3)cc1)C(=O)c1ccc(Br)o1
REMARK SMILES IDX 10 1 9 2 8 3 6 4 7 5 5 6 4 7 3 8 2 9 1 10 80 11 81 12 82 13
REMARK SMILES IDX 83 14 87 15 84 16 85 17 86 18 11 19 12 20 13 21 14 22 15 23
REMARK SMILES IDX 16 24 17 25 18 26 79 27 19 28 78 29 20 30 21 31 22 32 72 33
REMARK SMILES IDX 23 34 77 35 71 36 73 37 24 38 76 39 70 40 69 41 25 43 57 44
REMARK SMILES IDX 37 45 56 46 38 47 41 48 55 49 74 50 39 51 40 52 54 54 75 55
REMARK SMILES IDX 42 56 26 57 27 58 35 59 28 60 30 61 36 62 29 63 31 64 32 65
REMARK SMILES IDX 33 66 34 67 58 68 59 69 67 70 60 71 62 72 68 73 61 74 63 75
REMARK SMILES IDX 64 76 65 77 66 78 43 79 44 80 52 81 45 82 47 83 53 84 46 85
REMARK SMILES IDX 48 86 49 87 50 88 51 89
REMARK H PARENT 73 42 41 53
REMARK Flexibility Score: inf
ROOT
ATOM      1  C   UNL A   1      34.246  21.137  25.318  1.00  0.00     0.202 C 
ENDROOT
BRANCH   1   2
ATOM      2  C   UNL A   1      33.420  22.367  24.949  1.00  0.00     0.261 C 
BRANCH   2   3
ATOM      3  O   UNL A   1      32.041  22.032  24.730  1.00  0.00    -0.463 OA
BRANCH   3   4
ATOM      4  C   UNL A   1      31.110  22.840  25.293  1.00  0.00     0.305 C 
ATOM      5  O   UNL A   1      30.474  22.583  26.310  1.00  0.00    -0.252 OA
BRANCH   4   6
ATOM      6  C   UNL A   1      30.989  24.172  24.583  1.00  0.00     0.124 C 
BRANCH   6   7
ATOM      7  C   UNL A   1      30.238  25.287  25.306  1.00  0.00     0.033 C 
BRANCH   7   8
ATOM      8  C   UNL A   1      31.072  26.267  26.149  1.00  0.00     0.120 C 
BRANCH   8   9
ATOM      9  N   UNL A   1      31.339  27.558  25.518  1.00  0.00    -0.339 N 
ATOM     10  C   UNL A   1      31.916  28.584  26.376  1.00  0.00     0.147 C 
BRANCH   9  11
ATOM     11  C   UNL A   1      31.341  27.823  24.139  1.00  0.00     0.289 C 
ATOM     12  O   UNL A   1      32.342  27.597  23.458  1.00  0.00    -0.265 OA
BRANCH  11  13
ATOM     13  C   UNL A   1      30.201  28.474  23.531  1.00  0.00     0.193 A 
ATOM     14  C   UNL A   1      29.046  27.908  23.018  1.00  0.00     0.057 A 
ATOM     15  O   UNL A   1      30.055  29.834  23.589  1.00  0.00    -0.444 OA
ATOM     16  C   UNL A   1      28.152  28.967  22.753  1.00  0.00     0.059 A 
ATOM     17  C   UNL A   1      28.793  30.116  23.154  1.00  0.00     0.170 A 
ATOM     18  Br  UNL A   1      28.024  31.818  23.127  1.00  0.00    -0.008 Br
ENDBRANCH  11  13
ENDBRANCH   9  11
ENDBRANCH   8   9
ENDBRANCH   7   8
ENDBRANCH   6   7
ENDBRANCH   4   6
ENDBRANCH   3   4
ENDBRANCH   2   3
ENDBRANCH   1   2
BRANCH   1  19
ATOM     19  O   UNL A   1      35.583  21.073  24.824  1.00  0.00    -0.374 OA
BRANCH  19  20
ATOM     20  C   UNL A   1      36.235  19.808  24.792  1.00  0.00     0.202 C 
BRANCH  20  21
ATOM     21  C   UNL A   1      37.754  19.760  25.007  1.00  0.00     0.261 C 
BRANCH  21  22
ATOM     22  O   UNL A   1      38.353  21.013  25.372  1.00  0.00    -0.460 OA
BRANCH  22  23
ATOM     23  C   UNL A   1      39.480  20.883  26.113  1.00  0.00     0.338 C 
ATOM     24  O   UNL A   1      40.204  19.893  26.183  1.00  0.00    -0.246 OA
BRANCH  23  25
ATOM     25  C   UNL A   1      39.847  22.155  26.755  1.00  0.00     0.060 A 
ATOM     26  C   UNL A   1      39.237  23.320  26.272  1.00  0.00     0.016 A 
ATOM     27  C   UNL A   1      40.869  22.225  27.705  1.00  0.00     0.016 A 
ATOM     28  C   UNL A   1      39.696  24.567  26.685  1.00  0.00     0.010 A 
ATOM     29  C   UNL A   1      41.332  23.481  28.113  1.00  0.00     0.010 A 
ATOM     30  C   UNL A   1      40.781  24.654  27.565  1.00  0.00    -0.014 A 
BRANCH  30  31
ATOM     31  C   UNL A   1      41.448  25.964  27.759  1.00  0.00     0.031 A 
ATOM     32  C   UNL A   1      40.715  27.052  28.495  1.00  0.00     0.074 A 
ATOM     33  C   UNL A   1      42.702  26.168  27.319  1.00  0.00     0.049 A 
ATOM     34  N   UNL A   1      41.111  28.260  28.798  1.00  0.00    -0.248 NA
ATOM     35  C   UNL A   1      39.352  26.734  28.951  1.00  0.00     0.031 C 
ATOM     36  C   UNL A   1      43.521  25.183  26.616  1.00  0.00     0.029 A 
ATOM     37  N   UNL A   1      43.500  27.281  27.395  1.00  0.00    -0.354 N 
ATOM     38  C   UNL A   1      40.042  28.855  29.459  1.00  0.00     0.074 A 
ATOM     39  C   UNL A   1      38.972  27.881  29.493  1.00  0.00     0.031 C 
ATOM     40  C   UNL A   1      44.706  25.740  26.316  1.00  0.00     0.029 A 
ATOM     41  C   UNL A   1      44.720  27.124  26.785  1.00  0.00     0.049 A 
ATOM     42  H   UNL A   1      43.224  28.113  27.845  1.00  0.00     0.167 HD
ATOM     43  C   UNL A   1      39.962  30.092  30.005  1.00  0.00     0.034 A 
ATOM     44  C   UNL A   1      45.729  28.003  26.619  1.00  0.00     0.034 A 
ATOM     45  C   UNL A   1      41.032  31.051  29.983  1.00  0.00     0.049 A 
ATOM     46  C   UNL A   1      45.598  29.389  27.191  1.00  0.00     0.074 A 
ATOM     47  C   UNL A   1      41.068  32.316  30.543  1.00  0.00     0.029 A 
ATOM     48  N   UNL A   1      42.254  30.857  29.355  1.00  0.00    -0.354 N 
ATOM     49  N   UNL A   1      44.625  29.901  27.905  1.00  0.00    -0.248 NA
ATOM     50  C   UNL A   1      46.719  30.311  26.957  1.00  0.00     0.031 C 
ATOM     51  C   UNL A   1      42.303  32.897  30.229  1.00  0.00     0.029 A 
ATOM     52  C   UNL A   1      43.045  31.984  29.496  1.00  0.00     0.049 A 
ATOM     53  H   UNL A   1      42.519  30.038  28.879  1.00  0.00     0.167 HD
ATOM     54  C   UNL A   1      45.030  31.189  28.238  1.00  0.00     0.074 A 
ATOM     55  C   UNL A   1      46.346  31.374  27.657  1.00  0.00     0.031 C 
ATOM     56  C   UNL A   1      44.371  32.137  28.952  1.00  0.00     0.034 A 
BRANCH  43  57
ATOM     57  C   UNL A   1      38.670  30.461  30.689  1.00  0.00     0.023 A 
ATOM     58  C   UNL A   1      38.464  30.095  32.035  1.00  0.00     0.012 A 
ATOM     59  C   UNL A   1      37.667  31.176  30.008  1.00  0.00     0.148 A 
ATOM     60  C   UNL A   1      37.262  30.395  32.678  1.00  0.00     0.002 A 
ATOM     61  C   UNL A   1      36.490  31.510  30.667  1.00  0.00     0.091 A 
ATOM     62  F   UNL A   1      37.867  31.492  28.720  1.00  0.00    -0.205 F 
ATOM     63  C   UNL A   1      36.280  31.110  31.998  1.00  0.00     0.022 A 
BRANCH  61  64
ATOM     64  S   UNL A   1      35.201  32.489  29.890  1.00  0.00     0.127 S 
ATOM     65  O   UNL A   1      34.269  32.687  30.998  1.00  0.00    -0.237 OA
ATOM     66  O   UNL A   1      35.926  33.693  29.481  1.00  0.00    -0.237 OA
ATOM     67  O   UNL A   1      34.705  31.682  28.783  1.00  0.00    -0.744 OA
ENDBRANCH  61  64
ENDBRANCH  43  57
BRANCH  44  68
ATOM     68  C   UNL A   1      46.975  27.573  25.927  1.00  0.00     0.023 A 
ATOM     69  C   UNL A   1      47.957  26.869  26.650  1.00  0.00     0.012 A 
ATOM     70  C   UNL A   1      47.177  27.823  24.555  1.00  0.00     0.148 A 
ATOM     71  C   UNL A   1      49.126  26.435  26.024  1.00  0.00     0.002 A 
ATOM     72  C   UNL A   1      48.320  27.345  23.928  1.00  0.00     0.091 A 
ATOM     73  F   UNL A   1      46.235  28.507  23.891  1.00  0.00    -0.205 F 
ATOM     74  C   UNL A   1      49.302  26.663  24.662  1.00  0.00     0.022 A 
BRANCH  72  75
ATOM     75  S   UNL A   1      48.583  27.491  22.156  1.00  0.00     0.127 S 
ATOM     76  O   UNL A   1      48.658  26.090  21.749  1.00  0.00    -0.237 OA
ATOM     77  O   UNL A   1      47.371  28.194  21.732  1.00  0.00    -0.237 OA
ATOM     78  O   UNL A   1      49.812  28.257  22.002  1.00  0.00    -0.744 OA
ENDBRANCH  72  75
ENDBRANCH  44  68
BRANCH  56  79
ATOM     79  C   UNL A   1      45.068  33.455  29.172  1.00  0.00     0.023 A 
ATOM     80  C   UNL A   1      45.952  33.607  30.259  1.00  0.00     0.012 A 
ATOM     81  C   UNL A   1      44.906  34.517  28.260  1.00  0.00     0.148 A 
ATOM     82  C   UNL A   1      46.639  34.805  30.451  1.00  0.00     0.002 A 
ATOM     83  C   UNL A   1      45.630  35.692  28.431  1.00  0.00     0.091 A 
ATOM     84  F   UNL A   1      44.045  34.362  27.243  1.00  0.00    -0.205 F 
ATOM     85  C   UNL A   1      46.489  35.841  29.533  1.00  0.00     0.022 A 
BRANCH  83  86
ATOM     86  S   UNL A   1      45.572  37.040  27.247  1.00  0.00     0.127 S 
ATOM     87  O   UNL A   1      46.357  36.498  26.139  1.00  0.00    -0.237 OA
ATOM     88  O   UNL A   1      44.138  37.157  26.978  1.00  0.00    -0.237 OA
ATOM     89  O   UNL A   1      46.153  38.192  27.922  1.00  0.00    -0.744 OA
ENDBRANCH  83  86
ENDBRANCH  56  79
ENDBRANCH  30  31
ENDBRANCH  23  25
ENDBRANCH  22  23
ENDBRANCH  21  22
ENDBRANCH  20  21
ENDBRANCH  19  20
ENDBRANCH   1  19
TORSDOF 22
ENDMDL
MODEL 2
REMARK VINA RESULT:     -10.4      1.974      7.973
REMARK SMILES CN(CCCC(=O)OCCOCCOC(=O)c1ccc(-c2c3nc(c(-c4cccc(S(=O)(=O)[O-])c4F)c4ccc([nH]4)c(-c4cccc(S(=O)(=O)[O-])c4F)c4nc(c(-c5cccc(S(=O)(=O)[O-])c5F)c5ccc2[nH]5)C=C4)C=C3)cc1)C(=O)c1ccc(Br)o1
REMARK SMILES IDX 10 1 9 2 8 3 6 4 7 5 5 6 4 7 3 8 2 9 1 10 80 11 81 12 82 13
REMARK SMILES IDX 83 14 87 15 84 16 85 17 86 18 11 19 12 20 13 21 14 22 15 23
REMARK SMILES IDX 16 24 17 25 18 26 79 27 19 28 78 29 20 30 21 31 22 32 72 33
REMARK SMILES IDX 23 34 77 35 71 36 73 37 24 38 76 39 70 40 69 41 25 43 57 44
REMARK SMILES IDX 37 45 56 46 38 47 41 48 55 49 74 50 39 51 40 52 54 54 75 55
REMARK SMILES IDX 42 56 26 57 27 58 35 59 28 60 30 61 36 62 29 63 31 64 32 65
REMARK SMILES IDX 33 66 34 67 58 68 59 69 67 70 60 71 62 72 68 73 61 74 63 75
REMARK SMILES IDX 64 76 65 77 66 78 43 79 44 80 52 81 45 82 47 83 53 84 46 85
REMARK SMILES IDX 48 86 49 87 50 88 51 89
REMARK H PARENT 73 42 41 53
REMARK Flexibility Score: inf
ROOT
ATOM      1  C   UNL A   1      34.244  23.158  26.907  1.00  0.00     0.202 C 
ENDROOT
BRANCH   1   2
ATOM      2  C   UNL A   1      32.962  22.587  27.507  1.00  0.00     0.261 C 
BRANCH   2   3
ATOM      3  O   UNL A   1      31.871  23.515  27.405  1.00  0.00    -0.463 OA
BRANCH   3   4
ATOM      4  C   UNL A   1      30.959  23.295  26.427  1.00  0.00     0.305 C 
ATOM      5  O   UNL A   1      30.119  22.402  26.434  1.00  0.00    -0.252 OA
BRANCH   4   6
ATOM      6  C   UNL A   1      31.015  24.341  25.334  1.00  0.00     0.124 C 
BRANCH   6   7
ATOM      7  C   UNL A   1      30.670  23.893  23.915  1.00  0.00     0.033 C 
BRANCH   7   8
ATOM      8  C   UNL A   1      31.174  24.771  22.758  1.00  0.00     0.120 C 
BRANCH   8   9
ATOM      9  N   UNL A   1      32.607  25.061  22.776  1.00  0.00    -0.339 N 
ATOM     10  C   UNL A   1      33.495  23.910  22.689  1.00  0.00     0.147 C 
BRANCH   9  11
ATOM     11  C   UNL A   1      33.200  26.323  22.606  1.00  0.00     0.289 C 
ATOM     12  O   UNL A   1      33.959  26.537  21.661  1.00  0.00    -0.265 OA
BRANCH  11  13
ATOM     13  C   UNL A   1      33.011  27.347  23.612  1.00  0.00     0.193 A 
ATOM     14  C   UNL A   1      31.839  27.961  24.017  1.00  0.00     0.057 A 
ATOM     15  O   UNL A   1      34.025  27.689  24.464  1.00  0.00    -0.444 OA
ATOM     16  C   UNL A   1      32.147  28.713  25.172  1.00  0.00     0.059 A 
ATOM     17  C   UNL A   1      33.479  28.484  25.430  1.00  0.00     0.170 A 
ATOM     18  Br  UNL A   1      34.397  29.152  26.913  1.00  0.00    -0.008 Br
ENDBRANCH  11  13
ENDBRANCH   9  11
ENDBRANCH   8   9
ENDBRANCH   7   8
ENDBRANCH   6   7
ENDBRANCH   4   6
ENDBRANCH   3   4
ENDBRANCH   2   3
ENDBRANCH   1   2
BRANCH   1  19
ATOM     19  O   UNL A   1      34.839  22.440  25.827  1.00  0.00    -0.374 OA
BRANCH  19  20
ATOM     20  C   UNL A   1      35.785  21.420  26.129  1.00  0.00     0.202 C 
BRANCH  20  21
ATOM     21  C   UNL A   1      36.755  20.970  25.028  1.00  0.00     0.261 C 
BRANCH  21  22
ATOM     22  O   UNL A   1      37.926  21.789  24.882  1.00  0.00    -0.460 OA
BRANCH  22  23
ATOM     23  C   UNL A   1      38.916  21.486  25.755  1.00  0.00     0.338 C 
ATOM     24  O   UNL A   1      39.533  20.425  25.828  1.00  0.00    -0.246 OA
BRANCH  23  25
ATOM     25  C   UNL A   1      39.295  22.656  26.561  1.00  0.00     0.060 A 
ATOM     26  C   UNL A   1      38.599  23.849  26.331  1.00  0.00     0.016 A 
ATOM     27  C   UNL A   1      40.399  22.627  27.417  1.00  0.00     0.016 A 
ATOM     28  C   UNL A   1      39.048  25.037  26.900  1.00  0.00     0.010 A 
ATOM     29  C   UNL A   1      40.851  23.825  27.983  1.00  0.00     0.010 A 
ATOM     30  C   UNL A   1      40.207  25.040  27.684  1.00  0.00    -0.014 A 
BRANCH  30  31
ATOM     31  C   UNL A   1      40.840  26.334  28.030  1.00  0.00     0.031 A 
ATOM     32  C   UNL A   1      42.228  26.624  27.525  1.00  0.00     0.074 A 
ATOM     33  C   UNL A   1      40.175  27.254  28.750  1.00  0.00     0.049 A 
ATOM     34  N   UNL A   1      42.962  27.694  27.684  1.00  0.00    -0.248 NA
ATOM     35  C   UNL A   1      42.874  25.564  26.734  1.00  0.00     0.031 C 
ATOM     36  C   UNL A   1      38.819  27.099  29.271  1.00  0.00     0.029 A 
ATOM     37  N   UNL A   1      40.561  28.501  29.172  1.00  0.00    -0.354 N 
ATOM     38  C   UNL A   1      44.163  27.429  27.035  1.00  0.00     0.074 A 
ATOM     39  C   UNL A   1      44.067  26.089  26.499  1.00  0.00     0.031 C 
ATOM     40  C   UNL A   1      38.487  28.208  29.954  1.00  0.00     0.029 A 
ATOM     41  C   UNL A   1      39.614  29.139  29.936  1.00  0.00     0.049 A 
ATOM     42  H   UNL A   1      41.433  28.902  28.948  1.00  0.00     0.167 HD
ATOM     43  C   UNL A   1      45.242  28.234  26.882  1.00  0.00     0.034 A 
ATOM     44  C   UNL A   1      39.658  30.336  30.554  1.00  0.00     0.034 A 
ATOM     45  C   UNL A   1      45.328  29.571  27.403  1.00  0.00     0.049 A 
ATOM     46  C   UNL A   1      40.887  31.192  30.412  1.00  0.00     0.074 A 
ATOM     47  C   UNL A   1      46.359  30.485  27.269  1.00  0.00     0.029 A 
ATOM     48  N   UNL A   1      44.349  30.184  28.173  1.00  0.00    -0.354 N 
ATOM     49  N   UNL A   1      41.971  30.974  29.707  1.00  0.00    -0.248 NA
ATOM     50  C   UNL A   1      40.888  32.476  31.130  1.00  0.00     0.031 C 
ATOM     51  C   UNL A   1      46.014  31.639  27.981  1.00  0.00     0.029 A 
ATOM     52  C   UNL A   1      44.757  31.455  28.537  1.00  0.00     0.049 A 
ATOM     53  H   UNL A   1      43.491  29.773  28.423  1.00  0.00     0.167 HD
ATOM     54  C   UNL A   1      42.765  32.105  29.865  1.00  0.00     0.074 A 
ATOM     55  C   UNL A   1      42.030  33.013  30.723  1.00  0.00     0.031 C 
ATOM     56  C   UNL A   1      43.996  32.365  29.354  1.00  0.00     0.034 A 
BRANCH  43  57
ATOM     57  C   UNL A   1      46.407  27.684  26.099  1.00  0.00     0.023 A 
ATOM     58  C   UNL A   1      46.449  27.852  24.700  1.00  0.00     0.012 A 
ATOM     59  C   UNL A   1      47.462  27.012  26.745  1.00  0.00     0.148 A 
ATOM     60  C   UNL A   1      47.499  27.321  23.951  1.00  0.00     0.002 A 
ATOM     61  C   UNL A   1      48.527  26.522  25.997  1.00  0.00     0.091 A 
ATOM     62  F   UNL A   1      47.393  26.834  28.072  1.00  0.00    -0.205 F 
ATOM     63  C   UNL A   1      48.541  26.665  24.600  1.00  0.00     0.022 A 
BRANCH  61  64
ATOM     64  S   UNL A   1      49.945  25.726  26.758  1.00  0.00     0.127 S 
ATOM     65  O   UNL A   1      49.359  24.480  27.247  1.00  0.00    -0.237 OA
ATOM     66  O   UNL A   1      50.859  25.566  25.627  1.00  0.00    -0.237 OA
ATOM     67  O   UNL A   1      50.413  26.649  27.783  1.00  0.00    -0.744 OA
ENDBRANCH  61  64
ENDBRANCH  43  57
BRANCH  44  68
ATOM     68  C   UNL A   1      38.473  30.816  31.318  1.00  0.00     0.023 A 
ATOM     69  C   UNL A   1      38.432  30.633  32.713  1.00  0.00     0.012 A 
ATOM     70  C   UNL A   1      37.409  31.483  30.679  1.00  0.00     0.148 A 
ATOM     71  C   UNL A   1      37.345  31.091  33.458  1.00  0.00     0.002 A 
ATOM     72  C   UNL A   1      36.354  31.979  31.433  1.00  0.00     0.091 A 
ATOM     73  F   UNL A   1      37.463  31.633  29.348  1.00  0.00    -0.205 F 
ATOM     74  C   UNL A   1      36.313  31.773  32.821  1.00  0.00     0.022 A 
BRANCH  72  75
ATOM     75  S   UNL A   1      35.035  32.968  30.718  1.00  0.00     0.127 S 
ATOM     76  O   UNL A   1      35.739  34.202  30.377  1.00  0.00    -0.237 OA
ATOM     77  O   UNL A   1      34.636  32.149  29.573  1.00  0.00    -0.237 OA
ATOM     78  O   UNL A   1      34.023  33.089  31.758  1.00  0.00    -0.744 OA
ENDBRANCH  72  75
ENDBRANCH  44  68
BRANCH  56  79
ATOM     79  C   UNL A   1      44.620  33.697  29.683  1.00  0.00     0.023 A 
ATOM     80  C   UNL A   1      45.532  33.799  30.752  1.00  0.00     0.012 A 
ATOM     81  C   UNL A   1      44.362  34.830  28.885  1.00  0.00     0.148 A 
ATOM     82  C   UNL A   1      46.153  35.013  31.041  1.00  0.00     0.002 A 
ATOM     83  C   UNL A   1      45.021  36.026  29.149  1.00  0.00     0.091 A 
ATOM     84  F   UNL A   1      43.477  34.720  27.884  1.00  0.00    -0.205 F 
ATOM     85  C   UNL A   1      45.908  36.122  30.235  1.00  0.00     0.022 A 
BRANCH  83  86
ATOM     86  S   UNL A   1      44.840  37.476  28.105  1.00  0.00     0.127 S 
ATOM     87  O   UNL A   1      43.520  37.965  28.500  1.00  0.00    -0.237 OA
ATOM     88  O   UNL A   1      45.957  38.315  28.541  1.00  0.00    -0.237 OA
ATOM     89  O   UNL A   1      44.946  36.997  26.734  1.00  0.00    -0.744 OA
ENDBRANCH  83  86
ENDBRANCH  56  79
ENDBRANCH  30  31
ENDBRANCH  23  25
ENDBRANCH  22  23
ENDBRANCH  21  22
ENDBRANCH  20  21
ENDBRANCH  19  20
ENDBRANCH   1  19
TORSDOF 22
ENDMDL
MODEL 3
REMARK VINA RESULT:      -9.8      1.814      2.228
REMARK SMILES CN(CCCC(=O)OCCOCCOC(=O)c1ccc(-c2c3nc(c(-c4cccc(S(=O)(=O)[O-])c4F)c4ccc([nH]4)c(-c4cccc(S(=O)(=O)[O-])c4F)c4nc(c(-c5cccc(S(=O)(=O)[O-])c5F)c5ccc2[nH]5)C=C4)C=C3)cc1)C(=O)c1ccc(Br)o1
REMARK SMILES IDX 10 1 9 2 8 3 6 4 7 5 5 6 4 7 3 8 2 9 1 10 80 11 81 12 82 13
REMARK SMILES IDX 83 14 87 15 84 16 85 17 86 18 11 19 12 20 13 21 14 22 15 23
REMARK SMILES IDX 16 24 17 25 18 26 79 27 19 28 78 29 20 30 21 31 22 32 72 33
REMARK SMILES IDX 23 34 77 35 71 36 73 37 24 38 76 39 70 40 69 41 25 43 57 44
REMARK SMILES IDX 37 45 56 46 38 47 41 48 55 49 74 50 39 51 40 52 54 54 75 55
REMARK SMILES IDX 42 56 26 57 27 58 35 59 28 60 30 61 36 62 29 63 31 64 32 65
REMARK SMILES IDX 33 66 34 67 58 68 59 69 67 70 60 71 62 72 68 73 61 74 63 75
REMARK SMILES IDX 64 76 65 77 66 78 43 79 44 80 52 81 45 82 47 83 53 84 46 85
REMARK SMILES IDX 48 86 49 87 50 88 51 89
REMARK H PARENT 73 42 41 53
REMARK Flexibility Score: inf
ROOT
ATOM      1  C   UNL A   1      34.693  20.750  25.371  1.00  0.00     0.202 C 
ENDROOT
BRANCH   1   2
ATOM      2  C   UNL A   1      33.760  19.793  24.634  1.00  0.00     0.261 C 
BRANCH   2   3
ATOM      3  O   UNL A   1      32.404  20.266  24.641  1.00  0.00    -0.463 OA
BRANCH   3   4
ATOM      4  C   UNL A   1      32.072  21.207  23.724  1.00  0.00     0.305 C 
ATOM      5  O   UNL A   1      32.079  21.040  22.509  1.00  0.00    -0.252 OA
BRANCH   4   6
ATOM      6  C   UNL A   1      31.587  22.492  24.359  1.00  0.00     0.124 C 
BRANCH   6   7
ATOM      7  C   UNL A   1      31.405  22.500  25.875  1.00  0.00     0.033 C 
BRANCH   7   8
ATOM      8  C   UNL A   1      30.600  23.663  26.481  1.00  0.00     0.120 C 
BRANCH   8   9
ATOM      9  N   UNL A   1      31.153  24.994  26.239  1.00  0.00    -0.339 N 
ATOM     10  C   UNL A   1      32.585  25.143  26.456  1.00  0.00     0.147 C 
BRANCH   9  11
ATOM     11  C   UNL A   1      30.506  26.053  25.580  1.00  0.00     0.289 C 
ATOM     12  O   UNL A   1      29.313  25.975  25.287  1.00  0.00    -0.265 OA
BRANCH  11  13
ATOM     13  C   UNL A   1      31.273  27.197  25.136  1.00  0.00     0.193 A 
ATOM     14  C   UNL A   1      31.574  28.361  25.821  1.00  0.00     0.057 A 
ATOM     15  O   UNL A   1      31.999  27.148  23.976  1.00  0.00    -0.444 OA
ATOM     16  C   UNL A   1      32.529  29.058  25.049  1.00  0.00     0.059 A 
ATOM     17  C   UNL A   1      32.788  28.262  23.957  1.00  0.00     0.170 A 
ATOM     18  Br  UNL A   1      34.062  28.650  22.647  1.00  0.00    -0.008 Br
ENDBRANCH  11  13
ENDBRANCH   9  11
ENDBRANCH   8   9
ENDBRANCH   7   8
ENDBRANCH   6   7
ENDBRANCH   4   6
ENDBRANCH   3   4
ENDBRANCH   2   3
ENDBRANCH   1   2
BRANCH   1  19
ATOM     19  O   UNL A   1      35.117  21.920  24.672  1.00  0.00    -0.374 OA
BRANCH  19  20
ATOM     20  C   UNL A   1      36.477  22.010  24.262  1.00  0.00     0.202 C 
BRANCH  20  21
ATOM     21  C   UNL A   1      37.442  20.888  24.666  1.00  0.00     0.261 C 
BRANCH  21  22
ATOM     22  O   UNL A   1      37.900  20.944  26.026  1.00  0.00    -0.460 OA
BRANCH  22  23
ATOM     23  C   UNL A   1      39.247  21.026  26.145  1.00  0.00     0.338 C 
ATOM     24  O   UNL A   1      40.075  20.237  25.696  1.00  0.00    -0.246 OA
BRANCH  23  25
ATOM     25  C   UNL A   1      39.651  22.288  26.783  1.00  0.00     0.060 A 
ATOM     26  C   UNL A   1      39.098  23.471  26.278  1.00  0.00     0.016 A 
ATOM     27  C   UNL A   1      40.656  22.327  27.754  1.00  0.00     0.016 A 
ATOM     28  C   UNL A   1      39.597  24.703  26.689  1.00  0.00     0.010 A 
ATOM     29  C   UNL A   1      41.160  23.568  28.160  1.00  0.00     0.010 A 
ATOM     30  C   UNL A   1      40.667  24.756  27.590  1.00  0.00    -0.014 A 
BRANCH  30  31
ATOM     31  C   UNL A   1      41.382  26.040  27.786  1.00  0.00     0.031 A 
ATOM     32  C   UNL A   1      40.700  27.144  28.548  1.00  0.00     0.074 A 
ATOM     33  C   UNL A   1      42.633  26.208  27.325  1.00  0.00     0.049 A 
ATOM     34  N   UNL A   1      41.143  28.334  28.858  1.00  0.00    -0.248 NA
ATOM     35  C   UNL A   1      39.336  26.866  29.026  1.00  0.00     0.031 C 
ATOM     36  C   UNL A   1      43.405  25.204  26.595  1.00  0.00     0.029 A 
ATOM     37  N   UNL A   1      43.470  27.293  27.398  1.00  0.00    -0.354 N 
ATOM     38  C   UNL A   1      40.106  28.957  29.545  1.00  0.00     0.074 A 
ATOM     39  C   UNL A   1      39.005  28.019  29.588  1.00  0.00     0.031 C 
ATOM     40  C   UNL A   1      44.603  25.724  26.278  1.00  0.00     0.029 A 
ATOM     41  C   UNL A   1      44.673  27.101  26.763  1.00  0.00     0.049 A 
ATOM     42  H   UNL A   1      43.231  28.128  27.863  1.00  0.00     0.167 HD
ATOM     43  C   UNL A   1      40.079  30.189  30.107  1.00  0.00     0.034 A 
ATOM     44  C   UNL A   1      45.707  27.947  26.588  1.00  0.00     0.034 A 
ATOM     45  C   UNL A   1      41.181  31.112  30.075  1.00  0.00     0.049 A 
ATOM     46  C   UNL A   1      45.634  29.330  27.178  1.00  0.00     0.074 A 
ATOM     47  C   UNL A   1      41.270  32.369  30.649  1.00  0.00     0.029 A 
ATOM     48  N   UNL A   1      42.383  30.885  29.422  1.00  0.00    -0.354 N 
ATOM     49  N   UNL A   1      44.693  29.867  27.916  1.00  0.00    -0.248 NA
ATOM     50  C   UNL A   1      46.781  30.217  26.933  1.00  0.00     0.031 C 
ATOM     51  C   UNL A   1      42.517  32.911  30.318  1.00  0.00     0.029 A 
ATOM     52  C   UNL A   1      43.215  31.982  29.561  1.00  0.00     0.049 A 
ATOM     53  H   UNL A   1      42.611  30.063  28.931  1.00  0.00     0.167 HD
ATOM     54  C   UNL A   1      45.147  31.136  28.256  1.00  0.00     0.074 A 
ATOM     55  C   UNL A   1      46.457  31.284  27.652  1.00  0.00     0.031 C 
ATOM     56  C   UNL A   1      44.534  32.097  28.992  1.00  0.00     0.034 A 
BRANCH  43  57
ATOM     57  C   UNL A   1      38.813  30.594  30.819  1.00  0.00     0.023 A 
ATOM     58  C   UNL A   1      38.656  30.293  32.188  1.00  0.00     0.012 A 
ATOM     59  C   UNL A   1      37.786  31.277  30.142  1.00  0.00     0.148 A 
ATOM     60  C   UNL A   1      37.480  30.626  32.859  1.00  0.00     0.002 A 
ATOM     61  C   UNL A   1      36.634  31.645  30.828  1.00  0.00     0.091 A 
ATOM     62  F   UNL A   1      37.938  31.530  28.834  1.00  0.00    -0.205 F 
ATOM     63  C   UNL A   1      36.474  31.309  32.182  1.00  0.00     0.022 A 
BRANCH  61  64
ATOM     64  S   UNL A   1      35.318  32.589  30.052  1.00  0.00     0.127 S 
ATOM     65  O   UNL A   1      34.381  32.758  31.161  1.00  0.00    -0.237 OA
ATOM     66  O   UNL A   1      36.008  33.813  29.645  1.00  0.00    -0.237 OA
ATOM     67  O   UNL A   1      34.845  31.769  28.945  1.00  0.00    -0.744 OA
ENDBRANCH  61  64
ENDBRANCH  43  57
BRANCH  44  68
ATOM     68  C   UNL A   1      46.925  27.485  25.867  1.00  0.00     0.023 A 
ATOM     69  C   UNL A   1      47.039  27.722  24.484  1.00  0.00     0.012 A 
ATOM     70  C   UNL A   1      47.983  26.849  26.547  1.00  0.00     0.148 A 
ATOM     71  C   UNL A   1      48.178  27.319  23.786  1.00  0.00     0.002 A 
ATOM     72  C   UNL A   1      49.134  26.495  25.855  1.00  0.00     0.091 A 
ATOM     73  F   UNL A   1      47.846  26.622  27.861  1.00  0.00    -0.205 F 
ATOM     74  C   UNL A   1      49.229  26.717  24.472  1.00  0.00     0.022 A 
BRANCH  72  75
ATOM     75  S   UNL A   1      50.584  25.817  26.671  1.00  0.00     0.127 S 
ATOM     76  O   UNL A   1      50.059  24.572  27.227  1.00  0.00    -0.237 OA
ATOM     77  O   UNL A   1      51.508  25.651  25.548  1.00  0.00    -0.237 OA
ATOM     78  O   UNL A   1      50.991  26.818  27.647  1.00  0.00    -0.744 OA
ENDBRANCH  72  75
ENDBRANCH  44  68
BRANCH  56  79
ATOM     79  C   UNL A   1      45.279  33.388  29.215  1.00  0.00     0.023 A 
ATOM     80  C   UNL A   1      46.067  33.552  30.371  1.00  0.00     0.012 A 
ATOM     81  C   UNL A   1      45.260  34.407  28.242  1.00  0.00     0.148 A 
ATOM     82  C   UNL A   1      46.799  34.723  30.570  1.00  0.00     0.002 A 
ATOM     83  C   UNL A   1      46.029  35.551  28.424  1.00  0.00     0.091 A 
ATOM     84  F   UNL A   1      44.489  34.242  27.157  1.00  0.00    -0.205 F 
ATOM     85  C   UNL A   1      46.790  35.715  29.593  1.00  0.00     0.022 A 
BRANCH  83  86
ATOM     86  S   UNL A   1      46.154  36.837  27.176  1.00  0.00     0.127 S 
ATOM     87  O   UNL A   1      44.764  37.272  27.056  1.00  0.00    -0.237 OA
ATOM     88  O   UNL A   1      47.044  37.807  27.815  1.00  0.00    -0.237 OA
ATOM     89  O   UNL A   1      46.713  36.194  25.994  1.00  0.00    -0.744 OA
ENDBRANCH  83  86
ENDBRANCH  56  79
ENDBRANCH  30  31
ENDBRANCH  23  25
ENDBRANCH  22  23
ENDBRANCH  21  22
ENDBRANCH  20  21
ENDBRANCH  19  20
ENDBRANCH   1  19
TORSDOF 22
ENDMDL
