MODEL 1
REMARK VINA RESULT:     -12.0      0.000      0.000
REMARK SMILES COc1cccc(-c2nn(-c3cc4c(cc3C(N)=O)OCO4)cc2C(=O)OCCOCCOC(=O)c2ccc(-c3c4nc(c(-c5cccc(S(=O)(=O)[O-])c5F)c5ccc([nH]5)c(-c5cccc(S(=O)(=O)[O-])c5F)c5nc(c(-c6cccc(S(=O)(=O)[O-])c6F)c6ccc3[nH]6)C=C5)C=C4)cc2)c1
REMARK SMILES IDX 31 1 30 2 29 3 28 4 27 5 25 6 26 7 24 8 8 9 9 10 10 11 23 12
REMARK SMILES IDX 7 13 3 14 4 15 99 16 5 17 6 18 2 19 1 20 11 21 12 22 16 23
REMARK SMILES IDX 13 24 15 25 14 26 22 27 20 28 21 29 17 30 18 31 19 32 32 35
REMARK SMILES IDX 33 36 34 37 35 38 36 39 37 40 98 41 38 42 97 43 39 44 40 45
REMARK SMILES IDX 41 46 91 47 42 48 96 49 90 50 92 51 43 52 95 53 89 54 88 55
REMARK SMILES IDX 44 57 76 58 56 59 75 60 57 61 60 62 74 63 93 64 58 65 59 66
REMARK SMILES IDX 73 68 94 69 61 70 45 71 46 72 54 73 47 74 49 75 55 76 48 77
REMARK SMILES IDX 50 78 51 79 52 80 53 81 77 82 78 83 86 84 79 85 81 86 87 87
REMARK SMILES IDX 80 88 82 89 83 90 84 91 85 92 62 93 63 94 71 95 64 96 66 97
REMARK SMILES IDX 72 98 65 99 67 100 68 101 69 102 70 103
REMARK H PARENT 18 33 18 34 92 56 60 67
REMARK Flexibility Score: inf
ROOT
ATOM      1  C   UNL A   1      31.808  32.391  27.407  1.00  0.00     0.202 C 
ENDROOT
BRANCH   1   2
ATOM      2  O   UNL A   1      31.319  31.861  26.182  1.00  0.00    -0.374 OA
BRANCH   2   3
ATOM      3  C   UNL A   1      31.557  30.494  25.841  1.00  0.00     0.202 C 
BRANCH   3   4
ATOM      4  C   UNL A   1      32.938  29.897  26.115  1.00  0.00     0.261 C 
BRANCH   4   5
ATOM      5  O   UNL A   1      32.924  28.963  27.204  1.00  0.00    -0.460 OA
BRANCH   5   6
ATOM      6  C   UNL A   1      32.037  27.930  27.075  1.00  0.00     0.342 C 
ATOM      7  O   UNL A   1      30.965  27.859  27.653  1.00  0.00    -0.246 OA
BRANCH   6   8
ATOM      8  C   UNL A   1      32.467  26.961  26.093  1.00  0.00     0.106 A 
ATOM      9  C   UNL A   1      31.761  26.461  24.963  1.00  0.00     0.107 A 
ATOM     10  N   UNL A   1      32.431  25.445  24.386  1.00  0.00    -0.167 NA
ATOM     11  N   UNL A   1      33.445  25.203  25.260  1.00  0.00    -0.239 N 
ATOM     12  C   UNL A   1      33.672  26.296  26.061  1.00  0.00     0.131 A 
BRANCH   9  13
ATOM     13  C   UNL A   1      30.522  26.998  24.413  1.00  0.00     0.007 A 
ATOM     14  C   UNL A   1      29.344  28.598  23.027  1.00  0.00     0.119 A 
ATOM     15  C   UNL A   1      28.175  27.844  23.156  1.00  0.00     0.046 A 
ATOM     16  C   UNL A   1      30.522  28.175  23.653  1.00  0.00     0.056 A 
ATOM     17  C   UNL A   1      28.166  26.678  23.918  1.00  0.00     0.005 A 
ATOM     18  C   UNL A   1      29.332  26.273  24.566  1.00  0.00     0.011 A 
BRANCH  14  19
ATOM     19  O   UNL A   1      29.205  29.756  22.310  1.00  0.00    -0.497 OA
ATOM     20  C   UNL A   1      28.847  30.903  23.071  1.00  0.00     0.278 C 
ENDBRANCH  14  19
ENDBRANCH   9  13
BRANCH  11  21
ATOM     21  C   UNL A   1      34.154  23.977  25.286  1.00  0.00     0.081 A 
ATOM     22  C   UNL A   1      35.442  23.947  24.715  1.00  0.00     0.079 A 
ATOM     23  C   UNL A   1      33.590  22.802  25.876  1.00  0.00     0.069 A 
ATOM     24  C   UNL A   1      36.156  22.774  24.819  1.00  0.00     0.167 A 
ATOM     25  C   UNL A   1      34.413  21.681  26.072  1.00  0.00     0.066 A 
ATOM     26  C   UNL A   1      35.668  21.691  25.508  1.00  0.00     0.166 A 
ATOM     27  O   UNL A   1      37.373  22.515  24.268  1.00  0.00    -0.454 OA
ATOM     28  O   UNL A   1      36.514  20.626  25.484  1.00  0.00    -0.454 OA
ATOM     29  C   UNL A   1      37.501  21.105  24.550  1.00  0.00     0.468 C 
BRANCH  23  30
ATOM     30  C   UNL A   1      32.098  22.616  26.017  1.00  0.00     0.251 C 
ATOM     31  N   UNL A   1      31.533  22.678  27.262  1.00  0.00    -0.366 N 
ATOM     32  O   UNL A   1      31.356  22.304  25.094  1.00  0.00    -0.269 OA
ATOM     33  H   UNL A   1      32.083  22.924  28.040  1.00  0.00     0.159 HD
ATOM     34  H   UNL A   1      30.576  22.475  27.378  1.00  0.00     0.159 HD
ENDBRANCH  23  30
ENDBRANCH  11  21
ENDBRANCH   6   8
ENDBRANCH   5   6
ENDBRANCH   4   5
ENDBRANCH   3   4
ENDBRANCH   2   3
ENDBRANCH   1   2
BRANCH   1  35
ATOM     35  C   UNL A   1      32.712  33.617  27.394  1.00  0.00     0.261 C 
BRANCH  35  36
ATOM     36  O   UNL A   1      32.380  34.558  28.392  1.00  0.00    -0.460 OA
BRANCH  36  37
ATOM     37  C   UNL A   1      33.358  34.692  29.316  1.00  0.00     0.338 C 
ATOM     38  O   UNL A   1      33.473  35.574  30.149  1.00  0.00    -0.246 OA
BRANCH  37  39
ATOM     39  C   UNL A   1      34.385  33.689  29.045  1.00  0.00     0.060 A 
ATOM     40  C   UNL A   1      34.554  32.717  30.031  1.00  0.00     0.016 A 
ATOM     41  C   UNL A   1      35.350  33.946  28.060  1.00  0.00     0.016 A 
ATOM     42  C   UNL A   1      35.805  32.179  30.187  1.00  0.00     0.010 A 
ATOM     43  C   UNL A   1      36.604  33.425  28.230  1.00  0.00     0.010 A 
ATOM     44  C   UNL A   1      36.831  32.625  29.345  1.00  0.00    -0.014 A 
BRANCH  44  45
ATOM     45  C   UNL A   1      38.156  32.103  29.568  1.00  0.00     0.031 A 
ATOM     46  C   UNL A   1      38.226  30.688  29.149  1.00  0.00     0.074 A 
ATOM     47  C   UNL A   1      39.165  32.876  30.009  1.00  0.00     0.049 A 
ATOM     48  N   UNL A   1      38.225  29.646  29.913  1.00  0.00    -0.248 NA
ATOM     49  C   UNL A   1      37.975  30.388  27.727  1.00  0.00     0.031 C 
ATOM     50  C   UNL A   1      39.188  34.335  30.151  1.00  0.00     0.029 A 
ATOM     51  N   UNL A   1      40.443  32.524  30.299  1.00  0.00    -0.354 N 
ATOM     52  C   UNL A   1      38.281  28.572  29.032  1.00  0.00     0.074 A 
ATOM     53  C   UNL A   1      37.815  29.066  27.768  1.00  0.00     0.031 C 
ATOM     54  C   UNL A   1      40.476  34.750  30.236  1.00  0.00     0.029 A 
ATOM     55  C   UNL A   1      41.344  33.586  30.284  1.00  0.00     0.049 A 
ATOM     56  H   UNL A   1      40.711  31.599  30.501  1.00  0.00     0.167 HD
ATOM     57  C   UNL A   1      39.066  27.499  29.315  1.00  0.00     0.034 A 
ATOM     58  C   UNL A   1      42.697  33.486  30.216  1.00  0.00     0.034 A 
ATOM     59  C   UNL A   1      39.408  27.474  30.717  1.00  0.00     0.049 A 
ATOM     60  C   UNL A   1      43.048  32.102  30.612  1.00  0.00     0.074 A 
ATOM     61  C   UNL A   1      38.703  27.412  31.902  1.00  0.00     0.029 A 
ATOM     62  N   UNL A   1      40.658  27.946  31.032  1.00  0.00    -0.354 N 
ATOM     63  N   UNL A   1      42.864  31.628  31.812  1.00  0.00    -0.248 NA
ATOM     64  C   UNL A   1      43.180  31.109  29.558  1.00  0.00     0.031 C 
ATOM     65  C   UNL A   1      39.429  28.238  32.811  1.00  0.00     0.029 A 
ATOM     66  C   UNL A   1      40.577  28.704  32.166  1.00  0.00     0.049 A 
ATOM     67  H   UNL A   1      41.481  27.767  30.523  1.00  0.00     0.167 HD
ATOM     68  C   UNL A   1      42.381  30.343  31.599  1.00  0.00     0.074 A 
ATOM     69  C   UNL A   1      42.712  30.040  30.208  1.00  0.00     0.031 C 
ATOM     70  C   UNL A   1      41.494  29.782  32.473  1.00  0.00     0.034 A 
BRANCH  57  71
ATOM     71  C   UNL A   1      39.912  26.769  28.284  1.00  0.00     0.023 A 
ATOM     72  C   UNL A   1      39.916  25.359  28.360  1.00  0.00     0.012 A 
ATOM     73  C   UNL A   1      40.902  27.359  27.460  1.00  0.00     0.148 A 
ATOM     74  C   UNL A   1      40.890  24.589  27.717  1.00  0.00     0.002 A 
ATOM     75  C   UNL A   1      41.823  26.589  26.763  1.00  0.00     0.091 A 
ATOM     76  F   UNL A   1      41.064  28.682  27.428  1.00  0.00    -0.205 F 
ATOM     77  C   UNL A   1      41.844  25.203  26.915  1.00  0.00     0.022 A 
BRANCH  75  78
ATOM     78  S   UNL A   1      43.056  27.336  25.685  1.00  0.00     0.127 S 
ATOM     79  O   UNL A   1      43.879  28.065  26.645  1.00  0.00    -0.237 OA
ATOM     80  O   UNL A   1      43.685  26.154  25.095  1.00  0.00    -0.237 OA
ATOM     81  O   UNL A   1      42.314  28.153  24.733  1.00  0.00    -0.744 OA
ENDBRANCH  75  78
ENDBRANCH  57  71
BRANCH  58  82
ATOM     82  C   UNL A   1      43.684  34.356  29.528  1.00  0.00     0.023 A 
ATOM     83  C   UNL A   1      44.525  35.196  30.291  1.00  0.00     0.012 A 
ATOM     84  C   UNL A   1      44.018  34.141  28.172  1.00  0.00     0.148 A 
ATOM     85  C   UNL A   1      45.675  35.770  29.733  1.00  0.00     0.002 A 
ATOM     86  C   UNL A   1      45.159  34.717  27.622  1.00  0.00     0.091 A 
ATOM     87  F   UNL A   1      43.271  33.295  27.453  1.00  0.00    -0.205 F 
ATOM     88  C   UNL A   1      45.998  35.523  28.403  1.00  0.00     0.022 A 
BRANCH  86  89
ATOM     89  S   UNL A   1      45.664  34.412  25.922  1.00  0.00     0.127 S 
ATOM     90  O   UNL A   1      46.311  35.676  25.569  1.00  0.00    -0.237 OA
ATOM     91  O   UNL A   1      46.574  33.281  26.076  1.00  0.00    -0.237 OA
ATOM     92  O   UNL A   1      44.438  34.137  25.185  1.00  0.00    -0.744 OA
ENDBRANCH  86  89
ENDBRANCH  58  82
BRANCH  70  93
ATOM     93  C   UNL A   1      41.308  30.454  33.810  1.00  0.00     0.023 A 
ATOM     94  C   UNL A   1      42.203  30.296  34.889  1.00  0.00     0.012 A 
ATOM     95  C   UNL A   1      40.274  31.398  33.915  1.00  0.00     0.148 A 
ATOM     96  C   UNL A   1      42.054  31.055  36.055  1.00  0.00     0.002 A 
ATOM     97  C   UNL A   1      40.160  32.184  35.052  1.00  0.00     0.091 A 
ATOM     98  F   UNL A   1      39.433  31.531  32.878  1.00  0.00    -0.205 F 
ATOM     99  C   UNL A   1      41.041  32.010  36.130  1.00  0.00     0.022 A 
BRANCH  97 100
ATOM    100  S   UNL A   1      38.956  33.509  35.148  1.00  0.00     0.127 S 
ATOM    101  O   UNL A   1      39.212  34.244  33.912  1.00  0.00    -0.237 OA
ATOM    102  O   UNL A   1      37.688  32.778  35.175  1.00  0.00    -0.237 OA
ATOM    103  O   UNL A   1      39.250  34.231  36.380  1.00  0.00    -0.744 OA
ENDBRANCH  97 100
ENDBRANCH  70  93
ENDBRANCH  44  45
ENDBRANCH  37  39
ENDBRANCH  36  37
ENDBRANCH  35  36
ENDBRANCH   1  35
TORSDOF 21
ENDMDL
MODEL 2
REMARK VINA RESULT:     -11.9      2.803      8.303
REMARK SMILES COc1cccc(-c2nn(-c3cc4c(cc3C(N)=O)OCO4)cc2C(=O)OCCOCCOC(=O)c2ccc(-c3c4nc(c(-c5cccc(S(=O)(=O)[O-])c5F)c5ccc([nH]5)c(-c5cccc(S(=O)(=O)[O-])c5F)c5nc(c(-c6cccc(S(=O)(=O)[O-])c6F)c6ccc3[nH]6)C=C5)C=C4)cc2)c1
REMARK SMILES IDX 31 1 30 2 29 3 28 4 27 5 25 6 26 7 24 8 8 9 9 10 10 11 23 12
REMARK SMILES IDX 7 13 3 14 4 15 99 16 5 17 6 18 2 19 1 20 11 21 12 22 16 23
REMARK SMILES IDX 13 24 15 25 14 26 22 27 20 28 21 29 17 30 18 31 19 32 32 35
REMARK SMILES IDX 33 36 34 37 35 38 36 39 37 40 98 41 38 42 97 43 39 44 40 45
REMARK SMILES IDX 41 46 91 47 42 48 96 49 90 50 92 51 43 52 95 53 89 54 88 55
REMARK SMILES IDX 44 57 76 58 56 59 75 60 57 61 60 62 74 63 93 64 58 65 59 66
REMARK SMILES IDX 73 68 94 69 61 70 45 71 46 72 54 73 47 74 49 75 55 76 48 77
REMARK SMILES IDX 50 78 51 79 52 80 53 81 77 82 78 83 86 84 79 85 81 86 87 87
REMARK SMILES IDX 80 88 82 89 83 90 84 91 85 92 62 93 63 94 71 95 64 96 66 97
REMARK SMILES IDX 72 98 65 99 67 100 68 101 69 102 70 103
REMARK H PARENT 18 33 18 34 92 56 60 67
REMARK Flexibility Score: inf
ROOT
ATOM      1  C   UNL A   1      40.214  20.964  26.550  1.00  0.00     0.202 C 
ENDROOT
BRANCH   1   2
ATOM      2  O   UNL A   1      39.143  21.888  26.410  1.00  0.00    -0.374 OA
BRANCH   2   3
ATOM      3  C   UNL A   1      38.194  21.737  25.354  1.00  0.00     0.202 C 
BRANCH   3   4
ATOM      4  C   UNL A   1      36.799  22.340  25.526  1.00  0.00     0.261 C 
BRANCH   4   5
ATOM      5  O   UNL A   1      36.668  23.612  24.875  1.00  0.00    -0.460 OA
BRANCH   5   6
ATOM      6  C   UNL A   1      35.699  23.676  23.912  1.00  0.00     0.342 C 
ATOM      7  O   UNL A   1      35.801  23.205  22.791  1.00  0.00    -0.246 OA
BRANCH   6   8
ATOM      8  C   UNL A   1      34.484  24.289  24.399  1.00  0.00     0.106 A 
ATOM      9  C   UNL A   1      33.235  23.678  24.704  1.00  0.00     0.107 A 
ATOM     10  N   UNL A   1      32.296  24.605  24.970  1.00  0.00    -0.167 NA
ATOM     11  N   UNL A   1      32.915  25.775  24.654  1.00  0.00    -0.239 N 
ATOM     12  C   UNL A   1      34.280  25.625  24.660  1.00  0.00     0.131 A 
BRANCH   9  13
ATOM     13  C   UNL A   1      32.979  22.246  24.810  1.00  0.00     0.007 A 
ATOM     14  C   UNL A   1      32.525  20.099  23.784  1.00  0.00     0.119 A 
ATOM     15  C   UNL A   1      32.761  19.469  25.008  1.00  0.00     0.046 A 
ATOM     16  C   UNL A   1      32.637  21.490  23.682  1.00  0.00     0.056 A 
ATOM     17  C   UNL A   1      33.091  20.216  26.137  1.00  0.00     0.005 A 
ATOM     18  C   UNL A   1      33.173  21.604  26.040  1.00  0.00     0.011 A 
BRANCH  14  19
ATOM     19  O   UNL A   1      32.141  19.262  22.771  1.00  0.00    -0.497 OA
ATOM     20  C   UNL A   1      32.638  17.933  22.860  1.00  0.00     0.278 C 
ENDBRANCH  14  19
ENDBRANCH   9  13
BRANCH  11  21
ATOM     21  C   UNL A   1      32.198  26.967  24.383  1.00  0.00     0.081 A 
ATOM     22  C   UNL A   1      31.503  27.057  23.160  1.00  0.00     0.079 A 
ATOM     23  C   UNL A   1      32.169  28.049  25.319  1.00  0.00     0.069 A 
ATOM     24  C   UNL A   1      30.742  28.184  22.942  1.00  0.00     0.167 A 
ATOM     25  C   UNL A   1      31.272  29.108  25.103  1.00  0.00     0.066 A 
ATOM     26  C   UNL A   1      30.605  29.157  23.902  1.00  0.00     0.166 A 
ATOM     27  O   UNL A   1      30.068  28.498  21.804  1.00  0.00    -0.454 OA
ATOM     28  O   UNL A   1      29.826  30.195  23.492  1.00  0.00    -0.454 OA
ATOM     29  C   UNL A   1      29.644  29.844  22.106  1.00  0.00     0.468 C 
BRANCH  23  30
ATOM     30  C   UNL A   1      33.257  28.243  26.350  1.00  0.00     0.251 C 
ATOM     31  N   UNL A   1      32.914  28.339  27.671  1.00  0.00    -0.366 N 
ATOM     32  O   UNL A   1      34.435  28.430  26.074  1.00  0.00    -0.269 OA
ATOM     33  H   UNL A   1      31.980  28.198  27.948  1.00  0.00     0.159 HD
ATOM     34  H   UNL A   1      33.602  28.550  28.344  1.00  0.00     0.159 HD
ENDBRANCH  23  30
ENDBRANCH  11  21
ENDBRANCH   6   8
ENDBRANCH   5   6
ENDBRANCH   4   5
ENDBRANCH   3   4
ENDBRANCH   2   3
ENDBRANCH   1   2
BRANCH   1  35
ATOM     35  C   UNL A   1      41.633  21.391  26.201  1.00  0.00     0.261 C 
BRANCH  35  36
ATOM     36  O   UNL A   1      41.741  22.770  25.919  1.00  0.00    -0.460 OA
BRANCH  36  37
ATOM     37  C   UNL A   1      42.754  23.354  26.600  1.00  0.00     0.338 C 
ATOM     38  O   UNL A   1      43.941  23.089  26.531  1.00  0.00    -0.246 OA
BRANCH  37  39
ATOM     39  C   UNL A   1      42.177  24.258  27.592  1.00  0.00     0.060 A 
ATOM     40  C   UNL A   1      41.080  25.005  27.162  1.00  0.00     0.016 A 
ATOM     41  C   UNL A   1      42.928  24.597  28.727  1.00  0.00     0.016 A 
ATOM     42  C   UNL A   1      40.893  26.242  27.723  1.00  0.00     0.010 A 
ATOM     43  C   UNL A   1      42.753  25.840  29.271  1.00  0.00     0.010 A 
ATOM     44  C   UNL A   1      41.801  26.675  28.695  1.00  0.00    -0.014 A 
BRANCH  44  45
ATOM     45  C   UNL A   1      41.633  28.006  29.224  1.00  0.00     0.031 A 
ATOM     46  C   UNL A   1      42.621  28.925  28.623  1.00  0.00     0.074 A 
ATOM     47  C   UNL A   1      40.635  28.318  30.071  1.00  0.00     0.049 A 
ATOM     48  N   UNL A   1      43.699  29.380  29.170  1.00  0.00    -0.248 NA
ATOM     49  C   UNL A   1      42.560  29.127  27.164  1.00  0.00     0.031 C 
ATOM     50  C   UNL A   1      39.481  27.497  30.448  1.00  0.00     0.029 A 
ATOM     51  N   UNL A   1      40.372  29.505  30.676  1.00  0.00    -0.354 N 
ATOM     52  C   UNL A   1      44.278  30.174  28.186  1.00  0.00     0.074 A 
ATOM     53  C   UNL A   1      43.726  29.730  26.939  1.00  0.00     0.031 C 
ATOM     54  C   UNL A   1      38.528  28.295  30.988  1.00  0.00     0.029 A 
ATOM     55  C   UNL A   1      39.056  29.643  31.109  1.00  0.00     0.049 A 
ATOM     56  H   UNL A   1      41.052  30.206  30.797  1.00  0.00     0.167 HD
ATOM     57  C   UNL A   1      44.844  31.364  28.517  1.00  0.00     0.034 A 
ATOM     58  C   UNL A   1      38.443  30.809  31.443  1.00  0.00     0.034 A 
ATOM     59  C   UNL A   1      45.118  31.421  29.934  1.00  0.00     0.049 A 
ATOM     60  C   UNL A   1      39.513  31.803  31.697  1.00  0.00     0.074 A 
ATOM     61  C   UNL A   1      45.878  30.686  30.821  1.00  0.00     0.029 A 
ATOM     62  N   UNL A   1      44.208  32.119  30.688  1.00  0.00    -0.354 N 
ATOM     63  N   UNL A   1      40.352  31.718  32.689  1.00  0.00    -0.248 NA
ATOM     64  C   UNL A   1      39.935  32.641  30.587  1.00  0.00     0.031 C 
ATOM     65  C   UNL A   1      45.120  30.660  32.029  1.00  0.00     0.029 A 
ATOM     66  C   UNL A   1      43.975  31.440  31.850  1.00  0.00     0.049 A 
ATOM     67  H   UNL A   1      43.789  32.972  30.432  1.00  0.00     0.167 HD
ATOM     68  C   UNL A   1      41.572  32.081  32.134  1.00  0.00     0.074 A 
ATOM     69  C   UNL A   1      41.233  32.752  30.880  1.00  0.00     0.031 C 
ATOM     70  C   UNL A   1      42.735  31.529  32.592  1.00  0.00     0.034 A 
BRANCH  57  71
ATOM     71  C   UNL A   1      44.704  32.632  27.691  1.00  0.00     0.023 A 
ATOM     72  C   UNL A   1      43.987  32.515  26.480  1.00  0.00     0.012 A 
ATOM     73  C   UNL A   1      45.452  33.822  27.869  1.00  0.00     0.148 A 
ATOM     74  C   UNL A   1      44.071  33.487  25.478  1.00  0.00     0.002 A 
ATOM     75  C   UNL A   1      45.474  34.819  26.903  1.00  0.00     0.091 A 
ATOM     76  F   UNL A   1      46.264  33.967  28.915  1.00  0.00    -0.205 F 
ATOM     77  C   UNL A   1      44.813  34.642  25.689  1.00  0.00     0.022 A 
BRANCH  75  78
ATOM     78  S   UNL A   1      46.393  36.349  27.146  1.00  0.00     0.127 S 
ATOM     79  O   UNL A   1      47.595  35.862  27.817  1.00  0.00    -0.237 OA
ATOM     80  O   UNL A   1      46.586  36.797  25.767  1.00  0.00    -0.237 OA
ATOM     81  O   UNL A   1      45.528  37.214  27.938  1.00  0.00    -0.744 OA
ENDBRANCH  75  78
ENDBRANCH  57  71
BRANCH  58  82
ATOM     82  C   UNL A   1      37.036  31.238  31.239  1.00  0.00     0.023 A 
ATOM     83  C   UNL A   1      36.276  31.683  32.343  1.00  0.00     0.012 A 
ATOM     84  C   UNL A   1      36.541  31.508  29.944  1.00  0.00     0.148 A 
ATOM     85  C   UNL A   1      35.087  32.401  32.162  1.00  0.00     0.002 A 
ATOM     86  C   UNL A   1      35.357  32.219  29.769  1.00  0.00     0.091 A 
ATOM     87  F   UNL A   1      37.281  31.154  28.886  1.00  0.00    -0.205 F 
ATOM     88  C   UNL A   1      34.632  32.677  30.877  1.00  0.00     0.022 A 
BRANCH  86  89
ATOM     89  S   UNL A   1      34.727  32.650  28.141  1.00  0.00     0.127 S 
ATOM     90  O   UNL A   1      34.410  31.335  27.582  1.00  0.00    -0.237 OA
ATOM     91  O   UNL A   1      33.565  33.470  28.473  1.00  0.00    -0.237 OA
ATOM     92  O   UNL A   1      35.814  33.344  27.463  1.00  0.00    -0.744 OA
ENDBRANCH  86  89
ENDBRANCH  58  82
BRANCH  70  93
ATOM     93  C   UNL A   1      42.686  30.778  33.899  1.00  0.00     0.023 A 
ATOM     94  C   UNL A   1      42.761  31.408  35.160  1.00  0.00     0.012 A 
ATOM     95  C   UNL A   1      42.396  29.406  33.840  1.00  0.00     0.148 A 
ATOM     96  C   UNL A   1      42.568  30.674  36.335  1.00  0.00     0.002 A 
ATOM     97  C   UNL A   1      42.156  28.692  35.005  1.00  0.00     0.091 A 
ATOM     98  F   UNL A   1      42.331  28.826  32.632  1.00  0.00    -0.205 F 
ATOM     99  C   UNL A   1      42.250  29.319  36.257  1.00  0.00     0.022 A 
BRANCH  97 100
ATOM    100  S   UNL A   1      41.622  26.981  34.953  1.00  0.00     0.127 S 
ATOM    101  O   UNL A   1      40.472  27.048  34.055  1.00  0.00    -0.237 OA
ATOM    102  O   UNL A   1      42.795  26.305  34.398  1.00  0.00    -0.237 OA
ATOM    103  O   UNL A   1      41.322  26.612  36.332  1.00  0.00    -0.744 OA
ENDBRANCH  97 100
ENDBRANCH  70  93
ENDBRANCH  44  45
ENDBRANCH  37  39
ENDBRANCH  36  37
ENDBRANCH  35  36
ENDBRANCH   1  35
TORSDOF 21
ENDMDL
MODEL 3
REMARK VINA RESULT:     -11.8      3.085      8.397
REMARK SMILES COc1cccc(-c2nn(-c3cc4c(cc3C(N)=O)OCO4)cc2C(=O)OCCOCCOC(=O)c2ccc(-c3c4nc(c(-c5cccc(S(=O)(=O)[O-])c5F)c5ccc([nH]5)c(-c5cccc(S(=O)(=O)[O-])c5F)c5nc(c(-c6cccc(S(=O)(=O)[O-])c6F)c6ccc3[nH]6)C=C5)C=C4)cc2)c1
REMARK SMILES IDX 31 1 30 2 29 3 28 4 27 5 25 6 26 7 24 8 8 9 9 10 10 11 23 12
REMARK SMILES IDX 7 13 3 14 4 15 99 16 5 17 6 18 2 19 1 20 11 21 12 22 16 23
REMARK SMILES IDX 13 24 15 25 14 26 22 27 20 28 21 29 17 30 18 31 19 32 32 35
REMARK SMILES IDX 33 36 34 37 35 38 36 39 37 40 98 41 38 42 97 43 39 44 40 45
REMARK SMILES IDX 41 46 91 47 42 48 96 49 90 50 92 51 43 52 95 53 89 54 88 55
REMARK SMILES IDX 44 57 76 58 56 59 75 60 57 61 60 62 74 63 93 64 58 65 59 66
REMARK SMILES IDX 73 68 94 69 61 70 45 71 46 72 54 73 47 74 49 75 55 76 48 77
REMARK SMILES IDX 50 78 51 79 52 80 53 81 77 82 78 83 86 84 79 85 81 86 87 87
REMARK SMILES IDX 80 88 82 89 83 90 84 91 85 92 62 93 63 94 71 95 64 96 66 97
REMARK SMILES IDX 72 98 65 99 67 100 68 101 69 102 70 103
REMARK H PARENT 18 33 18 34 92 56 60 67
REMARK Flexibility Score: inf
ROOT
ATOM      1  C   UNL A   1      39.741  21.243  26.068  1.00  0.00     0.202 C 
ENDROOT
BRANCH   1   2
ATOM      2  O   UNL A   1      38.504  21.848  26.415  1.00  0.00    -0.374 OA
BRANCH   2   3
ATOM      3  C   UNL A   1      37.703  22.479  25.415  1.00  0.00     0.202 C 
BRANCH   3   4
ATOM      4  C   UNL A   1      36.675  21.638  24.656  1.00  0.00     0.261 C 
BRANCH   4   5
ATOM      5  O   UNL A   1      35.356  22.198  24.718  1.00  0.00    -0.460 OA
BRANCH   5   6
ATOM      6  C   UNL A   1      34.944  22.846  23.586  1.00  0.00     0.342 C 
ATOM      7  O   UNL A   1      35.642  23.044  22.606  1.00  0.00    -0.246 OA
BRANCH   6   8
ATOM      8  C   UNL A   1      33.542  23.192  23.635  1.00  0.00     0.106 A 
ATOM      9  C   UNL A   1      32.414  22.412  23.252  1.00  0.00     0.107 A 
ATOM     10  N   UNL A   1      31.286  23.145  23.288  1.00  0.00    -0.167 NA
ATOM     11  N   UNL A   1      31.740  24.408  23.513  1.00  0.00    -0.239 N 
ATOM     12  C   UNL A   1      33.000  24.385  24.059  1.00  0.00     0.131 A 
BRANCH   9  13
ATOM     13  C   UNL A   1      32.418  20.988  22.939  1.00  0.00     0.007 A 
ATOM     14  C   UNL A   1      32.447  18.670  23.641  1.00  0.00     0.119 A 
ATOM     15  C   UNL A   1      32.148  18.274  22.335  1.00  0.00     0.046 A 
ATOM     16  C   UNL A   1      32.579  20.029  23.946  1.00  0.00     0.056 A 
ATOM     17  C   UNL A   1      31.996  19.222  21.326  1.00  0.00     0.005 A 
ATOM     18  C   UNL A   1      32.157  20.574  21.625  1.00  0.00     0.011 A 
BRANCH  14  19
ATOM     19  O   UNL A   1      32.640  17.641  24.524  1.00  0.00    -0.497 OA
ATOM     20  C   UNL A   1      32.827  18.029  25.879  1.00  0.00     0.278 C 
ENDBRANCH  14  19
ENDBRANCH   9  13
BRANCH  11  21
ATOM     21  C   UNL A   1      30.967  25.559  23.222  1.00  0.00     0.081 A 
ATOM     22  C   UNL A   1      29.703  25.677  23.833  1.00  0.00     0.079 A 
ATOM     23  C   UNL A   1      31.450  26.580  22.343  1.00  0.00     0.069 A 
ATOM     24  C   UNL A   1      28.995  26.837  23.612  1.00  0.00     0.167 A 
ATOM     25  C   UNL A   1      30.748  27.793  22.264  1.00  0.00     0.066 A 
ATOM     26  C   UNL A   1      29.521  27.874  22.880  1.00  0.00     0.166 A 
ATOM     27  O   UNL A   1      27.732  27.110  24.038  1.00  0.00    -0.454 OA
ATOM     28  O   UNL A   1      28.664  28.925  22.763  1.00  0.00    -0.454 OA
ATOM     29  C   UNL A   1      27.478  28.352  23.348  1.00  0.00     0.468 C 
BRANCH  23  30
ATOM     30  C   UNL A   1      32.495  26.297  21.289  1.00  0.00     0.251 C 
ATOM     31  N   UNL A   1      32.128  25.642  20.145  1.00  0.00    -0.366 N 
ATOM     32  O   UNL A   1      33.689  26.523  21.432  1.00  0.00    -0.269 OA
ATOM     33  H   UNL A   1      31.179  25.436  19.979  1.00  0.00     0.159 HD
ATOM     34  H   UNL A   1      32.812  25.377  19.489  1.00  0.00     0.159 HD
ENDBRANCH  23  30
ENDBRANCH  11  21
ENDBRANCH   6   8
ENDBRANCH   5   6
ENDBRANCH   4   5
ENDBRANCH   3   4
ENDBRANCH   2   3
ENDBRANCH   1   2
BRANCH   1  35
ATOM     35  C   UNL A   1      41.047  21.979  26.338  1.00  0.00     0.261 C 
BRANCH  35  36
ATOM     36  O   UNL A   1      40.948  22.907  27.396  1.00  0.00    -0.460 OA
BRANCH  36  37
ATOM     37  C   UNL A   1      42.140  23.127  27.997  1.00  0.00     0.338 C 
ATOM     38  O   UNL A   1      42.826  22.319  28.598  1.00  0.00    -0.246 OA
BRANCH  37  39
ATOM     39  C   UNL A   1      42.408  24.564  27.971  1.00  0.00     0.060 A 
ATOM     40  C   UNL A   1      43.257  25.037  28.972  1.00  0.00     0.016 A 
ATOM     41  C   UNL A   1      41.561  25.404  27.234  1.00  0.00     0.016 A 
ATOM     42  C   UNL A   1      43.069  26.321  29.412  1.00  0.00     0.010 A 
ATOM     43  C   UNL A   1      41.359  26.679  27.689  1.00  0.00     0.010 A 
ATOM     44  C   UNL A   1      42.048  27.081  28.829  1.00  0.00    -0.014 A 
BRANCH  44  45
ATOM     45  C   UNL A   1      41.815  28.404  29.351  1.00  0.00     0.031 A 
ATOM     46  C   UNL A   1      42.777  29.363  28.767  1.00  0.00     0.074 A 
ATOM     47  C   UNL A   1      40.790  28.677  30.178  1.00  0.00     0.049 A 
ATOM     48  N   UNL A   1      43.825  29.861  29.335  1.00  0.00    -0.248 NA
ATOM     49  C   UNL A   1      42.736  29.560  27.307  1.00  0.00     0.031 C 
ATOM     50  C   UNL A   1      39.662  27.810  30.533  1.00  0.00     0.029 A 
ATOM     51  N   UNL A   1      40.466  29.852  30.775  1.00  0.00    -0.354 N 
ATOM     52  C   UNL A   1      44.390  30.677  28.362  1.00  0.00     0.074 A 
ATOM     53  C   UNL A   1      43.882  30.210  27.104  1.00  0.00     0.031 C 
ATOM     54  C   UNL A   1      38.667  28.569  31.053  1.00  0.00     0.029 A 
ATOM     55  C   UNL A   1      39.137  29.938  31.182  1.00  0.00     0.049 A 
ATOM     56  H   UNL A   1      41.114  30.581  30.908  1.00  0.00     0.167 HD
ATOM     57  C   UNL A   1      44.901  31.890  28.701  1.00  0.00     0.034 A 
ATOM     58  C   UNL A   1      38.471  31.078  31.501  1.00  0.00     0.034 A 
ATOM     59  C   UNL A   1      45.144  31.960  30.123  1.00  0.00     0.049 A 
ATOM     60  C   UNL A   1      39.494  32.115  31.774  1.00  0.00     0.074 A 
ATOM     61  C   UNL A   1      45.916  31.257  31.026  1.00  0.00     0.029 A 
ATOM     62  N   UNL A   1      44.191  32.621  30.857  1.00  0.00    -0.354 N 
ATOM     63  N   UNL A   1      40.316  32.065  32.783  1.00  0.00    -0.248 NA
ATOM     64  C   UNL A   1      39.904  32.969  30.671  1.00  0.00     0.031 C 
ATOM     65  C   UNL A   1      45.136  31.202  32.219  1.00  0.00     0.029 A 
ATOM     66  C   UNL A   1      43.963  31.934  32.016  1.00  0.00     0.049 A 
ATOM     67  H   UNL A   1      43.743  33.456  30.591  1.00  0.00     0.167 HD
ATOM     68  C   UNL A   1      41.531  32.477  32.252  1.00  0.00     0.074 A 
ATOM     69  C   UNL A   1      41.190  33.132  30.990  1.00  0.00     0.031 C 
ATOM     70  C   UNL A   1      42.706  31.973  32.734  1.00  0.00     0.034 A 
BRANCH  57  71
ATOM     71  C   UNL A   1      44.726  33.150  27.869  1.00  0.00     0.023 A 
ATOM     72  C   UNL A   1      45.847  33.569  27.121  1.00  0.00     0.012 A 
ATOM     73  C   UNL A   1      43.667  34.083  27.996  1.00  0.00     0.148 A 
ATOM     74  C   UNL A   1      45.942  34.861  26.596  1.00  0.00     0.002 A 
ATOM     75  C   UNL A   1      43.732  35.340  27.410  1.00  0.00     0.091 A 
ATOM     76  F   UNL A   1      42.627  33.833  28.790  1.00  0.00    -0.205 F 
ATOM     77  C   UNL A   1      44.882  35.749  26.738  1.00  0.00     0.022 A 
BRANCH  75  78
ATOM     78  S   UNL A   1      42.370  36.512  27.537  1.00  0.00     0.127 S 
ATOM     79  O   UNL A   1      41.223  35.658  27.244  1.00  0.00    -0.237 OA
ATOM     80  O   UNL A   1      42.485  36.945  28.930  1.00  0.00    -0.237 OA
ATOM     81  O   UNL A   1      42.650  37.559  26.563  1.00  0.00    -0.744 OA
ENDBRANCH  75  78
ENDBRANCH  57  71
BRANCH  58  82
ATOM     82  C   UNL A   1      37.052  31.449  31.269  1.00  0.00     0.023 A 
ATOM     83  C   UNL A   1      36.266  31.910  32.348  1.00  0.00     0.012 A 
ATOM     84  C   UNL A   1      36.560  31.650  29.959  1.00  0.00     0.148 A 
ATOM     85  C   UNL A   1      35.054  32.578  32.129  1.00  0.00     0.002 A 
ATOM     86  C   UNL A   1      35.354  32.311  29.747  1.00  0.00     0.091 A 
ATOM     87  F   UNL A   1      37.323  31.280  28.923  1.00  0.00    -0.205 F 
ATOM     88  C   UNL A   1      34.603  32.788  30.829  1.00  0.00     0.022 A 
BRANCH  86  89
ATOM     89  S   UNL A   1      34.725  32.654  28.097  1.00  0.00     0.127 S 
ATOM     90  O   UNL A   1      35.821  33.426  27.512  1.00  0.00    -0.237 OA
ATOM     91  O   UNL A   1      34.561  31.311  27.550  1.00  0.00    -0.237 OA
ATOM     92  O   UNL A   1      33.494  33.410  28.289  1.00  0.00    -0.744 OA
ENDBRANCH  86  89
ENDBRANCH  58  82
BRANCH  70  93
ATOM     93  C   UNL A   1      42.662  31.223  34.040  1.00  0.00     0.023 A 
ATOM     94  C   UNL A   1      42.671  31.857  35.301  1.00  0.00     0.012 A 
ATOM     95  C   UNL A   1      42.445  29.837  33.977  1.00  0.00     0.148 A 
ATOM     96  C   UNL A   1      42.486  31.116  36.473  1.00  0.00     0.002 A 
ATOM     97  C   UNL A   1      42.212  29.114  35.138  1.00  0.00     0.091 A 
ATOM     98  F   UNL A   1      42.441  29.253  32.769  1.00  0.00    -0.205 F 
ATOM     99  C   UNL A   1      42.241  29.746  36.390  1.00  0.00     0.022 A 
BRANCH  97 100
ATOM    100  S   UNL A   1      41.769  27.378  35.077  1.00  0.00     0.127 S 
ATOM    101  O   UNL A   1      41.397  27.109  36.464  1.00  0.00    -0.237 OA
ATOM    102  O   UNL A   1      40.652  27.373  34.130  1.00  0.00    -0.237 OA
ATOM    103  O   UNL A   1      42.955  26.677  34.598  1.00  0.00    -0.744 OA
ENDBRANCH  97 100
ENDBRANCH  70  93
ENDBRANCH  44  45
ENDBRANCH  37  39
ENDBRANCH  36  37
ENDBRANCH  35  36
ENDBRANCH   1  35
TORSDOF 21
ENDMDL
