MODEL 1
REMARK VINA RESULT:     -11.5      0.000      0.000
REMARK SMILES C[N@@H+](CC(=O)OCCOCCOC(=O)c1ccc(-c2c3nc(c(-c4cccc(S(=O)(=O)[O-])c4F)c4ccc([nH]4)c(-c4cccc(S(=O)(=O)[O-])c4F)c4nc(c(-c5cccc(S(=O)(=O)[O-])c5F)c5ccc2[nH]5)C=C4)C=C3)cc1)Cc1cccc2c1OCCO2
REMARK SMILES IDX 9 1 8 2 7 3 6 4 4 5 5 6 3 7 2 8 1 9 78 11 79 12 80 13 84 14
REMARK SMILES IDX 81 15 83 16 85 17 82 18 88 19 86 20 87 21 10 22 11 23 12 24
REMARK SMILES IDX 13 25 14 26 15 27 16 28 77 29 17 30 76 31 18 32 19 33 20 34
REMARK SMILES IDX 70 35 21 36 75 37 69 38 71 39 22 40 74 41 68 42 67 43 23 45
REMARK SMILES IDX 55 46 35 47 54 48 36 49 39 50 53 51 72 52 37 53 38 54 52 56
REMARK SMILES IDX 73 57 40 58 24 59 25 60 33 61 26 62 28 63 34 64 27 65 29 66
REMARK SMILES IDX 30 67 31 68 32 69 56 70 57 71 65 72 58 73 60 74 66 75 59 76
REMARK SMILES IDX 61 77 62 78 63 79 64 80 41 81 42 82 50 83 43 84 45 85 51 86
REMARK SMILES IDX 44 87 46 88 47 89 48 90 49 91
REMARK H PARENT 2 10 71 44 39 55
REMARK Flexibility Score: inf
ROOT
ATOM      1  O   UNL A   1      33.894  20.720  26.055  1.00  0.00    -0.374 OA
ENDROOT
BRANCH   1   2
ATOM      2  C   UNL A   1      33.467  22.068  26.261  1.00  0.00     0.202 C 
BRANCH   2   3
ATOM      3  C   UNL A   1      32.007  22.578  26.410  1.00  0.00     0.261 C 
BRANCH   3   4
ATOM      4  O   UNL A   1      31.154  22.694  25.265  1.00  0.00    -0.459 OA
BRANCH   4   5
ATOM      5  C   UNL A   1      30.834  23.953  24.873  1.00  0.00     0.361 C 
ATOM      6  O   UNL A   1      30.643  24.879  25.659  1.00  0.00    -0.245 OA
BRANCH   5   7
ATOM      7  C   UNL A   1      30.669  24.121  23.357  1.00  0.00     0.386 C 
BRANCH   7   8
ATOM      8  N   UNL A   1      31.787  24.647  22.563  1.00  0.00    -0.324 N 
ATOM      9  C   UNL A   1      33.034  23.919  22.598  1.00  0.00     0.333 C 
ATOM     10  H   UNL A   1      31.344  24.365  21.689  1.00  0.00     0.348 HD
BRANCH   8  11
ATOM     11  C   UNL A   1      31.754  25.979  21.967  1.00  0.00     0.303 C 
BRANCH  11  12
ATOM     12  C   UNL A   1      31.323  27.085  22.898  1.00  0.00     0.052 A 
ATOM     13  C   UNL A   1      29.987  28.187  22.381  1.00  0.00     0.014 A 
ATOM     14  C   UNL A   1      32.336  27.533  24.323  1.00  0.00     0.170 A 
ATOM     15  C   UNL A   1      29.727  29.758  23.242  1.00  0.00     0.005 A 
ATOM     16  C   UNL A   1      32.071  29.097  25.172  1.00  0.00     0.161 A 
ATOM     17  O   UNL A   1      33.334  26.716  24.769  1.00  0.00    -0.486 OA
ATOM     18  C   UNL A   1      30.757  30.204  24.660  1.00  0.00     0.050 A 
ATOM     19  O   UNL A   1      32.865  29.442  26.225  1.00  0.00    -0.486 OA
ATOM     20  C   UNL A   1      33.688  27.110  26.111  1.00  0.00     0.271 C 
ATOM     21  C   UNL A   1      34.026  28.604  26.229  1.00  0.00     0.271 C 
ENDBRANCH  11  12
ENDBRANCH   8  11
ENDBRANCH   7   8
ENDBRANCH   5   7
ENDBRANCH   4   5
ENDBRANCH   3   4
ENDBRANCH   2   3
ENDBRANCH   1   2
BRANCH   1  22
ATOM     22  C   UNL A   1      34.929  20.327  24.989  1.00  0.00     0.202 C 
BRANCH  22  23
ATOM     23  C   UNL A   1      37.122  20.292  24.976  1.00  0.00     0.261 C 
BRANCH  23  24
ATOM     24  O   UNL A   1      38.126  21.409  25.456  1.00  0.00    -0.460 OA
BRANCH  24  25
ATOM     25  C   UNL A   1      39.302  21.059  26.030  1.00  0.00     0.338 C 
ATOM     26  O   UNL A   1      39.989  20.078  25.809  1.00  0.00    -0.246 OA
BRANCH  25  27
ATOM     27  C   UNL A   1      39.785  22.296  26.670  1.00  0.00     0.060 A 
ATOM     28  C   UNL A   1      39.166  23.502  26.302  1.00  0.00     0.016 A 
ATOM     29  C   UNL A   1      40.728  22.253  27.700  1.00  0.00     0.016 A 
ATOM     30  C   UNL A   1      39.535  24.686  26.924  1.00  0.00     0.010 A 
ATOM     31  C   UNL A   1      41.122  23.443  28.302  1.00  0.00     0.010 A 
ATOM     32  C   UNL A   1      40.571  24.661  27.864  1.00  0.00    -0.014 A 
BRANCH  32  33
ATOM     33  C   UNL A   1      41.355  25.894  28.065  1.00  0.00     0.031 A 
ATOM     34  C   UNL A   1      40.644  27.018  28.771  1.00  0.00     0.074 A 
ATOM     35  C   UNL A   1      42.624  26.008  27.643  1.00  0.00     0.049 A 
ATOM     36  N   UNL A   1      41.035  28.240  28.992  1.00  0.00    -0.248 NA
ATOM     37  C   UNL A   1      39.293  26.719  29.288  1.00  0.00     0.031 C 
ATOM     38  C   UNL A   1      43.401  24.960  26.983  1.00  0.00     0.029 A 
ATOM     39  N   UNL A   1      43.471  27.083  27.689  1.00  0.00    -0.354 N 
ATOM     40  C   UNL A   1      39.970  28.859  29.636  1.00  0.00     0.074 A 
ATOM     41  C   UNL A   1      38.909  27.891  29.758  1.00  0.00     0.031 C 
ATOM     42  C   UNL A   1      44.606  25.459  26.650  1.00  0.00     0.029 A 
ATOM     43  C   UNL A   1      44.666  26.864  27.046  1.00  0.00     0.049 A 
ATOM     44  H   UNL A   1      43.247  27.930  28.139  1.00  0.00     0.167 HD
ATOM     45  C   UNL A   1      39.889  30.124  30.102  1.00  0.00     0.034 A 
ATOM     46  C   UNL A   1      45.671  27.725  26.787  1.00  0.00     0.034 A 
ATOM     47  C   UNL A   1      40.960  31.068  29.980  1.00  0.00     0.049 A 
ATOM     48  C   UNL A   1      45.542  29.145  27.283  1.00  0.00     0.074 A 
ATOM     49  C   UNL A   1      41.009  32.376  30.419  1.00  0.00     0.029 A 
ATOM     50  N   UNL A   1      42.173  30.797  29.365  1.00  0.00    -0.354 N 
ATOM     51  N   UNL A   1      44.561  29.702  27.954  1.00  0.00    -0.248 NA
ATOM     52  C   UNL A   1      46.670  30.048  27.016  1.00  0.00     0.031 C 
ATOM     53  C   UNL A   1      42.247  32.906  30.046  1.00  0.00     0.029 A 
ATOM     54  C   UNL A   1      42.982  31.914  29.413  1.00  0.00     0.049 A 
ATOM     55  H   UNL A   1      42.419  29.937  28.956  1.00  0.00     0.167 HD
ATOM     56  C   UNL A   1      44.974  31.000  28.234  1.00  0.00     0.074 A 
ATOM     57  C   UNL A   1      46.298  31.143  27.664  1.00  0.00     0.031 C 
ATOM     58  C   UNL A   1      44.322  31.990  28.893  1.00  0.00     0.034 A 
BRANCH  45  59
ATOM     59  C   UNL A   1      38.615  30.539  30.785  1.00  0.00     0.023 A 
ATOM     60  C   UNL A   1      38.447  30.300  32.164  1.00  0.00     0.012 A 
ATOM     61  C   UNL A   1      37.594  31.191  30.067  1.00  0.00     0.148 A 
ATOM     62  C   UNL A   1      37.271  30.678  32.812  1.00  0.00     0.002 A 
ATOM     63  C   UNL A   1      36.447  31.609  30.729  1.00  0.00     0.091 A 
ATOM     64  F   UNL A   1      37.760  31.378  28.750  1.00  0.00    -0.205 F 
ATOM     65  C   UNL A   1      36.278  31.342  32.098  1.00  0.00     0.022 A 
BRANCH  63  66
ATOM     66  S   UNL A   1      35.144  32.540  29.918  1.00  0.00     0.127 S 
ATOM     67  O   UNL A   1      34.720  31.608  28.875  1.00  0.00    -0.237 OA
ATOM     68  O   UNL A   1      34.180  32.721  31.003  1.00  0.00    -0.237 OA
ATOM     69  O   UNL A   1      35.762  33.768  29.439  1.00  0.00    -0.744 OA
ENDBRANCH  63  66
ENDBRANCH  45  59
BRANCH  46  70
ATOM     70  C   UNL A   1      46.885  27.274  26.050  1.00  0.00     0.023 A 
ATOM     71  C   UNL A   1      46.968  27.472  24.657  1.00  0.00     0.012 A 
ATOM     72  C   UNL A   1      47.957  26.648  26.716  1.00  0.00     0.148 A 
ATOM     73  C   UNL A   1      48.075  27.020  23.938  1.00  0.00     0.002 A 
ATOM     74  C   UNL A   1      49.081  26.251  26.002  1.00  0.00     0.091 A 
ATOM     75  F   UNL A   1      47.854  26.452  28.038  1.00  0.00    -0.205 F 
ATOM     76  C   UNL A   1      49.135  26.418  24.610  1.00  0.00     0.022 A 
BRANCH  74  77
ATOM     77  S   UNL A   1      50.544  25.582  26.804  1.00  0.00     0.127 S 
ATOM     78  O   UNL A   1      51.386  25.247  25.658  1.00  0.00    -0.237 OA
ATOM     79  O   UNL A   1      51.003  26.724  27.595  1.00  0.00    -0.237 OA
ATOM     80  O   UNL A   1      50.074  24.454  27.597  1.00  0.00    -0.744 OA
ENDBRANCH  74  77
ENDBRANCH  46  70
BRANCH  58  81
ATOM     81  C   UNL A   1      45.053  33.287  29.106  1.00  0.00     0.023 A 
ATOM     82  C   UNL A   1      45.921  33.440  30.202  1.00  0.00     0.012 A 
ATOM     83  C   UNL A   1      44.951  34.315  28.147  1.00  0.00     0.148 A 
ATOM     84  C   UNL A   1      46.653  34.615  30.361  1.00  0.00     0.002 A 
ATOM     85  C   UNL A   1      45.726  35.458  28.281  1.00  0.00     0.091 A 
ATOM     86  F   UNL A   1      44.108  34.148  27.118  1.00  0.00    -0.205 F 
ATOM     87  C   UNL A   1      46.567  35.616  29.394  1.00  0.00     0.022 A 
BRANCH  85  88
ATOM     88  S   UNL A   1      45.761  36.747  27.032  1.00  0.00     0.127 S 
ATOM     89  O   UNL A   1      46.676  37.717  27.633  1.00  0.00    -0.237 OA
ATOM     90  O   UNL A   1      46.300  36.036  25.872  1.00  0.00    -0.237 OA
ATOM     91  O   UNL A   1      44.386  37.200  26.880  1.00  0.00    -0.744 OA
ENDBRANCH  85  88
ENDBRANCH  58  81
ENDBRANCH  32  33
ENDBRANCH  25  27
ENDBRANCH  24  25
ENDBRANCH  23  24
ENDBRANCH  22  23
ENDBRANCH   1  22
TORSDOF 20
ENDMDL
MODEL 2
REMARK VINA RESULT:     -11.5      1.815      8.029
REMARK SMILES C[N@@H+](CC(=O)OCCOCCOC(=O)c1ccc(-c2c3nc(c(-c4cccc(S(=O)(=O)[O-])c4F)c4ccc([nH]4)c(-c4cccc(S(=O)(=O)[O-])c4F)c4nc(c(-c5cccc(S(=O)(=O)[O-])c5F)c5ccc2[nH]5)C=C4)C=C3)cc1)Cc1cccc2c1OCCO2
REMARK SMILES IDX 9 1 8 2 7 3 6 4 4 5 5 6 3 7 2 8 1 9 78 11 79 12 80 13 84 14
REMARK SMILES IDX 81 15 83 16 85 17 82 18 88 19 86 20 87 21 10 22 11 23 12 24
REMARK SMILES IDX 13 25 14 26 15 27 16 28 77 29 17 30 76 31 18 32 19 33 20 34
REMARK SMILES IDX 70 35 21 36 75 37 69 38 71 39 22 40 74 41 68 42 67 43 23 45
REMARK SMILES IDX 55 46 35 47 54 48 36 49 39 50 53 51 72 52 37 53 38 54 52 56
REMARK SMILES IDX 73 57 40 58 24 59 25 60 33 61 26 62 28 63 34 64 27 65 29 66
REMARK SMILES IDX 30 67 31 68 32 69 56 70 57 71 65 72 58 73 60 74 66 75 59 76
REMARK SMILES IDX 61 77 62 78 63 79 64 80 41 81 42 82 50 83 43 84 45 85 51 86
REMARK SMILES IDX 44 87 46 88 47 89 48 90 49 91
REMARK H PARENT 2 10 71 44 39 55
REMARK Flexibility Score: inf
ROOT
ATOM      1  O   UNL A   1      36.749  20.916  24.763  1.00  0.00    -0.374 OA
ENDROOT
BRANCH   1   2
ATOM      2  C   UNL A   1      35.857  22.030  24.681  1.00  0.00     0.202 C 
BRANCH   2   3
ATOM      3  C   UNL A   1      34.397  22.027  24.150  1.00  0.00     0.261 C 
BRANCH   3   4
ATOM      4  O   UNL A   1      33.324  21.550  24.970  1.00  0.00    -0.459 OA
BRANCH   4   5
ATOM      5  C   UNL A   1      33.400  21.834  26.294  1.00  0.00     0.361 C 
ATOM      6  O   UNL A   1      33.680  20.999  27.152  1.00  0.00    -0.245 OA
BRANCH   5   7
ATOM      7  C   UNL A   1      33.049  23.285  26.651  1.00  0.00     0.386 C 
BRANCH   7   8
ATOM      8  N   UNL A   1      31.660  23.744  26.525  1.00  0.00    -0.324 N 
ATOM      9  C   UNL A   1      30.643  22.744  26.293  1.00  0.00     0.333 C 
ATOM     10  H   UNL A   1      31.602  23.949  27.522  1.00  0.00     0.348 HD
BRANCH   8  11
ATOM     11  C   UNL A   1      31.321  25.155  26.375  1.00  0.00     0.303 C 
BRANCH  11  12
ATOM     12  C   UNL A   1      32.322  25.973  25.596  1.00  0.00     0.052 A 
ATOM     13  C   UNL A   1      33.008  27.462  26.356  1.00  0.00     0.014 A 
ATOM     14  C   UNL A   1      32.564  25.691  23.830  1.00  0.00     0.170 A 
ATOM     15  C   UNL A   1      33.859  28.689  25.332  1.00  0.00     0.005 A 
ATOM     16  C   UNL A   1      33.409  26.917  22.820  1.00  0.00     0.161 A 
ATOM     17  O   UNL A   1      32.091  24.564  23.221  1.00  0.00    -0.486 OA
ATOM     18  C   UNL A   1      34.083  28.404  23.561  1.00  0.00     0.050 A 
ATOM     19  O   UNL A   1      33.555  26.710  21.481  1.00  0.00    -0.486 OA
ATOM     20  C   UNL A   1      32.758  24.414  21.950  1.00  0.00     0.271 C 
ATOM     21  C   UNL A   1      32.663  25.669  21.069  1.00  0.00     0.271 C 
ENDBRANCH  11  12
ENDBRANCH   8  11
ENDBRANCH   7   8
ENDBRANCH   5   7
ENDBRANCH   4   5
ENDBRANCH   3   4
ENDBRANCH   2   3
ENDBRANCH   1   2
BRANCH   1  22
ATOM     22  C   UNL A   1      38.196  21.042  25.266  1.00  0.00     0.202 C 
BRANCH  22  23
ATOM     23  C   UNL A   1      39.685  19.569  25.917  1.00  0.00     0.261 C 
BRANCH  23  24
ATOM     24  O   UNL A   1      40.928  19.782  26.865  1.00  0.00    -0.460 OA
BRANCH  24  25
ATOM     25  C   UNL A   1      42.037  20.402  26.395  1.00  0.00     0.338 C 
ATOM     26  O   UNL A   1      42.793  20.035  25.514  1.00  0.00    -0.246 OA
BRANCH  25  27
ATOM     27  C   UNL A   1      41.913  21.792  26.871  1.00  0.00     0.060 A 
ATOM     28  C   UNL A   1      41.344  22.731  25.995  1.00  0.00     0.016 A 
ATOM     29  C   UNL A   1      42.227  22.132  28.190  1.00  0.00     0.016 A 
ATOM     30  C   UNL A   1      41.141  24.037  26.418  1.00  0.00     0.010 A 
ATOM     31  C   UNL A   1      42.054  23.448  28.605  1.00  0.00     0.010 A 
ATOM     32  C   UNL A   1      41.574  24.408  27.696  1.00  0.00    -0.014 A 
BRANCH  32  33
ATOM     33  C   UNL A   1      41.923  25.823  27.926  1.00  0.00     0.031 A 
ATOM     34  C   UNL A   1      43.310  26.233  27.510  1.00  0.00     0.074 A 
ATOM     35  C   UNL A   1      41.058  26.690  28.473  1.00  0.00     0.049 A 
ATOM     36  N   UNL A   1      43.929  27.366  27.682  1.00  0.00    -0.248 NA
ATOM     37  C   UNL A   1      44.117  25.212  26.811  1.00  0.00     0.031 C 
ATOM     38  C   UNL A   1      39.684  26.387  28.873  1.00  0.00     0.029 A 
ATOM     39  N   UNL A   1      41.229  28.006  28.811  1.00  0.00    -0.354 N 
ATOM     40  C   UNL A   1      45.199  27.180  27.150  1.00  0.00     0.074 A 
ATOM     41  C   UNL A   1      45.276  25.826  26.663  1.00  0.00     0.031 C 
ATOM     42  C   UNL A   1      39.147  27.483  29.440  1.00  0.00     0.029 A 
ATOM     43  C   UNL A   1      40.149  28.546  29.469  1.00  0.00     0.049 A 
ATOM     44  H   UNL A   1      42.045  28.516  28.604  1.00  0.00     0.167 HD
ATOM     45  C   UNL A   1      46.211  28.070  27.059  1.00  0.00     0.034 A 
ATOM     46  C   UNL A   1      40.016  29.754  30.050  1.00  0.00     0.034 A 
ATOM     47  C   UNL A   1      46.111  29.415  27.540  1.00  0.00     0.049 A 
ATOM     48  C   UNL A   1      41.175  30.718  29.971  1.00  0.00     0.074 A 
ATOM     49  C   UNL A   1      47.059  30.418  27.499  1.00  0.00     0.029 A 
ATOM     50  N   UNL A   1      44.986  29.941  28.157  1.00  0.00    -0.354 N 
ATOM     51  N   UNL A   1      42.348  30.558  29.403  1.00  0.00    -0.248 NA
ATOM     52  C   UNL A   1      40.984  32.040  30.584  1.00  0.00     0.031 C 
ATOM     53  C   UNL A   1      46.514  31.547  28.116  1.00  0.00     0.029 A 
ATOM     54  C   UNL A   1      45.213  31.258  28.502  1.00  0.00     0.049 A 
ATOM     55  H   UNL A   1      44.150  29.449  28.324  1.00  0.00     0.167 HD
ATOM     56  C   UNL A   1      43.012  31.771  29.543  1.00  0.00     0.074 A 
ATOM     57  C   UNL A   1      42.107  32.659  30.245  1.00  0.00     0.031 C 
ATOM     58  C   UNL A   1      44.257  32.126  29.139  1.00  0.00     0.034 A 
BRANCH  45  59
ATOM     59  C   UNL A   1      47.490  27.612  26.413  1.00  0.00     0.023 A 
ATOM     60  C   UNL A   1      48.512  27.044  27.202  1.00  0.00     0.012 A 
ATOM     61  C   UNL A   1      47.670  27.718  25.021  1.00  0.00     0.148 A 
ATOM     62  C   UNL A   1      49.703  26.615  26.619  1.00  0.00     0.002 A 
ATOM     63  C   UNL A   1      48.839  27.243  24.441  1.00  0.00     0.091 A 
ATOM     64  F   UNL A   1      46.701  28.291  24.294  1.00  0.00    -0.205 F 
ATOM     65  C   UNL A   1      49.862  26.703  25.239  1.00  0.00     0.022 A 
BRANCH  63  66
ATOM     66  S   UNL A   1      49.109  27.239  22.666  1.00  0.00     0.127 S 
ATOM     67  O   UNL A   1      50.569  27.199  22.588  1.00  0.00    -0.237 OA
ATOM     68  O   UNL A   1      48.443  26.002  22.260  1.00  0.00    -0.237 OA
ATOM     69  O   UNL A   1      48.495  28.459  22.160  1.00  0.00    -0.744 OA
ENDBRANCH  63  66
ENDBRANCH  45  59
BRANCH  46  70
ATOM     70  C   UNL A   1      38.746  30.132  30.733  1.00  0.00     0.023 A 
ATOM     71  C   UNL A   1      38.528  29.735  32.067  1.00  0.00     0.012 A 
ATOM     72  C   UNL A   1      37.751  30.877  30.071  1.00  0.00     0.148 A 
ATOM     73  C   UNL A   1      37.329  30.039  32.715  1.00  0.00     0.002 A 
ATOM     74  C   UNL A   1      36.583  31.225  30.739  1.00  0.00     0.091 A 
ATOM     75  F   UNL A   1      37.968  31.232  28.796  1.00  0.00    -0.205 F 
ATOM     76  C   UNL A   1      36.361  30.791  32.055  1.00  0.00     0.022 A 
BRANCH  74  77
ATOM     77  S   UNL A   1      35.339  32.297  30.009  1.00  0.00     0.127 S 
ATOM     78  O   UNL A   1      34.401  32.463  31.116  1.00  0.00    -0.237 OA
ATOM     79  O   UNL A   1      36.122  33.488  29.679  1.00  0.00    -0.237 OA
ATOM     80  O   UNL A   1      34.831  31.574  28.850  1.00  0.00    -0.744 OA
ENDBRANCH  74  77
ENDBRANCH  46  70
BRANCH  58  81
ATOM     81  C   UNL A   1      44.690  33.547  29.371  1.00  0.00     0.023 A 
ATOM     82  C   UNL A   1      45.298  33.914  30.585  1.00  0.00     0.012 A 
ATOM     83  C   UNL A   1      44.581  34.492  28.331  1.00  0.00     0.148 A 
ATOM     84  C   UNL A   1      45.764  35.214  30.774  1.00  0.00     0.002 A 
ATOM     85  C   UNL A   1      45.098  35.768  28.505  1.00  0.00     0.091 A 
ATOM     86  F   UNL A   1      43.986  34.119  27.188  1.00  0.00    -0.205 F 
ATOM     87  C   UNL A   1      45.676  36.135  29.730  1.00  0.00     0.022 A 
BRANCH  85  88
ATOM     88  S   UNL A   1      45.128  36.981  27.183  1.00  0.00     0.127 S 
ATOM     89  O   UNL A   1      45.913  36.289  26.163  1.00  0.00    -0.237 OA
ATOM     90  O   UNL A   1      43.706  37.126  26.865  1.00  0.00    -0.237 OA
ATOM     91  O   UNL A   1      45.748  38.174  27.743  1.00  0.00    -0.744 OA
ENDBRANCH  85  88
ENDBRANCH  58  81
ENDBRANCH  32  33
ENDBRANCH  25  27
ENDBRANCH  24  25
ENDBRANCH  23  24
ENDBRANCH  22  23
ENDBRANCH   1  22
TORSDOF 20
ENDMDL
MODEL 3
REMARK VINA RESULT:     -11.2      5.099      8.377
REMARK SMILES C[N@@H+](CC(=O)OCCOCCOC(=O)c1ccc(-c2c3nc(c(-c4cccc(S(=O)(=O)[O-])c4F)c4ccc([nH]4)c(-c4cccc(S(=O)(=O)[O-])c4F)c4nc(c(-c5cccc(S(=O)(=O)[O-])c5F)c5ccc2[nH]5)C=C4)C=C3)cc1)Cc1cccc2c1OCCO2
REMARK SMILES IDX 9 1 8 2 7 3 6 4 4 5 5 6 3 7 2 8 1 9 78 11 79 12 80 13 84 14
REMARK SMILES IDX 81 15 83 16 85 17 82 18 88 19 86 20 87 21 10 22 11 23 12 24
REMARK SMILES IDX 13 25 14 26 15 27 16 28 77 29 17 30 76 31 18 32 19 33 20 34
REMARK SMILES IDX 70 35 21 36 75 37 69 38 71 39 22 40 74 41 68 42 67 43 23 45
REMARK SMILES IDX 55 46 35 47 54 48 36 49 39 50 53 51 72 52 37 53 38 54 52 56
REMARK SMILES IDX 73 57 40 58 24 59 25 60 33 61 26 62 28 63 34 64 27 65 29 66
REMARK SMILES IDX 30 67 31 68 32 69 56 70 57 71 65 72 58 73 60 74 66 75 59 76
REMARK SMILES IDX 61 77 62 78 63 79 64 80 41 81 42 82 50 83 43 84 45 85 51 86
REMARK SMILES IDX 44 87 46 88 47 89 48 90 49 91
REMARK H PARENT 2 10 71 44 39 55
REMARK Flexibility Score: inf
ROOT
ATOM      1  O   UNL A   1      33.322  29.762  27.407  1.00  0.00    -0.374 OA
ENDROOT
BRANCH   1   2
ATOM      2  C   UNL A   1      33.322  28.447  26.847  1.00  0.00     0.202 C 
BRANCH   2   3
ATOM      3  C   UNL A   1      32.529  27.954  25.606  1.00  0.00     0.261 C 
BRANCH   3   4
ATOM      4  O   UNL A   1      32.436  26.557  25.306  1.00  0.00    -0.459 OA
BRANCH   4   5
ATOM      5  C   UNL A   1      31.262  25.948  25.611  1.00  0.00     0.361 C 
ATOM      6  O   UNL A   1      30.731  26.014  26.717  1.00  0.00    -0.245 OA
BRANCH   5   7
ATOM      7  C   UNL A   1      30.668  25.112  24.469  1.00  0.00     0.386 C 
BRANCH   7   8
ATOM      8  N   UNL A   1      30.995  23.684  24.373  1.00  0.00    -0.324 N 
ATOM      9  C   UNL A   1      30.893  22.892  25.577  1.00  0.00     0.333 C 
ATOM     10  H   UNL A   1      30.137  23.487  23.858  1.00  0.00     0.348 HD
BRANCH   8  11
ATOM     11  C   UNL A   1      31.646  23.115  23.198  1.00  0.00     0.303 C 
BRANCH  11  12
ATOM     12  C   UNL A   1      32.680  22.055  23.490  1.00  0.00     0.052 A 
ATOM     13  C   UNL A   1      32.212  20.317  23.329  1.00  0.00     0.014 A 
ATOM     14  C   UNL A   1      34.223  22.481  24.322  1.00  0.00     0.170 A 
ATOM     15  C   UNL A   1      33.250  19.030  24.067  1.00  0.00     0.005 A 
ATOM     16  C   UNL A   1      35.247  21.196  25.054  1.00  0.00     0.161 A 
ATOM     17  O   UNL A   1      34.632  23.779  24.438  1.00  0.00    -0.486 OA
ATOM     18  C   UNL A   1      34.787  19.469  24.912  1.00  0.00     0.050 A 
ATOM     19  O   UNL A   1      36.393  21.532  25.711  1.00  0.00    -0.486 OA
ATOM     20  C   UNL A   1      36.036  23.792  24.766  1.00  0.00     0.271 C 
ATOM     21  C   UNL A   1      36.374  22.935  25.996  1.00  0.00     0.271 C 
ENDBRANCH  11  12
ENDBRANCH   8  11
ENDBRANCH   7   8
ENDBRANCH   5   7
ENDBRANCH   4   5
ENDBRANCH   3   4
ENDBRANCH   2   3
ENDBRANCH   1   2
BRANCH   1  22
ATOM     22  C   UNL A   1      32.465  30.907  26.846  1.00  0.00     0.202 C 
BRANCH  22  23
ATOM     23  C   UNL A   1      32.350  33.049  27.301  1.00  0.00     0.261 C 
BRANCH  23  24
ATOM     24  O   UNL A   1      33.517  34.036  27.691  1.00  0.00    -0.460 OA
BRANCH  24  25
ATOM     25  C   UNL A   1      33.890  34.162  28.987  1.00  0.00     0.338 C 
ATOM     26  O   UNL A   1      33.252  34.625  29.916  1.00  0.00    -0.246 OA
BRANCH  25  27
ATOM     27  C   UNL A   1      35.047  33.260  29.129  1.00  0.00     0.060 A 
ATOM     28  C   UNL A   1      34.791  31.928  29.496  1.00  0.00     0.016 A 
ATOM     29  C   UNL A   1      36.334  33.679  28.783  1.00  0.00     0.016 A 
ATOM     30  C   UNL A   1      35.837  31.020  29.576  1.00  0.00     0.010 A 
ATOM     31  C   UNL A   1      37.388  32.779  28.894  1.00  0.00     0.010 A 
ATOM     32  C   UNL A   1      37.143  31.472  29.354  1.00  0.00    -0.014 A 
BRANCH  32  33
ATOM     33  C   UNL A   1      38.249  30.740  29.999  1.00  0.00     0.031 A 
ATOM     34  C   UNL A   1      38.578  31.154  31.409  1.00  0.00     0.074 A 
ATOM     35  C   UNL A   1      38.923  29.766  29.368  1.00  0.00     0.049 A 
ATOM     36  N   UNL A   1      39.553  30.771  32.182  1.00  0.00    -0.248 NA
ATOM     37  C   UNL A   1      37.682  32.154  32.026  1.00  0.00     0.031 C 
ATOM     38  C   UNL A   1      38.650  29.278  28.017  1.00  0.00     0.029 A 
ATOM     39  N   UNL A   1      40.001  29.033  29.784  1.00  0.00    -0.354 N 
ATOM     40  C   UNL A   1      39.408  31.506  33.353  1.00  0.00     0.074 A 
ATOM     41  C   UNL A   1      38.266  32.370  33.190  1.00  0.00     0.031 C 
ATOM     42  C   UNL A   1      39.567  28.345  27.701  1.00  0.00     0.029 A 
ATOM     43  C   UNL A   1      40.503  28.200  28.813  1.00  0.00     0.049 A 
ATOM     44  H   UNL A   1      40.381  29.095  30.691  1.00  0.00     0.167 HD
ATOM     45  C   UNL A   1      40.155  31.453  34.477  1.00  0.00     0.034 A 
ATOM     46  C   UNL A   1      41.615  27.438  28.827  1.00  0.00     0.034 A 
ATOM     47  C   UNL A   1      41.281  30.579  34.623  1.00  0.00     0.049 A 
ATOM     48  C   UNL A   1      42.457  27.424  30.080  1.00  0.00     0.074 A 
ATOM     49  C   UNL A   1      42.113  30.420  35.713  1.00  0.00     0.029 A 
ATOM     50  N   UNL A   1      41.731  29.715  33.636  1.00  0.00    -0.354 N 
ATOM     51  N   UNL A   1      42.273  28.069  31.209  1.00  0.00    -0.248 NA
ATOM     52  C   UNL A   1      43.642  26.555  30.076  1.00  0.00     0.031 C 
ATOM     53  C   UNL A   1      43.086  29.477  35.374  1.00  0.00     0.029 A 
ATOM     54  C   UNL A   1      42.831  29.017  34.090  1.00  0.00     0.049 A 
ATOM     55  H   UNL A   1      41.326  29.615  32.744  1.00  0.00     0.167 HD
ATOM     56  C   UNL A   1      43.284  27.645  32.064  1.00  0.00     0.074 A 
ATOM     57  C   UNL A   1      44.074  26.683  31.323  1.00  0.00     0.031 C 
ATOM     58  C   UNL A   1      43.547  28.017  33.341  1.00  0.00     0.034 A 
BRANCH  45  59
ATOM     59  C   UNL A   1      39.767  32.352  35.619  1.00  0.00     0.023 A 
ATOM     60  C   UNL A   1      40.330  33.640  35.721  1.00  0.00     0.012 A 
ATOM     61  C   UNL A   1      38.825  31.931  36.576  1.00  0.00     0.148 A 
ATOM     62  C   UNL A   1      39.981  34.486  36.773  1.00  0.00     0.002 A 
ATOM     63  C   UNL A   1      38.446  32.797  37.594  1.00  0.00     0.091 A 
ATOM     64  F   UNL A   1      38.328  30.690  36.480  1.00  0.00    -0.205 F 
ATOM     65  C   UNL A   1      39.032  34.069  37.702  1.00  0.00     0.022 A 
BRANCH  63  66
ATOM     66  S   UNL A   1      37.175  32.386  38.794  1.00  0.00     0.127 S 
ATOM     67  O   UNL A   1      37.306  30.932  38.877  1.00  0.00    -0.237 OA
ATOM     68  O   UNL A   1      37.633  33.109  39.980  1.00  0.00    -0.237 OA
ATOM     69  O   UNL A   1      35.919  32.864  38.234  1.00  0.00    -0.744 OA
ENDBRANCH  63  66
ENDBRANCH  45  59
BRANCH  46  70
ATOM     70  C   UNL A   1      41.986  26.614  27.641  1.00  0.00     0.023 A 
ATOM     71  C   UNL A   1      42.664  27.214  26.562  1.00  0.00     0.012 A 
ATOM     72  C   UNL A   1      41.670  25.244  27.573  1.00  0.00     0.148 A 
ATOM     73  C   UNL A   1      42.984  26.475  25.422  1.00  0.00     0.002 A 
ATOM     74  C   UNL A   1      42.041  24.499  26.459  1.00  0.00     0.091 A 
ATOM     75  F   UNL A   1      41.010  24.693  28.602  1.00  0.00    -0.205 F 
ATOM     76  C   UNL A   1      42.681  25.117  25.374  1.00  0.00     0.022 A 
BRANCH  74  77
ATOM     77  S   UNL A   1      41.804  22.721  26.367  1.00  0.00     0.127 S 
ATOM     78  O   UNL A   1      40.347  22.613  26.386  1.00  0.00    -0.237 OA
ATOM     79  O   UNL A   1      42.430  22.398  25.085  1.00  0.00    -0.237 OA
ATOM     80  O   UNL A   1      42.495  22.172  27.526  1.00  0.00    -0.744 OA
ENDBRANCH  74  77
ENDBRANCH  46  70
BRANCH  58  81
ATOM     81  C   UNL A   1      44.683  27.332  34.049  1.00  0.00     0.023 A 
ATOM     82  C   UNL A   1      45.962  27.916  34.069  1.00  0.00     0.012 A 
ATOM     83  C   UNL A   1      44.443  26.153  34.784  1.00  0.00     0.148 A 
ATOM     84  C   UNL A   1      46.998  27.319  34.785  1.00  0.00     0.002 A 
ATOM     85  C   UNL A   1      45.464  25.595  35.540  1.00  0.00     0.091 A 
ATOM     86  F   UNL A   1      43.217  25.610  34.738  1.00  0.00    -0.205 F 
ATOM     87  C   UNL A   1      46.745  26.168  35.530  1.00  0.00     0.022 A 
BRANCH  85  88
ATOM     88  S   UNL A   1      45.201  24.181  36.613  1.00  0.00     0.127 S 
ATOM     89  O   UNL A   1      44.534  23.243  35.711  1.00  0.00    -0.237 OA
ATOM     90  O   UNL A   1      46.570  23.811  36.975  1.00  0.00    -0.237 OA
ATOM     91  O   UNL A   1      44.389  24.661  37.723  1.00  0.00    -0.744 OA
ENDBRANCH  85  88
ENDBRANCH  58  81
ENDBRANCH  32  33
ENDBRANCH  25  27
ENDBRANCH  24  25
ENDBRANCH  23  24
ENDBRANCH  22  23
ENDBRANCH   1  22
TORSDOF 20
ENDMDL
