MODEL 1
REMARK VINA RESULT:     -11.7      0.000      0.000
REMARK SMILES Cc1ccc2c(c1)C=C(C(=O)OCCOCCOC(=O)c1ccc(-c3c4nc(c(-c5cccc(S(=O)(=O)[O-])c5F)c5ccc([nH]5)c(-c5cccc(S(=O)(=O)[O-])c5F)c5nc(c(-c6cccc(S(=O)(=O)[O-])c6F)c6ccc3[nH]6)C=C5)C=C4)cc1)[C@@H](C(F)(F)F)O2
REMARK SMILES IDX 16 1 15 2 14 3 13 4 12 5 10 6 11 7 9 8 1 9 2 10 3 11 7 12
REMARK SMILES IDX 4 13 6 14 5 15 8 16 89 17 84 18 85 19 86 20 87 21 88 22
REMARK SMILES IDX 17 23 18 24 19 25 20 26 21 27 22 28 83 29 23 30 82 31 24 32
REMARK SMILES IDX 25 33 26 34 76 35 27 36 81 37 75 38 77 39 28 40 80 41 74 42
REMARK SMILES IDX 73 43 29 45 61 46 41 47 60 48 42 49 45 50 59 51 78 52 43 53
REMARK SMILES IDX 44 54 58 56 79 57 46 58 30 59 31 60 39 61 32 62 34 63 40 64
REMARK SMILES IDX 33 65 35 66 36 67 37 68 38 69 62 70 63 71 71 72 64 73 66 74
REMARK SMILES IDX 72 75 65 76 67 77 68 78 69 79 70 80 47 81 48 82 56 83 49 84
REMARK SMILES IDX 51 85 57 86 50 87 52 88 53 89 54 90 55 91
REMARK H PARENT 77 44 45 55
REMARK Flexibility Score: inf
ROOT
ATOM      1  C   UNL A   1      35.587  21.103  25.394  1.00  0.00     0.202 C 
ENDROOT
BRANCH   1   2
ATOM      2  O   UNL A   1      35.601  22.036  26.472  1.00  0.00    -0.374 OA
BRANCH   2   3
ATOM      3  C   UNL A   1      34.399  22.247  27.209  1.00  0.00     0.202 C 
BRANCH   3   4
ATOM      4  C   UNL A   1      33.565  23.493  26.891  1.00  0.00     0.261 C 
BRANCH   4   5
ATOM      5  O   UNL A   1      33.273  23.615  25.492  1.00  0.00    -0.460 OA
BRANCH   5   6
ATOM      6  C   UNL A   1      32.013  23.255  25.152  1.00  0.00     0.338 C 
ATOM      7  O   UNL A   1      30.988  23.883  25.364  1.00  0.00    -0.246 OA
BRANCH   6   8
ATOM      8  C   UNL A   1      32.048  22.024  24.341  1.00  0.00     0.087 C 
ATOM      9  C   UNL A   1      33.246  16.037  25.002  1.00  0.00     0.044 C 
ATOM     10  C   UNL A   1      32.892  17.289  24.257  1.00  0.00    -0.050 A 
ATOM     11  C   UNL A   1      32.901  17.330  22.859  1.00  0.00     0.007 A 
ATOM     12  C   UNL A   1      32.607  18.461  24.968  1.00  0.00     0.015 A 
ATOM     13  C   UNL A   1      32.598  18.517  22.184  1.00  0.00     0.047 A 
ATOM     14  C   UNL A   1      32.345  19.657  24.293  1.00  0.00     0.017 A 
ATOM     15  C   UNL A   1      32.322  19.681  22.899  1.00  0.00     0.128 A 
ATOM     16  C   UNL A   1      32.172  20.887  25.038  1.00  0.00     0.027 C 
ATOM     17  O   UNL A   1      32.041  20.797  22.165  1.00  0.00    -0.475 OA
ATOM     18  C   UNL A   1      31.977  22.088  22.840  1.00  0.00     0.316 C 
BRANCH  18  19
ATOM     19  C   UNL A   1      33.056  23.001  22.241  1.00  0.00     0.430 C 
ATOM     20  F   UNL A   1      32.789  24.306  22.489  1.00  0.00    -0.167 F 
ATOM     21  F   UNL A   1      34.277  22.748  22.764  1.00  0.00    -0.167 F 
ATOM     22  F   UNL A   1      33.152  22.854  20.899  1.00  0.00    -0.167 F 
ENDBRANCH  18  19
ENDBRANCH   6   8
ENDBRANCH   5   6
ENDBRANCH   4   5
ENDBRANCH   3   4
ENDBRANCH   2   3
ENDBRANCH   1   2
BRANCH   1  23
ATOM     23  C   UNL A   1      36.886  20.379  25.018  1.00  0.00     0.261 C 
BRANCH  23  24
ATOM     24  O   UNL A   1      38.031  21.246  24.991  1.00  0.00    -0.460 OA
BRANCH  24  25
ATOM     25  C   UNL A   1      38.991  20.941  25.902  1.00  0.00     0.338 C 
ATOM     26  O   UNL A   1      39.486  19.844  26.108  1.00  0.00    -0.246 OA
BRANCH  25  27
ATOM     27  C   UNL A   1      39.520  22.187  26.487  1.00  0.00     0.060 A 
ATOM     28  C   UNL A   1      40.585  22.170  27.386  1.00  0.00     0.016 A 
ATOM     29  C   UNL A   1      38.950  23.401  26.078  1.00  0.00     0.016 A 
ATOM     30  C   UNL A   1      41.104  23.381  27.851  1.00  0.00     0.010 A 
ATOM     31  C   UNL A   1      39.467  24.608  26.547  1.00  0.00     0.010 A 
ATOM     32  C   UNL A   1      40.565  24.608  27.416  1.00  0.00    -0.014 A 
BRANCH  32  33
ATOM     33  C   UNL A   1      41.257  25.880  27.740  1.00  0.00     0.031 A 
ATOM     34  C   UNL A   1      42.665  26.153  27.304  1.00  0.00     0.074 A 
ATOM     35  C   UNL A   1      40.594  26.788  28.485  1.00  0.00     0.049 A 
ATOM     36  N   UNL A   1      43.363  27.249  27.451  1.00  0.00    -0.248 NA
ATOM     37  C   UNL A   1      43.387  25.066  26.627  1.00  0.00     0.031 C 
ATOM     38  C   UNL A   1      39.250  26.598  29.035  1.00  0.00     0.029 A 
ATOM     39  N   UNL A   1      40.955  28.040  28.912  1.00  0.00    -0.354 N 
ATOM     40  C   UNL A   1      44.606  26.989  26.890  1.00  0.00     0.074 A 
ATOM     41  C   UNL A   1      44.576  25.621  26.418  1.00  0.00     0.031 C 
ATOM     42  C   UNL A   1      38.889  27.703  29.704  1.00  0.00     0.029 A 
ATOM     43  C   UNL A   1      39.981  28.671  29.649  1.00  0.00     0.049 A 
ATOM     44  H   UNL A   1      41.828  28.448  28.709  1.00  0.00     0.167 HD
ATOM     45  C   UNL A   1      45.663  27.825  26.763  1.00  0.00     0.034 A 
ATOM     46  C   UNL A   1      39.960  29.893  30.213  1.00  0.00     0.034 A 
ATOM     47  C   UNL A   1      45.682  29.188  27.224  1.00  0.00     0.049 A 
ATOM     48  C   UNL A   1      41.139  30.805  30.041  1.00  0.00     0.074 A 
ATOM     49  C   UNL A   1      46.687  30.127  27.071  1.00  0.00     0.029 A 
ATOM     50  N   UNL A   1      44.666  29.800  27.938  1.00  0.00    -0.354 N 
ATOM     51  N   UNL A   1      42.250  30.589  29.382  1.00  0.00    -0.248 NA
ATOM     52  C   UNL A   1      41.054  32.136  30.661  1.00  0.00     0.031 C 
ATOM     53  C   UNL A   1      46.289  31.302  27.712  1.00  0.00     0.029 A 
ATOM     54  C   UNL A   1      45.024  31.102  28.241  1.00  0.00     0.049 A 
ATOM     55  H   UNL A   1      43.816  29.374  28.192  1.00  0.00     0.167 HD
ATOM     56  C   UNL A   1      42.987  31.762  29.484  1.00  0.00     0.074 A 
ATOM     57  C   UNL A   1      42.194  32.691  30.264  1.00  0.00     0.031 C 
ATOM     58  C   UNL A   1      44.213  32.036  28.979  1.00  0.00     0.034 A 
BRANCH  45  59
ATOM     59  C   UNL A   1      46.884  27.328  26.036  1.00  0.00     0.023 A 
ATOM     60  C   UNL A   1      47.031  27.627  24.667  1.00  0.00     0.012 A 
ATOM     61  C   UNL A   1      47.938  26.702  26.730  1.00  0.00     0.148 A 
ATOM     62  C   UNL A   1      48.210  27.305  23.996  1.00  0.00     0.002 A 
ATOM     63  C   UNL A   1      49.120  26.410  26.059  1.00  0.00     0.091 A 
ATOM     64  F   UNL A   1      47.771  26.427  28.031  1.00  0.00    -0.205 F 
ATOM     65  C   UNL A   1      49.257  26.709  24.694  1.00  0.00     0.022 A 
BRANCH  63  66
ATOM     66  S   UNL A   1      50.549  25.689  26.874  1.00  0.00     0.127 S 
ATOM     67  O   UNL A   1      51.469  25.511  25.750  1.00  0.00    -0.237 OA
ATOM     68  O   UNL A   1      50.932  26.743  27.813  1.00  0.00    -0.237 OA
ATOM     69  O   UNL A   1      50.085  24.455  27.491  1.00  0.00    -0.744 OA
ENDBRANCH  63  66
ENDBRANCH  45  59
BRANCH  46  70
ATOM     70  C   UNL A   1      38.733  30.337  30.926  1.00  0.00     0.023 A 
ATOM     71  C   UNL A   1      38.620  30.110  32.310  1.00  0.00     0.012 A 
ATOM     72  C   UNL A   1      37.728  31.060  30.256  1.00  0.00     0.148 A 
ATOM     73  C   UNL A   1      37.521  30.594  33.019  1.00  0.00     0.002 A 
ATOM     74  C   UNL A   1      36.654  31.571  30.975  1.00  0.00     0.091 A 
ATOM     75  F   UNL A   1      37.867  31.266  28.940  1.00  0.00    -0.205 F 
ATOM     76  C   UNL A   1      36.545  31.333  32.355  1.00  0.00     0.022 A 
BRANCH  74  77
ATOM     77  S   UNL A   1      35.396  32.613  30.229  1.00  0.00     0.127 S 
ATOM     78  O   UNL A   1      36.177  33.781  29.829  1.00  0.00    -0.237 OA
ATOM     79  O   UNL A   1      34.931  31.774  29.125  1.00  0.00    -0.237 OA
ATOM     80  O   UNL A   1      34.406  32.851  31.271  1.00  0.00    -0.744 OA
ENDBRANCH  74  77
ENDBRANCH  46  70
BRANCH  58  81
ATOM     81  C   UNL A   1      44.798  33.400  29.217  1.00  0.00     0.023 A 
ATOM     82  C   UNL A   1      45.618  33.617  30.341  1.00  0.00     0.012 A 
ATOM     83  C   UNL A   1      44.666  34.410  28.244  1.00  0.00     0.148 A 
ATOM     84  C   UNL A   1      46.301  34.824  30.491  1.00  0.00     0.002 A 
ATOM     85  C   UNL A   1      45.376  35.596  28.383  1.00  0.00     0.091 A 
ATOM     86  F   UNL A   1      43.876  34.175  27.186  1.00  0.00    -0.205 F 
ATOM     87  C   UNL A   1      46.192  35.805  29.507  1.00  0.00     0.022 A 
BRANCH  85  88
ATOM     88  S   UNL A   1      45.360  36.889  27.136  1.00  0.00     0.127 S 
ATOM     89  O   UNL A   1      46.118  37.950  27.799  1.00  0.00    -0.237 OA
ATOM     90  O   UNL A   1      46.055  36.249  26.020  1.00  0.00    -0.237 OA
ATOM     91  O   UNL A   1      43.959  37.198  26.889  1.00  0.00    -0.744 OA
ENDBRANCH  85  88
ENDBRANCH  58  81
ENDBRANCH  32  33
ENDBRANCH  25  27
ENDBRANCH  24  25
ENDBRANCH  23  24
ENDBRANCH   1  23
TORSDOF 18
ENDMDL
MODEL 2
REMARK VINA RESULT:     -11.4      4.261      6.986
REMARK SMILES Cc1ccc2c(c1)C=C(C(=O)OCCOCCOC(=O)c1ccc(-c3c4nc(c(-c5cccc(S(=O)(=O)[O-])c5F)c5ccc([nH]5)c(-c5cccc(S(=O)(=O)[O-])c5F)c5nc(c(-c6cccc(S(=O)(=O)[O-])c6F)c6ccc3[nH]6)C=C5)C=C4)cc1)[C@@H](C(F)(F)F)O2
REMARK SMILES IDX 16 1 15 2 14 3 13 4 12 5 10 6 11 7 9 8 1 9 2 10 3 11 7 12
REMARK SMILES IDX 4 13 6 14 5 15 8 16 89 17 84 18 85 19 86 20 87 21 88 22
REMARK SMILES IDX 17 23 18 24 19 25 20 26 21 27 22 28 83 29 23 30 82 31 24 32
REMARK SMILES IDX 25 33 26 34 76 35 27 36 81 37 75 38 77 39 28 40 80 41 74 42
REMARK SMILES IDX 73 43 29 45 61 46 41 47 60 48 42 49 45 50 59 51 78 52 43 53
REMARK SMILES IDX 44 54 58 56 79 57 46 58 30 59 31 60 39 61 32 62 34 63 40 64
REMARK SMILES IDX 33 65 35 66 36 67 37 68 38 69 62 70 63 71 71 72 64 73 66 74
REMARK SMILES IDX 72 75 65 76 67 77 68 78 69 79 70 80 47 81 48 82 56 83 49 84
REMARK SMILES IDX 51 85 57 86 50 87 52 88 53 89 54 90 55 91
REMARK H PARENT 77 44 45 55
REMARK Flexibility Score: inf
ROOT
ATOM      1  C   UNL A   1      41.340  19.829  27.654  1.00  0.00     0.202 C 
ENDROOT
BRANCH   1   2
ATOM      2  O   UNL A   1      42.590  19.198  27.381  1.00  0.00    -0.374 OA
BRANCH   2   3
ATOM      3  C   UNL A   1      42.801  18.629  26.092  1.00  0.00     0.202 C 
BRANCH   3   4
ATOM      4  C   UNL A   1      43.462  19.499  25.018  1.00  0.00     0.261 C 
BRANCH   4   5
ATOM      5  O   UNL A   1      44.408  20.427  25.569  1.00  0.00    -0.460 OA
BRANCH   5   6
ATOM      6  C   UNL A   1      44.010  21.720  25.523  1.00  0.00     0.338 C 
ATOM      7  O   UNL A   1      43.038  22.169  24.939  1.00  0.00    -0.246 OA
BRANCH   6   8
ATOM      8  C   UNL A   1      44.857  22.534  26.416  1.00  0.00     0.087 C 
ATOM      9  C   UNL A   1      44.484  25.469  31.798  1.00  0.00     0.044 C 
ATOM     10  C   UNL A   1      45.138  25.016  30.527  1.00  0.00    -0.050 A 
ATOM     11  C   UNL A   1      46.341  25.579  30.087  1.00  0.00     0.007 A 
ATOM     12  C   UNL A   1      44.506  24.057  29.727  1.00  0.00     0.015 A 
ATOM     13  C   UNL A   1      46.918  25.165  28.882  1.00  0.00     0.047 A 
ATOM     14  C   UNL A   1      45.063  23.673  28.502  1.00  0.00     0.017 A 
ATOM     15  C   UNL A   1      46.279  24.213  28.088  1.00  0.00     0.128 A 
ATOM     16  C   UNL A   1      44.341  22.771  27.629  1.00  0.00     0.027 C 
ATOM     17  O   UNL A   1      46.906  23.867  26.926  1.00  0.00    -0.475 OA
ATOM     18  C   UNL A   1      46.185  23.063  25.948  1.00  0.00     0.316 C 
BRANCH  18  19
ATOM     19  C   UNL A   1      46.066  23.873  24.649  1.00  0.00     0.430 C 
ATOM     20  F   UNL A   1      44.921  24.597  24.623  1.00  0.00    -0.167 F 
ATOM     21  F   UNL A   1      47.084  24.752  24.508  1.00  0.00    -0.167 F 
ATOM     22  F   UNL A   1      46.066  23.075  23.556  1.00  0.00    -0.167 F 
ENDBRANCH  18  19
ENDBRANCH   6   8
ENDBRANCH   5   6
ENDBRANCH   4   5
ENDBRANCH   3   4
ENDBRANCH   2   3
ENDBRANCH   1   2
BRANCH   1  23
ATOM     23  C   UNL A   1      40.395  20.148  26.488  1.00  0.00     0.261 C 
BRANCH  23  24
ATOM     24  O   UNL A   1      40.457  21.521  26.069  1.00  0.00    -0.460 OA
BRANCH  24  25
ATOM     25  C   UNL A   1      39.314  22.226  26.276  1.00  0.00     0.338 C 
ATOM     26  O   UNL A   1      38.169  21.826  26.134  1.00  0.00    -0.246 OA
BRANCH  25  27
ATOM     27  C   UNL A   1      39.645  23.514  26.911  1.00  0.00     0.060 A 
ATOM     28  C   UNL A   1      40.658  23.612  27.865  1.00  0.00     0.016 A 
ATOM     29  C   UNL A   1      38.944  24.655  26.495  1.00  0.00     0.016 A 
ATOM     30  C   UNL A   1      40.990  24.869  28.379  1.00  0.00     0.010 A 
ATOM     31  C   UNL A   1      39.275  25.906  27.012  1.00  0.00     0.010 A 
ATOM     32  C   UNL A   1      40.319  26.026  27.939  1.00  0.00    -0.014 A 
BRANCH  32  33
ATOM     33  C   UNL A   1      40.822  27.368  28.321  1.00  0.00     0.031 A 
ATOM     34  C   UNL A   1      42.269  27.739  28.203  1.00  0.00     0.074 A 
ATOM     35  C   UNL A   1      39.939  28.253  28.828  1.00  0.00     0.049 A 
ATOM     36  N   UNL A   1      42.833  28.897  28.428  1.00  0.00    -0.248 NA
ATOM     37  C   UNL A   1      43.206  26.685  27.788  1.00  0.00     0.031 C 
ATOM     38  C   UNL A   1      38.520  27.976  29.067  1.00  0.00     0.029 A 
ATOM     39  N   UNL A   1      40.099  29.552  29.237  1.00  0.00    -0.354 N 
ATOM     40  C   UNL A   1      44.188  28.717  28.188  1.00  0.00     0.074 A 
ATOM     41  C   UNL A   1      44.368  27.329  27.819  1.00  0.00     0.031 C 
ATOM     42  C   UNL A   1      37.934  29.079  29.555  1.00  0.00     0.029 A 
ATOM     43  C   UNL A   1      38.936  30.133  29.684  1.00  0.00     0.049 A 
ATOM     44  H   UNL A   1      40.963  30.023  29.212  1.00  0.00     0.167 HD
ATOM     45  C   UNL A   1      45.182  29.634  28.247  1.00  0.00     0.034 A 
ATOM     46  C   UNL A   1      38.695  31.377  30.141  1.00  0.00     0.034 A 
ATOM     47  C   UNL A   1      44.994  31.016  28.603  1.00  0.00     0.049 A 
ATOM     48  C   UNL A   1      39.812  32.378  30.180  1.00  0.00     0.074 A 
ATOM     49  C   UNL A   1      45.936  32.029  28.618  1.00  0.00     0.029 A 
ATOM     50  N   UNL A   1      43.797  31.574  29.019  1.00  0.00    -0.354 N 
ATOM     51  N   UNL A   1      41.060  32.225  29.810  1.00  0.00    -0.248 NA
ATOM     52  C   UNL A   1      39.489  33.726  30.668  1.00  0.00     0.031 C 
ATOM     53  C   UNL A   1      45.315  33.197  29.066  1.00  0.00     0.029 A 
ATOM     54  C   UNL A   1      43.979  32.916  29.303  1.00  0.00     0.049 A 
ATOM     55  H   UNL A   1      42.945  31.089  29.101  1.00  0.00     0.167 HD
ATOM     56  C   UNL A   1      41.665  33.461  29.996  1.00  0.00     0.074 A 
ATOM     57  C   UNL A   1      40.646  34.356  30.505  1.00  0.00     0.031 C 
ATOM     58  C   UNL A   1      42.952  33.813  29.768  1.00  0.00     0.034 A 
BRANCH  45  59
ATOM     59  C   UNL A   1      46.572  29.208  27.857  1.00  0.00     0.023 A 
ATOM     60  C   UNL A   1      46.963  29.310  26.508  1.00  0.00     0.012 A 
ATOM     61  C   UNL A   1      47.522  28.850  28.833  1.00  0.00     0.148 A 
ATOM     62  C   UNL A   1      48.282  29.058  26.132  1.00  0.00     0.002 A 
ATOM     63  C   UNL A   1      48.841  28.627  28.454  1.00  0.00     0.091 A 
ATOM     64  F   UNL A   1      47.123  28.756  30.109  1.00  0.00    -0.205 F 
ATOM     65  C   UNL A   1      49.221  28.729  27.105  1.00  0.00     0.022 A 
BRANCH  63  66
ATOM     66  S   UNL A   1      50.143  28.247  29.632  1.00  0.00     0.127 S 
ATOM     67  O   UNL A   1      51.142  27.613  28.772  1.00  0.00    -0.237 OA
ATOM     68  O   UNL A   1      50.513  29.576  30.119  1.00  0.00    -0.237 OA
ATOM     69  O   UNL A   1      49.545  27.372  30.629  1.00  0.00    -0.744 OA
ENDBRANCH  63  66
ENDBRANCH  45  59
BRANCH  46  70
ATOM     70  C   UNL A   1      37.306  31.749  30.520  1.00  0.00     0.023 A 
ATOM     71  C   UNL A   1      36.859  31.498  31.830  1.00  0.00     0.012 A 
ATOM     72  C   UNL A   1      36.467  32.431  29.618  1.00  0.00     0.148 A 
ATOM     73  C   UNL A   1      35.592  31.917  32.237  1.00  0.00     0.002 A 
ATOM     74  C   UNL A   1      35.221  32.877  30.041  1.00  0.00     0.091 A 
ATOM     75  F   UNL A   1      36.924  32.661  28.379  1.00  0.00    -0.205 F 
ATOM     76  C   UNL A   1      34.779  32.615  31.347  1.00  0.00     0.022 A 
BRANCH  74  77
ATOM     77  S   UNL A   1      34.141  33.865  29.001  1.00  0.00     0.127 S 
ATOM     78  O   UNL A   1      33.602  32.858  28.090  1.00  0.00    -0.237 OA
ATOM     79  O   UNL A   1      33.185  34.389  29.977  1.00  0.00    -0.237 OA
ATOM     80  O   UNL A   1      34.993  34.872  28.383  1.00  0.00    -0.744 OA
ENDBRANCH  74  77
ENDBRANCH  46  70
BRANCH  58  81
ATOM     81  C   UNL A   1      43.365  35.233  30.037  1.00  0.00     0.023 A 
ATOM     82  C   UNL A   1      43.992  35.555  31.256  1.00  0.00     0.012 A 
ATOM     83  C   UNL A   1      43.278  36.204  29.019  1.00  0.00     0.148 A 
ATOM     84  C   UNL A   1      44.530  36.827  31.456  1.00  0.00     0.002 A 
ATOM     85  C   UNL A   1      43.845  37.457  29.214  1.00  0.00     0.091 A 
ATOM     86  F   UNL A   1      42.673  35.869  27.870  1.00  0.00    -0.205 F 
ATOM     87  C   UNL A   1      44.469  37.771  30.433  1.00  0.00     0.022 A 
BRANCH  85  88
ATOM     88  S   UNL A   1      43.884  38.715  27.932  1.00  0.00     0.127 S 
ATOM     89  O   UNL A   1      44.388  39.874  28.668  1.00  0.00    -0.237 OA
ATOM     90  O   UNL A   1      44.828  38.145  26.971  1.00  0.00    -0.237 OA
ATOM     91  O   UNL A   1      42.518  38.843  27.446  1.00  0.00    -0.744 OA
ENDBRANCH  85  88
ENDBRANCH  58  81
ENDBRANCH  32  33
ENDBRANCH  25  27
ENDBRANCH  24  25
ENDBRANCH  23  24
ENDBRANCH   1  23
TORSDOF 18
ENDMDL
MODEL 3
REMARK VINA RESULT:     -11.4      4.981      9.736
REMARK SMILES Cc1ccc2c(c1)C=C(C(=O)OCCOCCOC(=O)c1ccc(-c3c4nc(c(-c5cccc(S(=O)(=O)[O-])c5F)c5ccc([nH]5)c(-c5cccc(S(=O)(=O)[O-])c5F)c5nc(c(-c6cccc(S(=O)(=O)[O-])c6F)c6ccc3[nH]6)C=C5)C=C4)cc1)[C@@H](C(F)(F)F)O2
REMARK SMILES IDX 16 1 15 2 14 3 13 4 12 5 10 6 11 7 9 8 1 9 2 10 3 11 7 12
REMARK SMILES IDX 4 13 6 14 5 15 8 16 89 17 84 18 85 19 86 20 87 21 88 22
REMARK SMILES IDX 17 23 18 24 19 25 20 26 21 27 22 28 83 29 23 30 82 31 24 32
REMARK SMILES IDX 25 33 26 34 76 35 27 36 81 37 75 38 77 39 28 40 80 41 74 42
REMARK SMILES IDX 73 43 29 45 61 46 41 47 60 48 42 49 45 50 59 51 78 52 43 53
REMARK SMILES IDX 44 54 58 56 79 57 46 58 30 59 31 60 39 61 32 62 34 63 40 64
REMARK SMILES IDX 33 65 35 66 36 67 37 68 38 69 62 70 63 71 71 72 64 73 66 74
REMARK SMILES IDX 72 75 65 76 67 77 68 78 69 79 70 80 47 81 48 82 56 83 49 84
REMARK SMILES IDX 51 85 57 86 50 87 52 88 53 89 54 90 55 91
REMARK H PARENT 77 44 45 55
REMARK Flexibility Score: inf
ROOT
ATOM      1  C   UNL A   1      32.463  29.358  25.500  1.00  0.00     0.202 C 
ENDROOT
BRANCH   1   2
ATOM      2  O   UNL A   1      31.401  28.609  24.911  1.00  0.00    -0.374 OA
BRANCH   2   3
ATOM      3  C   UNL A   1      31.200  27.262  25.330  1.00  0.00     0.202 C 
BRANCH   3   4
ATOM      4  C   UNL A   1      32.363  26.276  25.175  1.00  0.00     0.261 C 
BRANCH   4   5
ATOM      5  O   UNL A   1      31.947  24.911  25.316  1.00  0.00    -0.460 OA
BRANCH   5   6
ATOM      6  C   UNL A   1      32.966  24.031  25.463  1.00  0.00     0.338 C 
ATOM      7  O   UNL A   1      33.950  24.159  26.173  1.00  0.00    -0.246 OA
BRANCH   6   8
ATOM      8  C   UNL A   1      32.659  22.787  24.731  1.00  0.00     0.087 C 
ATOM      9  C   UNL A   1      33.084  16.707  25.489  1.00  0.00     0.044 C 
ATOM     10  C   UNL A   1      32.774  17.978  24.757  1.00  0.00    -0.050 A 
ATOM     11  C   UNL A   1      32.511  17.979  23.383  1.00  0.00     0.007 A 
ATOM     12  C   UNL A   1      32.810  19.198  25.441  1.00  0.00     0.015 A 
ATOM     13  C   UNL A   1      32.256  19.180  22.712  1.00  0.00     0.047 A 
ATOM     14  C   UNL A   1      32.594  20.402  24.762  1.00  0.00     0.017 A 
ATOM     15  C   UNL A   1      32.299  20.391  23.400  1.00  0.00     0.128 A 
ATOM     16  C   UNL A   1      32.753  21.664  25.455  1.00  0.00     0.027 C 
ATOM     17  O   UNL A   1      32.042  21.517  22.671  1.00  0.00    -0.475 OA
ATOM     18  C   UNL A   1      32.301  22.820  23.271  1.00  0.00     0.316 C 
BRANCH  18  19
ATOM     19  C   UNL A   1      33.361  23.540  22.425  1.00  0.00     0.430 C 
ATOM     20  F   UNL A   1      33.411  23.036  21.168  1.00  0.00    -0.167 F 
ATOM     21  F   UNL A   1      33.098  24.861  22.305  1.00  0.00    -0.167 F 
ATOM     22  F   UNL A   1      34.598  23.420  22.959  1.00  0.00    -0.167 F 
ENDBRANCH  18  19
ENDBRANCH   6   8
ENDBRANCH   5   6
ENDBRANCH   4   5
ENDBRANCH   3   4
ENDBRANCH   2   3
ENDBRANCH   1   2
BRANCH   1  23
ATOM     23  C   UNL A   1      32.145  30.697  26.179  1.00  0.00     0.261 C 
BRANCH  23  24
ATOM     24  O   UNL A   1      32.757  30.836  27.471  1.00  0.00    -0.460 OA
BRANCH  24  25
ATOM     25  C   UNL A   1      33.588  31.904  27.589  1.00  0.00     0.338 C 
ATOM     26  O   UNL A   1      33.280  33.084  27.531  1.00  0.00    -0.246 OA
BRANCH  25  27
ATOM     27  C   UNL A   1      34.921  31.438  28.014  1.00  0.00     0.060 A 
ATOM     28  C   UNL A   1      35.987  32.325  28.153  1.00  0.00     0.016 A 
ATOM     29  C   UNL A   1      35.078  30.079  28.322  1.00  0.00     0.016 A 
ATOM     30  C   UNL A   1      37.210  31.850  28.637  1.00  0.00     0.010 A 
ATOM     31  C   UNL A   1      36.300  29.608  28.800  1.00  0.00     0.010 A 
ATOM     32  C   UNL A   1      37.367  30.495  28.986  1.00  0.00    -0.014 A 
BRANCH  32  33
ATOM     33  C   UNL A   1      38.589  30.048  29.699  1.00  0.00     0.031 A 
ATOM     34  C   UNL A   1      38.955  30.571  31.055  1.00  0.00     0.074 A 
ATOM     35  C   UNL A   1      39.403  29.175  29.071  1.00  0.00     0.049 A 
ATOM     36  N   UNL A   1      39.949  30.212  31.824  1.00  0.00    -0.248 NA
ATOM     37  C   UNL A   1      38.110  31.634  31.622  1.00  0.00     0.031 C 
ATOM     38  C   UNL A   1      39.192  28.659  27.717  1.00  0.00     0.029 A 
ATOM     39  N   UNL A   1      40.565  28.572  29.480  1.00  0.00    -0.354 N 
ATOM     40  C   UNL A   1      39.858  31.000  32.963  1.00  0.00     0.074 A 
ATOM     41  C   UNL A   1      38.721  31.876  32.777  1.00  0.00     0.031 C 
ATOM     42  C   UNL A   1      40.176  27.799  27.416  1.00  0.00     0.029 A 
ATOM     43  C   UNL A   1      41.098  27.717  28.545  1.00  0.00     0.049 A 
ATOM     44  H   UNL A   1      40.977  28.737  30.359  1.00  0.00     0.167 HD
ATOM     45  C   UNL A   1      40.638  30.975  34.069  1.00  0.00     0.034 A 
ATOM     46  C   UNL A   1      42.200  26.945  28.589  1.00  0.00     0.034 A 
ATOM     47  C   UNL A   1      41.760  30.093  34.252  1.00  0.00     0.049 A 
ATOM     48  C   UNL A   1      43.037  26.923  29.833  1.00  0.00     0.074 A 
ATOM     49  C   UNL A   1      42.562  29.952  35.372  1.00  0.00     0.029 A 
ATOM     50  N   UNL A   1      42.250  29.219  33.296  1.00  0.00    -0.354 N 
ATOM     51  N   UNL A   1      42.849  27.572  30.956  1.00  0.00    -0.248 NA
ATOM     52  C   UNL A   1      44.218  26.047  29.834  1.00  0.00     0.031 C 
ATOM     53  C   UNL A   1      43.551  29.009  35.085  1.00  0.00     0.029 A 
ATOM     54  C   UNL A   1      43.349  28.543  33.797  1.00  0.00     0.049 A 
ATOM     55  H   UNL A   1      41.874  29.097  32.395  1.00  0.00     0.167 HD
ATOM     56  C   UNL A   1      43.870  27.166  31.806  1.00  0.00     0.074 A 
ATOM     57  C   UNL A   1      44.672  26.208  31.072  1.00  0.00     0.031 C 
ATOM     58  C   UNL A   1      44.117  27.560  33.077  1.00  0.00     0.034 A 
BRANCH  45  59
ATOM     59  C   UNL A   1      40.282  31.881  35.216  1.00  0.00     0.023 A 
ATOM     60  C   UNL A   1      40.858  33.166  35.273  1.00  0.00     0.012 A 
ATOM     61  C   UNL A   1      39.284  31.524  36.142  1.00  0.00     0.148 A 
ATOM     62  C   UNL A   1      40.448  34.082  36.241  1.00  0.00     0.002 A 
ATOM     63  C   UNL A   1      38.861  32.453  37.086  1.00  0.00     0.091 A 
ATOM     64  F   UNL A   1      38.755  30.294  36.067  1.00  0.00    -0.205 F 
ATOM     65  C   UNL A   1      39.443  33.730  37.137  1.00  0.00     0.022 A 
BRANCH  63  66
ATOM     66  S   UNL A   1      37.538  32.121  38.255  1.00  0.00     0.127 S 
ATOM     67  O   UNL A   1      36.484  33.010  37.765  1.00  0.00    -0.237 OA
ATOM     68  O   UNL A   1      37.285  30.697  38.036  1.00  0.00    -0.237 OA
ATOM     69  O   UNL A   1      38.065  32.456  39.569  1.00  0.00    -0.744 OA
ENDBRANCH  63  66
ENDBRANCH  45  59
BRANCH  46  70
ATOM     70  C   UNL A   1      42.514  26.071  27.428  1.00  0.00     0.023 A 
ATOM     71  C   UNL A   1      43.328  26.565  26.393  1.00  0.00     0.012 A 
ATOM     72  C   UNL A   1      42.086  24.729  27.394  1.00  0.00     0.148 A 
ATOM     73  C   UNL A   1      43.711  25.738  25.337  1.00  0.00     0.002 A 
ATOM     74  C   UNL A   1      42.500  23.901  26.358  1.00  0.00     0.091 A 
ATOM     75  F   UNL A   1      41.316  24.286  28.397  1.00  0.00    -0.205 F 
ATOM     76  C   UNL A   1      43.306  24.405  25.325  1.00  0.00     0.022 A 
BRANCH  74  77
ATOM     77  S   UNL A   1      42.111  22.149  26.303  1.00  0.00     0.127 S 
ATOM     78  O   UNL A   1      40.661  22.172  26.123  1.00  0.00    -0.237 OA
ATOM     79  O   UNL A   1      42.871  21.712  25.132  1.00  0.00    -0.237 OA
ATOM     80  O   UNL A   1      42.573  21.598  27.569  1.00  0.00    -0.744 OA
ENDBRANCH  74  77
ENDBRANCH  46  70
BRANCH  58  81
ATOM     81  C   UNL A   1      45.289  26.956  33.800  1.00  0.00     0.023 A 
ATOM     82  C   UNL A   1      46.539  27.604  33.759  1.00  0.00     0.012 A 
ATOM     83  C   UNL A   1      45.108  25.843  34.644  1.00  0.00     0.148 A 
ATOM     84  C   UNL A   1      47.592  27.152  34.554  1.00  0.00     0.002 A 
ATOM     85  C   UNL A   1      46.151  25.420  35.457  1.00  0.00     0.091 A 
ATOM     86  F   UNL A   1      43.907  25.245  34.659  1.00  0.00    -0.205 F 
ATOM     87  C   UNL A   1      47.395  26.071  35.411  1.00  0.00     0.022 A 
BRANCH  85  88
ATOM     88  S   UNL A   1      45.974  24.086  36.648  1.00  0.00     0.127 S 
ATOM     89  O   UNL A   1      45.559  22.976  35.790  1.00  0.00    -0.237 OA
ATOM     90  O   UNL A   1      47.330  23.968  37.183  1.00  0.00    -0.237 OA
ATOM     91  O   UNL A   1      44.973  24.527  37.608  1.00  0.00    -0.744 OA
ENDBRANCH  85  88
ENDBRANCH  58  81
ENDBRANCH  32  33
ENDBRANCH  25  27
ENDBRANCH  24  25
ENDBRANCH  23  24
ENDBRANCH   1  23
TORSDOF 18
ENDMDL
