MODEL 1
REMARK VINA RESULT:     -11.2      0.000      0.000
REMARK SMILES Cc1ccccc1-n1nc(Cl)c(C(=O)OCCOCCOC(=O)c2ccc(-c3c4nc(c(-c5cccc(S(=O)(=O)[O-])c5F)c5ccc([nH]5)c(-c5cccc(S(=O)(=O)[O-])c5F)c5nc(c(-c6cccc(S(=O)(=O)[O-])c6F)c6ccc3[nH]6)C=C5)C=C4)cc2)n1
REMARK SMILES IDX 19 1 18 2 17 3 16 4 15 5 13 6 14 7 12 8 8 9 9 10 87 11 10 12
REMARK SMILES IDX 11 13 7 14 1 15 2 16 3 17 4 18 6 19 5 20 20 21 21 22 22 23
REMARK SMILES IDX 23 24 24 25 25 26 86 27 26 28 85 29 27 30 28 31 29 32 79 33
REMARK SMILES IDX 30 34 84 35 78 36 80 37 31 38 83 39 77 40 76 41 32 43 64 44
REMARK SMILES IDX 44 45 63 46 45 47 48 48 62 49 81 50 46 51 47 52 61 54 82 55
REMARK SMILES IDX 49 56 33 57 34 58 42 59 35 60 37 61 43 62 36 63 38 64 39 65
REMARK SMILES IDX 40 66 41 67 65 68 66 69 74 70 67 71 69 72 75 73 68 74 70 75
REMARK SMILES IDX 71 76 72 77 73 78 50 79 51 80 59 81 52 82 54 83 60 84 53 85
REMARK SMILES IDX 55 86 56 87 57 88 58 89
REMARK H PARENT 80 42 48 53
REMARK Flexibility Score: inf
ROOT
ATOM      1  C   UNL A   1      35.033  23.691  25.536  1.00  0.00     0.202 C 
ENDROOT
BRANCH   1   2
ATOM      2  O   UNL A   1      34.149  22.660  25.148  1.00  0.00    -0.374 OA
BRANCH   2   3
ATOM      3  C   UNL A   1      33.671  22.679  23.814  1.00  0.00     0.202 C 
BRANCH   3   4
ATOM      4  C   UNL A   1      34.751  23.340  22.986  1.00  0.00     0.261 C 
BRANCH   4   5
ATOM      5  O   UNL A   1      34.462  24.732  22.760  1.00  0.00    -0.458 OA
BRANCH   5   6
ATOM      6  C   UNL A   1      33.350  25.122  22.048  1.00  0.00     0.362 C 
ATOM      7  O   UNL A   1      33.045  24.794  20.924  1.00  0.00    -0.244 OA
BRANCH   6   8
ATOM      8  C   UNL A   1      32.485  25.884  22.930  1.00  0.00     0.209 A 
ATOM      9  N   UNL A   1      32.012  27.247  24.450  1.00  0.00    -0.149 N 
ATOM     10  N   UNL A   1      31.027  26.323  24.582  1.00  0.00    -0.135 NA
ATOM     11  N   UNL A   1      32.860  27.073  23.422  1.00  0.00    -0.139 NA
ATOM     12  C   UNL A   1      31.291  25.500  23.558  1.00  0.00     0.186 A 
ATOM     13  Cl  UNL A   1      30.360  24.109  23.313  1.00  0.00    -0.057 Cl
BRANCH   9  14
ATOM     14  C   UNL A   1      32.373  28.162  25.471  1.00  0.00     0.089 A 
ATOM     15  C   UNL A   1      30.799  29.994  24.552  1.00  0.00     0.047 C 
ATOM     16  C   UNL A   1      31.901  29.493  25.454  1.00  0.00    -0.023 A 
ATOM     17  C   UNL A   1      32.485  30.417  26.334  1.00  0.00     0.006 A 
ATOM     18  C   UNL A   1      33.493  30.027  27.218  1.00  0.00     0.000 A 
ATOM     19  C   UNL A   1      33.346  27.759  26.401  1.00  0.00     0.030 A 
ATOM     20  C   UNL A   1      33.914  28.700  27.260  1.00  0.00     0.002 A 
ENDBRANCH   9  14
ENDBRANCH   6   8
ENDBRANCH   5   6
ENDBRANCH   4   5
ENDBRANCH   3   4
ENDBRANCH   2   3
ENDBRANCH   1   2
BRANCH   1  21
ATOM     21  C   UNL A   1      36.347  23.165  26.118  1.00  0.00     0.261 C 
BRANCH  21  22
ATOM     22  O   UNL A   1      37.342  24.204  26.066  1.00  0.00    -0.460 OA
BRANCH  22  23
ATOM     23  C   UNL A   1      38.616  23.782  26.302  1.00  0.00     0.338 C 
ATOM     24  O   UNL A   1      39.024  22.659  26.051  1.00  0.00    -0.246 OA
BRANCH  23  25
ATOM     25  C   UNL A   1      39.344  24.803  27.111  1.00  0.00     0.060 A 
ATOM     26  C   UNL A   1      38.987  25.020  28.455  1.00  0.00     0.016 A 
ATOM     27  C   UNL A   1      40.188  25.708  26.466  1.00  0.00     0.016 A 
ATOM     28  C   UNL A   1      39.366  26.205  29.108  1.00  0.00     0.010 A 
ATOM     29  C   UNL A   1      40.507  26.899  27.093  1.00  0.00     0.010 A 
ATOM     30  C   UNL A   1      40.070  27.175  28.401  1.00  0.00    -0.014 A 
BRANCH  30  31
ATOM     31  C   UNL A   1      40.363  28.535  28.859  1.00  0.00     0.031 A 
ATOM     32  C   UNL A   1      39.337  29.594  28.707  1.00  0.00     0.074 A 
ATOM     33  C   UNL A   1      41.354  28.765  29.754  1.00  0.00     0.049 A 
ATOM     34  N   UNL A   1      39.529  30.820  29.067  1.00  0.00    -0.248 NA
ATOM     35  C   UNL A   1      38.019  29.379  28.106  1.00  0.00     0.031 C 
ATOM     36  C   UNL A   1      41.306  29.707  30.873  1.00  0.00     0.029 A 
ATOM     37  N   UNL A   1      42.649  28.265  29.812  1.00  0.00    -0.354 N 
ATOM     38  C   UNL A   1      38.287  31.393  29.156  1.00  0.00     0.074 A 
ATOM     39  C   UNL A   1      37.429  30.552  28.363  1.00  0.00     0.031 C 
ATOM     40  C   UNL A   1      42.532  29.856  31.389  1.00  0.00     0.029 A 
ATOM     41  C   UNL A   1      43.457  29.152  30.530  1.00  0.00     0.049 A 
ATOM     42  H   UNL A   1      42.949  27.418  29.410  1.00  0.00     0.167 HD
ATOM     43  C   UNL A   1      38.089  32.396  30.053  1.00  0.00     0.034 A 
ATOM     44  C   UNL A   1      44.626  29.625  30.024  1.00  0.00     0.034 A 
ATOM     45  C   UNL A   1      39.349  32.895  30.635  1.00  0.00     0.049 A 
ATOM     46  C   UNL A   1      44.625  31.126  29.886  1.00  0.00     0.074 A 
ATOM     47  C   UNL A   1      39.868  32.957  31.916  1.00  0.00     0.029 A 
ATOM     48  N   UNL A   1      40.384  33.290  29.786  1.00  0.00    -0.354 N 
ATOM     49  N   UNL A   1      43.658  31.894  30.306  1.00  0.00    -0.248 NA
ATOM     50  C   UNL A   1      45.686  31.895  29.247  1.00  0.00     0.031 C 
ATOM     51  C   UNL A   1      41.238  33.347  31.823  1.00  0.00     0.029 A 
ATOM     52  C   UNL A   1      41.545  33.573  30.490  1.00  0.00     0.049 A 
ATOM     53  H   UNL A   1      40.300  33.358  28.807  1.00  0.00     0.167 HD
ATOM     54  C   UNL A   1      43.801  33.153  29.791  1.00  0.00     0.074 A 
ATOM     55  C   UNL A   1      45.157  33.132  29.261  1.00  0.00     0.031 C 
ATOM     56  C   UNL A   1      42.745  34.031  29.775  1.00  0.00     0.034 A 
BRANCH  43  57
ATOM     57  C   UNL A   1      36.722  32.856  30.527  1.00  0.00     0.023 A 
ATOM     58  C   UNL A   1      36.372  32.577  31.865  1.00  0.00     0.012 A 
ATOM     59  C   UNL A   1      35.722  33.482  29.738  1.00  0.00     0.148 A 
ATOM     60  C   UNL A   1      35.122  32.917  32.397  1.00  0.00     0.002 A 
ATOM     61  C   UNL A   1      34.513  33.910  30.296  1.00  0.00     0.091 A 
ATOM     62  F   UNL A   1      35.871  33.575  28.412  1.00  0.00    -0.205 F 
ATOM     63  C   UNL A   1      34.202  33.613  31.623  1.00  0.00     0.022 A 
BRANCH  61  64
ATOM     64  S   UNL A   1      33.332  34.909  29.369  1.00  0.00     0.127 S 
ATOM     65  O   UNL A   1      32.373  35.298  30.402  1.00  0.00    -0.237 OA
ATOM     66  O   UNL A   1      34.163  36.007  28.871  1.00  0.00    -0.237 OA
ATOM     67  O   UNL A   1      32.808  34.039  28.322  1.00  0.00    -0.744 OA
ENDBRANCH  61  64
ENDBRANCH  43  57
BRANCH  44  68
ATOM     68  C   UNL A   1      45.335  28.619  29.179  1.00  0.00     0.023 A 
ATOM     69  C   UNL A   1      45.719  27.422  29.833  1.00  0.00     0.012 A 
ATOM     70  C   UNL A   1      45.208  28.613  27.776  1.00  0.00     0.148 A 
ATOM     71  C   UNL A   1      45.881  26.229  29.125  1.00  0.00     0.002 A 
ATOM     72  C   UNL A   1      45.323  27.406  27.083  1.00  0.00     0.091 A 
ATOM     73  F   UNL A   1      44.887  29.758  27.159  1.00  0.00    -0.205 F 
ATOM     74  C   UNL A   1      45.648  26.216  27.756  1.00  0.00     0.022 A 
BRANCH  72  75
ATOM     75  S   UNL A   1      44.869  27.234  25.349  1.00  0.00     0.127 S 
ATOM     76  O   UNL A   1      44.924  25.785  25.174  1.00  0.00    -0.237 OA
ATOM     77  O   UNL A   1      43.519  27.803  25.335  1.00  0.00    -0.237 OA
ATOM     78  O   UNL A   1      45.852  28.003  24.602  1.00  0.00    -0.744 OA
ENDBRANCH  72  75
ENDBRANCH  44  68
BRANCH  56  79
ATOM     79  C   UNL A   1      42.693  35.373  29.038  1.00  0.00     0.023 A 
ATOM     80  C   UNL A   1      41.884  35.605  27.910  1.00  0.00     0.012 A 
ATOM     81  C   UNL A   1      43.411  36.504  29.519  1.00  0.00     0.148 A 
ATOM     82  C   UNL A   1      41.795  36.856  27.285  1.00  0.00     0.002 A 
ATOM     83  C   UNL A   1      43.242  37.770  28.960  1.00  0.00     0.091 A 
ATOM     84  F   UNL A   1      44.306  36.366  30.506  1.00  0.00    -0.205 F 
ATOM     85  C   UNL A   1      42.451  37.947  27.826  1.00  0.00     0.022 A 
BRANCH  83  86
ATOM     86  S   UNL A   1      43.925  39.235  29.748  1.00  0.00     0.127 S 
ATOM     87  O   UNL A   1      43.570  39.018  31.148  1.00  0.00    -0.237 OA
ATOM     88  O   UNL A   1      45.355  39.109  29.457  1.00  0.00    -0.237 OA
ATOM     89  O   UNL A   1      43.281  40.360  29.085  1.00  0.00    -0.744 OA
ENDBRANCH  83  86
ENDBRANCH  56  79
ENDBRANCH  30  31
ENDBRANCH  23  25
ENDBRANCH  22  23
ENDBRANCH  21  22
ENDBRANCH   1  21
TORSDOF 18
ENDMDL
MODEL 2
REMARK VINA RESULT:     -11.2      4.196      9.734
REMARK SMILES Cc1ccccc1-n1nc(Cl)c(C(=O)OCCOCCOC(=O)c2ccc(-c3c4nc(c(-c5cccc(S(=O)(=O)[O-])c5F)c5ccc([nH]5)c(-c5cccc(S(=O)(=O)[O-])c5F)c5nc(c(-c6cccc(S(=O)(=O)[O-])c6F)c6ccc3[nH]6)C=C5)C=C4)cc2)n1
REMARK SMILES IDX 19 1 18 2 17 3 16 4 15 5 13 6 14 7 12 8 8 9 9 10 87 11 10 12
REMARK SMILES IDX 11 13 7 14 1 15 2 16 3 17 4 18 6 19 5 20 20 21 21 22 22 23
REMARK SMILES IDX 23 24 24 25 25 26 86 27 26 28 85 29 27 30 28 31 29 32 79 33
REMARK SMILES IDX 30 34 84 35 78 36 80 37 31 38 83 39 77 40 76 41 32 43 64 44
REMARK SMILES IDX 44 45 63 46 45 47 48 48 62 49 81 50 46 51 47 52 61 54 82 55
REMARK SMILES IDX 49 56 33 57 34 58 42 59 35 60 37 61 43 62 36 63 38 64 39 65
REMARK SMILES IDX 40 66 41 67 65 68 66 69 74 70 67 71 69 72 75 73 68 74 70 75
REMARK SMILES IDX 71 76 72 77 73 78 50 79 51 80 59 81 52 82 54 83 60 84 53 85
REMARK SMILES IDX 55 86 56 87 57 88 58 89
REMARK H PARENT 80 42 48 53
REMARK Flexibility Score: inf
ROOT
ATOM      1  C   UNL A   1      32.097  30.731  26.564  1.00  0.00     0.202 C 
ENDROOT
BRANCH   1   2
ATOM      2  O   UNL A   1      33.338  30.134  26.254  1.00  0.00    -0.374 OA
BRANCH   2   3
ATOM      3  C   UNL A   1      33.851  29.182  27.169  1.00  0.00     0.202 C 
BRANCH   3   4
ATOM      4  C   UNL A   1      33.529  27.821  26.591  1.00  0.00     0.261 C 
BRANCH   4   5
ATOM      5  O   UNL A   1      33.972  27.712  25.225  1.00  0.00    -0.458 OA
BRANCH   5   6
ATOM      6  C   UNL A   1      33.686  26.596  24.471  1.00  0.00     0.362 C 
ATOM      7  O   UNL A   1      34.002  25.452  24.704  1.00  0.00    -0.244 OA
BRANCH   6   8
ATOM      8  C   UNL A   1      32.784  26.984  23.402  1.00  0.00     0.209 A 
ATOM      9  N   UNL A   1      31.110  27.903  22.538  1.00  0.00    -0.149 N 
ATOM     10  N   UNL A   1      31.252  26.793  21.769  1.00  0.00    -0.135 NA
ATOM     11  N   UNL A   1      32.052  28.105  23.474  1.00  0.00    -0.139 NA
ATOM     12  C   UNL A   1      32.369  26.255  22.278  1.00  0.00     0.186 A 
ATOM     13  Cl  UNL A   1      32.956  24.781  21.690  1.00  0.00    -0.057 Cl
BRANCH   9  14
ATOM     14  C   UNL A   1      29.910  28.654  22.619  1.00  0.00     0.089 A 
ATOM     15  C   UNL A   1      28.674  26.765  23.878  1.00  0.00     0.047 C 
ATOM     16  C   UNL A   1      28.728  28.079  23.137  1.00  0.00    -0.023 A 
ATOM     17  C   UNL A   1      27.520  28.771  22.960  1.00  0.00     0.006 A 
ATOM     18  C   UNL A   1      27.490  30.005  22.308  1.00  0.00     0.000 A 
ATOM     19  C   UNL A   1      29.885  29.921  22.015  1.00  0.00     0.030 A 
ATOM     20  C   UNL A   1      28.670  30.585  21.847  1.00  0.00     0.002 A 
ENDBRANCH   9  14
ENDBRANCH   6   8
ENDBRANCH   5   6
ENDBRANCH   4   5
ENDBRANCH   3   4
ENDBRANCH   2   3
ENDBRANCH   1   2
BRANCH   1  21
ATOM     21  C   UNL A   1      32.240  32.098  27.236  1.00  0.00     0.261 C 
BRANCH  21  22
ATOM     22  O   UNL A   1      33.625  32.332  27.553  1.00  0.00    -0.460 OA
BRANCH  22  23
ATOM     23  C   UNL A   1      33.840  33.328  28.458  1.00  0.00     0.338 C 
ATOM     24  O   UNL A   1      33.172  34.348  28.527  1.00  0.00    -0.246 OA
BRANCH  23  25
ATOM     25  C   UNL A   1      35.130  33.092  29.170  1.00  0.00     0.060 A 
ATOM     26  C   UNL A   1      36.348  33.421  28.548  1.00  0.00     0.016 A 
ATOM     27  C   UNL A   1      35.135  32.314  30.329  1.00  0.00     0.016 A 
ATOM     28  C   UNL A   1      37.553  32.866  29.008  1.00  0.00     0.010 A 
ATOM     29  C   UNL A   1      36.315  31.722  30.741  1.00  0.00     0.010 A 
ATOM     30  C   UNL A   1      37.526  31.961  30.065  1.00  0.00    -0.014 A 
BRANCH  30  31
ATOM     31  C   UNL A   1      38.647  31.143  30.532  1.00  0.00     0.031 A 
ATOM     32  C   UNL A   1      38.853  29.792  29.958  1.00  0.00     0.074 A 
ATOM     33  C   UNL A   1      39.705  31.713  31.158  1.00  0.00     0.049 A 
ATOM     34  N   UNL A   1      39.806  29.004  30.334  1.00  0.00    -0.248 NA
ATOM     35  C   UNL A   1      37.989  29.192  28.940  1.00  0.00     0.031 C 
ATOM     36  C   UNL A   1      41.113  31.360  30.968  1.00  0.00     0.029 A 
ATOM     37  N   UNL A   1      39.749  32.677  32.156  1.00  0.00    -0.354 N 
ATOM     38  C   UNL A   1      39.933  28.059  29.350  1.00  0.00     0.074 A 
ATOM     39  C   UNL A   1      38.681  28.086  28.640  1.00  0.00     0.031 C 
ATOM     40  C   UNL A   1      41.855  31.942  31.917  1.00  0.00     0.029 A 
ATOM     41  C   UNL A   1      40.951  32.562  32.860  1.00  0.00     0.049 A 
ATOM     42  H   UNL A   1      39.043  33.339  32.338  1.00  0.00     0.167 HD
ATOM     43  C   UNL A   1      41.155  27.506  29.124  1.00  0.00     0.034 A 
ATOM     44  C   UNL A   1      40.980  32.453  34.214  1.00  0.00     0.034 A 
ATOM     45  C   UNL A   1      42.134  27.841  30.174  1.00  0.00     0.049 A 
ATOM     46  C   UNL A   1      41.613  31.163  34.672  1.00  0.00     0.074 A 
ATOM     47  C   UNL A   1      43.346  28.508  30.194  1.00  0.00     0.029 A 
ATOM     48  N   UNL A   1      41.808  27.606  31.511  1.00  0.00    -0.354 N 
ATOM     49  N   UNL A   1      42.169  30.300  33.866  1.00  0.00    -0.248 NA
ATOM     50  C   UNL A   1      41.657  30.712  36.057  1.00  0.00     0.031 C 
ATOM     51  C   UNL A   1      43.721  28.711  31.556  1.00  0.00     0.029 A 
ATOM     52  C   UNL A   1      42.764  28.126  32.371  1.00  0.00     0.049 A 
ATOM     53  H   UNL A   1      40.999  27.130  31.807  1.00  0.00     0.167 HD
ATOM     54  C   UNL A   1      42.389  29.120  34.522  1.00  0.00     0.074 A 
ATOM     55  C   UNL A   1      42.186  29.484  35.917  1.00  0.00     0.031 C 
ATOM     56  C   UNL A   1      42.614  27.959  33.824  1.00  0.00     0.034 A 
BRANCH  43  57
ATOM     57  C   UNL A   1      41.528  26.754  27.858  1.00  0.00     0.023 A 
ATOM     58  C   UNL A   1      41.819  27.522  26.711  1.00  0.00     0.012 A 
ATOM     59  C   UNL A   1      41.545  25.345  27.688  1.00  0.00     0.148 A 
ATOM     60  C   UNL A   1      42.133  26.933  25.479  1.00  0.00     0.002 A 
ATOM     61  C   UNL A   1      41.956  24.760  26.486  1.00  0.00     0.091 A 
ATOM     62  F   UNL A   1      41.060  24.546  28.645  1.00  0.00    -0.205 F 
ATOM     63  C   UNL A   1      42.234  25.552  25.372  1.00  0.00     0.022 A 
BRANCH  61  64
ATOM     64  S   UNL A   1      42.207  22.981  26.325  1.00  0.00     0.127 S 
ATOM     65  O   UNL A   1      42.793  22.868  24.989  1.00  0.00    -0.237 OA
ATOM     66  O   UNL A   1      43.135  22.689  27.419  1.00  0.00    -0.237 OA
ATOM     67  O   UNL A   1      40.890  22.375  26.486  1.00  0.00    -0.744 OA
ENDBRANCH  61  64
ENDBRANCH  43  57
BRANCH  44  68
ATOM     68  C   UNL A   1      39.897  33.237  34.877  1.00  0.00     0.023 A 
ATOM     69  C   UNL A   1      38.622  32.621  34.914  1.00  0.00     0.012 A 
ATOM     70  C   UNL A   1      40.187  34.252  35.811  1.00  0.00     0.148 A 
ATOM     71  C   UNL A   1      37.693  32.938  35.910  1.00  0.00     0.002 A 
ATOM     72  C   UNL A   1      39.273  34.525  36.831  1.00  0.00     0.091 A 
ATOM     73  F   UNL A   1      41.378  34.859  35.745  1.00  0.00    -0.205 F 
ATOM     74  C   UNL A   1      38.034  33.863  36.886  1.00  0.00     0.022 A 
BRANCH  72  75
ATOM     75  S   UNL A   1      39.677  35.565  38.245  1.00  0.00     0.127 S 
ATOM     76  O   UNL A   1      38.602  35.226  39.175  1.00  0.00    -0.237 OA
ATOM     77  O   UNL A   1      40.997  35.057  38.623  1.00  0.00    -0.237 OA
ATOM     78  O   UNL A   1      39.678  36.931  37.746  1.00  0.00    -0.744 OA
ENDBRANCH  72  75
ENDBRANCH  44  68
BRANCH  56  79
ATOM     79  C   UNL A   1      42.651  26.543  34.408  1.00  0.00     0.023 A 
ATOM     80  C   UNL A   1      41.615  26.003  35.193  1.00  0.00     0.012 A 
ATOM     81  C   UNL A   1      43.719  25.652  34.108  1.00  0.00     0.148 A 
ATOM     82  C   UNL A   1      41.629  24.684  35.664  1.00  0.00     0.002 A 
ATOM     83  C   UNL A   1      43.684  24.311  34.491  1.00  0.00     0.091 A 
ATOM     84  F   UNL A   1      44.815  26.098  33.478  1.00  0.00    -0.205 F 
ATOM     85  C   UNL A   1      42.650  23.828  35.291  1.00  0.00     0.022 A 
BRANCH  83  86
ATOM     86  S   UNL A   1      44.890  23.132  33.867  1.00  0.00     0.127 S 
ATOM     87  O   UNL A   1      46.129  23.624  34.464  1.00  0.00    -0.237 OA
ATOM     88  O   UNL A   1      44.407  21.867  34.424  1.00  0.00    -0.237 OA
ATOM     89  O   UNL A   1      44.791  23.219  32.417  1.00  0.00    -0.744 OA
ENDBRANCH  83  86
ENDBRANCH  56  79
ENDBRANCH  30  31
ENDBRANCH  23  25
ENDBRANCH  22  23
ENDBRANCH  21  22
ENDBRANCH   1  21
TORSDOF 18
ENDMDL
MODEL 3
REMARK VINA RESULT:     -11.2      1.745      2.283
REMARK SMILES Cc1ccccc1-n1nc(Cl)c(C(=O)OCCOCCOC(=O)c2ccc(-c3c4nc(c(-c5cccc(S(=O)(=O)[O-])c5F)c5ccc([nH]5)c(-c5cccc(S(=O)(=O)[O-])c5F)c5nc(c(-c6cccc(S(=O)(=O)[O-])c6F)c6ccc3[nH]6)C=C5)C=C4)cc2)n1
REMARK SMILES IDX 19 1 18 2 17 3 16 4 15 5 13 6 14 7 12 8 8 9 9 10 87 11 10 12
REMARK SMILES IDX 11 13 7 14 1 15 2 16 3 17 4 18 6 19 5 20 20 21 21 22 22 23
REMARK SMILES IDX 23 24 24 25 25 26 86 27 26 28 85 29 27 30 28 31 29 32 79 33
REMARK SMILES IDX 30 34 84 35 78 36 80 37 31 38 83 39 77 40 76 41 32 43 64 44
REMARK SMILES IDX 44 45 63 46 45 47 48 48 62 49 81 50 46 51 47 52 61 54 82 55
REMARK SMILES IDX 49 56 33 57 34 58 42 59 35 60 37 61 43 62 36 63 38 64 39 65
REMARK SMILES IDX 40 66 41 67 65 68 66 69 74 70 67 71 69 72 75 73 68 74 70 75
REMARK SMILES IDX 71 76 72 77 73 78 50 79 51 80 59 81 52 82 54 83 60 84 53 85
REMARK SMILES IDX 55 86 56 87 57 88 58 89
REMARK H PARENT 80 42 48 53
REMARK Flexibility Score: inf
ROOT
ATOM      1  C   UNL A   1      37.070  22.531  24.910  1.00  0.00     0.202 C 
ENDROOT
BRANCH   1   2
ATOM      2  O   UNL A   1      35.801  22.175  25.416  1.00  0.00    -0.374 OA
BRANCH   2   3
ATOM      3  C   UNL A   1      35.396  20.825  25.269  1.00  0.00     0.202 C 
BRANCH   3   4
ATOM      4  C   UNL A   1      33.885  20.841  25.199  1.00  0.00     0.261 C 
BRANCH   4   5
ATOM      5  O   UNL A   1      33.330  21.860  26.051  1.00  0.00    -0.458 OA
BRANCH   5   6
ATOM      6  C   UNL A   1      32.368  22.730  25.587  1.00  0.00     0.362 C 
ATOM      7  O   UNL A   1      31.170  22.563  25.581  1.00  0.00    -0.244 OA
BRANCH   6   8
ATOM      8  C   UNL A   1      33.013  23.983  25.240  1.00  0.00     0.209 A 
ATOM      9  N   UNL A   1      33.332  26.054  25.275  1.00  0.00    -0.149 N 
ATOM     10  N   UNL A   1      33.669  25.738  23.999  1.00  0.00    -0.135 NA
ATOM     11  N   UNL A   1      33.013  25.027  26.081  1.00  0.00    -0.139 NA
ATOM     12  C   UNL A   1      33.539  24.404  24.010  1.00  0.00     0.186 A 
ATOM     13  Cl  UNL A   1      33.793  23.506  22.599  1.00  0.00    -0.057 Cl
BRANCH   9  14
ATOM     14  C   UNL A   1      33.002  27.367  25.697  1.00  0.00     0.089 A 
ATOM     15  C   UNL A   1      30.671  27.267  24.585  1.00  0.00     0.047 C 
ATOM     16  C   UNL A   1      31.806  27.987  25.272  1.00  0.00    -0.023 A 
ATOM     17  C   UNL A   1      31.651  29.362  25.506  1.00  0.00     0.006 A 
ATOM     18  C   UNL A   1      32.643  30.095  26.159  1.00  0.00     0.000 A 
ATOM     19  C   UNL A   1      33.973  28.094  26.405  1.00  0.00     0.030 A 
ATOM     20  C   UNL A   1      33.796  29.461  26.618  1.00  0.00     0.002 A 
ENDBRANCH   9  14
ENDBRANCH   6   8
ENDBRANCH   5   6
ENDBRANCH   4   5
ENDBRANCH   3   4
ENDBRANCH   2   3
ENDBRANCH   1   2
BRANCH   1  21
ATOM     21  C   UNL A   1      38.176  21.560  25.326  1.00  0.00     0.261 C 
BRANCH  21  22
ATOM     22  O   UNL A   1      38.805  22.038  26.529  1.00  0.00    -0.460 OA
BRANCH  22  23
ATOM     23  C   UNL A   1      39.991  22.679  26.335  1.00  0.00     0.338 C 
ATOM     24  O   UNL A   1      41.042  22.114  26.077  1.00  0.00    -0.246 OA
BRANCH  23  25
ATOM     25  C   UNL A   1      39.855  24.117  26.714  1.00  0.00     0.060 A 
ATOM     26  C   UNL A   1      40.475  25.111  25.936  1.00  0.00     0.016 A 
ATOM     27  C   UNL A   1      39.338  24.444  27.968  1.00  0.00     0.016 A 
ATOM     28  C   UNL A   1      40.695  26.394  26.466  1.00  0.00     0.010 A 
ATOM     29  C   UNL A   1      39.609  25.688  28.507  1.00  0.00     0.010 A 
ATOM     30  C   UNL A   1      40.320  26.660  27.779  1.00  0.00    -0.014 A 
BRANCH  30  31
ATOM     31  C   UNL A   1      40.654  27.862  28.547  1.00  0.00     0.031 A 
ATOM     32  C   UNL A   1      39.729  29.020  28.526  1.00  0.00     0.074 A 
ATOM     33  C   UNL A   1      41.547  27.807  29.564  1.00  0.00     0.049 A 
ATOM     34  N   UNL A   1      39.964  30.122  29.160  1.00  0.00    -0.248 NA
ATOM     35  C   UNL A   1      38.480  29.059  27.765  1.00  0.00     0.031 C 
ATOM     36  C   UNL A   1      41.434  28.496  30.850  1.00  0.00     0.029 A 
ATOM     37  N   UNL A   1      42.787  27.186  29.641  1.00  0.00    -0.354 N 
ATOM     38  C   UNL A   1      38.764  30.778  29.247  1.00  0.00     0.074 A 
ATOM     39  C   UNL A   1      37.948  30.204  28.209  1.00  0.00     0.031 C 
ATOM     40  C   UNL A   1      42.598  28.419  31.506  1.00  0.00     0.029 A 
ATOM     41  C   UNL A   1      43.565  27.824  30.611  1.00  0.00     0.049 A 
ATOM     42  H   UNL A   1      43.072  26.416  29.098  1.00  0.00     0.167 HD
ATOM     43  C   UNL A   1      38.534  31.587  30.315  1.00  0.00     0.034 A 
ATOM     44  C   UNL A   1      44.817  28.280  30.339  1.00  0.00     0.034 A 
ATOM     45  C   UNL A   1      39.749  31.834  31.114  1.00  0.00     0.049 A 
ATOM     46  C   UNL A   1      44.938  29.770  30.530  1.00  0.00     0.074 A 
ATOM     47  C   UNL A   1      40.117  31.580  32.423  1.00  0.00     0.029 A 
ATOM     48  N   UNL A   1      40.902  32.297  30.478  1.00  0.00    -0.354 N 
ATOM     49  N   UNL A   1      43.985  30.522  31.008  1.00  0.00    -0.248 NA
ATOM     50  C   UNL A   1      46.118  30.552  30.182  1.00  0.00     0.031 C 
ATOM     51  C   UNL A   1      41.513  31.851  32.554  1.00  0.00     0.029 A 
ATOM     52  C   UNL A   1      41.989  32.318  31.339  1.00  0.00     0.049 A 
ATOM     53  H   UNL A   1      40.938  32.574  29.534  1.00  0.00     0.167 HD
ATOM     54  C   UNL A   1      44.276  31.841  30.794  1.00  0.00     0.074 A 
ATOM     55  C   UNL A   1      45.680  31.803  30.410  1.00  0.00     0.031 C 
ATOM     56  C   UNL A   1      43.294  32.799  30.863  1.00  0.00     0.034 A 
BRANCH  43  57
ATOM     57  C   UNL A   1      37.156  32.066  30.739  1.00  0.00     0.023 A 
ATOM     58  C   UNL A   1      36.713  31.703  32.028  1.00  0.00     0.012 A 
ATOM     59  C   UNL A   1      36.232  32.788  29.940  1.00  0.00     0.148 A 
ATOM     60  C   UNL A   1      35.444  32.053  32.507  1.00  0.00     0.002 A 
ATOM     61  C   UNL A   1      35.006  33.222  30.455  1.00  0.00     0.091 A 
ATOM     62  F   UNL A   1      36.469  32.973  28.637  1.00  0.00    -0.205 F 
ATOM     63  C   UNL A   1      34.600  32.840  31.734  1.00  0.00     0.022 A 
BRANCH  61  64
ATOM     64  S   UNL A   1      33.922  34.334  29.537  1.00  0.00     0.127 S 
ATOM     65  O   UNL A   1      33.201  33.413  28.658  1.00  0.00    -0.237 OA
ATOM     66  O   UNL A   1      33.102  34.926  30.595  1.00  0.00    -0.237 OA
ATOM     67  O   UNL A   1      34.801  35.284  28.865  1.00  0.00    -0.744 OA
ENDBRANCH  61  64
ENDBRANCH  43  57
BRANCH  44  68
ATOM     68  C   UNL A   1      45.547  27.409  29.371  1.00  0.00     0.023 A 
ATOM     69  C   UNL A   1      45.911  26.125  29.848  1.00  0.00     0.012 A 
ATOM     70  C   UNL A   1      45.458  27.615  27.981  1.00  0.00     0.148 A 
ATOM     71  C   UNL A   1      46.090  25.051  28.972  1.00  0.00     0.002 A 
ATOM     72  C   UNL A   1      45.590  26.526  27.117  1.00  0.00     0.091 A 
ATOM     73  F   UNL A   1      45.156  28.841  27.535  1.00  0.00    -0.205 F 
ATOM     74  C   UNL A   1      45.895  25.246  27.611  1.00  0.00     0.022 A 
BRANCH  72  75
ATOM     75  S   UNL A   1      45.184  26.620  25.365  1.00  0.00     0.127 S 
ATOM     76  O   UNL A   1      46.240  25.800  24.775  1.00  0.00    -0.237 OA
ATOM     77  O   UNL A   1      43.850  26.016  25.335  1.00  0.00    -0.237 OA
ATOM     78  O   UNL A   1      45.212  28.033  25.026  1.00  0.00    -0.744 OA
ENDBRANCH  72  75
ENDBRANCH  44  68
BRANCH  56  79
ATOM     79  C   UNL A   1      43.425  34.263  30.432  1.00  0.00     0.023 A 
ATOM     80  C   UNL A   1      43.595  35.324  31.341  1.00  0.00     0.012 A 
ATOM     81  C   UNL A   1      43.468  34.623  29.056  1.00  0.00     0.148 A 
ATOM     82  C   UNL A   1      43.781  36.651  30.930  1.00  0.00     0.002 A 
ATOM     83  C   UNL A   1      43.754  35.926  28.648  1.00  0.00     0.091 A 
ATOM     84  F   UNL A   1      43.190  33.714  28.111  1.00  0.00    -0.205 F 
ATOM     85  C   UNL A   1      43.889  36.949  29.583  1.00  0.00     0.022 A 
BRANCH  83  86
ATOM     86  S   UNL A   1      44.088  36.309  26.923  1.00  0.00     0.127 S 
ATOM     87  O   UNL A   1      44.964  35.207  26.533  1.00  0.00    -0.237 OA
ATOM     88  O   UNL A   1      42.751  36.264  26.328  1.00  0.00    -0.237 OA
ATOM     89  O   UNL A   1      44.688  37.636  26.938  1.00  0.00    -0.744 OA
ENDBRANCH  83  86
ENDBRANCH  56  79
ENDBRANCH  30  31
ENDBRANCH  23  25
ENDBRANCH  22  23
ENDBRANCH  21  22
ENDBRANCH   1  21
TORSDOF 18
ENDMDL
