MODEL 1
REMARK VINA RESULT:     -11.3      0.000      0.000
REMARK SMILES Cc1ccc(Cl)c(Nc2ccccc2C(=O)NCC(=O)OCCOCCOC(=O)c2ccc(-c3c4nc(c(-c5cccc(S(=O)(=O)[O-])c5F)c5ccc([nH]5)c(-c5cccc(S(=O)(=O)[O-])c5F)c5nc(c(-c6cccc(S(=O)(=O)[O-])c6F)c6ccc3[nH]6)C=C5)C=C4)cc2)c1Cl
REMARK SMILES IDX 23 1 22 2 21 3 19 4 20 5 18 6 17 7 15 8 16 9 14 11 9 12
REMARK SMILES IDX 10 13 11 14 13 15 12 16 8 17 7 19 1 20 2 21 3 22 93 23 4 24
REMARK SMILES IDX 94 25 5 26 6 27 24 28 25 29 26 30 27 31 28 32 29 33 30 34
REMARK SMILES IDX 31 35 92 36 32 37 91 38 33 39 34 40 35 41 85 42 36 43 90 44
REMARK SMILES IDX 84 45 86 46 37 47 89 48 83 49 82 50 38 52 70 53 50 54 69 55
REMARK SMILES IDX 51 56 54 57 68 58 87 59 52 60 53 61 67 63 88 64 55 65 39 66
REMARK SMILES IDX 40 67 48 68 41 69 43 70 49 71 42 72 44 73 45 74 46 75 47 76
REMARK SMILES IDX 71 77 72 78 80 79 73 80 75 81 81 82 74 83 76 84 77 85 78 86
REMARK SMILES IDX 79 87 56 88 57 89 65 90 58 91 60 92 66 93 59 94 61 95 62 96
REMARK SMILES IDX 63 97 64 98
REMARK H PARENT 17 10 8 18 86 51 54 62
REMARK Flexibility Score: inf
ROOT
ATOM      1  C   UNL A   1      34.742  21.101  26.446  1.00  0.00     0.202 C 
ENDROOT
BRANCH   1   2
ATOM      2  C   UNL A   1      33.208  21.040  26.356  1.00  0.00     0.261 C 
BRANCH   2   3
ATOM      3  O   UNL A   1      32.680  22.173  25.650  1.00  0.00    -0.462 OA
BRANCH   3   4
ATOM      4  C   UNL A   1      31.464  22.619  26.071  1.00  0.00     0.325 C 
ATOM      5  O   UNL A   1      30.446  21.941  26.135  1.00  0.00    -0.250 OA
BRANCH   4   6
ATOM      6  C   UNL A   1      31.603  23.997  26.697  1.00  0.00     0.239 C 
BRANCH   6   7
ATOM      7  N   UNL A   1      30.679  25.048  26.378  1.00  0.00    -0.341 N 
ATOM      8  C   UNL A   1      31.029  26.054  25.506  1.00  0.00     0.253 C 
ATOM      9  O   UNL A   1      30.400  26.183  24.460  1.00  0.00    -0.269 OA
ATOM     10  H   UNL A   1      29.783  25.049  26.785  1.00  0.00     0.164 HD
BRANCH   8  11
ATOM     11  C   UNL A   1      31.893  27.152  26.013  1.00  0.00     0.063 A 
ATOM     12  C   UNL A   1      33.279  27.337  25.837  1.00  0.00     0.051 A 
ATOM     13  C   UNL A   1      33.881  28.381  26.578  1.00  0.00     0.027 A 
ATOM     14  C   UNL A   1      33.148  29.237  27.406  1.00  0.00     0.002 A 
ATOM     15  C   UNL A   1      31.157  28.042  26.830  1.00  0.00     0.016 A 
ATOM     16  C   UNL A   1      31.778  29.081  27.515  1.00  0.00     0.001 A 
BRANCH  12  17
ATOM     17  N   UNL A   1      34.155  26.675  24.948  1.00  0.00    -0.352 N 
ATOM     18  H   UNL A   1      35.100  26.820  25.183  1.00  0.00     0.167 HD
BRANCH  17  19
ATOM     19  C   UNL A   1      34.011  25.855  23.801  1.00  0.00     0.077 A 
ATOM     20  C   UNL A   1      32.066  25.580  20.501  1.00  0.00     0.046 C 
ATOM     21  C   UNL A   1      32.907  25.231  21.699  1.00  0.00    -0.030 A 
ATOM     22  C   UNL A   1      33.284  23.895  21.893  1.00  0.00     0.006 A 
ATOM     23  C   UNL A   1      33.310  26.214  22.633  1.00  0.00     0.069 A 
ATOM     24  C   UNL A   1      34.103  23.546  22.959  1.00  0.00     0.023 A 
ATOM     25  Cl  UNL A   1      33.062  27.888  22.235  1.00  0.00    -0.082 Cl
ATOM     26  C   UNL A   1      34.479  24.519  23.885  1.00  0.00     0.066 A 
ATOM     27  Cl  UNL A   1      35.531  24.024  25.172  1.00  0.00    -0.082 Cl
ENDBRANCH  17  19
ENDBRANCH  12  17
ENDBRANCH   8  11
ENDBRANCH   6   7
ENDBRANCH   4   6
ENDBRANCH   3   4
ENDBRANCH   2   3
ENDBRANCH   1   2
BRANCH   1  28
ATOM     28  O   UNL A   1      35.495  20.923  25.247  1.00  0.00    -0.374 OA
BRANCH  28  29
ATOM     29  C   UNL A   1      36.096  19.655  25.000  1.00  0.00     0.202 C 
BRANCH  29  30
ATOM     30  C   UNL A   1      37.635  19.550  25.017  1.00  0.00     0.261 C 
BRANCH  30  31
ATOM     31  O   UNL A   1      38.293  20.788  25.349  1.00  0.00    -0.460 OA
BRANCH  31  32
ATOM     32  C   UNL A   1      39.431  20.654  26.073  1.00  0.00     0.338 C 
ATOM     33  O   UNL A   1      40.155  19.667  26.125  1.00  0.00    -0.246 OA
BRANCH  32  34
ATOM     34  C   UNL A   1      39.829  21.941  26.670  1.00  0.00     0.060 A 
ATOM     35  C   UNL A   1      39.252  23.104  26.143  1.00  0.00     0.016 A 
ATOM     36  C   UNL A   1      40.851  22.026  27.617  1.00  0.00     0.016 A 
ATOM     37  C   UNL A   1      39.719  24.356  26.532  1.00  0.00     0.010 A 
ATOM     38  C   UNL A   1      41.333  23.288  27.993  1.00  0.00     0.010 A 
ATOM     39  C   UNL A   1      40.795  24.455  27.421  1.00  0.00    -0.014 A 
BRANCH  39  40
ATOM     40  C   UNL A   1      41.441  25.778  27.598  1.00  0.00     0.031 A 
ATOM     41  C   UNL A   1      40.697  26.867  28.323  1.00  0.00     0.074 A 
ATOM     42  C   UNL A   1      42.702  25.987  27.181  1.00  0.00     0.049 A 
ATOM     43  N   UNL A   1      41.105  28.059  28.672  1.00  0.00    -0.248 NA
ATOM     44  C   UNL A   1      39.309  26.567  28.711  1.00  0.00     0.031 C 
ATOM     45  C   UNL A   1      43.525  25.014  26.467  1.00  0.00     0.029 A 
ATOM     46  N   UNL A   1      43.505  27.094  27.293  1.00  0.00    -0.354 N 
ATOM     47  C   UNL A   1      40.027  28.656  29.312  1.00  0.00     0.074 A 
ATOM     48  C   UNL A   1      38.938  27.703  29.283  1.00  0.00     0.031 C 
ATOM     49  C   UNL A   1      44.713  25.575  26.183  1.00  0.00     0.029 A 
ATOM     50  C   UNL A   1      44.730  26.947  26.689  1.00  0.00     0.049 A 
ATOM     51  H   UNL A   1      43.229  27.914  27.761  1.00  0.00     0.167 HD
ATOM     52  C   UNL A   1      39.953  29.877  29.895  1.00  0.00     0.034 A 
ATOM     53  C   UNL A   1      45.746  27.823  26.554  1.00  0.00     0.034 A 
ATOM     54  C   UNL A   1      41.036  30.823  29.928  1.00  0.00     0.049 A 
ATOM     55  C   UNL A   1      45.640  29.179  27.201  1.00  0.00     0.074 A 
ATOM     56  C   UNL A   1      41.069  32.076  30.514  1.00  0.00     0.029 A 
ATOM     57  N   UNL A   1      42.276  30.625  29.340  1.00  0.00    -0.354 N 
ATOM     58  N   UNL A   1      44.660  29.681  27.912  1.00  0.00    -0.248 NA
ATOM     59  C   UNL A   1      46.800  30.072  27.065  1.00  0.00     0.031 C 
ATOM     60  C   UNL A   1      42.326  32.642  30.265  1.00  0.00     0.029 A 
ATOM     61  C   UNL A   1      43.081  31.733  29.541  1.00  0.00     0.049 A 
ATOM     62  H   UNL A   1      42.545  29.815  28.849  1.00  0.00     0.167 HD
ATOM     63  C   UNL A   1      45.092  30.935  28.331  1.00  0.00     0.074 A 
ATOM     64  C   UNL A   1      46.436  31.104  27.816  1.00  0.00     0.031 C 
ATOM     65  C   UNL A   1      44.433  31.871  29.059  1.00  0.00     0.034 A 
BRANCH  52  66
ATOM     66  C   UNL A   1      38.658  30.239  30.573  1.00  0.00     0.023 A 
ATOM     67  C   UNL A   1      38.385  29.731  31.860  1.00  0.00     0.012 A 
ATOM     68  C   UNL A   1      37.724  31.093  29.957  1.00  0.00     0.148 A 
ATOM     69  C   UNL A   1      37.188  30.036  32.507  1.00  0.00     0.002 A 
ATOM     70  C   UNL A   1      36.549  31.425  30.624  1.00  0.00     0.091 A 
ATOM     71  F   UNL A   1      37.985  31.544  28.721  1.00  0.00    -0.205 F 
ATOM     72  C   UNL A   1      36.275  30.889  31.892  1.00  0.00     0.022 A 
BRANCH  70  73
ATOM     73  S   UNL A   1      35.346  32.570  29.941  1.00  0.00     0.127 S 
ATOM     74  O   UNL A   1      36.182  33.731  29.638  1.00  0.00    -0.237 OA
ATOM     75  O   UNL A   1      34.860  31.847  28.766  1.00  0.00    -0.237 OA
ATOM     76  O   UNL A   1      34.349  32.767  30.983  1.00  0.00    -0.744 OA
ENDBRANCH  70  73
ENDBRANCH  52  66
BRANCH  53  77
ATOM     77  C   UNL A   1      46.972  27.415  25.812  1.00  0.00     0.023 A 
ATOM     78  C   UNL A   1      47.952  26.634  26.451  1.00  0.00     0.012 A 
ATOM     79  C   UNL A   1      47.147  27.767  24.459  1.00  0.00     0.148 A 
ATOM     80  C   UNL A   1      49.095  26.225  25.762  1.00  0.00     0.002 A 
ATOM     81  C   UNL A   1      48.260  27.310  23.763  1.00  0.00     0.091 A 
ATOM     82  F   UNL A   1      46.210  28.528  23.874  1.00  0.00    -0.205 F 
ATOM     83  C   UNL A   1      49.243  26.553  24.417  1.00  0.00     0.022 A 
BRANCH  81  84
ATOM     84  S   UNL A   1      48.466  27.571  21.998  1.00  0.00     0.127 S 
ATOM     85  O   UNL A   1      49.664  28.405  21.956  1.00  0.00    -0.237 OA
ATOM     86  O   UNL A   1      48.650  26.203  21.511  1.00  0.00    -0.237 OA
ATOM     87  O   UNL A   1      47.236  28.207  21.547  1.00  0.00    -0.744 OA
ENDBRANCH  81  84
ENDBRANCH  53  77
BRANCH  65  88
ATOM     88  C   UNL A   1      45.158  33.158  29.359  1.00  0.00     0.023 A 
ATOM     89  C   UNL A   1      46.038  33.223  30.458  1.00  0.00     0.012 A 
ATOM     90  C   UNL A   1      45.012  34.284  28.524  1.00  0.00     0.148 A 
ATOM     91  C   UNL A   1      46.731  34.400  30.743  1.00  0.00     0.002 A 
ATOM     92  C   UNL A   1      45.742  35.438  28.788  1.00  0.00     0.091 A 
ATOM     93  F   UNL A   1      44.155  34.214  27.495  1.00  0.00    -0.205 F 
ATOM     94  C   UNL A   1      46.593  35.502  29.904  1.00  0.00     0.022 A 
BRANCH  92  95
ATOM     95  S   UNL A   1      45.686  36.868  27.701  1.00  0.00     0.127 S 
ATOM     96  O   UNL A   1      46.193  36.312  26.449  1.00  0.00    -0.237 OA
ATOM     97  O   UNL A   1      44.261  37.201  27.688  1.00  0.00    -0.237 OA
ATOM     98  O   UNL A   1      46.528  37.875  28.333  1.00  0.00    -0.744 OA
ENDBRANCH  92  95
ENDBRANCH  65  88
ENDBRANCH  39  40
ENDBRANCH  32  34
ENDBRANCH  31  32
ENDBRANCH  30  31
ENDBRANCH  29  30
ENDBRANCH  28  29
ENDBRANCH   1  28
TORSDOF 21
ENDMDL
MODEL 2
REMARK VINA RESULT:     -10.8      2.202      8.021
REMARK SMILES Cc1ccc(Cl)c(Nc2ccccc2C(=O)NCC(=O)OCCOCCOC(=O)c2ccc(-c3c4nc(c(-c5cccc(S(=O)(=O)[O-])c5F)c5ccc([nH]5)c(-c5cccc(S(=O)(=O)[O-])c5F)c5nc(c(-c6cccc(S(=O)(=O)[O-])c6F)c6ccc3[nH]6)C=C5)C=C4)cc2)c1Cl
REMARK SMILES IDX 23 1 22 2 21 3 19 4 20 5 18 6 17 7 15 8 16 9 14 11 9 12
REMARK SMILES IDX 10 13 11 14 13 15 12 16 8 17 7 19 1 20 2 21 3 22 93 23 4 24
REMARK SMILES IDX 94 25 5 26 6 27 24 28 25 29 26 30 27 31 28 32 29 33 30 34
REMARK SMILES IDX 31 35 92 36 32 37 91 38 33 39 34 40 35 41 85 42 36 43 90 44
REMARK SMILES IDX 84 45 86 46 37 47 89 48 83 49 82 50 38 52 70 53 50 54 69 55
REMARK SMILES IDX 51 56 54 57 68 58 87 59 52 60 53 61 67 63 88 64 55 65 39 66
REMARK SMILES IDX 40 67 48 68 41 69 43 70 49 71 42 72 44 73 45 74 46 75 47 76
REMARK SMILES IDX 71 77 72 78 80 79 73 80 75 81 81 82 74 83 76 84 77 85 78 86
REMARK SMILES IDX 79 87 56 88 57 89 65 90 58 91 60 92 66 93 59 94 61 95 62 96
REMARK SMILES IDX 63 97 64 98
REMARK H PARENT 17 10 8 18 86 51 54 62
REMARK Flexibility Score: inf
ROOT
ATOM      1  C   UNL A   1      35.211  23.132  23.213  1.00  0.00     0.202 C 
ENDROOT
BRANCH   1   2
ATOM      2  C   UNL A   1      33.932  23.978  23.306  1.00  0.00     0.261 C 
BRANCH   2   3
ATOM      3  O   UNL A   1      33.448  24.341  22.003  1.00  0.00    -0.462 OA
BRANCH   3   4
ATOM      4  C   UNL A   1      32.934  25.596  21.889  1.00  0.00     0.325 C 
ATOM      5  O   UNL A   1      33.381  26.480  21.170  1.00  0.00    -0.250 OA
BRANCH   4   6
ATOM      6  C   UNL A   1      31.578  25.668  22.574  1.00  0.00     0.239 C 
BRANCH   6   7
ATOM      7  N   UNL A   1      31.426  26.329  23.838  1.00  0.00    -0.341 N 
ATOM      8  C   UNL A   1      30.177  26.652  24.319  1.00  0.00     0.253 C 
ATOM      9  O   UNL A   1      29.793  26.144  25.370  1.00  0.00    -0.269 OA
ATOM     10  H   UNL A   1      32.223  26.554  24.369  1.00  0.00     0.164 HD
BRANCH   8  11
ATOM     11  C   UNL A   1      29.499  27.852  23.763  1.00  0.00     0.063 A 
ATOM     12  C   UNL A   1      29.987  29.170  23.656  1.00  0.00     0.051 A 
ATOM     13  C   UNL A   1      29.063  30.159  23.245  1.00  0.00     0.027 A 
ATOM     14  C   UNL A   1      27.741  29.859  22.901  1.00  0.00     0.002 A 
ATOM     15  C   UNL A   1      28.169  27.555  23.384  1.00  0.00     0.016 A 
ATOM     16  C   UNL A   1      27.299  28.549  22.949  1.00  0.00     0.001 A 
BRANCH  12  17
ATOM     17  N   UNL A   1      31.309  29.641  23.821  1.00  0.00    -0.352 N 
ATOM     18  H   UNL A   1      31.738  29.848  22.959  1.00  0.00     0.167 HD
BRANCH  17  19
ATOM     19  C   UNL A   1      32.171  29.889  24.918  1.00  0.00     0.077 A 
ATOM     20  C   UNL A   1      35.112  28.366  26.861  1.00  0.00     0.046 C 
ATOM     21  C   UNL A   1      33.930  29.222  26.495  1.00  0.00    -0.030 A 
ATOM     22  C   UNL A   1      33.402  30.093  27.458  1.00  0.00     0.006 A 
ATOM     23  C   UNL A   1      33.337  29.156  25.212  1.00  0.00     0.069 A 
ATOM     24  C   UNL A   1      32.346  30.935  27.137  1.00  0.00     0.023 A 
ATOM     25  Cl  UNL A   1      34.163  28.277  23.960  1.00  0.00    -0.082 Cl
ATOM     26  C   UNL A   1      31.755  30.848  25.877  1.00  0.00     0.066 A 
ATOM     27  Cl  UNL A   1      30.463  31.951  25.529  1.00  0.00    -0.082 Cl
ENDBRANCH  17  19
ENDBRANCH  12  17
ENDBRANCH   8  11
ENDBRANCH   6   7
ENDBRANCH   4   6
ENDBRANCH   3   4
ENDBRANCH   2   3
ENDBRANCH   1   2
BRANCH   1  28
ATOM     28  O   UNL A   1      35.230  21.865  23.870  1.00  0.00    -0.374 OA
BRANCH  28  29
ATOM     29  C   UNL A   1      36.029  21.713  25.039  1.00  0.00     0.202 C 
BRANCH  29  30
ATOM     30  C   UNL A   1      37.462  21.165  24.890  1.00  0.00     0.261 C 
BRANCH  30  31
ATOM     31  O   UNL A   1      38.109  20.891  26.147  1.00  0.00    -0.460 OA
BRANCH  31  32
ATOM     32  C   UNL A   1      39.449  21.095  26.158  1.00  0.00     0.338 C 
ATOM     33  O   UNL A   1      40.292  20.463  25.532  1.00  0.00    -0.246 OA
BRANCH  32  34
ATOM     34  C   UNL A   1      39.787  22.331  26.886  1.00  0.00     0.060 A 
ATOM     35  C   UNL A   1      39.202  23.524  26.441  1.00  0.00     0.016 A 
ATOM     36  C   UNL A   1      40.766  22.351  27.881  1.00  0.00     0.016 A 
ATOM     37  C   UNL A   1      39.619  24.745  26.962  1.00  0.00     0.010 A 
ATOM     38  C   UNL A   1      41.197  23.584  28.391  1.00  0.00     0.010 A 
ATOM     39  C   UNL A   1      40.653  24.786  27.904  1.00  0.00    -0.014 A 
BRANCH  39  40
ATOM     40  C   UNL A   1      41.257  26.102  28.227  1.00  0.00     0.031 A 
ATOM     41  C   UNL A   1      42.638  26.419  27.720  1.00  0.00     0.074 A 
ATOM     42  C   UNL A   1      40.558  27.030  28.903  1.00  0.00     0.049 A 
ATOM     43  N   UNL A   1      43.314  27.535  27.802  1.00  0.00    -0.248 NA
ATOM     44  C   UNL A   1      43.348  25.334  27.023  1.00  0.00     0.031 C 
ATOM     45  C   UNL A   1      39.214  26.843  29.445  1.00  0.00     0.029 A 
ATOM     46  N   UNL A   1      40.889  28.315  29.254  1.00  0.00    -0.354 N 
ATOM     47  C   UNL A   1      44.530  27.289  27.177  1.00  0.00     0.074 A 
ATOM     48  C   UNL A   1      44.508  25.909  26.741  1.00  0.00     0.031 C 
ATOM     49  C   UNL A   1      38.843  27.966  30.083  1.00  0.00     0.029 A 
ATOM     50  C   UNL A   1      39.924  28.947  29.998  1.00  0.00     0.049 A 
ATOM     51  H   UNL A   1      41.738  28.741  28.995  1.00  0.00     0.167 HD
ATOM     52  C   UNL A   1      45.563  28.138  26.961  1.00  0.00     0.034 A 
ATOM     53  C   UNL A   1      39.917  30.175  30.553  1.00  0.00     0.034 A 
ATOM     54  C   UNL A   1      45.584  29.511  27.389  1.00  0.00     0.049 A 
ATOM     55  C   UNL A   1      41.080  31.100  30.310  1.00  0.00     0.074 A 
ATOM     56  C   UNL A   1      46.573  30.459  27.198  1.00  0.00     0.029 A 
ATOM     57  N   UNL A   1      44.572  30.129  28.107  1.00  0.00    -0.354 N 
ATOM     58  N   UNL A   1      42.168  30.893  29.608  1.00  0.00    -0.248 NA
ATOM     59  C   UNL A   1      40.994  32.446  30.897  1.00  0.00     0.031 C 
ATOM     60  C   UNL A   1      46.165  31.647  27.816  1.00  0.00     0.029 A 
ATOM     61  C   UNL A   1      44.913  31.444  28.374  1.00  0.00     0.049 A 
ATOM     62  H   UNL A   1      43.733  29.697  28.388  1.00  0.00     0.167 HD
ATOM     63  C   UNL A   1      42.883  32.086  29.646  1.00  0.00     0.074 A 
ATOM     64  C   UNL A   1      42.089  33.021  30.417  1.00  0.00     0.031 C 
ATOM     65  C   UNL A   1      44.094  32.377  29.107  1.00  0.00     0.034 A 
BRANCH  52  66
ATOM     66  C   UNL A   1      46.744  27.603  26.194  1.00  0.00     0.023 A 
ATOM     67  C   UNL A   1      46.806  27.790  24.798  1.00  0.00     0.012 A 
ATOM     68  C   UNL A   1      47.800  26.940  26.848  1.00  0.00     0.148 A 
ATOM     69  C   UNL A   1      47.879  27.293  24.059  1.00  0.00     0.002 A 
ATOM     70  C   UNL A   1      48.887  26.481  26.110  1.00  0.00     0.091 A 
ATOM     71  F   UNL A   1      47.712  26.744  28.172  1.00  0.00    -0.205 F 
ATOM     72  C   UNL A   1      48.922  26.647  24.717  1.00  0.00     0.022 A 
BRANCH  70  73
ATOM     73  S   UNL A   1      50.309  25.698  26.879  1.00  0.00     0.127 S 
ATOM     74  O   UNL A   1      51.239  25.606  25.755  1.00  0.00    -0.237 OA
ATOM     75  O   UNL A   1      50.685  26.673  27.902  1.00  0.00    -0.237 OA
ATOM     76  O   UNL A   1      49.827  24.428  27.404  1.00  0.00    -0.744 OA
ENDBRANCH  70  73
ENDBRANCH  52  66
BRANCH  53  77
ATOM     77  C   UNL A   1      38.739  30.611  31.355  1.00  0.00     0.023 A 
ATOM     78  C   UNL A   1      38.691  30.341  32.735  1.00  0.00     0.012 A 
ATOM     79  C   UNL A   1      37.685  31.330  30.758  1.00  0.00     0.148 A 
ATOM     80  C   UNL A   1      37.605  30.762  33.504  1.00  0.00     0.002 A 
ATOM     81  C   UNL A   1      36.634  31.795  31.539  1.00  0.00     0.091 A 
ATOM     82  F   UNL A   1      37.742  31.561  29.438  1.00  0.00    -0.205 F 
ATOM     83  C   UNL A   1      36.584  31.499  32.909  1.00  0.00     0.022 A 
BRANCH  81  84
ATOM     84  S   UNL A   1      35.346  32.863  30.884  1.00  0.00     0.127 S 
ATOM     85  O   UNL A   1      35.025  32.204  29.621  1.00  0.00    -0.237 OA
ATOM     86  O   UNL A   1      34.313  32.755  31.916  1.00  0.00    -0.237 OA
ATOM     87  O   UNL A   1      35.948  34.184  30.773  1.00  0.00    -0.744 OA
ENDBRANCH  81  84
ENDBRANCH  53  77
BRANCH  65  88
ATOM     88  C   UNL A   1      44.633  33.769  29.319  1.00  0.00     0.023 A 
ATOM     89  C   UNL A   1      45.474  34.031  30.419  1.00  0.00     0.012 A 
ATOM     90  C   UNL A   1      44.354  34.802  28.402  1.00  0.00     0.148 A 
ATOM     91  C   UNL A   1      45.997  35.308  30.625  1.00  0.00     0.002 A 
ATOM     92  C   UNL A   1      44.916  36.061  28.589  1.00  0.00     0.091 A 
ATOM     93  F   UNL A   1      43.535  34.544  27.372  1.00  0.00    -0.205 F 
ATOM     94  C   UNL A   1      45.728  36.319  29.705  1.00  0.00     0.022 A 
BRANCH  92  95
ATOM     95  S   UNL A   1      44.691  37.389  27.399  1.00  0.00     0.127 S 
ATOM     96  O   UNL A   1      45.057  38.563  28.189  1.00  0.00    -0.237 OA
ATOM     97  O   UNL A   1      45.649  37.039  26.349  1.00  0.00    -0.237 OA
ATOM     98  O   UNL A   1      43.297  37.314  26.985  1.00  0.00    -0.744 OA
ENDBRANCH  92  95
ENDBRANCH  65  88
ENDBRANCH  39  40
ENDBRANCH  32  34
ENDBRANCH  31  32
ENDBRANCH  30  31
ENDBRANCH  29  30
ENDBRANCH  28  29
ENDBRANCH   1  28
TORSDOF 21
ENDMDL
MODEL 3
REMARK VINA RESULT:     -10.6      1.466      2.660
REMARK SMILES Cc1ccc(Cl)c(Nc2ccccc2C(=O)NCC(=O)OCCOCCOC(=O)c2ccc(-c3c4nc(c(-c5cccc(S(=O)(=O)[O-])c5F)c5ccc([nH]5)c(-c5cccc(S(=O)(=O)[O-])c5F)c5nc(c(-c6cccc(S(=O)(=O)[O-])c6F)c6ccc3[nH]6)C=C5)C=C4)cc2)c1Cl
REMARK SMILES IDX 23 1 22 2 21 3 19 4 20 5 18 6 17 7 15 8 16 9 14 11 9 12
REMARK SMILES IDX 10 13 11 14 13 15 12 16 8 17 7 19 1 20 2 21 3 22 93 23 4 24
REMARK SMILES IDX 94 25 5 26 6 27 24 28 25 29 26 30 27 31 28 32 29 33 30 34
REMARK SMILES IDX 31 35 92 36 32 37 91 38 33 39 34 40 35 41 85 42 36 43 90 44
REMARK SMILES IDX 84 45 86 46 37 47 89 48 83 49 82 50 38 52 70 53 50 54 69 55
REMARK SMILES IDX 51 56 54 57 68 58 87 59 52 60 53 61 67 63 88 64 55 65 39 66
REMARK SMILES IDX 40 67 48 68 41 69 43 70 49 71 42 72 44 73 45 74 46 75 47 76
REMARK SMILES IDX 71 77 72 78 80 79 73 80 75 81 81 82 74 83 76 84 77 85 78 86
REMARK SMILES IDX 79 87 56 88 57 89 65 90 58 91 60 92 66 93 59 94 61 95 62 96
REMARK SMILES IDX 63 97 64 98
REMARK H PARENT 17 10 8 18 86 51 54 62
REMARK Flexibility Score: inf
ROOT
ATOM      1  C   UNL A   1      37.137  22.290  24.477  1.00  0.00     0.202 C 
ENDROOT
BRANCH   1   2
ATOM      2  C   UNL A   1      36.881  23.287  25.619  1.00  0.00     0.261 C 
BRANCH   2   3
ATOM      3  O   UNL A   1      35.866  22.809  26.514  1.00  0.00    -0.462 OA
BRANCH   3   4
ATOM      4  C   UNL A   1      34.724  23.548  26.567  1.00  0.00     0.325 C 
ATOM      5  O   UNL A   1      34.574  24.654  26.063  1.00  0.00    -0.250 OA
BRANCH   4   6
ATOM      6  C   UNL A   1      33.581  22.704  27.107  1.00  0.00     0.239 C 
BRANCH   6   7
ATOM      7  N   UNL A   1      32.220  22.995  26.755  1.00  0.00    -0.341 N 
ATOM      8  C   UNL A   1      31.698  22.577  25.552  1.00  0.00     0.253 C 
ATOM      9  O   UNL A   1      30.756  21.788  25.553  1.00  0.00    -0.269 OA
ATOM     10  H   UNL A   1      31.653  23.500  27.381  1.00  0.00     0.164 HD
BRANCH   8  11
ATOM     11  C   UNL A   1      32.038  23.353  24.332  1.00  0.00     0.063 A 
ATOM     12  C   UNL A   1      31.671  24.672  23.995  1.00  0.00     0.051 A 
ATOM     13  C   UNL A   1      31.986  25.105  22.685  1.00  0.00     0.027 A 
ATOM     14  C   UNL A   1      32.679  24.303  21.772  1.00  0.00     0.002 A 
ATOM     15  C   UNL A   1      32.764  22.562  23.411  1.00  0.00     0.016 A 
ATOM     16  C   UNL A   1      33.089  23.035  22.144  1.00  0.00     0.001 A 
BRANCH  12  17
ATOM     17  N   UNL A   1      31.100  25.670  24.815  1.00  0.00    -0.352 N 
ATOM     18  H   UNL A   1      30.935  25.347  25.731  1.00  0.00     0.167 HD
BRANCH  17  19
ATOM     19  C   UNL A   1      30.704  27.020  24.647  1.00  0.00     0.077 A 
ATOM     20  C   UNL A   1      28.243  29.233  22.699  1.00  0.00     0.046 C 
ATOM     21  C   UNL A   1      29.417  28.785  23.527  1.00  0.00    -0.030 A 
ATOM     22  C   UNL A   1      30.404  29.722  23.861  1.00  0.00     0.006 A 
ATOM     23  C   UNL A   1      29.550  27.445  23.960  1.00  0.00     0.069 A 
ATOM     24  C   UNL A   1      31.474  29.356  24.667  1.00  0.00     0.023 A 
ATOM     25  Cl  UNL A   1      28.196  26.372  23.766  1.00  0.00    -0.082 Cl
ATOM     26  C   UNL A   1      31.607  28.028  25.072  1.00  0.00     0.066 A 
ATOM     27  Cl  UNL A   1      32.945  27.645  26.106  1.00  0.00    -0.082 Cl
ENDBRANCH  17  19
ENDBRANCH  12  17
ENDBRANCH   8  11
ENDBRANCH   6   7
ENDBRANCH   4   6
ENDBRANCH   3   4
ENDBRANCH   2   3
ENDBRANCH   1   2
BRANCH   1  28
ATOM     28  O   UNL A   1      36.575  20.982  24.587  1.00  0.00    -0.374 OA
BRANCH  28  29
ATOM     29  C   UNL A   1      37.457  19.868  24.691  1.00  0.00     0.202 C 
BRANCH  29  30
ATOM     30  C   UNL A   1      38.425  19.800  25.890  1.00  0.00     0.261 C 
BRANCH  30  31
ATOM     31  O   UNL A   1      39.788  20.114  25.549  1.00  0.00    -0.460 OA
BRANCH  31  32
ATOM     32  C   UNL A   1      40.641  20.181  26.600  1.00  0.00     0.338 C 
ATOM     33  O   UNL A   1      41.315  19.265  27.056  1.00  0.00    -0.246 OA
BRANCH  32  34
ATOM     34  C   UNL A   1      40.825  21.575  27.039  1.00  0.00     0.060 A 
ATOM     35  C   UNL A   1      40.413  22.589  26.165  1.00  0.00     0.016 A 
ATOM     36  C   UNL A   1      41.521  21.889  28.209  1.00  0.00     0.016 A 
ATOM     37  C   UNL A   1      40.726  23.917  26.436  1.00  0.00     0.010 A 
ATOM     38  C   UNL A   1      41.851  23.226  28.470  1.00  0.00     0.010 A 
ATOM     39  C   UNL A   1      41.489  24.239  27.564  1.00  0.00    -0.014 A 
BRANCH  39  40
ATOM     40  C   UNL A   1      42.035  25.614  27.673  1.00  0.00     0.031 A 
ATOM     41  C   UNL A   1      41.222  26.673  28.369  1.00  0.00     0.074 A 
ATOM     42  C   UNL A   1      43.269  25.901  27.223  1.00  0.00     0.049 A 
ATOM     43  N   UNL A   1      41.543  27.905  28.661  1.00  0.00    -0.248 NA
ATOM     44  C   UNL A   1      39.867  26.285  28.796  1.00  0.00     0.031 C 
ATOM     45  C   UNL A   1      44.153  24.963  26.534  1.00  0.00     0.029 A 
ATOM     46  N   UNL A   1      43.987  27.069  27.274  1.00  0.00    -0.354 N 
ATOM     47  C   UNL A   1      40.433  28.446  29.297  1.00  0.00     0.074 A 
ATOM     48  C   UNL A   1      39.420  27.413  29.329  1.00  0.00     0.031 C 
ATOM     49  C   UNL A   1      45.289  25.601  26.203  1.00  0.00     0.029 A 
ATOM     50  C   UNL A   1      45.208  26.990  26.652  1.00  0.00     0.049 A 
ATOM     51  H   UNL A   1      43.657  27.885  27.715  1.00  0.00     0.167 HD
ATOM     52  C   UNL A   1      40.276  29.681  29.831  1.00  0.00     0.034 A 
ATOM     53  C   UNL A   1      46.152  27.934  26.462  1.00  0.00     0.034 A 
ATOM     54  C   UNL A   1      41.284  30.707  29.805  1.00  0.00     0.049 A 
ATOM     55  C   UNL A   1      45.954  29.304  27.055  1.00  0.00     0.074 A 
ATOM     56  C   UNL A   1      41.231  31.983  30.339  1.00  0.00     0.029 A 
ATOM     57  N   UNL A   1      42.525  30.579  29.201  1.00  0.00    -0.354 N 
ATOM     58  N   UNL A   1      44.950  29.760  27.765  1.00  0.00    -0.248 NA
ATOM     59  C   UNL A   1      47.040  30.276  26.860  1.00  0.00     0.031 C 
ATOM     60  C   UNL A   1      42.436  32.631  30.042  1.00  0.00     0.029 A 
ATOM     61  C   UNL A   1      43.246  31.753  29.341  1.00  0.00     0.049 A 
ATOM     62  H   UNL A   1      42.847  29.772  28.738  1.00  0.00     0.167 HD
ATOM     63  C   UNL A   1      45.292  31.060  28.124  1.00  0.00     0.074 A 
ATOM     64  C   UNL A   1      46.610  31.308  27.576  1.00  0.00     0.031 C 
ATOM     65  C   UNL A   1      44.575  31.972  28.827  1.00  0.00     0.034 A 
BRANCH  52  66
ATOM     66  C   UNL A   1      38.969  29.972  30.521  1.00  0.00     0.023 A 
ATOM     67  C   UNL A   1      38.746  29.475  31.821  1.00  0.00     0.012 A 
ATOM     68  C   UNL A   1      37.973  30.749  29.899  1.00  0.00     0.148 A 
ATOM     69  C   UNL A   1      37.539  29.714  32.478  1.00  0.00     0.002 A 
ATOM     70  C   UNL A   1      36.787  31.018  30.577  1.00  0.00     0.091 A 
ATOM     71  F   UNL A   1      38.188  31.190  28.651  1.00  0.00    -0.205 F 
ATOM     72  C   UNL A   1      36.565  30.492  31.859  1.00  0.00     0.022 A 
BRANCH  70  73
ATOM     73  S   UNL A   1      35.503  32.067  29.887  1.00  0.00     0.127 S 
ATOM     74  O   UNL A   1      36.262  33.263  29.522  1.00  0.00    -0.237 OA
ATOM     75  O   UNL A   1      35.032  31.276  28.751  1.00  0.00    -0.237 OA
ATOM     76  O   UNL A   1      34.521  32.243  30.948  1.00  0.00    -0.744 OA
ENDBRANCH  70  73
ENDBRANCH  52  66
BRANCH  53  77
ATOM     77  C   UNL A   1      47.393  27.590  25.712  1.00  0.00     0.023 A 
ATOM     78  C   UNL A   1      48.452  26.937  26.370  1.00  0.00     0.012 A 
ATOM     79  C   UNL A   1      47.508  27.873  24.337  1.00  0.00     0.148 A 
ATOM     80  C   UNL A   1      49.612  26.588  25.677  1.00  0.00     0.002 A 
ATOM     81  C   UNL A   1      48.642  27.472  23.640  1.00  0.00     0.091 A 
ATOM     82  F   UNL A   1      46.495  28.512  23.734  1.00  0.00    -0.205 F 
ATOM     83  C   UNL A   1      49.702  26.844  24.311  1.00  0.00     0.022 A 
BRANCH  81  84
ATOM     84  S   UNL A   1      48.786  27.642  21.857  1.00  0.00     0.127 S 
ATOM     85  O   UNL A   1      49.571  28.867  21.735  1.00  0.00    -0.237 OA
ATOM     86  O   UNL A   1      49.499  26.416  21.495  1.00  0.00    -0.237 OA
ATOM     87  O   UNL A   1      47.421  27.712  21.356  1.00  0.00    -0.744 OA
ENDBRANCH  81  84
ENDBRANCH  53  77
BRANCH  65  88
ATOM     88  C   UNL A   1      45.204  33.322  29.059  1.00  0.00     0.023 A 
ATOM     89  C   UNL A   1      46.086  33.503  30.144  1.00  0.00     0.012 A 
ATOM     90  C   UNL A   1      44.969  34.394  28.176  1.00  0.00     0.148 A 
ATOM     91  C   UNL A   1      46.691  34.740  30.368  1.00  0.00     0.002 A 
ATOM     92  C   UNL A   1      45.612  35.611  28.379  1.00  0.00     0.091 A 
ATOM     93  F   UNL A   1      44.111  34.214  27.160  1.00  0.00    -0.205 F 
ATOM     94  C   UNL A   1      46.464  35.789  29.481  1.00  0.00     0.022 A 
BRANCH  92  95
ATOM     95  S   UNL A   1      45.442  36.981  27.229  1.00  0.00     0.127 S 
ATOM     96  O   UNL A   1      45.992  38.092  28.003  1.00  0.00    -0.237 OA
ATOM     97  O   UNL A   1      46.273  36.553  26.102  1.00  0.00    -0.237 OA
ATOM     98  O   UNL A   1      44.020  37.064  26.925  1.00  0.00    -0.744 OA
ENDBRANCH  92  95
ENDBRANCH  65  88
ENDBRANCH  39  40
ENDBRANCH  32  34
ENDBRANCH  31  32
ENDBRANCH  30  31
ENDBRANCH  29  30
ENDBRANCH  28  29
ENDBRANCH   1  28
TORSDOF 21
ENDMDL
