MODEL 1
REMARK VINA RESULT:     -12.5      0.000      0.000
REMARK SMILES CC1(C)S[C@H](c2ccc(-c3ccccc3)o2)[NH2+][C@H]1C(=O)OCCOCCOC(=O)c1ccc(-c2c3nc(c(-c4cccc(S(=O)(=O)[O-])c4F)c4ccc([nH]4)c(-c4cccc(S(=O)(=O)[O-])c4F)c4nc(c(-c5cccc(S(=O)(=O)[O-])c5F)c5ccc2[nH]5)C=C4)C=C3)cc1
REMARK SMILES IDX 25 1 24 2 23 3 22 4 21 5 19 6 20 7 18 8 1 9 2 10 3 11 4 12
REMARK SMILES IDX 5 13 17 14 6 17 7 18 16 19 8 20 9 21 10 22 11 23 15 24 12 25
REMARK SMILES IDX 14 26 13 27 26 28 27 29 28 30 29 31 30 32 31 33 92 34 32 35
REMARK SMILES IDX 91 36 33 37 34 38 35 39 85 40 36 41 90 42 84 43 86 44 37 45
REMARK SMILES IDX 89 46 83 47 82 48 38 50 70 51 50 52 69 53 51 54 54 55 68 56
REMARK SMILES IDX 87 57 52 58 53 59 67 61 88 62 55 63 39 64 40 65 48 66 41 67
REMARK SMILES IDX 43 68 49 69 42 70 44 71 45 72 46 73 47 74 71 75 72 76 80 77
REMARK SMILES IDX 73 78 75 79 81 80 74 81 76 82 77 83 78 84 79 85 56 86 57 87
REMARK SMILES IDX 65 88 58 89 60 90 66 91 59 92 61 93 62 94 63 95 64 96
REMARK H PARENT 17 15 17 16 86 49 54 60
REMARK Flexibility Score: inf
ROOT
ATOM      1  C   UNL A   1      31.389  29.815  25.076  1.00  0.00     0.202 C 
ENDROOT
BRANCH   1   2
ATOM      2  O   UNL A   1      30.443  30.029  24.033  1.00  0.00    -0.374 OA
BRANCH   2   3
ATOM      3  C   UNL A   1      30.404  29.040  23.001  1.00  0.00     0.202 C 
BRANCH   3   4
ATOM      4  C   UNL A   1      31.516  27.982  23.022  1.00  0.00     0.261 C 
BRANCH   4   5
ATOM      5  O   UNL A   1      31.001  26.638  22.904  1.00  0.00    -0.459 OA
BRANCH   5   6
ATOM      6  C   UNL A   1      30.439  26.112  24.027  1.00  0.00     0.366 C 
ATOM      7  O   UNL A   1      29.353  26.456  24.481  1.00  0.00    -0.245 OA
BRANCH   6   8
ATOM      8  C   UNL A   1      31.301  25.017  24.669  1.00  0.00     0.310 C 
ATOM      9  C   UNL A   1      32.044  26.458  26.743  1.00  0.00     0.030 C 
ATOM     10  C   UNL A   1      32.417  25.441  25.657  1.00  0.00     0.079 C 
ATOM     11  C   UNL A   1      33.709  25.844  24.938  1.00  0.00     0.030 C 
ATOM     12  S   UNL A   1      32.768  23.873  26.555  1.00  0.00    -0.078 SA
ATOM     13  C   UNL A   1      31.332  22.993  25.867  1.00  0.00     0.311 C 
ATOM     14  N   UNL A   1      30.428  24.012  25.329  1.00  0.00    -0.316 N 
ATOM     15  H   UNL A   1      29.894  24.446  26.082  1.00  0.00     0.348 HD
ATOM     16  H   UNL A   1      29.756  23.612  24.676  1.00  0.00     0.348 HD
BRANCH  13  17
ATOM     17  C   UNL A   1      31.791  21.960  24.874  1.00  0.00     0.172 A 
ATOM     18  C   UNL A   1      32.042  22.052  23.516  1.00  0.00     0.054 A 
ATOM     19  O   UNL A   1      32.039  20.675  25.295  1.00  0.00    -0.454 OA
ATOM     20  C   UNL A   1      32.485  20.780  23.094  1.00  0.00     0.051 A 
ATOM     21  C   UNL A   1      32.475  19.972  24.211  1.00  0.00     0.134 A 
BRANCH  21  22
ATOM     22  C   UNL A   1      32.874  18.592  24.425  1.00  0.00     0.017 A 
ATOM     23  C   UNL A   1      32.574  17.918  25.613  1.00  0.00     0.012 A 
ATOM     24  C   UNL A   1      33.509  17.892  23.389  1.00  0.00     0.012 A 
ATOM     25  C   UNL A   1      32.874  16.558  25.749  1.00  0.00     0.001 A 
ATOM     26  C   UNL A   1      33.821  16.538  23.529  1.00  0.00     0.001 A 
ATOM     27  C   UNL A   1      33.493  15.868  24.706  1.00  0.00     0.000 A 
ENDBRANCH  21  22
ENDBRANCH  13  17
ENDBRANCH   6   8
ENDBRANCH   5   6
ENDBRANCH   4   5
ENDBRANCH   3   4
ENDBRANCH   2   3
ENDBRANCH   1   2
BRANCH   1  28
ATOM     28  C   UNL A   1      31.564  30.954  26.088  1.00  0.00     0.261 C 
BRANCH  28  29
ATOM     29  O   UNL A   1      32.603  30.662  27.037  1.00  0.00    -0.460 OA
BRANCH  29  30
ATOM     30  C   UNL A   1      33.323  31.742  27.420  1.00  0.00     0.338 C 
ATOM     31  O   UNL A   1      32.903  32.878  27.591  1.00  0.00    -0.246 OA
BRANCH  30  32
ATOM     32  C   UNL A   1      34.690  31.336  27.799  1.00  0.00     0.060 A 
ATOM     33  C   UNL A   1      34.924  29.962  27.939  1.00  0.00     0.016 A 
ATOM     34  C   UNL A   1      35.705  32.258  28.062  1.00  0.00     0.016 A 
ATOM     35  C   UNL A   1      36.145  29.509  28.426  1.00  0.00     0.010 A 
ATOM     36  C   UNL A   1      36.935  31.800  28.548  1.00  0.00     0.010 A 
ATOM     37  C   UNL A   1      37.139  30.428  28.783  1.00  0.00    -0.014 A 
BRANCH  37  38
ATOM     38  C   UNL A   1      38.313  29.949  29.552  1.00  0.00     0.031 A 
ATOM     39  C   UNL A   1      38.518  30.449  30.958  1.00  0.00     0.074 A 
ATOM     40  C   UNL A   1      39.156  29.042  29.027  1.00  0.00     0.049 A 
ATOM     41  N   UNL A   1      39.448  30.136  31.820  1.00  0.00    -0.248 NA
ATOM     42  C   UNL A   1      37.545  31.435  31.458  1.00  0.00     0.031 C 
ATOM     43  C   UNL A   1      39.057  28.479  27.680  1.00  0.00     0.029 A 
ATOM     44  N   UNL A   1      40.269  28.444  29.562  1.00  0.00    -0.354 N 
ATOM     45  C   UNL A   1      39.192  30.903  32.951  1.00  0.00     0.074 A 
ATOM     46  C   UNL A   1      38.029  31.711  32.659  1.00  0.00     0.031 C 
ATOM     47  C   UNL A   1      40.080  27.630  27.488  1.00  0.00     0.029 A 
ATOM     48  C   UNL A   1      40.917  27.606  28.687  1.00  0.00     0.049 A 
ATOM     49  H   UNL A   1      40.574  28.602  30.484  1.00  0.00     0.167 HD
ATOM     50  C   UNL A   1      39.854  30.920  34.133  1.00  0.00     0.034 A 
ATOM     51  C   UNL A   1      42.064  26.914  28.831  1.00  0.00     0.034 A 
ATOM     52  C   UNL A   1      40.998  30.101  34.427  1.00  0.00     0.049 A 
ATOM     53  C   UNL A   1      42.791  26.966  30.149  1.00  0.00     0.074 A 
ATOM     54  C   UNL A   1      41.709  30.009  35.610  1.00  0.00     0.029 A 
ATOM     55  N   UNL A   1      41.609  29.244  33.526  1.00  0.00    -0.354 N 
ATOM     56  N   UNL A   1      42.470  27.607  31.247  1.00  0.00    -0.248 NA
ATOM     57  C   UNL A   1      44.022  26.167  30.260  1.00  0.00     0.031 C 
ATOM     58  C   UNL A   1      42.775  29.125  35.411  1.00  0.00     0.029 A 
ATOM     59  C   UNL A   1      42.700  28.631  34.119  1.00  0.00     0.049 A 
ATOM     60  H   UNL A   1      41.312  29.092  32.599  1.00  0.00     0.167 HD
ATOM     61  C   UNL A   1      43.434  27.261  32.189  1.00  0.00     0.074 A 
ATOM     62  C   UNL A   1      44.339  26.337  31.536  1.00  0.00     0.031 C 
ATOM     63  C   UNL A   1      43.565  27.677  33.472  1.00  0.00     0.034 A 
BRANCH  50  64
ATOM     64  C   UNL A   1      39.346  31.849  35.205  1.00  0.00     0.023 A 
ATOM     65  C   UNL A   1      38.347  31.413  36.100  1.00  0.00     0.012 A 
ATOM     66  C   UNL A   1      39.897  33.137  35.361  1.00  0.00     0.148 A 
ATOM     67  C   UNL A   1      37.880  32.254  37.110  1.00  0.00     0.002 A 
ATOM     68  C   UNL A   1      39.461  33.952  36.400  1.00  0.00     0.091 A 
ATOM     69  F   UNL A   1      40.829  33.542  34.488  1.00  0.00    -0.205 F 
ATOM     70  C   UNL A   1      38.444  33.517  37.265  1.00  0.00     0.022 A 
BRANCH  68  71
ATOM     71  S   UNL A   1      40.180  35.563  36.734  1.00  0.00     0.127 S 
ATOM     72  O   UNL A   1      39.703  35.822  38.092  1.00  0.00    -0.237 OA
ATOM     73  O   UNL A   1      41.613  35.286  36.632  1.00  0.00    -0.237 OA
ATOM     74  O   UNL A   1      39.658  36.457  35.710  1.00  0.00    -0.744 OA
ENDBRANCH  68  71
ENDBRANCH  50  64
BRANCH  51  75
ATOM     75  C   UNL A   1      42.581  26.087  27.704  1.00  0.00     0.023 A 
ATOM     76  C   UNL A   1      43.568  26.610  26.846  1.00  0.00     0.012 A 
ATOM     77  C   UNL A   1      42.104  24.780  27.487  1.00  0.00     0.148 A 
ATOM     78  C   UNL A   1      44.046  25.858  25.772  1.00  0.00     0.002 A 
ATOM     79  C   UNL A   1      42.627  24.015  26.452  1.00  0.00     0.091 A 
ATOM     80  F   UNL A   1      41.154  24.307  28.306  1.00  0.00    -0.205 F 
ATOM     81  C   UNL A   1      43.584  24.558  25.581  1.00  0.00     0.022 A 
BRANCH  79  82
ATOM     82  S   UNL A   1      42.188  22.290  26.215  1.00  0.00     0.127 S 
ATOM     83  O   UNL A   1      42.946  21.951  25.014  1.00  0.00    -0.237 OA
ATOM     84  O   UNL A   1      42.684  21.682  27.451  1.00  0.00    -0.237 OA
ATOM     85  O   UNL A   1      40.739  22.268  26.075  1.00  0.00    -0.744 OA
ENDBRANCH  79  82
ENDBRANCH  51  75
BRANCH  63  86
ATOM     86  C   UNL A   1      44.702  27.105  34.281  1.00  0.00     0.023 A 
ATOM     87  C   UNL A   1      45.958  27.743  34.285  1.00  0.00     0.012 A 
ATOM     88  C   UNL A   1      44.503  25.967  35.087  1.00  0.00     0.148 A 
ATOM     89  C   UNL A   1      47.010  27.231  35.044  1.00  0.00     0.002 A 
ATOM     90  C   UNL A   1      45.540  25.494  35.883  1.00  0.00     0.091 A 
ATOM     91  F   UNL A   1      43.306  25.363  35.059  1.00  0.00    -0.205 F 
ATOM     92  C   UNL A   1      46.799  26.116  35.852  1.00  0.00     0.022 A 
BRANCH  90  93
ATOM     93  S   UNL A   1      45.329  24.126  37.028  1.00  0.00     0.127 S 
ATOM     94  O   UNL A   1      44.991  23.030  36.123  1.00  0.00    -0.237 OA
ATOM     95  O   UNL A   1      46.656  24.026  37.639  1.00  0.00    -0.237 OA
ATOM     96  O   UNL A   1      44.271  24.529  37.945  1.00  0.00    -0.744 OA
ENDBRANCH  90  93
ENDBRANCH  63  86
ENDBRANCH  37  38
ENDBRANCH  30  32
ENDBRANCH  29  30
ENDBRANCH  28  29
ENDBRANCH   1  28
TORSDOF 19
ENDMDL
MODEL 2
REMARK VINA RESULT:     -11.9      1.975      7.735
REMARK SMILES CC1(C)S[C@H](c2ccc(-c3ccccc3)o2)[NH2+][C@H]1C(=O)OCCOCCOC(=O)c1ccc(-c2c3nc(c(-c4cccc(S(=O)(=O)[O-])c4F)c4ccc([nH]4)c(-c4cccc(S(=O)(=O)[O-])c4F)c4nc(c(-c5cccc(S(=O)(=O)[O-])c5F)c5ccc2[nH]5)C=C4)C=C3)cc1
REMARK SMILES IDX 25 1 24 2 23 3 22 4 21 5 19 6 20 7 18 8 1 9 2 10 3 11 4 12
REMARK SMILES IDX 5 13 17 14 6 17 7 18 16 19 8 20 9 21 10 22 11 23 15 24 12 25
REMARK SMILES IDX 14 26 13 27 26 28 27 29 28 30 29 31 30 32 31 33 92 34 32 35
REMARK SMILES IDX 91 36 33 37 34 38 35 39 85 40 36 41 90 42 84 43 86 44 37 45
REMARK SMILES IDX 89 46 83 47 82 48 38 50 70 51 50 52 69 53 51 54 54 55 68 56
REMARK SMILES IDX 87 57 52 58 53 59 67 61 88 62 55 63 39 64 40 65 48 66 41 67
REMARK SMILES IDX 43 68 49 69 42 70 44 71 45 72 46 73 47 74 71 75 72 76 80 77
REMARK SMILES IDX 73 78 75 79 81 80 74 81 76 82 77 83 78 84 79 85 56 86 57 87
REMARK SMILES IDX 65 88 58 89 60 90 66 91 59 92 61 93 62 94 63 95 64 96
REMARK H PARENT 17 15 17 16 86 49 54 60
REMARK Flexibility Score: inf
ROOT
ATOM      1  C   UNL A   1      31.728  31.393  26.661  1.00  0.00     0.202 C 
ENDROOT
BRANCH   1   2
ATOM      2  O   UNL A   1      31.417  30.836  25.387  1.00  0.00    -0.374 OA
BRANCH   2   3
ATOM      3  C   UNL A   1      31.531  29.416  25.272  1.00  0.00     0.202 C 
BRANCH   3   4
ATOM      4  C   UNL A   1      31.824  28.643  26.565  1.00  0.00     0.261 C 
BRANCH   4   5
ATOM      5  O   UNL A   1      32.471  27.377  26.316  1.00  0.00    -0.459 OA
BRANCH   5   6
ATOM      6  C   UNL A   1      31.651  26.337  26.003  1.00  0.00     0.366 C 
ATOM      7  O   UNL A   1      30.486  26.240  26.376  1.00  0.00    -0.245 OA
BRANCH   6   8
ATOM      8  C   UNL A   1      32.329  25.289  25.110  1.00  0.00     0.310 C 
ATOM      9  C   UNL A   1      31.605  26.387  22.830  1.00  0.00     0.030 C 
ATOM     10  C   UNL A   1      31.816  25.114  23.658  1.00  0.00     0.079 C 
ATOM     11  C   UNL A   1      30.596  24.190  23.580  1.00  0.00     0.030 C 
ATOM     12  S   UNL A   1      33.213  24.229  22.848  1.00  0.00    -0.078 SA
ATOM     13  C   UNL A   1      34.355  24.460  24.247  1.00  0.00     0.311 C 
ATOM     14  N   UNL A   1      33.795  25.528  25.078  1.00  0.00    -0.316 N 
ATOM     15  H   UNL A   1      33.997  26.441  24.668  1.00  0.00     0.348 HD
ATOM     16  H   UNL A   1      34.197  25.525  26.015  1.00  0.00     0.348 HD
BRANCH  13  17
ATOM     17  C   UNL A   1      34.570  23.149  24.953  1.00  0.00     0.172 A 
ATOM     18  C   UNL A   1      35.126  22.861  26.187  1.00  0.00     0.054 A 
ATOM     19  O   UNL A   1      34.171  21.980  24.351  1.00  0.00    -0.454 OA
ATOM     20  C   UNL A   1      35.042  21.463  26.358  1.00  0.00     0.051 A 
ATOM     21  C   UNL A   1      34.447  20.964  25.218  1.00  0.00     0.134 A 
BRANCH  21  22
ATOM     22  C   UNL A   1      34.044  19.624  24.830  1.00  0.00     0.017 A 
ATOM     23  C   UNL A   1      32.696  19.278  24.684  1.00  0.00     0.012 A 
ATOM     24  C   UNL A   1      35.026  18.673  24.521  1.00  0.00     0.012 A 
ATOM     25  C   UNL A   1      32.340  18.013  24.204  1.00  0.00     0.001 A 
ATOM     26  C   UNL A   1      34.671  17.405  24.054  1.00  0.00     0.001 A 
ATOM     27  C   UNL A   1      33.327  17.079  23.886  1.00  0.00     0.000 A 
ENDBRANCH  21  22
ENDBRANCH  13  17
ENDBRANCH   6   8
ENDBRANCH   5   6
ENDBRANCH   4   5
ENDBRANCH   3   4
ENDBRANCH   2   3
ENDBRANCH   1   2
BRANCH   1  28
ATOM     28  C   UNL A   1      31.864  32.919  26.729  1.00  0.00     0.261 C 
BRANCH  28  29
ATOM     29  O   UNL A   1      32.188  33.360  28.057  1.00  0.00    -0.460 OA
BRANCH  29  30
ATOM     30  C   UNL A   1      33.255  34.191  28.120  1.00  0.00     0.338 C 
ATOM     31  O   UNL A   1      33.239  35.411  28.030  1.00  0.00    -0.246 OA
BRANCH  30  32
ATOM     32  C   UNL A   1      34.464  33.440  28.507  1.00  0.00     0.060 A 
ATOM     33  C   UNL A   1      34.265  32.200  29.128  1.00  0.00     0.016 A 
ATOM     34  C   UNL A   1      35.755  33.941  28.322  1.00  0.00     0.016 A 
ATOM     35  C   UNL A   1      35.348  31.497  29.643  1.00  0.00     0.010 A 
ATOM     36  C   UNL A   1      36.844  33.230  28.839  1.00  0.00     0.010 A 
ATOM     37  C   UNL A   1      36.638  32.033  29.549  1.00  0.00    -0.014 A 
BRANCH  37  38
ATOM     38  C   UNL A   1      37.730  31.414  30.340  1.00  0.00     0.031 A 
ATOM     39  C   UNL A   1      38.591  30.361  29.695  1.00  0.00     0.074 A 
ATOM     40  C   UNL A   1      37.985  31.822  31.595  1.00  0.00     0.049 A 
ATOM     41  N   UNL A   1      39.618  29.718  30.184  1.00  0.00    -0.248 NA
ATOM     42  C   UNL A   1      38.247  29.979  28.315  1.00  0.00     0.031 C 
ATOM     43  C   UNL A   1      37.225  32.838  32.324  1.00  0.00     0.029 A 
ATOM     44  N   UNL A   1      38.949  31.419  32.485  1.00  0.00    -0.354 N 
ATOM     45  C   UNL A   1      40.027  28.839  29.187  1.00  0.00     0.074 A 
ATOM     46  C   UNL A   1      39.125  29.016  28.071  1.00  0.00     0.031 C 
ATOM     47  C   UNL A   1      37.742  32.967  33.557  1.00  0.00     0.029 A 
ATOM     48  C   UNL A   1      38.852  32.028  33.713  1.00  0.00     0.049 A 
ATOM     49  H   UNL A   1      39.643  30.757  32.264  1.00  0.00     0.167 HD
ATOM     50  C   UNL A   1      41.069  27.975  29.193  1.00  0.00     0.034 A 
ATOM     51  C   UNL A   1      39.567  31.836  34.839  1.00  0.00     0.034 A 
ATOM     52  C   UNL A   1      41.976  27.814  30.297  1.00  0.00     0.049 A 
ATOM     53  C   UNL A   1      40.709  30.854  34.825  1.00  0.00     0.074 A 
ATOM     54  C   UNL A   1      43.092  27.002  30.383  1.00  0.00     0.029 A 
ATOM     55  N   UNL A   1      41.864  28.468  31.514  1.00  0.00    -0.354 N 
ATOM     56  N   UNL A   1      41.153  30.115  33.837  1.00  0.00    -0.248 NA
ATOM     57  C   UNL A   1      41.474  30.706  36.073  1.00  0.00     0.031 C 
ATOM     58  C   UNL A   1      43.632  27.134  31.666  1.00  0.00     0.029 A 
ATOM     59  C   UNL A   1      42.879  28.065  32.365  1.00  0.00     0.049 A 
ATOM     60  H   UNL A   1      41.165  29.124  31.741  1.00  0.00     0.167 HD
ATOM     61  C   UNL A   1      42.269  29.446  34.330  1.00  0.00     0.074 A 
ATOM     62  C   UNL A   1      42.444  29.884  35.699  1.00  0.00     0.031 C 
ATOM     63  C   UNL A   1      43.069  28.544  33.710  1.00  0.00     0.034 A 
BRANCH  50  64
ATOM     64  C   UNL A   1      41.294  27.141  27.958  1.00  0.00     0.023 A 
ATOM     65  C   UNL A   1      41.930  27.706  26.833  1.00  0.00     0.012 A 
ATOM     66  C   UNL A   1      40.923  25.782  27.930  1.00  0.00     0.148 A 
ATOM     67  C   UNL A   1      42.161  26.942  25.689  1.00  0.00     0.002 A 
ATOM     68  C   UNL A   1      41.201  25.015  26.805  1.00  0.00     0.091 A 
ATOM     69  F   UNL A   1      40.300  25.268  29.000  1.00  0.00    -0.205 F 
ATOM     70  C   UNL A   1      41.807  25.596  25.680  1.00  0.00     0.022 A 
BRANCH  68  71
ATOM     71  S   UNL A   1      40.858  23.254  26.724  1.00  0.00     0.127 S 
ATOM     72  O   UNL A   1      41.713  22.838  25.613  1.00  0.00    -0.237 OA
ATOM     73  O   UNL A   1      41.301  22.795  28.041  1.00  0.00    -0.237 OA
ATOM     74  O   UNL A   1      39.426  23.134  26.487  1.00  0.00    -0.744 OA
ENDBRANCH  68  71
ENDBRANCH  50  64
BRANCH  51  75
ATOM     75  C   UNL A   1      39.241  32.612  36.069  1.00  0.00     0.023 A 
ATOM     76  C   UNL A   1      39.740  33.920  36.225  1.00  0.00     0.012 A 
ATOM     77  C   UNL A   1      38.430  32.060  37.080  1.00  0.00     0.148 A 
ATOM     78  C   UNL A   1      39.463  34.651  37.381  1.00  0.00     0.002 A 
ATOM     79  C   UNL A   1      38.109  32.816  38.200  1.00  0.00     0.091 A 
ATOM     80  F   UNL A   1      37.979  30.809  36.918  1.00  0.00    -0.205 F 
ATOM     81  C   UNL A   1      38.640  34.105  38.363  1.00  0.00     0.022 A 
BRANCH  79  82
ATOM     82  S   UNL A   1      36.953  32.243  39.448  1.00  0.00     0.127 S 
ATOM     83  O   UNL A   1      37.436  30.888  39.704  1.00  0.00    -0.237 OA
ATOM     84  O   UNL A   1      37.187  33.197  40.534  1.00  0.00    -0.237 OA
ATOM     85  O   UNL A   1      35.635  32.338  38.839  1.00  0.00    -0.744 OA
ENDBRANCH  79  82
ENDBRANCH  51  75
BRANCH  63  86
ATOM     86  C   UNL A   1      44.240  27.997  34.488  1.00  0.00     0.023 A 
ATOM     87  C   UNL A   1      45.467  28.689  34.498  1.00  0.00     0.012 A 
ATOM     88  C   UNL A   1      44.100  26.827  35.261  1.00  0.00     0.148 A 
ATOM     89  C   UNL A   1      46.549  28.200  35.230  1.00  0.00     0.002 A 
ATOM     90  C   UNL A   1      45.166  26.377  36.031  1.00  0.00     0.091 A 
ATOM     91  F   UNL A   1      42.929  26.174  35.228  1.00  0.00    -0.205 F 
ATOM     92  C   UNL A   1      46.396  27.054  36.005  1.00  0.00     0.022 A 
BRANCH  90  93
ATOM     93  S   UNL A   1      45.029  24.967  37.136  1.00  0.00     0.127 S 
ATOM     94  O   UNL A   1      43.961  25.398  38.036  1.00  0.00    -0.237 OA
ATOM     95  O   UNL A   1      44.655  23.890  36.218  1.00  0.00    -0.237 OA
ATOM     96  O   UNL A   1      46.340  24.809  37.751  1.00  0.00    -0.744 OA
ENDBRANCH  90  93
ENDBRANCH  63  86
ENDBRANCH  37  38
ENDBRANCH  30  32
ENDBRANCH  29  30
ENDBRANCH  28  29
ENDBRANCH   1  28
TORSDOF 19
ENDMDL
MODEL 3
REMARK VINA RESULT:     -11.3      2.011      2.789
REMARK SMILES CC1(C)S[C@H](c2ccc(-c3ccccc3)o2)[NH2+][C@H]1C(=O)OCCOCCOC(=O)c1ccc(-c2c3nc(c(-c4cccc(S(=O)(=O)[O-])c4F)c4ccc([nH]4)c(-c4cccc(S(=O)(=O)[O-])c4F)c4nc(c(-c5cccc(S(=O)(=O)[O-])c5F)c5ccc2[nH]5)C=C4)C=C3)cc1
REMARK SMILES IDX 25 1 24 2 23 3 22 4 21 5 19 6 20 7 18 8 1 9 2 10 3 11 4 12
REMARK SMILES IDX 5 13 17 14 6 17 7 18 16 19 8 20 9 21 10 22 11 23 15 24 12 25
REMARK SMILES IDX 14 26 13 27 26 28 27 29 28 30 29 31 30 32 31 33 92 34 32 35
REMARK SMILES IDX 91 36 33 37 34 38 35 39 85 40 36 41 90 42 84 43 86 44 37 45
REMARK SMILES IDX 89 46 83 47 82 48 38 50 70 51 50 52 69 53 51 54 54 55 68 56
REMARK SMILES IDX 87 57 52 58 53 59 67 61 88 62 55 63 39 64 40 65 48 66 41 67
REMARK SMILES IDX 43 68 49 69 42 70 44 71 45 72 46 73 47 74 71 75 72 76 80 77
REMARK SMILES IDX 73 78 75 79 81 80 74 81 76 82 77 83 78 84 79 85 56 86 57 87
REMARK SMILES IDX 65 88 58 89 60 90 66 91 59 92 61 93 62 94 63 95 64 96
REMARK H PARENT 17 15 17 16 86 49 54 60
REMARK Flexibility Score: inf
ROOT
ATOM      1  C   UNL A   1      33.630  29.755  26.626  1.00  0.00     0.202 C 
ENDROOT
BRANCH   1   2
ATOM      2  O   UNL A   1      32.855  29.470  25.466  1.00  0.00    -0.374 OA
BRANCH   2   3
ATOM      3  C   UNL A   1      31.528  30.004  25.442  1.00  0.00     0.202 C 
BRANCH   3   4
ATOM      4  C   UNL A   1      30.658  29.628  24.236  1.00  0.00     0.261 C 
BRANCH   4   5
ATOM      5  O   UNL A   1      30.304  28.228  24.226  1.00  0.00    -0.459 OA
BRANCH   5   6
ATOM      6  C   UNL A   1      30.674  27.525  23.121  1.00  0.00     0.366 C 
ATOM      7  O   UNL A   1      30.267  27.757  21.987  1.00  0.00    -0.245 OA
BRANCH   6   8
ATOM      8  C   UNL A   1      31.678  26.407  23.433  1.00  0.00     0.310 C 
ATOM      9  C   UNL A   1      33.766  27.646  22.417  1.00  0.00     0.030 C 
ATOM     10  C   UNL A   1      32.987  26.339  22.606  1.00  0.00     0.079 C 
ATOM     11  C   UNL A   1      32.795  25.607  21.273  1.00  0.00     0.030 C 
ATOM     12  S   UNL A   1      34.064  25.275  23.654  1.00  0.00    -0.078 SA
ATOM     13  C   UNL A   1      32.940  25.306  25.086  1.00  0.00     0.311 C 
ATOM     14  N   UNL A   1      32.021  26.428  24.879  1.00  0.00    -0.316 N 
ATOM     15  H   UNL A   1      32.475  27.309  25.123  1.00  0.00     0.348 HD
ATOM     16  H   UNL A   1      31.190  26.346  25.464  1.00  0.00     0.348 HD
BRANCH  13  17
ATOM     17  C   UNL A   1      32.281  23.964  25.248  1.00  0.00     0.172 A 
ATOM     18  C   UNL A   1      31.083  23.604  25.840  1.00  0.00     0.054 A 
ATOM     19  O   UNL A   1      32.894  22.841  24.747  1.00  0.00    -0.454 OA
ATOM     20  C   UNL A   1      30.946  22.209  25.673  1.00  0.00     0.051 A 
ATOM     21  C   UNL A   1      32.069  21.784  24.996  1.00  0.00     0.134 A 
BRANCH  21  22
ATOM     22  C   UNL A   1      32.473  20.485  24.488  1.00  0.00     0.017 A 
ATOM     23  C   UNL A   1      33.148  19.561  25.294  1.00  0.00     0.012 A 
ATOM     24  C   UNL A   1      32.115  20.114  23.184  1.00  0.00     0.012 A 
ATOM     25  C   UNL A   1      33.428  18.276  24.813  1.00  0.00     0.001 A 
ATOM     26  C   UNL A   1      32.406  18.837  22.699  1.00  0.00     0.001 A 
ATOM     27  C   UNL A   1      33.053  17.915  23.518  1.00  0.00     0.000 A 
ENDBRANCH  21  22
ENDBRANCH  13  17
ENDBRANCH   6   8
ENDBRANCH   5   6
ENDBRANCH   4   5
ENDBRANCH   3   4
ENDBRANCH   2   3
ENDBRANCH   1   2
BRANCH   1  28
ATOM     28  C   UNL A   1      33.307  31.061  27.363  1.00  0.00     0.261 C 
BRANCH  28  29
ATOM     29  O   UNL A   1      34.479  31.874  27.533  1.00  0.00    -0.460 OA
BRANCH  29  30
ATOM     30  C   UNL A   1      34.964  31.891  28.797  1.00  0.00     0.338 C 
ATOM     31  O   UNL A   1      34.415  32.361  29.784  1.00  0.00    -0.246 OA
BRANCH  30  32
ATOM     32  C   UNL A   1      36.196  31.085  28.882  1.00  0.00     0.060 A 
ATOM     33  C   UNL A   1      36.117  29.886  29.602  1.00  0.00     0.016 A 
ATOM     34  C   UNL A   1      37.408  31.499  28.325  1.00  0.00     0.016 A 
ATOM     35  C   UNL A   1      37.265  29.141  29.843  1.00  0.00     0.010 A 
ATOM     36  C   UNL A   1      38.562  30.745  28.566  1.00  0.00     0.010 A 
ATOM     37  C   UNL A   1      38.504  29.593  29.371  1.00  0.00    -0.014 A 
BRANCH  37  38
ATOM     38  C   UNL A   1      39.740  28.942  29.869  1.00  0.00     0.031 A 
ATOM     39  C   UNL A   1      40.392  29.474  31.118  1.00  0.00     0.074 A 
ATOM     40  C   UNL A   1      40.246  27.862  29.249  1.00  0.00     0.049 A 
ATOM     41  N   UNL A   1      41.450  29.038  31.749  1.00  0.00    -0.248 NA
ATOM     42  C   UNL A   1      39.769  30.655  31.738  1.00  0.00     0.031 C 
ATOM     43  C   UNL A   1      39.700  27.252  28.036  1.00  0.00     0.029 A 
ATOM     44  N   UNL A   1      41.342  27.093  29.549  1.00  0.00    -0.354 N 
ATOM     45  C   UNL A   1      41.637  29.903  32.821  1.00  0.00     0.074 A 
ATOM     46  C   UNL A   1      40.594  30.902  32.745  1.00  0.00     0.031 C 
ATOM     47  C   UNL A   1      40.475  26.212  27.685  1.00  0.00     0.029 A 
ATOM     48  C   UNL A   1      41.582  26.097  28.633  1.00  0.00     0.049 A 
ATOM     49  H   UNL A   1      41.903  27.242  30.344  1.00  0.00     0.167 HD
ATOM     50  C   UNL A   1      42.581  29.861  33.791  1.00  0.00     0.034 A 
ATOM     51  C   UNL A   1      42.592  25.207  28.559  1.00  0.00     0.034 A 
ATOM     52  C   UNL A   1      43.605  28.856  33.875  1.00  0.00     0.049 A 
ATOM     53  C   UNL A   1      43.639  25.193  29.640  1.00  0.00     0.074 A 
ATOM     54  C   UNL A   1      44.577  28.697  34.846  1.00  0.00     0.029 A 
ATOM     55  N   UNL A   1      43.800  27.847  32.945  1.00  0.00    -0.354 N 
ATOM     56  N   UNL A   1      43.735  25.947  30.709  1.00  0.00    -0.248 NA
ATOM     57  C   UNL A   1      44.701  24.182  29.524  1.00  0.00     0.031 C 
ATOM     58  C   UNL A   1      45.385  27.615  34.482  1.00  0.00     0.029 A 
ATOM     59  C   UNL A   1      44.888  27.071  33.308  1.00  0.00     0.049 A 
ATOM     60  H   UNL A   1      43.247  27.702  32.143  1.00  0.00     0.167 HD
ATOM     61  C   UNL A   1      44.840  25.477  31.412  1.00  0.00     0.074 A 
ATOM     62  C   UNL A   1      45.368  24.360  30.656  1.00  0.00     0.031 C 
ATOM     63  C   UNL A   1      45.375  25.933  32.571  1.00  0.00     0.034 A 
BRANCH  50  64
ATOM     64  C   UNL A   1      42.542  30.930  34.853  1.00  0.00     0.023 A 
ATOM     65  C   UNL A   1      41.874  30.689  36.071  1.00  0.00     0.012 A 
ATOM     66  C   UNL A   1      43.211  32.155  34.664  1.00  0.00     0.148 A 
ATOM     67  C   UNL A   1      41.845  31.661  37.071  1.00  0.00     0.002 A 
ATOM     68  C   UNL A   1      43.219  33.101  35.683  1.00  0.00     0.091 A 
ATOM     69  F   UNL A   1      43.821  32.376  33.491  1.00  0.00    -0.205 F 
ATOM     70  C   UNL A   1      42.525  32.861  36.881  1.00  0.00     0.022 A 
BRANCH  68  71
ATOM     71  S   UNL A   1      44.132  34.642  35.568  1.00  0.00     0.127 S 
ATOM     72  O   UNL A   1      43.232  35.458  34.753  1.00  0.00    -0.237 OA
ATOM     73  O   UNL A   1      44.223  35.050  36.971  1.00  0.00    -0.237 OA
ATOM     74  O   UNL A   1      45.406  34.310  34.947  1.00  0.00    -0.744 OA
ENDBRANCH  68  71
ENDBRANCH  50  64
BRANCH  51  75
ATOM     75  C   UNL A   1      42.643  24.233  27.431  1.00  0.00     0.023 A 
ATOM     76  C   UNL A   1      43.310  24.574  26.239  1.00  0.00     0.012 A 
ATOM     77  C   UNL A   1      42.040  22.965  27.543  1.00  0.00     0.148 A 
ATOM     78  C   UNL A   1      43.347  23.683  25.167  1.00  0.00     0.002 A 
ATOM     79  C   UNL A   1      42.132  22.060  26.493  1.00  0.00     0.091 A 
ATOM     80  F   UNL A   1      41.397  22.666  28.680  1.00  0.00    -0.205 F 
ATOM     81  C   UNL A   1      42.769  22.423  25.296  1.00  0.00     0.022 A 
BRANCH  79  82
ATOM     82  S   UNL A   1      41.532  20.373  26.623  1.00  0.00     0.127 S 
ATOM     83  O   UNL A   1      41.900  19.823  25.321  1.00  0.00    -0.237 OA
ATOM     84  O   UNL A   1      42.313  19.863  27.752  1.00  0.00    -0.237 OA
ATOM     85  O   UNL A   1      40.103  20.481  26.882  1.00  0.00    -0.744 OA
ENDBRANCH  79  82
ENDBRANCH  51  75
BRANCH  63  86
ATOM     86  C   UNL A   1      46.571  25.201  33.125  1.00  0.00     0.023 A 
ATOM     87  C   UNL A   1      47.874  25.636  32.814  1.00  0.00     0.012 A 
ATOM     88  C   UNL A   1      46.398  24.116  34.008  1.00  0.00     0.148 A 
ATOM     89  C   UNL A   1      48.986  24.975  33.338  1.00  0.00     0.002 A 
ATOM     90  C   UNL A   1      47.509  23.497  34.569  1.00  0.00     0.091 A 
ATOM     91  F   UNL A   1      45.150  23.706  34.282  1.00  0.00    -0.205 F 
ATOM     92  C   UNL A   1      48.804  23.916  34.223  1.00  0.00     0.022 A 
BRANCH  90  93
ATOM     93  S   UNL A   1      47.369  22.192  35.795  1.00  0.00     0.127 S 
ATOM     94  O   UNL A   1      48.762  21.777  35.948  1.00  0.00    -0.237 OA
ATOM     95  O   UNL A   1      46.815  22.906  36.946  1.00  0.00    -0.237 OA
ATOM     96  O   UNL A   1      46.478  21.193  35.219  1.00  0.00    -0.744 OA
ENDBRANCH  90  93
ENDBRANCH  63  86
ENDBRANCH  37  38
ENDBRANCH  30  32
ENDBRANCH  29  30
ENDBRANCH  28  29
ENDBRANCH   1  28
TORSDOF 19
ENDMDL
