MODEL 1
REMARK VINA RESULT:     -11.6      0.000      0.000
REMARK SMILES Cc1ccc(C(=O)OCCOCCOC(=O)c2ccc(-c3c4nc(c(-c5cccc(S(=O)(=O)[O-])c5F)c5ccc([nH]5)c(-c5cccc(S(=O)(=O)[O-])c5F)c5nc(c(-c6cccc(S(=O)(=O)[O-])c6F)c6ccc3[nH]6)C=C5)C=C4)cc2)cc1NC(=O)c1ccc(-c2cccc([N+](=O)[O-])c2)o1
REMARK SMILES IDX 10 1 9 2 8 3 6 4 7 5 5 6 1 7 2 8 3 9 81 10 4 11 80 12 82 13
REMARK SMILES IDX 83 14 84 16 85 17 86 18 98 19 87 20 88 21 89 22 90 23 97 24
REMARK SMILES IDX 91 25 93 26 92 27 94 28 95 29 96 30 11 31 12 32 13 33 14 34
REMARK SMILES IDX 15 35 16 36 17 37 18 38 79 39 19 40 78 41 20 42 21 43 22 44
REMARK SMILES IDX 72 45 23 46 77 47 71 48 73 49 24 50 76 51 70 52 69 53 25 55
REMARK SMILES IDX 57 56 37 57 56 58 38 59 41 60 55 61 74 62 39 63 40 64 54 66
REMARK SMILES IDX 75 67 42 68 26 69 27 70 35 71 28 72 30 73 36 74 29 75 31 76
REMARK SMILES IDX 32 77 33 78 34 79 58 80 59 81 67 82 60 83 62 84 68 85 61 86
REMARK SMILES IDX 63 87 64 88 65 89 66 90 43 91 44 92 52 93 45 94 47 95 53 96
REMARK SMILES IDX 46 97 48 98 49 99 50 100 51 101
REMARK H PARENT 82 15 73 54 41 65
REMARK Flexibility Score: inf
ROOT
ATOM      1  C   UNL A   1      40.352  20.100  26.426  1.00  0.00     0.202 C 
ENDROOT
BRANCH   1   2
ATOM      2  C   UNL A   1      39.464  21.228  25.843  1.00  0.00     0.261 C 
BRANCH   2   3
ATOM      3  O   UNL A   1      38.272  20.792  25.267  1.00  0.00    -0.460 OA
BRANCH   3   4
ATOM      4  C   UNL A   1      37.285  21.641  25.599  1.00  0.00     0.338 C 
ATOM      5  O   UNL A   1      37.350  22.833  25.831  1.00  0.00    -0.246 OA
BRANCH   4   6
ATOM      6  C   UNL A   1      36.064  20.892  25.394  1.00  0.00     0.062 A 
ATOM      7  C   UNL A   1      32.727  18.383  24.814  1.00  0.00     0.046 C 
ATOM      8  C   UNL A   1      33.820  19.387  25.023  1.00  0.00    -0.027 A 
ATOM      9  C   UNL A   1      35.104  18.893  24.660  1.00  0.00     0.006 A 
ATOM     10  C   UNL A   1      33.653  20.667  25.606  1.00  0.00     0.045 A 
ATOM     11  C   UNL A   1      36.223  19.673  24.784  1.00  0.00     0.016 A 
ATOM     12  C   UNL A   1      34.825  21.333  25.890  1.00  0.00     0.042 A 
BRANCH  10  13
ATOM     13  N   UNL A   1      32.363  21.210  25.879  1.00  0.00    -0.319 N 
ATOM     14  C   UNL A   1      31.501  22.175  25.328  1.00  0.00     0.291 C 
ATOM     15  H   UNL A   1      31.964  20.793  26.676  1.00  0.00     0.170 HD
ATOM     16  O   UNL A   1      30.452  22.351  25.959  1.00  0.00    -0.265 OA
BRANCH  14  17
ATOM     17  C   UNL A   1      31.793  22.926  24.117  1.00  0.00     0.192 A 
ATOM     18  C   UNL A   1      32.322  22.529  22.909  1.00  0.00     0.057 A 
ATOM     19  O   UNL A   1      31.509  24.302  24.021  1.00  0.00    -0.451 OA
ATOM     20  C   UNL A   1      32.895  23.695  22.384  1.00  0.00     0.052 A 
ATOM     21  C   UNL A   1      32.172  24.749  22.900  1.00  0.00     0.135 A 
BRANCH  21  22
ATOM     22  C   UNL A   1      32.099  26.144  22.416  1.00  0.00     0.024 A 
ATOM     23  C   UNL A   1      33.296  26.885  22.252  1.00  0.00     0.012 A 
ATOM     24  C   UNL A   1      30.918  26.869  22.650  1.00  0.00     0.097 A 
ATOM     25  C   UNL A   1      33.335  28.279  22.488  1.00  0.00     0.008 A 
ATOM     26  C   UNL A   1      30.959  28.268  22.860  1.00  0.00     0.270 A 
ATOM     27  C   UNL A   1      32.170  28.967  22.835  1.00  0.00     0.085 A 
BRANCH  26  28
ATOM     28  N   UNL A   1      29.714  28.991  23.167  1.00  0.00     0.062 N 
ATOM     29  O   UNL A   1      29.805  30.155  23.586  1.00  0.00    -0.258 OA
ATOM     30  O   UNL A   1      28.647  28.421  22.893  1.00  0.00    -0.258 OA
ENDBRANCH  26  28
ENDBRANCH  21  22
ENDBRANCH  14  17
ENDBRANCH  10  13
ENDBRANCH   4   6
ENDBRANCH   3   4
ENDBRANCH   2   3
ENDBRANCH   1   2
BRANCH   1  31
ATOM     31  O   UNL A   1      40.965  19.229  25.521  1.00  0.00    -0.374 OA
BRANCH  31  32
ATOM     32  C   UNL A   1      42.189  18.763  26.021  1.00  0.00     0.202 C 
BRANCH  32  33
ATOM     33  C   UNL A   1      43.552  19.469  25.684  1.00  0.00     0.261 C 
BRANCH  33  34
ATOM     34  O   UNL A   1      43.927  20.986  25.668  1.00  0.00    -0.460 OA
BRANCH  34  35
ATOM     35  C   UNL A   1      44.238  22.308  25.703  1.00  0.00     0.338 C 
ATOM     36  O   UNL A   1      45.350  22.599  26.133  1.00  0.00    -0.246 OA
BRANCH  35  37
ATOM     37  C   UNL A   1      43.268  23.488  25.515  1.00  0.00     0.060 A 
ATOM     38  C   UNL A   1      43.736  24.650  24.901  1.00  0.00     0.016 A 
ATOM     39  C   UNL A   1      42.051  23.667  26.123  1.00  0.00     0.016 A 
ATOM     40  C   UNL A   1      43.458  25.906  25.463  1.00  0.00     0.010 A 
ATOM     41  C   UNL A   1      41.889  24.869  26.814  1.00  0.00     0.010 A 
ATOM     42  C   UNL A   1      42.799  25.917  26.651  1.00  0.00    -0.014 A 
BRANCH  42  43
ATOM     43  C   UNL A   1      42.969  26.909  27.726  1.00  0.00     0.031 A 
ATOM     44  C   UNL A   1      41.925  27.954  27.776  1.00  0.00     0.074 A 
ATOM     45  C   UNL A   1      43.859  26.731  28.752  1.00  0.00     0.049 A 
ATOM     46  N   UNL A   1      41.988  29.034  28.467  1.00  0.00    -0.248 NA
ATOM     47  C   UNL A   1      40.721  27.900  26.936  1.00  0.00     0.031 C 
ATOM     48  C   UNL A   1      43.715  27.160  30.157  1.00  0.00     0.029 A 
ATOM     49  N   UNL A   1      45.105  26.071  28.773  1.00  0.00    -0.354 N 
ATOM     50  C   UNL A   1      40.700  29.532  28.490  1.00  0.00     0.074 A 
ATOM     51  C   UNL A   1      40.045  28.965  27.354  1.00  0.00     0.031 C 
ATOM     52  C   UNL A   1      44.867  26.961  30.828  1.00  0.00     0.029 A 
ATOM     53  C   UNL A   1      45.868  26.613  29.840  1.00  0.00     0.049 A 
ATOM     54  H   UNL A   1      45.394  25.360  28.157  1.00  0.00     0.167 HD
ATOM     55  C   UNL A   1      40.266  30.150  29.617  1.00  0.00     0.034 A 
ATOM     56  C   UNL A   1      47.053  27.284  29.653  1.00  0.00     0.034 A 
ATOM     57  C   UNL A   1      41.394  30.327  30.547  1.00  0.00     0.049 A 
ATOM     58  C   UNL A   1      46.973  28.705  30.099  1.00  0.00     0.074 A 
ATOM     59  C   UNL A   1      41.750  29.706  31.730  1.00  0.00     0.029 A 
ATOM     60  N   UNL A   1      42.526  31.011  30.107  1.00  0.00    -0.354 N 
ATOM     61  N   UNL A   1      45.821  29.258  30.332  1.00  0.00    -0.248 NA
ATOM     62  C   UNL A   1      48.089  29.619  30.319  1.00  0.00     0.031 C 
ATOM     63  C   UNL A   1      43.133  29.969  31.957  1.00  0.00     0.029 A 
ATOM     64  C   UNL A   1      43.609  30.775  30.934  1.00  0.00     0.049 A 
ATOM     65  H   UNL A   1      42.551  31.589  29.310  1.00  0.00     0.167 HD
ATOM     66  C   UNL A   1      45.984  30.572  30.586  1.00  0.00     0.074 A 
ATOM     67  C   UNL A   1      47.426  30.751  30.618  1.00  0.00     0.031 C 
ATOM     68  C   UNL A   1      44.902  31.391  30.639  1.00  0.00     0.034 A 
BRANCH  55  69
ATOM     69  C   UNL A   1      38.814  30.391  30.017  1.00  0.00     0.023 A 
ATOM     70  C   UNL A   1      38.159  29.293  30.618  1.00  0.00     0.012 A 
ATOM     71  C   UNL A   1      38.011  31.548  29.821  1.00  0.00     0.148 A 
ATOM     72  C   UNL A   1      36.814  29.325  30.996  1.00  0.00     0.002 A 
ATOM     73  C   UNL A   1      36.677  31.601  30.247  1.00  0.00     0.091 A 
ATOM     74  F   UNL A   1      38.487  32.610  29.171  1.00  0.00    -0.205 F 
ATOM     75  C   UNL A   1      36.075  30.484  30.826  1.00  0.00     0.022 A 
BRANCH  73  76
ATOM     76  S   UNL A   1      35.646  33.078  30.097  1.00  0.00     0.127 S 
ATOM     77  O   UNL A   1      34.303  32.507  29.987  1.00  0.00    -0.237 OA
ATOM     78  O   UNL A   1      35.910  33.768  31.359  1.00  0.00    -0.237 OA
ATOM     79  O   UNL A   1      36.102  33.788  28.907  1.00  0.00    -0.744 OA
ENDBRANCH  73  76
ENDBRANCH  55  69
BRANCH  56  80
ATOM     80  C   UNL A   1      47.858  26.773  28.511  1.00  0.00     0.023 A 
ATOM     81  C   UNL A   1      48.014  25.390  28.580  1.00  0.00     0.012 A 
ATOM     82  C   UNL A   1      47.856  27.403  27.252  1.00  0.00     0.148 A 
ATOM     83  C   UNL A   1      47.735  24.661  27.437  1.00  0.00     0.002 A 
ATOM     84  C   UNL A   1      47.788  26.619  26.097  1.00  0.00     0.091 A 
ATOM     85  F   UNL A   1      47.797  28.739  27.213  1.00  0.00    -0.205 F 
ATOM     86  C   UNL A   1      47.688  25.238  26.196  1.00  0.00     0.022 A 
BRANCH  84  87
ATOM     87  S   UNL A   1      47.429  27.242  24.462  1.00  0.00     0.127 S 
ATOM     88  O   UNL A   1      48.543  28.154  24.222  1.00  0.00    -0.237 OA
ATOM     89  O   UNL A   1      47.506  26.030  23.655  1.00  0.00    -0.237 OA
ATOM     90  O   UNL A   1      46.109  27.839  24.559  1.00  0.00    -0.744 OA
ENDBRANCH  84  87
ENDBRANCH  56  80
BRANCH  68  91
ATOM     91  C   UNL A   1      45.021  32.859  30.380  1.00  0.00     0.023 A 
ATOM     92  C   UNL A   1      45.392  33.759  31.401  1.00  0.00     0.012 A 
ATOM     93  C   UNL A   1      44.925  33.363  29.069  1.00  0.00     0.148 A 
ATOM     94  C   UNL A   1      45.518  35.124  31.160  1.00  0.00     0.002 A 
ATOM     95  C   UNL A   1      45.199  34.694  28.810  1.00  0.00     0.091 A 
ATOM     96  F   UNL A   1      44.555  32.555  28.066  1.00  0.00    -0.205 F 
ATOM     97  C   UNL A   1      45.434  35.590  29.857  1.00  0.00     0.022 A 
BRANCH  95  98
ATOM     98  S   UNL A   1      45.398  35.283  27.131  1.00  0.00     0.127 S 
ATOM     99  O   UNL A   1      44.012  35.318  26.667  1.00  0.00    -0.237 OA
ATOM    100  O   UNL A   1      46.010  36.596  27.339  1.00  0.00    -0.237 OA
ATOM    101  O   UNL A   1      46.267  34.315  26.474  1.00  0.00    -0.744 OA
ENDBRANCH  95  98
ENDBRANCH  68  91
ENDBRANCH  42  43
ENDBRANCH  35  37
ENDBRANCH  34  35
ENDBRANCH  33  34
ENDBRANCH  32  33
ENDBRANCH  31  32
ENDBRANCH   1  31
TORSDOF 21
ENDMDL
MODEL 2
REMARK VINA RESULT:     -11.5      1.707      2.035
REMARK SMILES Cc1ccc(C(=O)OCCOCCOC(=O)c2ccc(-c3c4nc(c(-c5cccc(S(=O)(=O)[O-])c5F)c5ccc([nH]5)c(-c5cccc(S(=O)(=O)[O-])c5F)c5nc(c(-c6cccc(S(=O)(=O)[O-])c6F)c6ccc3[nH]6)C=C5)C=C4)cc2)cc1NC(=O)c1ccc(-c2cccc([N+](=O)[O-])c2)o1
REMARK SMILES IDX 10 1 9 2 8 3 6 4 7 5 5 6 1 7 2 8 3 9 81 10 4 11 80 12 82 13
REMARK SMILES IDX 83 14 84 16 85 17 86 18 98 19 87 20 88 21 89 22 90 23 97 24
REMARK SMILES IDX 91 25 93 26 92 27 94 28 95 29 96 30 11 31 12 32 13 33 14 34
REMARK SMILES IDX 15 35 16 36 17 37 18 38 79 39 19 40 78 41 20 42 21 43 22 44
REMARK SMILES IDX 72 45 23 46 77 47 71 48 73 49 24 50 76 51 70 52 69 53 25 55
REMARK SMILES IDX 57 56 37 57 56 58 38 59 41 60 55 61 74 62 39 63 40 64 54 66
REMARK SMILES IDX 75 67 42 68 26 69 27 70 35 71 28 72 30 73 36 74 29 75 31 76
REMARK SMILES IDX 32 77 33 78 34 79 58 80 59 81 67 82 60 83 62 84 68 85 61 86
REMARK SMILES IDX 63 87 64 88 65 89 66 90 43 91 44 92 52 93 45 94 47 95 53 96
REMARK SMILES IDX 46 97 48 98 49 99 50 100 51 101
REMARK H PARENT 82 15 73 54 41 65
REMARK Flexibility Score: inf
ROOT
ATOM      1  C   UNL A   1      40.298  21.688  26.761  1.00  0.00     0.202 C 
ENDROOT
BRANCH   1   2
ATOM      2  C   UNL A   1      39.181  22.673  26.331  1.00  0.00     0.261 C 
BRANCH   2   3
ATOM      3  O   UNL A   1      38.030  22.066  25.833  1.00  0.00    -0.460 OA
BRANCH   3   4
ATOM      4  C   UNL A   1      37.011  22.939  25.891  1.00  0.00     0.338 C 
ATOM      5  O   UNL A   1      37.044  24.154  25.848  1.00  0.00    -0.246 OA
BRANCH   4   6
ATOM      6  C   UNL A   1      35.817  22.129  25.777  1.00  0.00     0.062 A 
ATOM      7  C   UNL A   1      32.579  19.462  25.367  1.00  0.00     0.046 C 
ATOM      8  C   UNL A   1      33.633  20.511  25.552  1.00  0.00    -0.027 A 
ATOM      9  C   UNL A   1      34.850  20.200  24.884  1.00  0.00     0.006 A 
ATOM     10  C   UNL A   1      33.509  21.659  26.373  1.00  0.00     0.045 A 
ATOM     11  C   UNL A   1      35.926  21.044  24.942  1.00  0.00     0.016 A 
ATOM     12  C   UNL A   1      34.673  22.370  26.557  1.00  0.00     0.042 A 
BRANCH  10  13
ATOM     13  N   UNL A   1      32.266  22.033  26.963  1.00  0.00    -0.319 N 
ATOM     14  C   UNL A   1      31.232  22.955  26.719  1.00  0.00     0.291 C 
ATOM     15  H   UNL A   1      32.078  21.495  27.766  1.00  0.00     0.170 HD
ATOM     16  O   UNL A   1      30.328  22.954  27.564  1.00  0.00    -0.265 OA
BRANCH  14  17
ATOM     17  C   UNL A   1      31.202  23.856  25.577  1.00  0.00     0.192 A 
ATOM     18  C   UNL A   1      31.039  23.609  24.232  1.00  0.00     0.057 A 
ATOM     19  O   UNL A   1      31.321  25.249  25.739  1.00  0.00    -0.451 OA
ATOM     20  C   UNL A   1      31.657  24.699  23.605  1.00  0.00     0.052 A 
ATOM     21  C   UNL A   1      31.558  25.758  24.482  1.00  0.00     0.135 A 
BRANCH  21  22
ATOM     22  C   UNL A   1      31.704  27.204  24.206  1.00  0.00     0.024 A 
ATOM     23  C   UNL A   1      32.413  28.017  25.125  1.00  0.00     0.012 A 
ATOM     24  C   UNL A   1      30.736  27.830  23.403  1.00  0.00     0.097 A 
ATOM     25  C   UNL A   1      32.042  29.363  25.351  1.00  0.00     0.008 A 
ATOM     26  C   UNL A   1      30.386  29.184  23.616  1.00  0.00     0.270 A 
ATOM     27  C   UNL A   1      30.996  29.937  24.625  1.00  0.00     0.085 A 
BRANCH  26  28
ATOM     28  N   UNL A   1      29.322  29.795  22.803  1.00  0.00     0.062 N 
ATOM     29  O   UNL A   1      29.146  29.361  21.655  1.00  0.00    -0.258 OA
ATOM     30  O   UNL A   1      28.603  30.642  23.355  1.00  0.00    -0.258 OA
ENDBRANCH  26  28
ENDBRANCH  21  22
ENDBRANCH  14  17
ENDBRANCH  10  13
ENDBRANCH   4   6
ENDBRANCH   3   4
ENDBRANCH   2   3
ENDBRANCH   1   2
BRANCH   1  31
ATOM     31  O   UNL A   1      40.233  20.382  26.267  1.00  0.00    -0.374 OA
BRANCH  31  32
ATOM     32  C   UNL A   1      41.311  19.615  26.728  1.00  0.00     0.202 C 
BRANCH  32  33
ATOM     33  C   UNL A   1      42.687  19.568  25.971  1.00  0.00     0.261 C 
BRANCH  33  34
ATOM     34  O   UNL A   1      43.726  20.701  25.690  1.00  0.00    -0.460 OA
BRANCH  34  35
ATOM     35  C   UNL A   1      44.636  21.690  25.496  1.00  0.00     0.338 C 
ATOM     36  O   UNL A   1      45.732  21.540  26.028  1.00  0.00    -0.246 OA
BRANCH  35  37
ATOM     37  C   UNL A   1      44.368  23.088  24.911  1.00  0.00     0.060 A 
ATOM     38  C   UNL A   1      45.454  23.908  24.604  1.00  0.00     0.016 A 
ATOM     39  C   UNL A   1      43.176  23.768  24.900  1.00  0.00     0.016 A 
ATOM     40  C   UNL A   1      45.458  25.253  25.004  1.00  0.00     0.010 A 
ATOM     41  C   UNL A   1      43.198  25.043  25.466  1.00  0.00     0.010 A 
ATOM     42  C   UNL A   1      44.410  25.674  25.760  1.00  0.00    -0.014 A 
BRANCH  42  43
ATOM     43  C   UNL A   1      44.460  26.701  26.815  1.00  0.00     0.031 A 
ATOM     44  C   UNL A   1      43.269  27.571  26.891  1.00  0.00     0.074 A 
ATOM     45  C   UNL A   1      45.403  26.683  27.808  1.00  0.00     0.049 A 
ATOM     46  N   UNL A   1      43.187  28.661  27.565  1.00  0.00    -0.248 NA
ATOM     47  C   UNL A   1      42.059  27.315  26.098  1.00  0.00     0.031 C 
ATOM     48  C   UNL A   1      45.245  27.110  29.212  1.00  0.00     0.029 A 
ATOM     49  N   UNL A   1      46.737  26.225  27.791  1.00  0.00    -0.354 N 
ATOM     50  C   UNL A   1      41.839  28.953  27.629  1.00  0.00     0.074 A 
ATOM     51  C   UNL A   1      41.240  28.270  26.527  1.00  0.00     0.031 C 
ATOM     52  C   UNL A   1      46.436  27.106  29.842  1.00  0.00     0.029 A 
ATOM     53  C   UNL A   1      47.443  26.899  28.821  1.00  0.00     0.049 A 
ATOM     54  H   UNL A   1      47.112  25.556  27.174  1.00  0.00     0.167 HD
ATOM     55  C   UNL A   1      41.354  29.517  28.764  1.00  0.00     0.034 A 
ATOM     56  C   UNL A   1      48.502  27.742  28.580  1.00  0.00     0.034 A 
ATOM     57  C   UNL A   1      42.473  29.885  29.648  1.00  0.00     0.049 A 
ATOM     58  C   UNL A   1      48.217  29.142  29.011  1.00  0.00     0.074 A 
ATOM     59  C   UNL A   1      42.963  29.349  30.825  1.00  0.00     0.029 A 
ATOM     60  N   UNL A   1      43.467  30.728  29.157  1.00  0.00    -0.354 N 
ATOM     61  N   UNL A   1      47.002  29.513  29.280  1.00  0.00    -0.248 NA
ATOM     62  C   UNL A   1      49.184  30.222  29.176  1.00  0.00     0.031 C 
ATOM     63  C   UNL A   1      44.295  29.828  30.996  1.00  0.00     0.029 A 
ATOM     64  C   UNL A   1      44.603  30.679  29.945  1.00  0.00     0.049 A 
ATOM     65  H   UNL A   1      43.373  31.287  28.352  1.00  0.00     0.167 HD
ATOM     66  C   UNL A   1      46.967  30.841  29.510  1.00  0.00     0.074 A 
ATOM     67  C   UNL A   1      48.363  31.243  29.485  1.00  0.00     0.031 C 
ATOM     68  C   UNL A   1      45.772  31.483  29.594  1.00  0.00     0.034 A 
BRANCH  55  69
ATOM     69  C   UNL A   1      39.897  29.536  29.215  1.00  0.00     0.023 A 
ATOM     70  C   UNL A   1      38.939  29.496  28.178  1.00  0.00     0.012 A 
ATOM     71  C   UNL A   1      39.368  29.643  30.532  1.00  0.00     0.148 A 
ATOM     72  C   UNL A   1      37.562  29.559  28.413  1.00  0.00     0.002 A 
ATOM     73  C   UNL A   1      37.988  29.654  30.773  1.00  0.00     0.091 A 
ATOM     74  F   UNL A   1      40.173  29.792  31.583  1.00  0.00    -0.205 F 
ATOM     75  C   UNL A   1      37.084  29.622  29.710  1.00  0.00     0.022 A 
BRANCH  73  76
ATOM     76  S   UNL A   1      37.271  29.700  32.432  1.00  0.00     0.127 S 
ATOM     77  O   UNL A   1      35.895  30.119  32.161  1.00  0.00    -0.237 OA
ATOM     78  O   UNL A   1      37.408  28.310  32.867  1.00  0.00    -0.237 OA
ATOM     79  O   UNL A   1      38.056  30.660  33.200  1.00  0.00    -0.744 OA
ENDBRANCH  73  76
ENDBRANCH  55  69
BRANCH  56  80
ATOM     80  C   UNL A   1      49.336  27.342  27.416  1.00  0.00     0.023 A 
ATOM     81  C   UNL A   1      49.866  26.064  27.589  1.00  0.00     0.012 A 
ATOM     82  C   UNL A   1      49.077  27.808  26.112  1.00  0.00     0.148 A 
ATOM     83  C   UNL A   1      49.719  25.168  26.543  1.00  0.00     0.002 A 
ATOM     84  C   UNL A   1      49.146  26.914  25.042  1.00  0.00     0.091 A 
ATOM     85  F   UNL A   1      48.654  29.069  25.965  1.00  0.00    -0.205 F 
ATOM     86  C   UNL A   1      49.433  25.575  25.268  1.00  0.00     0.022 A 
BRANCH  84  87
ATOM     87  S   UNL A   1      48.521  27.239  23.400  1.00  0.00     0.127 S 
ATOM     88  O   UNL A   1      49.607  28.004  22.796  1.00  0.00    -0.237 OA
ATOM     89  O   UNL A   1      48.404  25.893  22.852  1.00  0.00    -0.237 OA
ATOM     90  O   UNL A   1      47.265  27.939  23.599  1.00  0.00    -0.744 OA
ENDBRANCH  84  87
ENDBRANCH  56  80
BRANCH  68  91
ATOM     91  C   UNL A   1      45.652  32.947  29.311  1.00  0.00     0.023 A 
ATOM     92  C   UNL A   1      45.767  33.907  30.338  1.00  0.00     0.012 A 
ATOM     93  C   UNL A   1      45.583  33.414  27.985  1.00  0.00     0.148 A 
ATOM     94  C   UNL A   1      45.669  35.270  30.076  1.00  0.00     0.002 A 
ATOM     95  C   UNL A   1      45.638  34.771  27.719  1.00  0.00     0.091 A 
ATOM     96  F   UNL A   1      45.450  32.545  26.973  1.00  0.00    -0.205 F 
ATOM     97  C   UNL A   1      45.619  35.703  28.760  1.00  0.00     0.022 A 
BRANCH  95  98
ATOM     98  S   UNL A   1      45.875  35.372  26.049  1.00  0.00     0.127 S 
ATOM     99  O   UNL A   1      47.049  34.610  25.628  1.00  0.00    -0.237 OA
ATOM    100  O   UNL A   1      44.622  34.979  25.403  1.00  0.00    -0.237 OA
ATOM    101  O   UNL A   1      46.059  36.812  26.171  1.00  0.00    -0.744 OA
ENDBRANCH  95  98
ENDBRANCH  68  91
ENDBRANCH  42  43
ENDBRANCH  35  37
ENDBRANCH  34  35
ENDBRANCH  33  34
ENDBRANCH  32  33
ENDBRANCH  31  32
ENDBRANCH   1  31
TORSDOF 21
ENDMDL
MODEL 3
REMARK VINA RESULT:     -11.4      2.166      2.600
REMARK SMILES Cc1ccc(C(=O)OCCOCCOC(=O)c2ccc(-c3c4nc(c(-c5cccc(S(=O)(=O)[O-])c5F)c5ccc([nH]5)c(-c5cccc(S(=O)(=O)[O-])c5F)c5nc(c(-c6cccc(S(=O)(=O)[O-])c6F)c6ccc3[nH]6)C=C5)C=C4)cc2)cc1NC(=O)c1ccc(-c2cccc([N+](=O)[O-])c2)o1
REMARK SMILES IDX 10 1 9 2 8 3 6 4 7 5 5 6 1 7 2 8 3 9 81 10 4 11 80 12 82 13
REMARK SMILES IDX 83 14 84 16 85 17 86 18 98 19 87 20 88 21 89 22 90 23 97 24
REMARK SMILES IDX 91 25 93 26 92 27 94 28 95 29 96 30 11 31 12 32 13 33 14 34
REMARK SMILES IDX 15 35 16 36 17 37 18 38 79 39 19 40 78 41 20 42 21 43 22 44
REMARK SMILES IDX 72 45 23 46 77 47 71 48 73 49 24 50 76 51 70 52 69 53 25 55
REMARK SMILES IDX 57 56 37 57 56 58 38 59 41 60 55 61 74 62 39 63 40 64 54 66
REMARK SMILES IDX 75 67 42 68 26 69 27 70 35 71 28 72 30 73 36 74 29 75 31 76
REMARK SMILES IDX 32 77 33 78 34 79 58 80 59 81 67 82 60 83 62 84 68 85 61 86
REMARK SMILES IDX 63 87 64 88 65 89 66 90 43 91 44 92 52 93 45 94 47 95 53 96
REMARK SMILES IDX 46 97 48 98 49 99 50 100 51 101
REMARK H PARENT 82 15 73 54 41 65
REMARK Flexibility Score: inf
ROOT
ATOM      1  C   UNL A   1      40.666  20.190  26.600  1.00  0.00     0.202 C 
ENDROOT
BRANCH   1   2
ATOM      2  C   UNL A   1      39.755  21.251  25.933  1.00  0.00     0.261 C 
BRANCH   2   3
ATOM      3  O   UNL A   1      38.432  20.854  25.753  1.00  0.00    -0.460 OA
BRANCH   3   4
ATOM      4  C   UNL A   1      37.638  21.937  25.780  1.00  0.00     0.338 C 
ATOM      5  O   UNL A   1      37.948  23.111  25.721  1.00  0.00    -0.246 OA
BRANCH   4   6
ATOM      6  C   UNL A   1      36.293  21.417  25.657  1.00  0.00     0.062 A 
ATOM      7  C   UNL A   1      32.539  19.560  25.190  1.00  0.00     0.046 C 
ATOM      8  C   UNL A   1      33.801  20.337  25.406  1.00  0.00    -0.027 A 
ATOM      9  C   UNL A   1      34.904  19.818  24.672  1.00  0.00     0.006 A 
ATOM     10  C   UNL A   1      33.951  21.420  26.307  1.00  0.00     0.045 A 
ATOM     11  C   UNL A   1      36.142  20.401  24.747  1.00  0.00     0.016 A 
ATOM     12  C   UNL A   1      35.247  21.844  26.494  1.00  0.00     0.042 A 
BRANCH  10  13
ATOM     13  N   UNL A   1      32.835  22.011  26.968  1.00  0.00    -0.319 N 
ATOM     14  C   UNL A   1      31.813  22.931  26.667  1.00  0.00     0.291 C 
ATOM     15  H   UNL A   1      32.756  21.685  27.893  1.00  0.00     0.170 HD
ATOM     16  O   UNL A   1      31.057  23.190  27.611  1.00  0.00    -0.265 OA
BRANCH  14  17
ATOM     17  C   UNL A   1      31.637  23.550  25.363  1.00  0.00     0.192 A 
ATOM     18  C   UNL A   1      31.288  23.011  24.144  1.00  0.00     0.057 A 
ATOM     19  O   UNL A   1      31.795  24.937  25.181  1.00  0.00    -0.451 OA
ATOM     20  C   UNL A   1      31.827  23.903  23.207  1.00  0.00     0.052 A 
ATOM     21  C   UNL A   1      31.862  25.137  23.821  1.00  0.00     0.135 A 
BRANCH  21  22
ATOM     22  C   UNL A   1      31.987  26.474  23.203  1.00  0.00     0.024 A 
ATOM     23  C   UNL A   1      33.080  27.304  23.557  1.00  0.00     0.012 A 
ATOM     24  C   UNL A   1      30.819  27.107  22.743  1.00  0.00     0.097 A 
ATOM     25  C   UNL A   1      32.945  28.710  23.616  1.00  0.00     0.008 A 
ATOM     26  C   UNL A   1      30.699  28.515  22.779  1.00  0.00     0.270 A 
ATOM     27  C   UNL A   1      31.737  29.317  23.266  1.00  0.00     0.085 A 
BRANCH  26  28
ATOM     28  N   UNL A   1      29.440  29.147  22.351  1.00  0.00     0.062 N 
ATOM     29  O   UNL A   1      29.412  29.697  21.241  1.00  0.00    -0.258 OA
ATOM     30  O   UNL A   1      28.454  29.001  23.091  1.00  0.00    -0.258 OA
ENDBRANCH  26  28
ENDBRANCH  21  22
ENDBRANCH  14  17
ENDBRANCH  10  13
ENDBRANCH   4   6
ENDBRANCH   3   4
ENDBRANCH   2   3
ENDBRANCH   1   2
BRANCH   1  31
ATOM     31  O   UNL A   1      40.907  19.009  25.891  1.00  0.00    -0.374 OA
BRANCH  31  32
ATOM     32  C   UNL A   1      42.222  18.564  26.086  1.00  0.00     0.202 C 
BRANCH  32  33
ATOM     33  C   UNL A   1      43.451  19.259  25.396  1.00  0.00     0.261 C 
BRANCH  33  34
ATOM     34  O   UNL A   1      43.934  20.743  25.452  1.00  0.00    -0.460 OA
BRANCH  34  35
ATOM     35  C   UNL A   1      44.346  22.034  25.550  1.00  0.00     0.338 C 
ATOM     36  O   UNL A   1      45.516  22.214  25.875  1.00  0.00    -0.246 OA
BRANCH  35  37
ATOM     37  C   UNL A   1      43.454  23.288  25.556  1.00  0.00     0.060 A 
ATOM     38  C   UNL A   1      43.824  24.380  24.770  1.00  0.00     0.016 A 
ATOM     39  C   UNL A   1      42.465  23.599  26.456  1.00  0.00     0.016 A 
ATOM     40  C   UNL A   1      43.805  25.675  25.308  1.00  0.00     0.010 A 
ATOM     41  C   UNL A   1      42.588  24.835  27.090  1.00  0.00     0.010 A 
ATOM     42  C   UNL A   1      43.496  25.790  26.626  1.00  0.00    -0.014 A 
BRANCH  42  43
ATOM     43  C   UNL A   1      44.026  26.804  27.555  1.00  0.00     0.031 A 
ATOM     44  C   UNL A   1      43.153  27.979  27.754  1.00  0.00     0.074 A 
ATOM     45  C   UNL A   1      45.102  26.561  28.366  1.00  0.00     0.049 A 
ATOM     46  N   UNL A   1      43.502  29.074  28.326  1.00  0.00    -0.248 NA
ATOM     47  C   UNL A   1      41.790  28.044  27.211  1.00  0.00     0.031 C 
ATOM     48  C   UNL A   1      45.340  27.074  29.730  1.00  0.00     0.029 A 
ATOM     49  N   UNL A   1      46.233  25.743  28.161  1.00  0.00    -0.354 N 
ATOM     50  C   UNL A   1      42.322  29.740  28.596  1.00  0.00     0.074 A 
ATOM     51  C   UNL A   1      41.359  29.209  27.684  1.00  0.00     0.031 C 
ATOM     52  C   UNL A   1      46.583  26.758  30.140  1.00  0.00     0.029 A 
ATOM     53  C   UNL A   1      47.280  26.231  28.984  1.00  0.00     0.049 A 
ATOM     54  H   UNL A   1      46.285  24.970  27.554  1.00  0.00     0.167 HD
ATOM     55  C   UNL A   1      42.236  30.465  29.740  1.00  0.00     0.034 A 
ATOM     56  C   UNL A   1      48.460  26.728  28.485  1.00  0.00     0.034 A 
ATOM     57  C   UNL A   1      43.562  30.537  30.377  1.00  0.00     0.049 A 
ATOM     58  C   UNL A   1      48.654  28.168  28.824  1.00  0.00     0.074 A 
ATOM     59  C   UNL A   1      44.107  29.934  31.496  1.00  0.00     0.029 A 
ATOM     60  N   UNL A   1      44.633  31.042  29.643  1.00  0.00    -0.354 N 
ATOM     61  N   UNL A   1      47.661  28.880  29.264  1.00  0.00    -0.248 NA
ATOM     62  C   UNL A   1      49.891  28.935  28.716  1.00  0.00     0.031 C 
ATOM     63  C   UNL A   1      45.525  30.022  31.387  1.00  0.00     0.029 A 
ATOM     64  C   UNL A   1      45.843  30.705  30.223  1.00  0.00     0.049 A 
ATOM     65  H   UNL A   1      44.541  31.571  28.818  1.00  0.00     0.167 HD
ATOM     66  C   UNL A   1      48.032  30.171  29.370  1.00  0.00     0.074 A 
ATOM     67  C   UNL A   1      49.453  30.159  29.065  1.00  0.00     0.031 C 
ATOM     68  C   UNL A   1      47.096  31.129  29.599  1.00  0.00     0.034 A 
BRANCH  55  69
ATOM     69  C   UNL A   1      40.955  30.916  30.434  1.00  0.00     0.023 A 
ATOM     70  C   UNL A   1      40.767  32.314  30.512  1.00  0.00     0.012 A 
ATOM     71  C   UNL A   1      39.949  30.128  31.059  1.00  0.00     0.148 A 
ATOM     72  C   UNL A   1      39.674  32.897  31.160  1.00  0.00     0.002 A 
ATOM     73  C   UNL A   1      38.827  30.709  31.663  1.00  0.00     0.091 A 
ATOM     74  F   UNL A   1      40.070  28.804  31.140  1.00  0.00    -0.205 F 
ATOM     75  C   UNL A   1      38.695  32.097  31.723  1.00  0.00     0.022 A 
BRANCH  73  76
ATOM     76  S   UNL A   1      37.483  29.745  32.393  1.00  0.00     0.127 S 
ATOM     77  O   UNL A   1      38.183  28.962  33.411  1.00  0.00    -0.237 OA
ATOM     78  O   UNL A   1      36.608  30.789  32.926  1.00  0.00    -0.237 OA
ATOM     79  O   UNL A   1      36.901  28.955  31.314  1.00  0.00    -0.744 OA
ENDBRANCH  73  76
ENDBRANCH  55  69
BRANCH  56  80
ATOM     80  C   UNL A   1      48.913  26.059  27.236  1.00  0.00     0.023 A 
ATOM     81  C   UNL A   1      48.219  26.537  26.126  1.00  0.00     0.012 A 
ATOM     82  C   UNL A   1      50.230  25.588  27.073  1.00  0.00     0.148 A 
ATOM     83  C   UNL A   1      48.967  26.923  25.026  1.00  0.00     0.002 A 
ATOM     84  C   UNL A   1      50.889  25.810  25.861  1.00  0.00     0.091 A 
ATOM     85  F   UNL A   1      50.845  25.051  28.133  1.00  0.00    -0.205 F 
ATOM     86  C   UNL A   1      50.261  26.517  24.845  1.00  0.00     0.022 A 
BRANCH  84  87
ATOM     87  S   UNL A   1      52.644  25.599  25.601  1.00  0.00     0.127 S 
ATOM     88  O   UNL A   1      52.798  24.149  25.662  1.00  0.00    -0.237 OA
ATOM     89  O   UNL A   1      52.814  26.131  24.255  1.00  0.00    -0.237 OA
ATOM     90  O   UNL A   1      53.283  26.366  26.656  1.00  0.00    -0.744 OA
ENDBRANCH  84  87
ENDBRANCH  56  80
BRANCH  68  91
ATOM     91  C   UNL A   1      47.324  32.553  29.205  1.00  0.00     0.023 A 
ATOM     92  C   UNL A   1      47.668  33.535  30.158  1.00  0.00     0.012 A 
ATOM     93  C   UNL A   1      47.362  32.921  27.847  1.00  0.00     0.148 A 
ATOM     94  C   UNL A   1      47.895  34.858  29.792  1.00  0.00     0.002 A 
ATOM     95  C   UNL A   1      47.735  34.201  27.480  1.00  0.00     0.091 A 
ATOM     96  F   UNL A   1      47.022  32.033  26.902  1.00  0.00    -0.205 F 
ATOM     97  C   UNL A   1      47.943  35.189  28.447  1.00  0.00     0.022 A 
BRANCH  95  98
ATOM     98  S   UNL A   1      48.101  34.600  25.772  1.00  0.00     0.127 S 
ATOM     99  O   UNL A   1      49.058  33.551  25.426  1.00  0.00    -0.237 OA
ATOM    100  O   UNL A   1      46.787  34.466  25.141  1.00  0.00    -0.237 OA
ATOM    101  O   UNL A   1      48.622  35.960  25.788  1.00  0.00    -0.744 OA
ENDBRANCH  95  98
ENDBRANCH  68  91
ENDBRANCH  42  43
ENDBRANCH  35  37
ENDBRANCH  34  35
ENDBRANCH  33  34
ENDBRANCH  32  33
ENDBRANCH  31  32
ENDBRANCH   1  31
TORSDOF 21
ENDMDL
