MODEL 1
REMARK VINA RESULT:      -9.7      0.000      0.000
REMARK SMILES O=C(CS(=O)(=O)N1CCC1)OCCOCCOC(=O)c1ccc(-c2c3nc(c(-c4cccc(S(=O)(=O)[O-])c4F)c4ccc([nH]4)c(-c4cccc(S(=O)(=O)[O-])c4F)c4nc(c(-c5cccc(S(=O)(=O)[O-])c5F)c5ccc2[nH]5)C=C4)C=C3)cc1
REMARK SMILES IDX 15 1 14 2 13 3 12 4 11 5 2 6 1 7 3 8 4 9 5 10 6 11 7 12 8 13
REMARK SMILES IDX 10 14 9 15 16 16 17 17 18 18 19 19 20 20 21 21 82 22 22 23
REMARK SMILES IDX 81 24 23 25 24 26 25 27 75 28 26 29 80 30 74 31 76 32 27 33
REMARK SMILES IDX 79 34 73 35 72 36 28 38 60 39 40 40 59 41 41 42 44 43 58 44
REMARK SMILES IDX 77 45 42 46 43 47 57 49 78 50 45 51 29 52 30 53 38 54 31 55
REMARK SMILES IDX 33 56 39 57 32 58 34 59 35 60 36 61 37 62 61 63 62 64 70 65
REMARK SMILES IDX 63 66 65 67 71 68 64 69 66 70 67 71 68 72 69 73 46 74 47 75
REMARK SMILES IDX 55 76 48 77 50 78 56 79 49 80 51 81 52 82 53 83 54 84
REMARK H PARENT 76 37 44 48
REMARK Flexibility Score: inf
ROOT
ATOM      1  C   UNL A   1      32.539  29.691  25.377  1.00  0.00     0.202 C 
ENDROOT
BRANCH   1   2
ATOM      2  O   UNL A   1      31.931  29.332  24.134  1.00  0.00    -0.374 OA
BRANCH   2   3
ATOM      3  C   UNL A   1      30.652  28.712  24.174  1.00  0.00     0.202 C 
BRANCH   3   4
ATOM      4  C   UNL A   1      30.556  27.204  23.931  1.00  0.00     0.261 C 
BRANCH   4   5
ATOM      5  O   UNL A   1      31.780  26.456  23.873  1.00  0.00    -0.462 OA
BRANCH   5   6
ATOM      6  C   UNL A   1      32.514  25.969  24.890  1.00  0.00     0.322 C 
ATOM      7  O   UNL A   1      33.707  25.732  24.682  1.00  0.00    -0.251 OA
BRANCH   6   8
ATOM      8  C   UNL A   1      31.906  25.554  26.178  1.00  0.00     0.276 C 
BRANCH   8   9
ATOM      9  S   UNL A   1      31.407  23.878  26.256  1.00  0.00     0.224 S 
ATOM     10  O   UNL A   1      30.462  23.683  27.333  1.00  0.00    -0.212 OA
ATOM     11  O   UNL A   1      31.054  23.474  24.909  1.00  0.00    -0.212 OA
BRANCH   9  12
ATOM     12  N   UNL A   1      32.833  23.103  26.650  1.00  0.00    -0.201 NA
ATOM     13  C   UNL A   1      33.132  22.359  27.910  1.00  0.00     0.103 C 
ATOM     14  C   UNL A   1      33.442  21.990  25.876  1.00  0.00     0.103 C 
ATOM     15  C   UNL A   1      34.196  21.552  27.143  1.00  0.00     0.033 C 
ENDBRANCH   9  12
ENDBRANCH   8   9
ENDBRANCH   6   8
ENDBRANCH   5   6
ENDBRANCH   4   5
ENDBRANCH   3   4
ENDBRANCH   2   3
ENDBRANCH   1   2
BRANCH   1  16
ATOM     16  C   UNL A   1      31.906  30.876  26.102  1.00  0.00     0.261 C 
BRANCH  16  17
ATOM     17  O   UNL A   1      32.493  31.039  27.398  1.00  0.00    -0.460 OA
BRANCH  17  18
ATOM     18  C   UNL A   1      33.333  32.096  27.518  1.00  0.00     0.338 C 
ATOM     19  O   UNL A   1      33.051  33.274  27.452  1.00  0.00    -0.246 OA
BRANCH  18  20
ATOM     20  C   UNL A   1      34.645  31.592  27.968  1.00  0.00     0.060 A 
ATOM     21  C   UNL A   1      34.761  30.218  28.214  1.00  0.00     0.016 A 
ATOM     22  C   UNL A   1      35.733  32.447  28.151  1.00  0.00     0.016 A 
ATOM     23  C   UNL A   1      35.958  29.700  28.697  1.00  0.00     0.010 A 
ATOM     24  C   UNL A   1      36.929  31.929  28.643  1.00  0.00     0.010 A 
ATOM     25  C   UNL A   1      37.030  30.562  28.956  1.00  0.00    -0.014 A 
BRANCH  25  26
ATOM     26  C   UNL A   1      38.199  30.060  29.705  1.00  0.00     0.031 A 
ATOM     27  C   UNL A   1      38.424  30.563  31.103  1.00  0.00     0.074 A 
ATOM     28  C   UNL A   1      39.034  29.168  29.146  1.00  0.00     0.049 A 
ATOM     29  N   UNL A   1      39.392  30.286  31.935  1.00  0.00    -0.248 NA
ATOM     30  C   UNL A   1      37.428  31.511  31.633  1.00  0.00     0.031 C 
ATOM     31  C   UNL A   1      38.903  28.617  27.798  1.00  0.00     0.029 A 
ATOM     32  N   UNL A   1      40.174  28.589  29.638  1.00  0.00    -0.354 N 
ATOM     33  C   UNL A   1      39.139  31.041  33.073  1.00  0.00     0.074 A 
ATOM     34  C   UNL A   1      37.935  31.802  32.821  1.00  0.00     0.031 C 
ATOM     35  C   UNL A   1      39.943  27.800  27.559  1.00  0.00     0.029 A 
ATOM     36  C   UNL A   1      40.822  27.791  28.726  1.00  0.00     0.049 A 
ATOM     37  H   UNL A   1      40.498  28.731  30.557  1.00  0.00     0.167 HD
ATOM     38  C   UNL A   1      39.838  31.082  34.231  1.00  0.00     0.034 A 
ATOM     39  C   UNL A   1      42.002  27.151  28.819  1.00  0.00     0.034 A 
ATOM     40  C   UNL A   1      41.025  30.311  34.473  1.00  0.00     0.049 A 
ATOM     41  C   UNL A   1      42.773  27.235  30.112  1.00  0.00     0.074 A 
ATOM     42  C   UNL A   1      41.789  30.245  35.625  1.00  0.00     0.029 A 
ATOM     43  N   UNL A   1      41.630  29.479  33.543  1.00  0.00    -0.354 N 
ATOM     44  N   UNL A   1      42.462  27.861  31.221  1.00  0.00    -0.248 NA
ATOM     45  C   UNL A   1      44.040  26.493  30.178  1.00  0.00     0.031 C 
ATOM     46  C   UNL A   1      42.875  29.400  35.378  1.00  0.00     0.029 A 
ATOM     47  C   UNL A   1      42.766  28.906  34.088  1.00  0.00     0.049 A 
ATOM     48  H   UNL A   1      41.301  29.320  32.629  1.00  0.00     0.167 HD
ATOM     49  C   UNL A   1      43.473  27.561  32.127  1.00  0.00     0.074 A 
ATOM     50  C   UNL A   1      44.392  26.674  31.442  1.00  0.00     0.031 C 
ATOM     51  C   UNL A   1      43.639  27.988  33.404  1.00  0.00     0.034 A 
BRANCH  38  52
ATOM     52  C   UNL A   1      39.328  31.976  35.329  1.00  0.00     0.023 A 
ATOM     53  C   UNL A   1      38.391  31.479  36.258  1.00  0.00     0.012 A 
ATOM     54  C   UNL A   1      39.823  33.286  35.481  1.00  0.00     0.148 A 
ATOM     55  C   UNL A   1      37.936  32.280  37.305  1.00  0.00     0.002 A 
ATOM     56  C   UNL A   1      39.400  34.061  36.553  1.00  0.00     0.091 A 
ATOM     57  F   UNL A   1      40.694  33.748  34.572  1.00  0.00    -0.205 F 
ATOM     58  C   UNL A   1      38.449  33.564  37.460  1.00  0.00     0.022 A 
BRANCH  56  59
ATOM     59  S   UNL A   1      40.057  35.699  36.886  1.00  0.00     0.127 S 
ATOM     60  O   UNL A   1      39.390  36.035  38.143  1.00  0.00    -0.237 OA
ATOM     61  O   UNL A   1      41.491  35.433  37.009  1.00  0.00    -0.237 OA
ATOM     62  O   UNL A   1      39.686  36.524  35.746  1.00  0.00    -0.744 OA
ENDBRANCH  56  59
ENDBRANCH  38  52
BRANCH  39  63
ATOM     63  C   UNL A   1      42.522  26.360  27.669  1.00  0.00     0.023 A 
ATOM     64  C   UNL A   1      43.427  26.951  26.766  1.00  0.00     0.012 A 
ATOM     65  C   UNL A   1      42.125  25.025  27.464  1.00  0.00     0.148 A 
ATOM     66  C   UNL A   1      43.891  26.243  25.657  1.00  0.00     0.002 A 
ATOM     67  C   UNL A   1      42.637  24.305  26.392  1.00  0.00     0.091 A 
ATOM     68  F   UNL A   1      41.252  24.482  28.326  1.00  0.00    -0.205 F 
ATOM     69  C   UNL A   1      43.505  24.918  25.475  1.00  0.00     0.022 A 
BRANCH  67  70
ATOM     70  S   UNL A   1      42.297  22.557  26.158  1.00  0.00     0.127 S 
ATOM     71  O   UNL A   1      42.997  22.281  24.906  1.00  0.00    -0.237 OA
ATOM     72  O   UNL A   1      42.910  21.969  27.350  1.00  0.00    -0.237 OA
ATOM     73  O   UNL A   1      40.846  22.442  26.113  1.00  0.00    -0.744 OA
ENDBRANCH  67  70
ENDBRANCH  39  63
BRANCH  51  74
ATOM     74  C   UNL A   1      44.836  27.470  34.159  1.00  0.00     0.023 A 
ATOM     75  C   UNL A   1      46.053  28.179  34.123  1.00  0.00     0.012 A 
ATOM     76  C   UNL A   1      44.735  26.308  34.950  1.00  0.00     0.148 A 
ATOM     77  C   UNL A   1      47.164  27.715  34.827  1.00  0.00     0.002 A 
ATOM     78  C   UNL A   1      45.829  25.883  35.692  1.00  0.00     0.091 A 
ATOM     79  F   UNL A   1      43.572  25.640  34.959  1.00  0.00    -0.205 F 
ATOM     80  C   UNL A   1      47.048  26.575  35.619  1.00  0.00     0.022 A 
BRANCH  78  81
ATOM     81  S   UNL A   1      45.744  24.485  36.817  1.00  0.00     0.127 S 
ATOM     82  O   UNL A   1      44.733  24.934  37.773  1.00  0.00    -0.237 OA
ATOM     83  O   UNL A   1      45.312  23.402  35.934  1.00  0.00    -0.237 OA
ATOM     84  O   UNL A   1      47.087  24.324  37.359  1.00  0.00    -0.744 OA
ENDBRANCH  78  81
ENDBRANCH  51  74
ENDBRANCH  25  26
ENDBRANCH  18  20
ENDBRANCH  17  18
ENDBRANCH  16  17
ENDBRANCH   1  16
TORSDOF 19
ENDMDL
MODEL 2
REMARK VINA RESULT:      -9.6      2.615      8.631
REMARK SMILES O=C(CS(=O)(=O)N1CCC1)OCCOCCOC(=O)c1ccc(-c2c3nc(c(-c4cccc(S(=O)(=O)[O-])c4F)c4ccc([nH]4)c(-c4cccc(S(=O)(=O)[O-])c4F)c4nc(c(-c5cccc(S(=O)(=O)[O-])c5F)c5ccc2[nH]5)C=C4)C=C3)cc1
REMARK SMILES IDX 15 1 14 2 13 3 12 4 11 5 2 6 1 7 3 8 4 9 5 10 6 11 7 12 8 13
REMARK SMILES IDX 10 14 9 15 16 16 17 17 18 18 19 19 20 20 21 21 82 22 22 23
REMARK SMILES IDX 81 24 23 25 24 26 25 27 75 28 26 29 80 30 74 31 76 32 27 33
REMARK SMILES IDX 79 34 73 35 72 36 28 38 60 39 40 40 59 41 41 42 44 43 58 44
REMARK SMILES IDX 77 45 42 46 43 47 57 49 78 50 45 51 29 52 30 53 38 54 31 55
REMARK SMILES IDX 33 56 39 57 32 58 34 59 35 60 36 61 37 62 61 63 62 64 70 65
REMARK SMILES IDX 63 66 65 67 71 68 64 69 66 70 67 71 68 72 69 73 46 74 47 75
REMARK SMILES IDX 55 76 48 77 50 78 56 79 49 80 51 81 52 82 53 83 54 84
REMARK H PARENT 76 37 44 48
REMARK Flexibility Score: inf
ROOT
ATOM      1  C   UNL A   1      32.930  29.519  25.297  1.00  0.00     0.202 C 
ENDROOT
BRANCH   1   2
ATOM      2  O   UNL A   1      32.682  29.339  23.901  1.00  0.00    -0.374 OA
BRANCH   2   3
ATOM      3  C   UNL A   1      33.164  28.150  23.288  1.00  0.00     0.202 C 
BRANCH   3   4
ATOM      4  C   UNL A   1      32.152  27.132  22.756  1.00  0.00     0.261 C 
BRANCH   4   5
ATOM      5  O   UNL A   1      30.901  27.629  22.259  1.00  0.00    -0.462 OA
BRANCH   5   6
ATOM      6  C   UNL A   1      29.783  27.922  22.949  1.00  0.00     0.322 C 
ATOM      7  O   UNL A   1      29.604  27.351  24.029  1.00  0.00    -0.251 OA
BRANCH   6   8
ATOM      8  C   UNL A   1      28.699  28.762  22.384  1.00  0.00     0.276 C 
BRANCH   8   9
ATOM      9  S   UNL A   1      28.529  30.342  23.117  1.00  0.00     0.224 S 
ATOM     10  O   UNL A   1      27.228  30.474  23.734  1.00  0.00    -0.212 OA
ATOM     11  O   UNL A   1      29.724  30.580  23.904  1.00  0.00    -0.212 OA
BRANCH   9  12
ATOM     12  N   UNL A   1      28.596  31.356  21.792  1.00  0.00    -0.201 NA
ATOM     13  C   UNL A   1      28.012  31.107  20.440  1.00  0.00     0.103 C 
ATOM     14  C   UNL A   1      28.052  32.739  21.746  1.00  0.00     0.103 C 
ATOM     15  C   UNL A   1      27.967  32.629  20.214  1.00  0.00     0.033 C 
ENDBRANCH   9  12
ENDBRANCH   8   9
ENDBRANCH   6   8
ENDBRANCH   5   6
ENDBRANCH   4   5
ENDBRANCH   3   4
ENDBRANCH   2   3
ENDBRANCH   1   2
BRANCH   1  16
ATOM     16  C   UNL A   1      32.038  30.540  25.998  1.00  0.00     0.261 C 
BRANCH  16  17
ATOM     17  O   UNL A   1      32.534  30.817  27.313  1.00  0.00    -0.460 OA
BRANCH  17  18
ATOM     18  C   UNL A   1      33.317  31.919  27.409  1.00  0.00     0.338 C 
ATOM     19  O   UNL A   1      32.984  33.077  27.264  1.00  0.00    -0.246 OA
BRANCH  18  20
ATOM     20  C   UNL A   1      34.628  31.506  27.947  1.00  0.00     0.060 A 
ATOM     21  C   UNL A   1      34.788  30.161  28.302  1.00  0.00     0.016 A 
ATOM     22  C   UNL A   1      35.673  32.418  28.105  1.00  0.00     0.016 A 
ATOM     23  C   UNL A   1      35.983  29.732  28.869  1.00  0.00     0.010 A 
ATOM     24  C   UNL A   1      36.867  31.990  28.680  1.00  0.00     0.010 A 
ATOM     25  C   UNL A   1      37.008  30.656  29.102  1.00  0.00    -0.014 A 
BRANCH  25  26
ATOM     26  C   UNL A   1      38.165  30.261  29.930  1.00  0.00     0.031 A 
ATOM     27  C   UNL A   1      39.143  29.268  29.367  1.00  0.00     0.074 A 
ATOM     28  C   UNL A   1      38.338  30.785  31.155  1.00  0.00     0.049 A 
ATOM     29  N   UNL A   1      40.210  28.756  29.918  1.00  0.00    -0.248 NA
ATOM     30  C   UNL A   1      38.880  28.783  28.000  1.00  0.00     0.031 C 
ATOM     31  C   UNL A   1      37.448  31.755  31.791  1.00  0.00     0.029 A 
ATOM     32  N   UNL A   1      39.310  30.553  32.092  1.00  0.00    -0.354 N 
ATOM     33  C   UNL A   1      40.731  27.871  28.982  1.00  0.00     0.074 A 
ATOM     34  C   UNL A   1      39.855  27.902  27.832  1.00  0.00     0.031 C 
ATOM     35  C   UNL A   1      37.901  32.014  33.030  1.00  0.00     0.029 A 
ATOM     36  C   UNL A   1      39.095  31.211  33.279  1.00  0.00     0.049 A 
ATOM     37  H   UNL A   1      40.089  29.972  31.929  1.00  0.00     0.167 HD
ATOM     38  C   UNL A   1      41.849  27.114  29.068  1.00  0.00     0.034 A 
ATOM     39  C   UNL A   1      39.774  31.146  34.440  1.00  0.00     0.034 A 
ATOM     40  C   UNL A   1      42.718  27.102  30.211  1.00  0.00     0.049 A 
ATOM     41  C   UNL A   1      41.001  30.274  34.515  1.00  0.00     0.074 A 
ATOM     42  C   UNL A   1      43.900  26.404  30.387  1.00  0.00     0.029 A 
ATOM     43  N   UNL A   1      42.495  27.813  31.380  1.00  0.00    -0.354 N 
ATOM     44  N   UNL A   1      41.547  29.532  33.582  1.00  0.00    -0.248 NA
ATOM     45  C   UNL A   1      41.727  30.261  35.792  1.00  0.00     0.031 C 
ATOM     46  C   UNL A   1      44.372  26.667  31.677  1.00  0.00     0.029 A 
ATOM     47  C   UNL A   1      43.507  27.561  32.290  1.00  0.00     0.049 A 
ATOM     48  H   UNL A   1      41.728  28.409  31.542  1.00  0.00     0.167 HD
ATOM     49  C   UNL A   1      42.697  28.993  34.147  1.00  0.00     0.074 A 
ATOM     50  C   UNL A   1      42.783  29.517  35.494  1.00  0.00     0.031 C 
ATOM     51  C   UNL A   1      43.597  28.131  33.608  1.00  0.00     0.034 A 
BRANCH  38  52
ATOM     52  C   UNL A   1      42.206  26.251  27.887  1.00  0.00     0.023 A 
ATOM     53  C   UNL A   1      43.067  26.751  26.889  1.00  0.00     0.012 A 
ATOM     54  C   UNL A   1      41.743  24.924  27.798  1.00  0.00     0.148 A 
ATOM     55  C   UNL A   1      43.440  25.953  25.808  1.00  0.00     0.002 A 
ATOM     56  C   UNL A   1      42.156  24.120  26.743  1.00  0.00     0.091 A 
ATOM     57  F   UNL A   1      40.906  24.476  28.745  1.00  0.00    -0.205 F 
ATOM     58  C   UNL A   1      42.996  24.636  25.741  1.00  0.00     0.022 A 
BRANCH  56  59
ATOM     59  S   UNL A   1      41.703  22.388  26.607  1.00  0.00     0.127 S 
ATOM     60  O   UNL A   1      42.300  22.026  25.322  1.00  0.00    -0.237 OA
ATOM     61  O   UNL A   1      42.369  21.806  27.773  1.00  0.00    -0.237 OA
ATOM     62  O   UNL A   1      40.249  22.345  26.651  1.00  0.00    -0.744 OA
ENDBRANCH  56  59
ENDBRANCH  38  52
BRANCH  39  63
ATOM     63  C   UNL A   1      39.325  31.938  35.619  1.00  0.00     0.023 A 
ATOM     64  C   UNL A   1      39.710  33.288  35.742  1.00  0.00     0.012 A 
ATOM     65  C   UNL A   1      38.518  31.362  36.619  1.00  0.00     0.148 A 
ATOM     66  C   UNL A   1      39.337  34.035  36.859  1.00  0.00     0.002 A 
ATOM     67  C   UNL A   1      38.101  32.129  37.700  1.00  0.00     0.091 A 
ATOM     68  F   UNL A   1      38.173  30.073  36.493  1.00  0.00    -0.205 F 
ATOM     69  C   UNL A   1      38.526  33.460  37.833  1.00  0.00     0.022 A 
BRANCH  67  70
ATOM     70  S   UNL A   1      36.948  31.509  38.930  1.00  0.00     0.127 S 
ATOM     71  O   UNL A   1      36.759  30.128  38.493  1.00  0.00    -0.237 OA
ATOM     72  O   UNL A   1      37.716  31.665  40.167  1.00  0.00    -0.237 OA
ATOM     73  O   UNL A   1      35.777  32.370  38.841  1.00  0.00    -0.744 OA
ENDBRANCH  67  70
ENDBRANCH  39  63
BRANCH  51  74
ATOM     74  C   UNL A   1      44.773  27.733  34.462  1.00  0.00     0.023 A 
ATOM     75  C   UNL A   1      45.935  28.531  34.478  1.00  0.00     0.012 A 
ATOM     76  C   UNL A   1      44.703  26.597  35.293  1.00  0.00     0.148 A 
ATOM     77  C   UNL A   1      47.025  28.178  35.273  1.00  0.00     0.002 A 
ATOM     78  C   UNL A   1      45.771  26.284  36.123  1.00  0.00     0.091 A 
ATOM     79  F   UNL A   1      43.594  25.843  35.252  1.00  0.00    -0.205 F 
ATOM     80  C   UNL A   1      46.938  27.063  36.103  1.00  0.00     0.022 A 
BRANCH  78  81
ATOM     81  S   UNL A   1      45.711  24.926  37.298  1.00  0.00     0.127 S 
ATOM     82  O   UNL A   1      44.616  25.338  38.173  1.00  0.00    -0.237 OA
ATOM     83  O   UNL A   1      45.407  23.783  36.435  1.00  0.00    -0.237 OA
ATOM     84  O   UNL A   1      47.026  24.877  37.923  1.00  0.00    -0.744 OA
ENDBRANCH  78  81
ENDBRANCH  51  74
ENDBRANCH  25  26
ENDBRANCH  18  20
ENDBRANCH  17  18
ENDBRANCH  16  17
ENDBRANCH   1  16
TORSDOF 19
ENDMDL
MODEL 3
REMARK VINA RESULT:      -9.5      5.403      7.702
REMARK SMILES O=C(CS(=O)(=O)N1CCC1)OCCOCCOC(=O)c1ccc(-c2c3nc(c(-c4cccc(S(=O)(=O)[O-])c4F)c4ccc([nH]4)c(-c4cccc(S(=O)(=O)[O-])c4F)c4nc(c(-c5cccc(S(=O)(=O)[O-])c5F)c5ccc2[nH]5)C=C4)C=C3)cc1
REMARK SMILES IDX 15 1 14 2 13 3 12 4 11 5 2 6 1 7 3 8 4 9 5 10 6 11 7 12 8 13
REMARK SMILES IDX 10 14 9 15 16 16 17 17 18 18 19 19 20 20 21 21 82 22 22 23
REMARK SMILES IDX 81 24 23 25 24 26 25 27 75 28 26 29 80 30 74 31 76 32 27 33
REMARK SMILES IDX 79 34 73 35 72 36 28 38 60 39 40 40 59 41 41 42 44 43 58 44
REMARK SMILES IDX 77 45 42 46 43 47 57 49 78 50 45 51 29 52 30 53 38 54 31 55
REMARK SMILES IDX 33 56 39 57 32 58 34 59 35 60 36 61 37 62 61 63 62 64 70 65
REMARK SMILES IDX 63 66 65 67 71 68 64 69 66 70 67 71 68 72 69 73 46 74 47 75
REMARK SMILES IDX 55 76 48 77 50 78 56 79 49 80 51 81 52 82 53 83 54 84
REMARK H PARENT 76 37 44 48
REMARK Flexibility Score: inf
ROOT
ATOM      1  C   UNL A   1      35.677  21.967  26.114  1.00  0.00     0.202 C 
ENDROOT
BRANCH   1   2
ATOM      2  O   UNL A   1      34.617  22.473  25.300  1.00  0.00    -0.374 OA
BRANCH   2   3
ATOM      3  C   UNL A   1      34.933  23.477  24.345  1.00  0.00     0.202 C 
BRANCH   3   4
ATOM      4  C   UNL A   1      34.537  23.256  22.883  1.00  0.00     0.261 C 
BRANCH   4   5
ATOM      5  O   UNL A   1      33.319  23.858  22.421  1.00  0.00    -0.462 OA
BRANCH   5   6
ATOM      6  C   UNL A   1      33.063  25.159  22.188  1.00  0.00     0.322 C 
ATOM      7  O   UNL A   1      34.024  25.917  22.030  1.00  0.00    -0.251 OA
BRANCH   6   8
ATOM      8  C   UNL A   1      31.697  25.728  22.285  1.00  0.00     0.276 C 
BRANCH   8   9
ATOM      9  S   UNL A   1      31.292  26.419  23.841  1.00  0.00     0.224 S 
ATOM     10  O   UNL A   1      32.122  27.572  24.112  1.00  0.00    -0.212 OA
ATOM     11  O   UNL A   1      29.848  26.547  23.890  1.00  0.00    -0.212 OA
BRANCH   9  12
ATOM     12  N   UNL A   1      31.718  25.196  24.894  1.00  0.00    -0.201 NA
ATOM     13  C   UNL A   1      32.505  25.330  26.157  1.00  0.00     0.103 C 
ATOM     14  C   UNL A   1      30.761  24.314  25.613  1.00  0.00     0.103 C 
ATOM     15  C   UNL A   1      31.844  24.038  26.669  1.00  0.00     0.033 C 
ENDBRANCH   9  12
ENDBRANCH   8   9
ENDBRANCH   6   8
ENDBRANCH   5   6
ENDBRANCH   4   5
ENDBRANCH   3   4
ENDBRANCH   2   3
ENDBRANCH   1   2
BRANCH   1  16
ATOM     16  C   UNL A   1      36.655  21.029  25.413  1.00  0.00     0.261 C 
BRANCH  16  17
ATOM     17  O   UNL A   1      37.883  21.710  25.128  1.00  0.00    -0.460 OA
BRANCH  17  18
ATOM     18  C   UNL A   1      38.924  21.373  25.930  1.00  0.00     0.338 C 
ATOM     19  O   UNL A   1      39.471  20.294  26.015  1.00  0.00    -0.246 OA
BRANCH  18  20
ATOM     20  C   UNL A   1      39.448  22.608  26.545  1.00  0.00     0.060 A 
ATOM     21  C   UNL A   1      38.918  23.827  26.104  1.00  0.00     0.016 A 
ATOM     22  C   UNL A   1      40.439  22.571  27.527  1.00  0.00     0.016 A 
ATOM     23  C   UNL A   1      39.419  25.022  26.608  1.00  0.00     0.010 A 
ATOM     24  C   UNL A   1      40.947  23.769  28.026  1.00  0.00     0.010 A 
ATOM     25  C   UNL A   1      40.466  24.996  27.536  1.00  0.00    -0.014 A 
BRANCH  25  26
ATOM     26  C   UNL A   1      41.167  26.252  27.874  1.00  0.00     0.031 A 
ATOM     27  C   UNL A   1      40.391  27.342  28.559  1.00  0.00     0.074 A 
ATOM     28  C   UNL A   1      42.469  26.407  27.579  1.00  0.00     0.049 A 
ATOM     29  N   UNL A   1      40.786  28.532  28.924  1.00  0.00    -0.248 NA
ATOM     30  C   UNL A   1      38.979  27.054  28.870  1.00  0.00     0.031 C 
ATOM     31  C   UNL A   1      43.309  25.411  26.917  1.00  0.00     0.029 A 
ATOM     32  N   UNL A   1      43.303  27.476  27.778  1.00  0.00    -0.354 N 
ATOM     33  C   UNL A   1      39.670  29.144  29.481  1.00  0.00     0.074 A 
ATOM     34  C   UNL A   1      38.577  28.202  29.393  1.00  0.00     0.031 C 
ATOM     35  C   UNL A   1      44.536  25.928  26.737  1.00  0.00     0.029 A 
ATOM     36  C   UNL A   1      44.558  27.296  27.248  1.00  0.00     0.049 A 
ATOM     37  H   UNL A   1      43.030  28.292  28.255  1.00  0.00     0.167 HD
ATOM     38  C   UNL A   1      39.572  30.376  30.034  1.00  0.00     0.034 A 
ATOM     39  C   UNL A   1      45.593  28.153  27.165  1.00  0.00     0.034 A 
ATOM     40  C   UNL A   1      40.670  31.298  30.127  1.00  0.00     0.049 A 
ATOM     41  C   UNL A   1      45.447  29.528  27.765  1.00  0.00     0.074 A 
ATOM     42  C   UNL A   1      40.691  32.555  30.704  1.00  0.00     0.029 A 
ATOM     43  N   UNL A   1      41.939  31.068  29.620  1.00  0.00    -0.354 N 
ATOM     44  N   UNL A   1      44.422  30.052  28.393  1.00  0.00    -0.248 NA
ATOM     45  C   UNL A   1      46.614  30.416  27.679  1.00  0.00     0.031 C 
ATOM     46  C   UNL A   1      41.965  33.098  30.514  1.00  0.00     0.029 A 
ATOM     47  C   UNL A   1      42.750  32.164  29.857  1.00  0.00     0.049 A 
ATOM     48  H   UNL A   1      42.223  30.246  29.158  1.00  0.00     0.167 HD
ATOM     49  C   UNL A   1      44.831  31.314  28.807  1.00  0.00     0.074 A 
ATOM     50  C   UNL A   1      46.208  31.463  28.382  1.00  0.00     0.031 C 
ATOM     51  C   UNL A   1      44.132  32.272  29.466  1.00  0.00     0.034 A 
BRANCH  38  52
ATOM     52  C   UNL A   1      38.238  30.790  30.595  1.00  0.00     0.023 A 
ATOM     53  C   UNL A   1      37.927  30.509  31.941  1.00  0.00     0.012 A 
ATOM     54  C   UNL A   1      37.319  31.515  29.811  1.00  0.00     0.148 A 
ATOM     55  C   UNL A   1      36.712  30.920  32.490  1.00  0.00     0.002 A 
ATOM     56  C   UNL A   1      36.132  31.960  30.377  1.00  0.00     0.091 A 
ATOM     57  F   UNL A   1      37.624  31.750  28.526  1.00  0.00    -0.205 F 
ATOM     58  C   UNL A   1      35.822  31.655  31.713  1.00  0.00     0.022 A 
BRANCH  56  59
ATOM     59  S   UNL A   1      34.953  32.980  29.485  1.00  0.00     0.127 S 
ATOM     60  O   UNL A   1      34.403  32.023  28.525  1.00  0.00    -0.237 OA
ATOM     61  O   UNL A   1      34.029  33.377  30.547  1.00  0.00    -0.237 OA
ATOM     62  O   UNL A   1      35.721  34.071  28.904  1.00  0.00    -0.744 OA
ENDBRANCH  56  59
ENDBRANCH  38  52
BRANCH  39  63
ATOM     63  C   UNL A   1      46.863  27.736  26.507  1.00  0.00     0.023 A 
ATOM     64  C   UNL A   1      47.907  27.196  27.282  1.00  0.00     0.012 A 
ATOM     65  C   UNL A   1      47.042  27.873  25.117  1.00  0.00     0.148 A 
ATOM     66  C   UNL A   1      49.121  26.840  26.693  1.00  0.00     0.002 A 
ATOM     67  C   UNL A   1      48.231  27.462  24.527  1.00  0.00     0.091 A 
ATOM     68  F   UNL A   1      46.043  28.403  24.397  1.00  0.00    -0.205 F 
ATOM     69  C   UNL A   1      49.280  26.964  25.315  1.00  0.00     0.022 A 
BRANCH  67  70
ATOM     70  S   UNL A   1      48.470  27.462  22.747  1.00  0.00     0.127 S 
ATOM     71  O   UNL A   1      49.825  27.996  22.627  1.00  0.00    -0.237 OA
ATOM     72  O   UNL A   1      48.337  26.040  22.425  1.00  0.00    -0.237 OA
ATOM     73  O   UNL A   1      47.407  28.299  22.208  1.00  0.00    -0.744 OA
ENDBRANCH  67  70
ENDBRANCH  39  63
BRANCH  51  74
ATOM     74  C   UNL A   1      44.855  33.550  29.805  1.00  0.00     0.023 A 
ATOM     75  C   UNL A   1      45.582  33.650  31.008  1.00  0.00     0.012 A 
ATOM     76  C   UNL A   1      44.859  34.631  28.902  1.00  0.00     0.148 A 
ATOM     77  C   UNL A   1      46.265  34.824  31.326  1.00  0.00     0.002 A 
ATOM     78  C   UNL A   1      45.586  35.775  29.201  1.00  0.00     0.091 A 
ATOM     79  F   UNL A   1      44.148  34.521  27.770  1.00  0.00    -0.205 F 
ATOM     80  C   UNL A   1      46.276  35.880  30.419  1.00  0.00     0.022 A 
BRANCH  78  81
ATOM     81  S   UNL A   1      45.740  37.146  28.050  1.00  0.00     0.127 S 
ATOM     82  O   UNL A   1      46.089  36.455  26.810  1.00  0.00    -0.237 OA
ATOM     83  O   UNL A   1      44.395  37.721  28.070  1.00  0.00    -0.237 OA
ATOM     84  O   UNL A   1      46.777  38.014  28.595  1.00  0.00    -0.744 OA
ENDBRANCH  78  81
ENDBRANCH  51  74
ENDBRANCH  25  26
ENDBRANCH  18  20
ENDBRANCH  17  18
ENDBRANCH  16  17
ENDBRANCH   1  16
TORSDOF 19
ENDMDL
