MODEL 1
REMARK VINA RESULT:     -11.2      0.000      0.000
REMARK SMILES CC1(C)[C@H](C(=O)OCCOCCOC(=O)c2ccc(-c3c4nc(c(-c5cccc(S(=O)(=O)[O-])c5F)c5ccc([nH]5)c(-c5cccc(S(=O)(=O)[O-])c5F)c5nc(c(-c6cccc(S(=O)(=O)[O-])c6F)c6ccc3[nH]6)C=C5)C=C4)cc2)[C@@H]1C(=O)Nc1ccc(Cl)c(Br)c1
REMARK SMILES IDX 11 1 10 2 9 3 8 4 7 5 5 6 6 7 4 8 1 9 2 10 3 11 79 12 80 13
REMARK SMILES IDX 81 14 82 15 83 17 84 18 90 19 85 20 88 21 86 22 89 23 87 24
REMARK SMILES IDX 12 25 13 26 14 27 15 28 16 29 17 30 78 31 18 32 77 33 19 34
REMARK SMILES IDX 20 35 21 36 71 37 22 38 76 39 70 40 72 41 23 42 75 43 69 44
REMARK SMILES IDX 68 45 24 47 56 48 36 49 55 50 37 51 40 52 54 53 73 54 38 55
REMARK SMILES IDX 39 56 53 58 74 59 41 60 25 61 26 62 34 63 27 64 29 65 35 66
REMARK SMILES IDX 28 67 30 68 31 69 32 70 33 71 57 72 58 73 66 74 59 75 61 76
REMARK SMILES IDX 67 77 60 78 62 79 63 80 64 81 65 82 42 83 43 84 51 85 44 86
REMARK SMILES IDX 46 87 52 88 45 89 47 90 48 91 49 92 50 93
REMARK H PARENT 82 16 72 46 40 57
REMARK Flexibility Score: inf
ROOT
ATOM      1  C   UNL A   1      35.886  20.612  24.589  1.00  0.00     0.202 C 
ENDROOT
BRANCH   1   2
ATOM      2  O   UNL A   1      34.930  19.818  25.280  1.00  0.00    -0.374 OA
BRANCH   2   3
ATOM      3  C   UNL A   1      33.915  19.139  24.559  1.00  0.00     0.202 C 
BRANCH   3   4
ATOM      4  C   UNL A   1      32.525  19.771  24.365  1.00  0.00     0.261 C 
BRANCH   4   5
ATOM      5  O   UNL A   1      32.416  21.181  24.563  1.00  0.00    -0.463 OA
BRANCH   5   6
ATOM      6  C   UNL A   1      32.003  21.849  23.460  1.00  0.00     0.310 C 
ATOM      7  O   UNL A   1      32.076  21.422  22.315  1.00  0.00    -0.252 OA
BRANCH   6   8
ATOM      8  C   UNL A   1      31.326  23.141  23.707  1.00  0.00     0.118 C 
ATOM      9  C   UNL A   1      30.635  24.909  25.421  1.00  0.00     0.013 C 
ATOM     10  C   UNL A   1      31.748  24.262  24.629  1.00  0.00    -0.009 C 
ATOM     11  C   UNL A   1      33.045  24.199  25.404  1.00  0.00     0.013 C 
ATOM     12  C   UNL A   1      31.762  24.455  23.095  1.00  0.00     0.100 C 
BRANCH  12  13
ATOM     13  C   UNL A   1      33.058  24.769  22.434  1.00  0.00     0.228 C 
ATOM     14  O   UNL A   1      33.636  23.865  21.837  1.00  0.00    -0.274 OA
ATOM     15  N   UNL A   1      33.606  26.026  22.447  1.00  0.00    -0.326 N 
ATOM     16  H   UNL A   1      34.359  26.146  21.824  1.00  0.00     0.169 HD
BRANCH  15  17
ATOM     17  C   UNL A   1      33.284  27.169  23.190  1.00  0.00     0.042 A 
ATOM     18  C   UNL A   1      32.208  27.936  22.734  1.00  0.00     0.028 A 
ATOM     19  C   UNL A   1      33.942  27.537  24.364  1.00  0.00     0.043 A 
ATOM     20  C   UNL A   1      31.694  28.966  23.528  1.00  0.00     0.024 A 
ATOM     21  C   UNL A   1      33.438  28.581  25.155  1.00  0.00     0.038 A 
ATOM     22  C   UNL A   1      32.288  29.271  24.755  1.00  0.00     0.055 A 
ATOM     23  Br  UNL A   1      34.324  28.934  26.799  1.00  0.00    -0.049 Br
ATOM     24  Cl  UNL A   1      31.532  30.479  25.730  1.00  0.00    -0.083 Cl
ENDBRANCH  15  17
ENDBRANCH  12  13
ENDBRANCH   6   8
ENDBRANCH   5   6
ENDBRANCH   4   5
ENDBRANCH   3   4
ENDBRANCH   2   3
ENDBRANCH   1   2
BRANCH   1  25
ATOM     25  C   UNL A   1      37.377  20.454  24.896  1.00  0.00     0.261 C 
BRANCH  25  26
ATOM     26  O   UNL A   1      37.984  21.640  25.431  1.00  0.00    -0.460 OA
BRANCH  26  27
ATOM     27  C   UNL A   1      39.130  21.411  26.116  1.00  0.00     0.338 C 
ATOM     28  O   UNL A   1      39.814  20.400  26.090  1.00  0.00    -0.246 OA
BRANCH  27  29
ATOM     29  C   UNL A   1      39.581  22.633  26.803  1.00  0.00     0.060 A 
ATOM     30  C   UNL A   1      38.923  23.829  26.487  1.00  0.00     0.016 A 
ATOM     31  C   UNL A   1      40.718  22.632  27.612  1.00  0.00     0.016 A 
ATOM     32  C   UNL A   1      39.449  25.043  26.916  1.00  0.00     0.010 A 
ATOM     33  C   UNL A   1      41.250  23.855  28.033  1.00  0.00     0.010 A 
ATOM     34  C   UNL A   1      40.649  25.063  27.638  1.00  0.00    -0.014 A 
BRANCH  34  35
ATOM     35  C   UNL A   1      41.361  26.352  27.803  1.00  0.00     0.031 A 
ATOM     36  C   UNL A   1      40.697  27.451  28.590  1.00  0.00     0.074 A 
ATOM     37  C   UNL A   1      42.594  26.527  27.297  1.00  0.00     0.049 A 
ATOM     38  N   UNL A   1      41.146  28.643  28.888  1.00  0.00    -0.248 NA
ATOM     39  C   UNL A   1      39.349  27.170  29.111  1.00  0.00     0.031 C 
ATOM     40  C   UNL A   1      43.338  25.533  26.526  1.00  0.00     0.029 A 
ATOM     41  N   UNL A   1      43.429  27.613  27.348  1.00  0.00    -0.354 N 
ATOM     42  C   UNL A   1      40.131  29.261  29.608  1.00  0.00     0.074 A 
ATOM     43  C   UNL A   1      39.035  28.320  29.689  1.00  0.00     0.031 C 
ATOM     44  C   UNL A   1      44.514  26.067  26.152  1.00  0.00     0.029 A 
ATOM     45  C   UNL A   1      44.596  27.441  26.645  1.00  0.00     0.049 A 
ATOM     46  H   UNL A   1      43.212  28.438  27.840  1.00  0.00     0.167 HD
ATOM     47  C   UNL A   1      40.118  30.493  30.168  1.00  0.00     0.034 A 
ATOM     48  C   UNL A   1      45.610  28.300  26.417  1.00  0.00     0.034 A 
ATOM     49  C   UNL A   1      41.216  31.418  30.105  1.00  0.00     0.049 A 
ATOM     50  C   UNL A   1      45.562  29.674  27.036  1.00  0.00     0.074 A 
ATOM     51  C   UNL A   1      41.320  32.671  30.682  1.00  0.00     0.029 A 
ATOM     52  N   UNL A   1      42.398  31.195  29.415  1.00  0.00    -0.354 N 
ATOM     53  N   UNL A   1      44.651  30.195  27.821  1.00  0.00    -0.248 NA
ATOM     54  C   UNL A   1      46.701  30.563  26.766  1.00  0.00     0.031 C 
ATOM     55  C   UNL A   1      42.557  33.217  30.320  1.00  0.00     0.029 A 
ATOM     56  C   UNL A   1      43.233  32.292  29.539  1.00  0.00     0.049 A 
ATOM     57  H   UNL A   1      42.611  30.376  28.911  1.00  0.00     0.167 HD
ATOM     58  C   UNL A   1      45.121  31.458  28.168  1.00  0.00     0.074 A 
ATOM     59  C   UNL A   1      46.410  31.612  27.525  1.00  0.00     0.031 C 
ATOM     60  C   UNL A   1      44.535  32.409  28.936  1.00  0.00     0.034 A 
BRANCH  47  61
ATOM     61  C   UNL A   1      38.883  30.901  30.926  1.00  0.00     0.023 A 
ATOM     62  C   UNL A   1      38.855  30.781  32.330  1.00  0.00     0.012 A 
ATOM     63  C   UNL A   1      37.771  31.450  30.257  1.00  0.00     0.148 A 
ATOM     64  C   UNL A   1      37.730  31.173  33.055  1.00  0.00     0.002 A 
ATOM     65  C   UNL A   1      36.669  31.876  30.990  1.00  0.00     0.091 A 
ATOM     66  F   UNL A   1      37.807  31.532  28.920  1.00  0.00    -0.205 F 
ATOM     67  C   UNL A   1      36.643  31.728  32.386  1.00  0.00     0.022 A 
BRANCH  65  68
ATOM     68  S   UNL A   1      35.251  32.671  30.227  1.00  0.00     0.127 S 
ATOM     69  O   UNL A   1      35.856  33.876  29.663  1.00  0.00    -0.237 OA
ATOM     70  O   UNL A   1      34.835  31.678  29.237  1.00  0.00    -0.237 OA
ATOM     71  O   UNL A   1      34.292  32.896  31.300  1.00  0.00    -0.744 OA
ENDBRANCH  65  68
ENDBRANCH  47  61
BRANCH  48  72
ATOM     72  C   UNL A   1      46.775  27.872  25.593  1.00  0.00     0.023 A 
ATOM     73  C   UNL A   1      46.730  28.022  24.193  1.00  0.00     0.012 A 
ATOM     74  C   UNL A   1      47.931  27.333  26.190  1.00  0.00     0.148 A 
ATOM     75  C   UNL A   1      47.805  27.615  23.401  1.00  0.00     0.002 A 
ATOM     76  C   UNL A   1      49.019  26.984  25.400  1.00  0.00     0.091 A 
ATOM     77  F   UNL A   1      47.946  27.182  27.522  1.00  0.00    -0.205 F 
ATOM     78  C   UNL A   1      48.952  27.107  24.004  1.00  0.00     0.022 A 
BRANCH  76  79
ATOM     79  S   UNL A   1      50.584  26.451  26.101  1.00  0.00     0.127 S 
ATOM     80  O   UNL A   1      50.928  27.581  26.960  1.00  0.00    -0.237 OA
ATOM     81  O   UNL A   1      50.198  25.231  26.810  1.00  0.00    -0.237 OA
ATOM     82  O   UNL A   1      51.466  26.227  24.963  1.00  0.00    -0.744 OA
ENDBRANCH  76  79
ENDBRANCH  48  72
BRANCH  60  83
ATOM     83  C   UNL A   1      45.288  33.696  29.151  1.00  0.00     0.023 A 
ATOM     84  C   UNL A   1      46.142  33.831  30.263  1.00  0.00     0.012 A 
ATOM     85  C   UNL A   1      45.208  34.744  28.211  1.00  0.00     0.148 A 
ATOM     86  C   UNL A   1      46.877  35.000  30.456  1.00  0.00     0.002 A 
ATOM     87  C   UNL A   1      45.980  35.887  28.385  1.00  0.00     0.091 A 
ATOM     88  F   UNL A   1      44.375  34.607  27.169  1.00  0.00    -0.205 F 
ATOM     89  C   UNL A   1      46.806  36.021  29.513  1.00  0.00     0.022 A 
BRANCH  87  90
ATOM     90  S   UNL A   1      46.022  37.210  27.170  1.00  0.00     0.127 S 
ATOM     91  O   UNL A   1      46.435  36.495  25.964  1.00  0.00    -0.237 OA
ATOM     92  O   UNL A   1      44.632  37.671  27.161  1.00  0.00    -0.237 OA
ATOM     93  O   UNL A   1      46.975  38.187  27.678  1.00  0.00    -0.744 OA
ENDBRANCH  87  90
ENDBRANCH  60  83
ENDBRANCH  34  35
ENDBRANCH  27  29
ENDBRANCH  26  27
ENDBRANCH  25  26
ENDBRANCH   1  25
TORSDOF 19
ENDMDL
MODEL 2
REMARK VINA RESULT:     -11.2      0.771      7.732
REMARK SMILES CC1(C)[C@H](C(=O)OCCOCCOC(=O)c2ccc(-c3c4nc(c(-c5cccc(S(=O)(=O)[O-])c5F)c5ccc([nH]5)c(-c5cccc(S(=O)(=O)[O-])c5F)c5nc(c(-c6cccc(S(=O)(=O)[O-])c6F)c6ccc3[nH]6)C=C5)C=C4)cc2)[C@@H]1C(=O)Nc1ccc(Cl)c(Br)c1
REMARK SMILES IDX 11 1 10 2 9 3 8 4 7 5 5 6 6 7 4 8 1 9 2 10 3 11 79 12 80 13
REMARK SMILES IDX 81 14 82 15 83 17 84 18 90 19 85 20 88 21 86 22 89 23 87 24
REMARK SMILES IDX 12 25 13 26 14 27 15 28 16 29 17 30 78 31 18 32 77 33 19 34
REMARK SMILES IDX 20 35 21 36 71 37 22 38 76 39 70 40 72 41 23 42 75 43 69 44
REMARK SMILES IDX 68 45 24 47 56 48 36 49 55 50 37 51 40 52 54 53 73 54 38 55
REMARK SMILES IDX 39 56 53 58 74 59 41 60 25 61 26 62 34 63 27 64 29 65 35 66
REMARK SMILES IDX 28 67 30 68 31 69 32 70 33 71 57 72 58 73 66 74 59 75 61 76
REMARK SMILES IDX 67 77 60 78 62 79 63 80 64 81 65 82 42 83 43 84 51 85 44 86
REMARK SMILES IDX 46 87 52 88 45 89 47 90 48 91 49 92 50 93
REMARK H PARENT 82 16 72 46 40 57
REMARK Flexibility Score: inf
ROOT
ATOM      1  C   UNL A   1      36.653  19.578  24.530  1.00  0.00     0.202 C 
ENDROOT
BRANCH   1   2
ATOM      2  O   UNL A   1      35.435  19.743  25.244  1.00  0.00    -0.374 OA
BRANCH   2   3
ATOM      3  C   UNL A   1      34.558  20.811  24.920  1.00  0.00     0.202 C 
BRANCH   3   4
ATOM      4  C   UNL A   1      33.115  20.536  24.462  1.00  0.00     0.261 C 
BRANCH   4   5
ATOM      5  O   UNL A   1      32.172  21.600  24.599  1.00  0.00    -0.463 OA
BRANCH   5   6
ATOM      6  C   UNL A   1      31.834  22.176  23.420  1.00  0.00     0.310 C 
ATOM      7  O   UNL A   1      31.988  21.660  22.321  1.00  0.00    -0.252 OA
BRANCH   6   8
ATOM      8  C   UNL A   1      31.136  23.476  23.517  1.00  0.00     0.118 C 
ATOM      9  C   UNL A   1      30.263  25.336  25.041  1.00  0.00     0.013 C 
ATOM     10  C   UNL A   1      31.455  24.650  24.414  1.00  0.00    -0.009 C 
ATOM     11  C   UNL A   1      32.659  24.637  25.329  1.00  0.00     0.013 C 
ATOM     12  C   UNL A   1      31.638  24.755  22.882  1.00  0.00     0.100 C 
BRANCH  12  13
ATOM     13  C   UNL A   1      32.999  25.037  22.351  1.00  0.00     0.228 C 
ATOM     14  O   UNL A   1      33.591  24.132  21.768  1.00  0.00    -0.274 OA
ATOM     15  N   UNL A   1      33.595  26.267  22.465  1.00  0.00    -0.326 N 
ATOM     16  H   UNL A   1      34.404  26.378  21.916  1.00  0.00     0.169 HD
BRANCH  15  17
ATOM     17  C   UNL A   1      33.255  27.393  23.225  1.00  0.00     0.042 A 
ATOM     18  C   UNL A   1      32.148  28.133  22.798  1.00  0.00     0.028 A 
ATOM     19  C   UNL A   1      33.925  27.769  24.390  1.00  0.00     0.043 A 
ATOM     20  C   UNL A   1      31.620  29.140  23.612  1.00  0.00     0.024 A 
ATOM     21  C   UNL A   1      33.406  28.791  25.201  1.00  0.00     0.038 A 
ATOM     22  C   UNL A   1      32.230  29.451  24.830  1.00  0.00     0.055 A 
ATOM     23  Br  UNL A   1      34.314  29.154  26.830  1.00  0.00    -0.049 Br
ATOM     24  Cl  UNL A   1      31.458  30.628  25.832  1.00  0.00    -0.083 Cl
ENDBRANCH  15  17
ENDBRANCH  12  13
ENDBRANCH   6   8
ENDBRANCH   5   6
ENDBRANCH   4   5
ENDBRANCH   3   4
ENDBRANCH   2   3
ENDBRANCH   1   2
BRANCH   1  25
ATOM     25  C   UNL A   1      37.978  19.491  25.290  1.00  0.00     0.261 C 
BRANCH  25  26
ATOM     26  O   UNL A   1      38.602  20.766  25.508  1.00  0.00    -0.460 OA
BRANCH  26  27
ATOM     27  C   UNL A   1      39.783  20.696  26.168  1.00  0.00     0.338 C 
ATOM     28  O   UNL A   1      40.622  19.813  26.082  1.00  0.00    -0.246 OA
BRANCH  27  29
ATOM     29  C   UNL A   1      40.041  21.939  26.912  1.00  0.00     0.060 A 
ATOM     30  C   UNL A   1      39.322  23.079  26.528  1.00  0.00     0.016 A 
ATOM     31  C   UNL A   1      41.071  22.023  27.849  1.00  0.00     0.016 A 
ATOM     32  C   UNL A   1      39.686  24.326  27.024  1.00  0.00     0.010 A 
ATOM     33  C   UNL A   1      41.441  23.280  28.338  1.00  0.00     0.010 A 
ATOM     34  C   UNL A   1      40.786  24.438  27.884  1.00  0.00    -0.014 A 
BRANCH  34  35
ATOM     35  C   UNL A   1      41.357  25.781  28.141  1.00  0.00     0.031 A 
ATOM     36  C   UNL A   1      42.754  26.077  27.665  1.00  0.00     0.074 A 
ATOM     37  C   UNL A   1      40.630  26.733  28.751  1.00  0.00     0.049 A 
ATOM     38  N   UNL A   1      43.439  27.188  27.750  1.00  0.00    -0.248 NA
ATOM     39  C   UNL A   1      43.474  24.977  27.003  1.00  0.00     0.031 C 
ATOM     40  C   UNL A   1      39.266  26.565  29.248  1.00  0.00     0.029 A 
ATOM     41  N   UNL A   1      40.949  28.028  29.067  1.00  0.00    -0.354 N 
ATOM     42  C   UNL A   1      44.676  26.915  27.178  1.00  0.00     0.074 A 
ATOM     43  C   UNL A   1      44.654  25.530  26.761  1.00  0.00     0.031 C 
ATOM     44  C   UNL A   1      38.873  27.710  29.832  1.00  0.00     0.029 A 
ATOM     45  C   UNL A   1      39.961  28.683  29.761  1.00  0.00     0.049 A 
ATOM     46  H   UNL A   1      41.804  28.449  28.820  1.00  0.00     0.167 HD
ATOM     47  C   UNL A   1      45.728  27.746  26.996  1.00  0.00     0.034 A 
ATOM     48  C   UNL A   1      39.944  29.924  30.289  1.00  0.00     0.034 A 
ATOM     49  C   UNL A   1      45.740  29.129  27.389  1.00  0.00     0.049 A 
ATOM     50  C   UNL A   1      41.137  30.824  30.089  1.00  0.00     0.074 A 
ATOM     51  C   UNL A   1      46.739  30.067  27.205  1.00  0.00     0.029 A 
ATOM     52  N   UNL A   1      44.707  29.768  28.058  1.00  0.00    -0.354 N 
ATOM     53  N   UNL A   1      42.247  30.591  29.432  1.00  0.00    -0.248 NA
ATOM     54  C   UNL A   1      41.057  32.171  30.673  1.00  0.00     0.031 C 
ATOM     55  C   UNL A   1      46.319  31.270  27.785  1.00  0.00     0.029 A 
ATOM     56  C   UNL A   1      45.048  31.086  28.307  1.00  0.00     0.049 A 
ATOM     57  H   UNL A   1      43.856  29.346  28.317  1.00  0.00     0.167 HD
ATOM     58  C   UNL A   1      42.983  31.770  29.493  1.00  0.00     0.074 A 
ATOM     59  C   UNL A   1      42.180  32.723  30.232  1.00  0.00     0.031 C 
ATOM     60  C   UNL A   1      44.216  32.037  28.997  1.00  0.00     0.034 A 
BRANCH  47  61
ATOM     61  C   UNL A   1      46.948  27.188  26.312  1.00  0.00     0.023 A 
ATOM     62  C   UNL A   1      47.110  27.362  24.923  1.00  0.00     0.012 A 
ATOM     63  C   UNL A   1      47.957  26.538  27.050  1.00  0.00     0.148 A 
ATOM     64  C   UNL A   1      48.242  26.872  24.273  1.00  0.00     0.002 A 
ATOM     65  C   UNL A   1      49.101  26.087  26.401  1.00  0.00     0.091 A 
ATOM     66  F   UNL A   1      47.772  26.359  28.365  1.00  0.00    -0.205 F 
ATOM     67  C   UNL A   1      49.240  26.245  25.013  1.00  0.00     0.022 A 
BRANCH  65  68
ATOM     68  S   UNL A   1      50.475  25.333  27.277  1.00  0.00     0.127 S 
ATOM     69  O   UNL A   1      50.890  26.417  28.165  1.00  0.00    -0.237 OA
ATOM     70  O   UNL A   1      49.829  24.206  27.952  1.00  0.00    -0.237 OA
ATOM     71  O   UNL A   1      51.442  24.954  26.257  1.00  0.00    -0.744 OA
ENDBRANCH  65  68
ENDBRANCH  47  61
BRANCH  48  72
ATOM     72  C   UNL A   1      38.741  30.401  31.025  1.00  0.00     0.023 A 
ATOM     73  C   UNL A   1      38.619  30.142  32.404  1.00  0.00     0.012 A 
ATOM     74  C   UNL A   1      37.724  31.123  30.370  1.00  0.00     0.148 A 
ATOM     75  C   UNL A   1      37.494  30.568  33.111  1.00  0.00     0.002 A 
ATOM     76  C   UNL A   1      36.634  31.593  31.091  1.00  0.00     0.091 A 
ATOM     77  F   UNL A   1      37.849  31.342  29.053  1.00  0.00    -0.205 F 
ATOM     78  C   UNL A   1      36.507  31.302  32.458  1.00  0.00     0.022 A 
BRANCH  76  79
ATOM     79  S   UNL A   1      35.387  32.661  30.363  1.00  0.00     0.127 S 
ATOM     80  O   UNL A   1      36.178  33.826  29.979  1.00  0.00    -0.237 OA
ATOM     81  O   UNL A   1      34.906  31.846  29.247  1.00  0.00    -0.237 OA
ATOM     82  O   UNL A   1      34.400  32.881  31.411  1.00  0.00    -0.744 OA
ENDBRANCH  76  79
ENDBRANCH  48  72
BRANCH  60  83
ATOM     83  C   UNL A   1      44.770  33.422  29.208  1.00  0.00     0.023 A 
ATOM     84  C   UNL A   1      45.539  33.702  30.355  1.00  0.00     0.012 A 
ATOM     85  C   UNL A   1      44.591  34.426  28.235  1.00  0.00     0.148 A 
ATOM     86  C   UNL A   1      46.092  34.967  30.547  1.00  0.00     0.002 A 
ATOM     87  C   UNL A   1      45.186  35.670  28.410  1.00  0.00     0.091 A 
ATOM     88  F   UNL A   1      43.840  34.149  27.159  1.00  0.00    -0.205 F 
ATOM     89  C   UNL A   1      45.926  35.946  29.571  1.00  0.00     0.022 A 
BRANCH  87  90
ATOM     90  S   UNL A   1      45.104  36.958  27.160  1.00  0.00     0.127 S 
ATOM     91  O   UNL A   1      45.960  36.410  26.111  1.00  0.00    -0.237 OA
ATOM     92  O   UNL A   1      43.677  36.984  26.831  1.00  0.00    -0.237 OA
ATOM     93  O   UNL A   1      45.595  38.169  27.803  1.00  0.00    -0.744 OA
ENDBRANCH  87  90
ENDBRANCH  60  83
ENDBRANCH  34  35
ENDBRANCH  27  29
ENDBRANCH  26  27
ENDBRANCH  25  26
ENDBRANCH   1  25
TORSDOF 19
ENDMDL
MODEL 3
REMARK VINA RESULT:     -11.2      5.408      8.264
REMARK SMILES CC1(C)[C@H](C(=O)OCCOCCOC(=O)c2ccc(-c3c4nc(c(-c5cccc(S(=O)(=O)[O-])c5F)c5ccc([nH]5)c(-c5cccc(S(=O)(=O)[O-])c5F)c5nc(c(-c6cccc(S(=O)(=O)[O-])c6F)c6ccc3[nH]6)C=C5)C=C4)cc2)[C@@H]1C(=O)Nc1ccc(Cl)c(Br)c1
REMARK SMILES IDX 11 1 10 2 9 3 8 4 7 5 5 6 6 7 4 8 1 9 2 10 3 11 79 12 80 13
REMARK SMILES IDX 81 14 82 15 83 17 84 18 90 19 85 20 88 21 86 22 89 23 87 24
REMARK SMILES IDX 12 25 13 26 14 27 15 28 16 29 17 30 78 31 18 32 77 33 19 34
REMARK SMILES IDX 20 35 21 36 71 37 22 38 76 39 70 40 72 41 23 42 75 43 69 44
REMARK SMILES IDX 68 45 24 47 56 48 36 49 55 50 37 51 40 52 54 53 73 54 38 55
REMARK SMILES IDX 39 56 53 58 74 59 41 60 25 61 26 62 34 63 27 64 29 65 35 66
REMARK SMILES IDX 28 67 30 68 31 69 32 70 33 71 57 72 58 73 66 74 59 75 61 76
REMARK SMILES IDX 67 77 60 78 62 79 63 80 64 81 65 82 42 83 43 84 51 85 44 86
REMARK SMILES IDX 46 87 52 88 45 89 47 90 48 91 49 92 50 93
REMARK H PARENT 82 16 72 46 40 57
REMARK Flexibility Score: inf
ROOT
ATOM      1  C   UNL A   1      32.330  30.755  26.658  1.00  0.00     0.202 C 
ENDROOT
BRANCH   1   2
ATOM      2  O   UNL A   1      31.718  30.530  25.395  1.00  0.00    -0.374 OA
BRANCH   2   3
ATOM      3  C   UNL A   1      31.268  29.232  25.042  1.00  0.00     0.202 C 
BRANCH   3   4
ATOM      4  C   UNL A   1      30.390  29.011  23.798  1.00  0.00     0.261 C 
BRANCH   4   5
ATOM      5  O   UNL A   1      30.661  27.855  23.004  1.00  0.00    -0.463 OA
BRANCH   5   6
ATOM      6  C   UNL A   1      29.980  26.754  23.405  1.00  0.00     0.310 C 
ATOM      7  O   UNL A   1      28.818  26.752  23.790  1.00  0.00    -0.252 OA
BRANCH   6   8
ATOM      8  C   UNL A   1      30.694  25.467  23.252  1.00  0.00     0.118 C 
ATOM      9  C   UNL A   1      32.796  24.262  22.434  1.00  0.00     0.013 C 
ATOM     10  C   UNL A   1      32.162  25.176  23.458  1.00  0.00    -0.009 C 
ATOM     11  C   UNL A   1      33.116  26.243  23.945  1.00  0.00     0.013 C 
ATOM     12  C   UNL A   1      31.099  24.583  24.411  1.00  0.00     0.100 C 
BRANCH  12  13
ATOM     13  C   UNL A   1      31.165  24.941  25.853  1.00  0.00     0.228 C 
ATOM     14  O   UNL A   1      30.412  25.820  26.266  1.00  0.00    -0.274 OA
ATOM     15  N   UNL A   1      32.009  24.310  26.732  1.00  0.00    -0.326 N 
ATOM     16  H   UNL A   1      31.826  24.505  27.680  1.00  0.00     0.169 HD
BRANCH  15  17
ATOM     17  C   UNL A   1      33.084  23.439  26.519  1.00  0.00     0.042 A 
ATOM     18  C   UNL A   1      32.823  22.071  26.640  1.00  0.00     0.028 A 
ATOM     19  C   UNL A   1      34.361  23.865  26.149  1.00  0.00     0.043 A 
ATOM     20  C   UNL A   1      33.782  21.135  26.241  1.00  0.00     0.024 A 
ATOM     21  C   UNL A   1      35.331  22.926  25.763  1.00  0.00     0.038 A 
ATOM     22  C   UNL A   1      35.027  21.561  25.772  1.00  0.00     0.055 A 
ATOM     23  Br  UNL A   1      37.001  23.600  25.157  1.00  0.00    -0.049 Br
ATOM     24  Cl  UNL A   1      36.118  20.353  25.194  1.00  0.00    -0.083 Cl
ENDBRANCH  15  17
ENDBRANCH  12  13
ENDBRANCH   6   8
ENDBRANCH   5   6
ENDBRANCH   4   5
ENDBRANCH   3   4
ENDBRANCH   2   3
ENDBRANCH   1   2
BRANCH   1  25
ATOM     25  C   UNL A   1      32.268  32.142  27.301  1.00  0.00     0.261 C 
BRANCH  25  26
ATOM     26  O   UNL A   1      33.488  32.890  27.177  1.00  0.00    -0.460 OA
BRANCH  26  27
ATOM     27  C   UNL A   1      34.092  33.158  28.360  1.00  0.00     0.338 C 
ATOM     28  O   UNL A   1      33.621  33.773  29.303  1.00  0.00    -0.246 OA
BRANCH  27  29
ATOM     29  C   UNL A   1      35.380  32.453  28.460  1.00  0.00     0.060 A 
ATOM     30  C   UNL A   1      35.342  31.071  28.683  1.00  0.00     0.016 A 
ATOM     31  C   UNL A   1      36.588  33.152  28.495  1.00  0.00     0.016 A 
ATOM     32  C   UNL A   1      36.507  30.391  29.022  1.00  0.00     0.010 A 
ATOM     33  C   UNL A   1      37.756  32.467  28.845  1.00  0.00     0.010 A 
ATOM     34  C   UNL A   1      37.707  31.099  29.164  1.00  0.00    -0.014 A 
BRANCH  34  35
ATOM     35  C   UNL A   1      38.852  30.436  29.832  1.00  0.00     0.031 A 
ATOM     36  C   UNL A   1      39.197  30.836  31.242  1.00  0.00     0.074 A 
ATOM     37  C   UNL A   1      39.545  29.467  29.210  1.00  0.00     0.049 A 
ATOM     38  N   UNL A   1      40.132  30.367  32.029  1.00  0.00    -0.248 NA
ATOM     39  C   UNL A   1      38.382  31.902  31.846  1.00  0.00     0.031 C 
ATOM     40  C   UNL A   1      39.297  28.992  27.851  1.00  0.00     0.029 A 
ATOM     41  N   UNL A   1      40.610  28.719  29.642  1.00  0.00    -0.354 N 
ATOM     42  C   UNL A   1      40.033  31.096  33.208  1.00  0.00     0.074 A 
ATOM     43  C   UNL A   1      38.959  32.048  33.030  1.00  0.00     0.031 C 
ATOM     44  C   UNL A   1      40.204  28.047  27.549  1.00  0.00     0.029 A 
ATOM     45  C   UNL A   1      41.103  27.863  28.688  1.00  0.00     0.049 A 
ATOM     46  H   UNL A   1      40.986  28.789  30.550  1.00  0.00     0.167 HD
ATOM     47  C   UNL A   1      40.757  30.972  34.345  1.00  0.00     0.034 A 
ATOM     48  C   UNL A   1      42.166  27.035  28.727  1.00  0.00     0.034 A 
ATOM     49  C   UNL A   1      41.809  30.009  34.528  1.00  0.00     0.049 A 
ATOM     50  C   UNL A   1      42.969  26.930  29.999  1.00  0.00     0.074 A 
ATOM     51  C   UNL A   1      42.570  29.771  35.659  1.00  0.00     0.029 A 
ATOM     52  N   UNL A   1      42.257  29.134  33.551  1.00  0.00    -0.354 N 
ATOM     53  N   UNL A   1      42.781  27.533  31.147  1.00  0.00    -0.248 NA
ATOM     54  C   UNL A   1      44.107  26.000  29.989  1.00  0.00     0.031 C 
ATOM     55  C   UNL A   1      43.495  28.766  35.357  1.00  0.00     0.029 A 
ATOM     56  C   UNL A   1      43.294  28.361  34.047  1.00  0.00     0.049 A 
ATOM     57  H   UNL A   1      41.892  29.071  32.639  1.00  0.00     0.167 HD
ATOM     58  C   UNL A   1      43.753  27.032  32.006  1.00  0.00     0.074 A 
ATOM     59  C   UNL A   1      44.513  26.058  31.251  1.00  0.00     0.031 C 
ATOM     60  C   UNL A   1      44.005  27.358  33.298  1.00  0.00     0.034 A 
BRANCH  47  61
ATOM     61  C   UNL A   1      40.414  31.883  35.493  1.00  0.00     0.023 A 
ATOM     62  C   UNL A   1      41.251  32.979  35.789  1.00  0.00     0.012 A 
ATOM     63  C   UNL A   1      39.240  31.686  36.247  1.00  0.00     0.148 A 
ATOM     64  C   UNL A   1      40.941  33.847  36.834  1.00  0.00     0.002 A 
ATOM     65  C   UNL A   1      38.917  32.580  37.262  1.00  0.00     0.091 A 
ATOM     66  F   UNL A   1      38.472  30.624  35.968  1.00  0.00    -0.205 F 
ATOM     67  C   UNL A   1      39.771  33.653  37.563  1.00  0.00     0.022 A 
BRANCH  65  68
ATOM     68  S   UNL A   1      37.396  32.458  38.209  1.00  0.00     0.127 S 
ATOM     69  O   UNL A   1      37.719  33.258  39.389  1.00  0.00    -0.237 OA
ATOM     70  O   UNL A   1      36.421  33.070  37.306  1.00  0.00    -0.237 OA
ATOM     71  O   UNL A   1      37.188  31.038  38.453  1.00  0.00    -0.744 OA
ENDBRANCH  65  68
ENDBRANCH  47  61
BRANCH  48  72
ATOM     72  C   UNL A   1      42.510  26.212  27.534  1.00  0.00     0.023 A 
ATOM     73  C   UNL A   1      43.262  26.781  26.488  1.00  0.00     0.012 A 
ATOM     74  C   UNL A   1      42.111  24.865  27.438  1.00  0.00     0.148 A 
ATOM     75  C   UNL A   1      43.584  26.033  25.355  1.00  0.00     0.002 A 
ATOM     76  C   UNL A   1      42.483  24.109  26.334  1.00  0.00     0.091 A 
ATOM     77  F   UNL A   1      41.380  24.347  28.437  1.00  0.00    -0.205 F 
ATOM     78  C   UNL A   1      43.205  24.695  25.283  1.00  0.00     0.022 A 
BRANCH  76  79
ATOM     79  S   UNL A   1      42.157  22.346  26.222  1.00  0.00     0.127 S 
ATOM     80  O   UNL A   1      42.690  21.861  27.491  1.00  0.00    -0.237 OA
ATOM     81  O   UNL A   1      40.699  22.316  26.110  1.00  0.00    -0.237 OA
ATOM     82  O   UNL A   1      42.857  21.895  25.025  1.00  0.00    -0.744 OA
ENDBRANCH  76  79
ENDBRANCH  48  72
BRANCH  60  83
ATOM     83  C   UNL A   1      45.132  26.639  33.994  1.00  0.00     0.023 A 
ATOM     84  C   UNL A   1      46.435  27.171  33.949  1.00  0.00     0.012 A 
ATOM     85  C   UNL A   1      44.886  25.478  34.754  1.00  0.00     0.148 A 
ATOM     86  C   UNL A   1      47.483  26.541  34.620  1.00  0.00     0.002 A 
ATOM     87  C   UNL A   1      45.925  24.882  35.459  1.00  0.00     0.091 A 
ATOM     88  F   UNL A   1      43.643  24.974  34.770  1.00  0.00    -0.205 F 
ATOM     89  C   UNL A   1      47.226  25.405  35.384  1.00  0.00     0.022 A 
BRANCH  87  90
ATOM     90  S   UNL A   1      45.665  23.473  36.544  1.00  0.00     0.127 S 
ATOM     91  O   UNL A   1      44.910  22.568  35.680  1.00  0.00    -0.237 OA
ATOM     92  O   UNL A   1      47.034  23.043  36.831  1.00  0.00    -0.237 OA
ATOM     93  O   UNL A   1      44.942  23.988  37.698  1.00  0.00    -0.744 OA
ENDBRANCH  87  90
ENDBRANCH  60  83
ENDBRANCH  34  35
ENDBRANCH  27  29
ENDBRANCH  26  27
ENDBRANCH  25  26
ENDBRANCH   1  25
TORSDOF 19
ENDMDL
