MODEL 1
REMARK VINA RESULT:     -11.0      0.000      0.000
REMARK SMILES CC1(C)[C@H]2CC[C@]1(C)[C@](O)(CC(=O)OCCOCCOC(=O)c1ccc(-c3c4nc(c(-c5cccc(S(=O)(=O)[O-])c5F)c5ccc([nH]5)c(-c5cccc(S(=O)(=O)[O-])c5F)c5nc(c(-c6cccc(S(=O)(=O)[O-])c6F)c6ccc3[nH]6)C=C5)C=C4)cc1)C2
REMARK SMILES IDX 18 1 17 2 16 3 15 4 14 5 12 6 13 7 11 8 9 9 1 10 2 11 3 12
REMARK SMILES IDX 4 13 7 14 5 15 86 16 6 17 8 18 10 19 19 21 20 22 21 23 22 24
REMARK SMILES IDX 23 25 24 26 85 27 25 28 84 29 26 30 27 31 28 32 78 33 29 34
REMARK SMILES IDX 83 35 77 36 79 37 30 38 82 39 76 40 75 41 31 43 63 44 43 45
REMARK SMILES IDX 62 46 44 47 47 48 61 49 80 50 45 51 46 52 60 54 81 55 48 56
REMARK SMILES IDX 32 57 33 58 41 59 34 60 36 61 42 62 35 63 37 64 38 65 39 66
REMARK SMILES IDX 40 67 64 68 65 69 73 70 66 71 68 72 74 73 67 74 69 75 70 76
REMARK SMILES IDX 71 77 72 78 49 79 50 80 58 81 51 82 53 83 59 84 52 85 54 86
REMARK SMILES IDX 55 87 56 88 57 89
REMARK H PARENT 10 20 79 42 47 53
REMARK Flexibility Score: inf
ROOT
ATOM      1  C   UNL A   1      32.547  29.362  25.032  1.00  0.00     0.202 C 
ENDROOT
BRANCH   1   2
ATOM      2  O   UNL A   1      31.740  28.261  24.608  1.00  0.00    -0.374 OA
BRANCH   2   3
ATOM      3  C   UNL A   1      30.970  28.430  23.415  1.00  0.00     0.202 C 
BRANCH   3   4
ATOM      4  C   UNL A   1      31.093  27.313  22.378  1.00  0.00     0.261 C 
BRANCH   4   5
ATOM      5  O   UNL A   1      32.472  26.930  22.213  1.00  0.00    -0.463 OA
BRANCH   5   6
ATOM      6  C   UNL A   1      32.670  25.673  21.751  1.00  0.00     0.308 C 
ATOM      7  O   UNL A   1      33.277  25.397  20.720  1.00  0.00    -0.252 OA
BRANCH   6   8
ATOM      8  C   UNL A   1      32.216  24.593  22.701  1.00  0.00     0.158 C 
BRANCH   8   9
ATOM      9  C   UNL A   1      33.221  23.629  23.357  1.00  0.00     0.081 C 
ATOM     10  C   UNL A   1      34.124  21.981  26.803  1.00  0.00     0.012 C 
ATOM     11  C   UNL A   1      33.945  22.256  25.293  1.00  0.00    -0.024 C 
ATOM     12  C   UNL A   1      35.215  21.687  24.625  1.00  0.00     0.012 C 
ATOM     13  C   UNL A   1      32.621  21.698  24.723  1.00  0.00    -0.002 C 
ATOM     14  C   UNL A   1      33.537  23.731  24.905  1.00  0.00     0.002 C 
ATOM     15  C   UNL A   1      31.528  22.513  25.457  1.00  0.00     0.005 C 
ATOM     16  C   UNL A   1      32.624  22.185  23.261  1.00  0.00     0.040 C 
ATOM     17  C   UNL A   1      32.193  23.883  25.665  1.00  0.00     0.010 C 
ATOM     18  C   UNL A   1      34.548  24.790  25.323  1.00  0.00     0.015 C 
BRANCH   9  19
ATOM     19  O   UNL A   1      34.413  23.627  22.572  1.00  0.00    -0.389 OA
ATOM     20  H   UNL A   1      34.274  23.091  21.775  1.00  0.00     0.211 HD
ENDBRANCH   9  19
ENDBRANCH   8   9
ENDBRANCH   6   8
ENDBRANCH   5   6
ENDBRANCH   4   5
ENDBRANCH   3   4
ENDBRANCH   2   3
ENDBRANCH   1   2
BRANCH   1  21
ATOM     21  C   UNL A   1      31.830  30.450  25.846  1.00  0.00     0.261 C 
BRANCH  21  22
ATOM     22  O   UNL A   1      32.377  30.612  27.172  1.00  0.00    -0.460 OA
BRANCH  22  23
ATOM     23  C   UNL A   1      33.203  31.679  27.315  1.00  0.00     0.338 C 
ATOM     24  O   UNL A   1      32.892  32.864  27.274  1.00  0.00    -0.246 OA
BRANCH  23  25
ATOM     25  C   UNL A   1      34.551  31.245  27.726  1.00  0.00     0.060 A 
ATOM     26  C   UNL A   1      34.768  29.868  27.869  1.00  0.00     0.016 A 
ATOM     27  C   UNL A   1      35.553  32.157  28.059  1.00  0.00     0.016 A 
ATOM     28  C   UNL A   1      35.971  29.398  28.392  1.00  0.00     0.010 A 
ATOM     29  C   UNL A   1      36.760  31.682  28.591  1.00  0.00     0.010 A 
ATOM     30  C   UNL A   1      36.961  30.304  28.796  1.00  0.00    -0.014 A 
BRANCH  30  31
ATOM     31  C   UNL A   1      38.137  29.811  29.557  1.00  0.00     0.031 A 
ATOM     32  C   UNL A   1      38.346  30.278  30.973  1.00  0.00     0.074 A 
ATOM     33  C   UNL A   1      39.005  28.943  29.005  1.00  0.00     0.049 A 
ATOM     34  N   UNL A   1      39.309  29.984  31.808  1.00  0.00    -0.248 NA
ATOM     35  C   UNL A   1      37.335  31.197  31.520  1.00  0.00     0.031 C 
ATOM     36  C   UNL A   1      38.915  28.406  27.649  1.00  0.00     0.029 A 
ATOM     37  N   UNL A   1      40.150  28.380  29.516  1.00  0.00    -0.354 N 
ATOM     38  C   UNL A   1      39.040  30.703  32.966  1.00  0.00     0.074 A 
ATOM     39  C   UNL A   1      37.828  31.455  32.724  1.00  0.00     0.031 C 
ATOM     40  C   UNL A   1      39.977  27.614  27.423  1.00  0.00     0.029 A 
ATOM     41  C   UNL A   1      40.834  27.607  28.608  1.00  0.00     0.049 A 
ATOM     42  H   UNL A   1      40.451  28.518  30.444  1.00  0.00     0.167 HD
ATOM     43  C   UNL A   1      39.728  30.725  34.133  1.00  0.00     0.034 A 
ATOM     44  C   UNL A   1      42.026  26.984  28.712  1.00  0.00     0.034 A 
ATOM     45  C   UNL A   1      40.917  29.959  34.389  1.00  0.00     0.049 A 
ATOM     46  C   UNL A   1      42.785  27.043  30.012  1.00  0.00     0.074 A 
ATOM     47  C   UNL A   1      41.649  29.874  35.561  1.00  0.00     0.029 A 
ATOM     48  N   UNL A   1      41.557  29.156  33.460  1.00  0.00    -0.354 N 
ATOM     49  N   UNL A   1      42.450  27.624  31.139  1.00  0.00    -0.248 NA
ATOM     50  C   UNL A   1      44.073  26.332  30.067  1.00  0.00     0.031 C 
ATOM     51  C   UNL A   1      42.748  29.039  35.331  1.00  0.00     0.029 A 
ATOM     52  C   UNL A   1      42.684  28.583  34.025  1.00  0.00     0.049 A 
ATOM     53  H   UNL A   1      41.255  29.012  32.534  1.00  0.00     0.167 HD
ATOM     54  C   UNL A   1      43.463  27.321  32.043  1.00  0.00     0.074 A 
ATOM     55  C   UNL A   1      44.417  26.489  31.339  1.00  0.00     0.031 C 
ATOM     56  C   UNL A   1      43.598  27.709  33.336  1.00  0.00     0.034 A 
BRANCH  43  57
ATOM     57  C   UNL A   1      39.194  31.592  35.242  1.00  0.00     0.023 A 
ATOM     58  C   UNL A   1      38.261  31.059  36.155  1.00  0.00     0.012 A 
ATOM     59  C   UNL A   1      39.659  32.909  35.417  1.00  0.00     0.148 A 
ATOM     60  C   UNL A   1      37.778  31.834  37.209  1.00  0.00     0.002 A 
ATOM     61  C   UNL A   1      39.204  33.662  36.494  1.00  0.00     0.091 A 
ATOM     62  F   UNL A   1      40.527  33.405  34.524  1.00  0.00    -0.205 F 
ATOM     63  C   UNL A   1      38.258  33.130  37.384  1.00  0.00     0.022 A 
BRANCH  61  64
ATOM     64  S   UNL A   1      39.820  35.313  36.844  1.00  0.00     0.127 S 
ATOM     65  O   UNL A   1      39.278  36.074  35.720  1.00  0.00    -0.237 OA
ATOM     66  O   UNL A   1      39.200  35.607  38.137  1.00  0.00    -0.237 OA
ATOM     67  O   UNL A   1      41.272  35.197  36.883  1.00  0.00    -0.744 OA
ENDBRANCH  61  64
ENDBRANCH  43  57
BRANCH  44  68
ATOM     68  C   UNL A   1      42.567  26.224  27.549  1.00  0.00     0.023 A 
ATOM     69  C   UNL A   1      43.479  26.845  26.674  1.00  0.00     0.012 A 
ATOM     70  C   UNL A   1      42.196  24.885  27.320  1.00  0.00     0.148 A 
ATOM     71  C   UNL A   1      43.992  26.152  25.576  1.00  0.00     0.002 A 
ATOM     72  C   UNL A   1      42.753  24.184  26.259  1.00  0.00     0.091 A 
ATOM     73  F   UNL A   1      41.308  24.321  28.152  1.00  0.00    -0.205 F 
ATOM     74  C   UNL A   1      43.638  24.820  25.375  1.00  0.00     0.022 A 
BRANCH  72  75
ATOM     75  S   UNL A   1      42.456  22.430  26.005  1.00  0.00     0.127 S 
ATOM     76  O   UNL A   1      43.088  22.203  24.708  1.00  0.00    -0.237 OA
ATOM     77  O   UNL A   1      43.155  21.837  27.145  1.00  0.00    -0.237 OA
ATOM     78  O   UNL A   1      41.009  22.270  26.043  1.00  0.00    -0.744 OA
ENDBRANCH  72  75
ENDBRANCH  44  68
BRANCH  56  79
ATOM     79  C   UNL A   1      44.799  27.215  34.101  1.00  0.00     0.023 A 
ATOM     80  C   UNL A   1      45.977  27.988  34.131  1.00  0.00     0.012 A 
ATOM     81  C   UNL A   1      44.731  26.033  34.865  1.00  0.00     0.148 A 
ATOM     82  C   UNL A   1      47.075  27.579  34.887  1.00  0.00     0.002 A 
ATOM     83  C   UNL A   1      45.812  25.655  35.653  1.00  0.00     0.091 A 
ATOM     84  F   UNL A   1      43.607  25.301  34.812  1.00  0.00    -0.205 F 
ATOM     85  C   UNL A   1      46.989  26.422  35.656  1.00  0.00     0.022 A 
BRANCH  83  86
ATOM     86  S   UNL A   1      45.756  24.232  36.749  1.00  0.00     0.127 S 
ATOM     87  O   UNL A   1      45.601  23.131  35.799  1.00  0.00    -0.237 OA
ATOM     88  O   UNL A   1      47.064  24.293  37.404  1.00  0.00    -0.237 OA
ATOM     89  O   UNL A   1      44.624  24.454  37.639  1.00  0.00    -0.744 OA
ENDBRANCH  83  86
ENDBRANCH  56  79
ENDBRANCH  30  31
ENDBRANCH  23  25
ENDBRANCH  22  23
ENDBRANCH  21  22
ENDBRANCH   1  21
TORSDOF 19
ENDMDL
MODEL 2
REMARK VINA RESULT:     -10.9      4.790     10.221
REMARK SMILES CC1(C)[C@H]2CC[C@]1(C)[C@](O)(CC(=O)OCCOCCOC(=O)c1ccc(-c3c4nc(c(-c5cccc(S(=O)(=O)[O-])c5F)c5ccc([nH]5)c(-c5cccc(S(=O)(=O)[O-])c5F)c5nc(c(-c6cccc(S(=O)(=O)[O-])c6F)c6ccc3[nH]6)C=C5)C=C4)cc1)C2
REMARK SMILES IDX 18 1 17 2 16 3 15 4 14 5 12 6 13 7 11 8 9 9 1 10 2 11 3 12
REMARK SMILES IDX 4 13 7 14 5 15 86 16 6 17 8 18 10 19 19 21 20 22 21 23 22 24
REMARK SMILES IDX 23 25 24 26 85 27 25 28 84 29 26 30 27 31 28 32 78 33 29 34
REMARK SMILES IDX 83 35 77 36 79 37 30 38 82 39 76 40 75 41 31 43 63 44 43 45
REMARK SMILES IDX 62 46 44 47 47 48 61 49 80 50 45 51 46 52 60 54 81 55 48 56
REMARK SMILES IDX 32 57 33 58 41 59 34 60 36 61 42 62 35 63 37 64 38 65 39 66
REMARK SMILES IDX 40 67 64 68 65 69 73 70 66 71 68 72 74 73 67 74 69 75 70 76
REMARK SMILES IDX 71 77 72 78 49 79 50 80 58 81 51 82 53 83 59 84 52 85 54 86
REMARK SMILES IDX 55 87 56 88 57 89
REMARK H PARENT 10 20 79 42 47 53
REMARK Flexibility Score: inf
ROOT
ATOM      1  C   UNL A   1      36.306  19.728  24.955  1.00  0.00     0.202 C 
ENDROOT
BRANCH   1   2
ATOM      2  O   UNL A   1      35.818  21.070  25.006  1.00  0.00    -0.374 OA
BRANCH   2   3
ATOM      3  C   UNL A   1      34.400  21.255  25.015  1.00  0.00     0.202 C 
BRANCH   3   4
ATOM      4  C   UNL A   1      33.915  22.682  25.271  1.00  0.00     0.261 C 
BRANCH   4   5
ATOM      5  O   UNL A   1      32.544  22.675  25.715  1.00  0.00    -0.463 OA
BRANCH   5   6
ATOM      6  C   UNL A   1      32.166  23.758  26.435  1.00  0.00     0.308 C 
ATOM      7  O   UNL A   1      31.346  23.735  27.349  1.00  0.00    -0.252 OA
BRANCH   6   8
ATOM      8  C   UNL A   1      32.962  25.002  26.132  1.00  0.00     0.158 C 
BRANCH   8   9
ATOM      9  C   UNL A   1      32.543  25.966  25.006  1.00  0.00     0.081 C 
ATOM     10  C   UNL A   1      30.830  29.443  24.390  1.00  0.00     0.012 C 
ATOM     11  C   UNL A   1      31.712  28.181  24.259  1.00  0.00    -0.024 C 
ATOM     12  C   UNL A   1      31.750  27.870  22.747  1.00  0.00     0.012 C 
ATOM     13  C   UNL A   1      33.105  28.339  24.912  1.00  0.00    -0.002 C 
ATOM     14  C   UNL A   1      31.351  26.984  25.223  1.00  0.00     0.002 C 
ATOM     15  C   UNL A   1      32.791  28.508  26.418  1.00  0.00     0.005 C 
ATOM     16  C   UNL A   1      33.738  26.943  24.749  1.00  0.00     0.040 C 
ATOM     17  C   UNL A   1      31.530  27.651  26.612  1.00  0.00     0.010 C 
ATOM     18  C   UNL A   1      29.944  26.434  25.036  1.00  0.00     0.015 C 
BRANCH   9  19
ATOM     19  O   UNL A   1      32.378  25.206  23.809  1.00  0.00    -0.389 OA
ATOM     20  H   UNL A   1      33.059  25.462  23.167  1.00  0.00     0.211 HD
ENDBRANCH   9  19
ENDBRANCH   8   9
ENDBRANCH   6   8
ENDBRANCH   5   6
ENDBRANCH   4   5
ENDBRANCH   3   4
ENDBRANCH   2   3
ENDBRANCH   1   2
BRANCH   1  21
ATOM     21  C   UNL A   1      37.832  19.561  25.022  1.00  0.00     0.261 C 
BRANCH  21  22
ATOM     22  O   UNL A   1      38.520  20.792  25.325  1.00  0.00    -0.460 OA
BRANCH  22  23
ATOM     23  C   UNL A   1      39.590  20.653  26.148  1.00  0.00     0.338 C 
ATOM     24  O   UNL A   1      40.288  19.656  26.288  1.00  0.00    -0.246 OA
BRANCH  23  25
ATOM     25  C   UNL A   1      39.955  21.947  26.752  1.00  0.00     0.060 A 
ATOM     26  C   UNL A   1      39.295  23.089  26.278  1.00  0.00     0.016 A 
ATOM     27  C   UNL A   1      40.984  22.063  27.688  1.00  0.00     0.016 A 
ATOM     28  C   UNL A   1      39.693  24.355  26.702  1.00  0.00     0.010 A 
ATOM     29  C   UNL A   1      41.387  23.338  28.108  1.00  0.00     0.010 A 
ATOM     30  C   UNL A   1      40.770  24.493  27.588  1.00  0.00    -0.014 A 
BRANCH  30  31
ATOM     31  C   UNL A   1      41.331  25.841  27.855  1.00  0.00     0.031 A 
ATOM     32  C   UNL A   1      42.728  26.163  27.393  1.00  0.00     0.074 A 
ATOM     33  C   UNL A   1      40.604  26.782  28.486  1.00  0.00     0.049 A 
ATOM     34  N   UNL A   1      43.413  27.268  27.533  1.00  0.00    -0.248 NA
ATOM     35  C   UNL A   1      43.447  25.096  26.677  1.00  0.00     0.031 C 
ATOM     36  C   UNL A   1      39.239  26.605  28.977  1.00  0.00     0.029 A 
ATOM     37  N   UNL A   1      40.928  28.069  28.843  1.00  0.00    -0.354 N 
ATOM     38  C   UNL A   1      44.652  27.022  26.953  1.00  0.00     0.074 A 
ATOM     39  C   UNL A   1      44.628  25.661  26.466  1.00  0.00     0.031 C 
ATOM     40  C   UNL A   1      38.851  27.732  29.599  1.00  0.00     0.029 A 
ATOM     41  C   UNL A   1      39.947  28.699  29.571  1.00  0.00     0.049 A 
ATOM     42  H   UNL A   1      41.780  28.497  28.600  1.00  0.00     0.167 HD
ATOM     43  C   UNL A   1      45.709  27.859  26.822  1.00  0.00     0.034 A 
ATOM     44  C   UNL A   1      39.942  29.909  30.168  1.00  0.00     0.034 A 
ATOM     45  C   UNL A   1      45.728  29.222  27.278  1.00  0.00     0.049 A 
ATOM     46  C   UNL A   1      41.140  30.812  30.028  1.00  0.00     0.074 A 
ATOM     47  C   UNL A   1      46.735  30.161  27.137  1.00  0.00     0.029 A 
ATOM     48  N   UNL A   1      44.702  29.839  27.975  1.00  0.00    -0.354 N 
ATOM     49  N   UNL A   1      42.254  30.612  29.366  1.00  0.00    -0.248 NA
ATOM     50  C   UNL A   1      41.068  32.125  30.691  1.00  0.00     0.031 C 
ATOM     51  C   UNL A   1      46.327  31.339  27.773  1.00  0.00     0.029 A 
ATOM     52  C   UNL A   1      45.056  31.141  28.286  1.00  0.00     0.049 A 
ATOM     53  H   UNL A   1      43.847  29.414  28.214  1.00  0.00     0.167 HD
ATOM     54  C   UNL A   1      42.997  31.779  29.502  1.00  0.00     0.074 A 
ATOM     55  C   UNL A   1      42.200  32.692  30.296  1.00  0.00     0.031 C 
ATOM     56  C   UNL A   1      44.234  32.064  29.025  1.00  0.00     0.034 A 
BRANCH  43  57
ATOM     57  C   UNL A   1      46.935  27.330  26.127  1.00  0.00     0.023 A 
ATOM     58  C   UNL A   1      47.102  27.549  24.745  1.00  0.00     0.012 A 
ATOM     59  C   UNL A   1      47.947  26.671  26.851  1.00  0.00     0.148 A 
ATOM     60  C   UNL A   1      48.246  27.096  24.088  1.00  0.00     0.002 A 
ATOM     61  C   UNL A   1      49.103  26.258  26.197  1.00  0.00     0.091 A 
ATOM     62  F   UNL A   1      47.758  26.450  28.159  1.00  0.00    -0.205 F 
ATOM     63  C   UNL A   1      49.250  26.461  24.816  1.00  0.00     0.022 A 
BRANCH  61  64
ATOM     64  S   UNL A   1      50.482  25.500  27.064  1.00  0.00     0.127 S 
ATOM     65  O   UNL A   1      50.846  26.550  28.013  1.00  0.00    -0.237 OA
ATOM     66  O   UNL A   1      49.859  24.321  27.666  1.00  0.00    -0.237 OA
ATOM     67  O   UNL A   1      51.479  25.202  26.044  1.00  0.00    -0.744 OA
ENDBRANCH  61  64
ENDBRANCH  43  57
BRANCH  44  68
ATOM     68  C   UNL A   1      38.743  30.349  30.938  1.00  0.00     0.023 A 
ATOM     69  C   UNL A   1      38.662  30.078  32.317  1.00  0.00     0.012 A 
ATOM     70  C   UNL A   1      37.695  31.050  30.311  1.00  0.00     0.148 A 
ATOM     71  C   UNL A   1      37.545  30.477  33.054  1.00  0.00     0.002 A 
ATOM     72  C   UNL A   1      36.613  31.493  31.061  1.00  0.00     0.091 A 
ATOM     73  F   UNL A   1      37.783  31.278  28.993  1.00  0.00    -0.205 F 
ATOM     74  C   UNL A   1      36.527  31.193  32.429  1.00  0.00     0.022 A 
BRANCH  72  75
ATOM     75  S   UNL A   1      35.325  32.535  30.365  1.00  0.00     0.127 S 
ATOM     76  O   UNL A   1      36.071  33.738  30.009  1.00  0.00    -0.237 OA
ATOM     77  O   UNL A   1      34.868  31.733  29.230  1.00  0.00    -0.237 OA
ATOM     78  O   UNL A   1      34.335  32.691  31.423  1.00  0.00    -0.744 OA
ENDBRANCH  72  75
ENDBRANCH  44  68
BRANCH  56  79
ATOM     79  C   UNL A   1      44.804  33.431  29.308  1.00  0.00     0.023 A 
ATOM     80  C   UNL A   1      45.554  33.648  30.481  1.00  0.00     0.012 A 
ATOM     81  C   UNL A   1      44.676  34.473  28.368  1.00  0.00     0.148 A 
ATOM     82  C   UNL A   1      46.144  34.888  30.726  1.00  0.00     0.002 A 
ATOM     83  C   UNL A   1      45.306  35.692  28.597  1.00  0.00     0.091 A 
ATOM     84  F   UNL A   1      43.945  34.253  27.265  1.00  0.00    -0.205 F 
ATOM     85  C   UNL A   1      46.031  35.903  29.781  1.00  0.00     0.022 A 
BRANCH  83  86
ATOM     86  S   UNL A   1      45.293  37.025  27.392  1.00  0.00     0.127 S 
ATOM     87  O   UNL A   1      46.019  36.424  26.275  1.00  0.00    -0.237 OA
ATOM     88  O   UNL A   1      43.860  37.215  27.156  1.00  0.00    -0.237 OA
ATOM     89  O   UNL A   1      45.954  38.153  28.034  1.00  0.00    -0.744 OA
ENDBRANCH  83  86
ENDBRANCH  56  79
ENDBRANCH  30  31
ENDBRANCH  23  25
ENDBRANCH  22  23
ENDBRANCH  21  22
ENDBRANCH   1  21
TORSDOF 19
ENDMDL
MODEL 3
REMARK VINA RESULT:     -10.9      0.688      7.931
REMARK SMILES CC1(C)[C@H]2CC[C@]1(C)[C@](O)(CC(=O)OCCOCCOC(=O)c1ccc(-c3c4nc(c(-c5cccc(S(=O)(=O)[O-])c5F)c5ccc([nH]5)c(-c5cccc(S(=O)(=O)[O-])c5F)c5nc(c(-c6cccc(S(=O)(=O)[O-])c6F)c6ccc3[nH]6)C=C5)C=C4)cc1)C2
REMARK SMILES IDX 18 1 17 2 16 3 15 4 14 5 12 6 13 7 11 8 9 9 1 10 2 11 3 12
REMARK SMILES IDX 4 13 7 14 5 15 86 16 6 17 8 18 10 19 19 21 20 22 21 23 22 24
REMARK SMILES IDX 23 25 24 26 85 27 25 28 84 29 26 30 27 31 28 32 78 33 29 34
REMARK SMILES IDX 83 35 77 36 79 37 30 38 82 39 76 40 75 41 31 43 63 44 43 45
REMARK SMILES IDX 62 46 44 47 47 48 61 49 80 50 45 51 46 52 60 54 81 55 48 56
REMARK SMILES IDX 32 57 33 58 41 59 34 60 36 61 42 62 35 63 37 64 38 65 39 66
REMARK SMILES IDX 40 67 64 68 65 69 73 70 66 71 68 72 74 73 67 74 69 75 70 76
REMARK SMILES IDX 71 77 72 78 49 79 50 80 58 81 51 82 53 83 59 84 52 85 54 86
REMARK SMILES IDX 55 87 56 88 57 89
REMARK H PARENT 10 20 79 42 47 53
REMARK Flexibility Score: inf
ROOT
ATOM      1  C   UNL A   1      31.068  29.708  24.620  1.00  0.00     0.202 C 
ENDROOT
BRANCH   1   2
ATOM      2  O   UNL A   1      31.914  28.563  24.493  1.00  0.00    -0.374 OA
BRANCH   2   3
ATOM      3  C   UNL A   1      33.052  28.677  23.636  1.00  0.00     0.202 C 
BRANCH   3   4
ATOM      4  C   UNL A   1      33.710  27.361  23.220  1.00  0.00     0.261 C 
BRANCH   4   5
ATOM      5  O   UNL A   1      33.381  27.045  21.853  1.00  0.00    -0.463 OA
BRANCH   5   6
ATOM      6  C   UNL A   1      32.987  25.768  21.636  1.00  0.00     0.308 C 
ATOM      7  O   UNL A   1      33.279  25.109  20.642  1.00  0.00    -0.252 OA
BRANCH   6   8
ATOM      8  C   UNL A   1      32.273  25.139  22.806  1.00  0.00     0.158 C 
BRANCH   8   9
ATOM      9  C   UNL A   1      32.494  23.662  23.179  1.00  0.00     0.081 C 
ATOM     10  C   UNL A   1      34.185  21.376  25.885  1.00  0.00     0.012 C 
ATOM     11  C   UNL A   1      33.245  21.933  24.792  1.00  0.00    -0.024 C 
ATOM     12  C   UNL A   1      32.891  20.718  23.908  1.00  0.00     0.012 C 
ATOM     13  C   UNL A   1      32.020  22.683  25.364  1.00  0.00    -0.002 C 
ATOM     14  C   UNL A   1      33.745  23.232  24.048  1.00  0.00     0.002 C 
ATOM     15  C   UNL A   1      32.638  23.906  26.084  1.00  0.00     0.005 C 
ATOM     16  C   UNL A   1      31.312  23.226  24.107  1.00  0.00     0.040 C 
ATOM     17  C   UNL A   1      33.877  24.226  25.233  1.00  0.00     0.010 C 
ATOM     18  C   UNL A   1      35.062  23.059  23.304  1.00  0.00     0.015 C 
BRANCH   9  19
ATOM     19  O   UNL A   1      32.383  22.881  21.989  1.00  0.00    -0.389 OA
ATOM     20  H   UNL A   1      32.521  21.945  22.203  1.00  0.00     0.211 HD
ENDBRANCH   9  19
ENDBRANCH   8   9
ENDBRANCH   6   8
ENDBRANCH   5   6
ENDBRANCH   4   5
ENDBRANCH   3   4
ENDBRANCH   2   3
ENDBRANCH   1   2
BRANCH   1  21
ATOM     21  C   UNL A   1      31.355  30.631  25.815  1.00  0.00     0.261 C 
BRANCH  21  22
ATOM     22  O   UNL A   1      32.632  30.370  26.433  1.00  0.00    -0.460 OA
BRANCH  22  23
ATOM     23  C   UNL A   1      33.189  31.442  27.052  1.00  0.00     0.338 C 
ATOM     24  O   UNL A   1      32.642  32.505  27.321  1.00  0.00    -0.246 OA
BRANCH  23  25
ATOM     25  C   UNL A   1      34.535  31.113  27.555  1.00  0.00     0.060 A 
ATOM     26  C   UNL A   1      34.830  29.760  27.771  1.00  0.00     0.016 A 
ATOM     27  C   UNL A   1      35.458  32.101  27.902  1.00  0.00     0.016 A 
ATOM     28  C   UNL A   1      36.028  29.392  28.380  1.00  0.00     0.010 A 
ATOM     29  C   UNL A   1      36.659  31.729  28.520  1.00  0.00     0.010 A 
ATOM     30  C   UNL A   1      36.934  30.376  28.797  1.00  0.00    -0.014 A 
BRANCH  30  31
ATOM     31  C   UNL A   1      38.093  29.992  29.643  1.00  0.00     0.031 A 
ATOM     32  C   UNL A   1      39.121  29.037  29.095  1.00  0.00     0.074 A 
ATOM     33  C   UNL A   1      38.246  30.500  30.880  1.00  0.00     0.049 A 
ATOM     34  N   UNL A   1      40.197  28.561  29.666  1.00  0.00    -0.248 NA
ATOM     35  C   UNL A   1      38.905  28.553  27.721  1.00  0.00     0.031 C 
ATOM     36  C   UNL A   1      37.332  31.439  31.525  1.00  0.00     0.029 A 
ATOM     37  N   UNL A   1      39.220  30.273  31.823  1.00  0.00    -0.354 N 
ATOM     38  C   UNL A   1      40.770  27.701  28.738  1.00  0.00     0.074 A 
ATOM     39  C   UNL A   1      39.919  27.713  27.569  1.00  0.00     0.031 C 
ATOM     40  C   UNL A   1      37.771  31.687  32.772  1.00  0.00     0.029 A 
ATOM     41  C   UNL A   1      38.982  30.905  33.020  1.00  0.00     0.049 A 
ATOM     42  H   UNL A   1      40.011  29.711  31.656  1.00  0.00     0.167 HD
ATOM     43  C   UNL A   1      41.912  26.979  28.841  1.00  0.00     0.034 A 
ATOM     44  C   UNL A   1      39.651  30.844  34.190  1.00  0.00     0.034 A 
ATOM     45  C   UNL A   1      42.777  26.986  29.989  1.00  0.00     0.049 A 
ATOM     46  C   UNL A   1      40.905  30.014  34.287  1.00  0.00     0.074 A 
ATOM     47  C   UNL A   1      43.984  26.329  30.159  1.00  0.00     0.029 A 
ATOM     48  N   UNL A   1      42.525  27.670  31.167  1.00  0.00    -0.354 N 
ATOM     49  N   UNL A   1      41.502  29.308  33.357  1.00  0.00    -0.248 NA
ATOM     50  C   UNL A   1      41.596  29.997  35.586  1.00  0.00     0.031 C 
ATOM     51  C   UNL A   1      44.449  26.597  31.451  1.00  0.00     0.029 A 
ATOM     52  C   UNL A   1      43.545  27.440  32.075  1.00  0.00     0.049 A 
ATOM     53  H   UNL A   1      41.737  28.236  31.333  1.00  0.00     0.167 HD
ATOM     54  C   UNL A   1      42.653  28.794  33.946  1.00  0.00     0.074 A 
ATOM     55  C   UNL A   1      42.680  29.284  35.309  1.00  0.00     0.031 C 
ATOM     56  C   UNL A   1      43.595  27.978  33.410  1.00  0.00     0.034 A 
BRANCH  43  57
ATOM     57  C   UNL A   1      42.311  26.134  27.660  1.00  0.00     0.023 A 
ATOM     58  C   UNL A   1      43.168  26.670  26.677  1.00  0.00     0.012 A 
ATOM     59  C   UNL A   1      41.890  24.794  27.556  1.00  0.00     0.148 A 
ATOM     60  C   UNL A   1      43.576  25.894  25.593  1.00  0.00     0.002 A 
ATOM     61  C   UNL A   1      42.334  24.014  26.494  1.00  0.00     0.091 A 
ATOM     62  F   UNL A   1      41.056  24.311  28.488  1.00  0.00    -0.205 F 
ATOM     63  C   UNL A   1      43.169  24.564  25.508  1.00  0.00     0.022 A 
BRANCH  61  64
ATOM     64  S   UNL A   1      41.924  22.272  26.340  1.00  0.00     0.127 S 
ATOM     65  O   UNL A   1      42.697  21.891  25.159  1.00  0.00    -0.237 OA
ATOM     66  O   UNL A   1      42.426  21.723  27.601  1.00  0.00    -0.237 OA
ATOM     67  O   UNL A   1      40.476  22.215  26.189  1.00  0.00    -0.744 OA
ENDBRANCH  61  64
ENDBRANCH  43  57
BRANCH  44  68
ATOM     68  C   UNL A   1      39.157  31.615  35.366  1.00  0.00     0.023 A 
ATOM     69  C   UNL A   1      38.243  31.020  36.256  1.00  0.00     0.012 A 
ATOM     70  C   UNL A   1      39.605  32.927  35.614  1.00  0.00     0.148 A 
ATOM     71  C   UNL A   1      37.764  31.729  37.360  1.00  0.00     0.002 A 
ATOM     72  C   UNL A   1      39.168  33.606  36.744  1.00  0.00     0.091 A 
ATOM     73  F   UNL A   1      40.458  33.482  34.741  1.00  0.00    -0.205 F 
ATOM     74  C   UNL A   1      38.234  33.016  37.609  1.00  0.00     0.022 A 
BRANCH  72  75
ATOM     75  S   UNL A   1      39.823  35.212  37.212  1.00  0.00     0.127 S 
ATOM     76  O   UNL A   1      39.303  36.070  36.151  1.00  0.00    -0.237 OA
ATOM     77  O   UNL A   1      39.212  35.416  38.527  1.00  0.00    -0.237 OA
ATOM     78  O   UNL A   1      41.270  35.049  37.246  1.00  0.00    -0.744 OA
ENDBRANCH  72  75
ENDBRANCH  44  68
BRANCH  56  79
ATOM     79  C   UNL A   1      44.765  27.584  34.276  1.00  0.00     0.023 A 
ATOM     80  C   UNL A   1      45.912  28.402  34.318  1.00  0.00     0.012 A 
ATOM     81  C   UNL A   1      44.691  26.455  35.116  1.00  0.00     0.148 A 
ATOM     82  C   UNL A   1      46.977  28.087  35.162  1.00  0.00     0.002 A 
ATOM     83  C   UNL A   1      45.736  26.174  35.989  1.00  0.00     0.091 A 
ATOM     84  F   UNL A   1      43.599  25.679  35.051  1.00  0.00    -0.205 F 
ATOM     85  C   UNL A   1      46.884  26.983  36.005  1.00  0.00     0.022 A 
BRANCH  83  86
ATOM     86  S   UNL A   1      45.664  24.828  37.177  1.00  0.00     0.127 S 
ATOM     87  O   UNL A   1      44.478  25.180  37.955  1.00  0.00    -0.237 OA
ATOM     88  O   UNL A   1      45.500  23.658  36.311  1.00  0.00    -0.237 OA
ATOM     89  O   UNL A   1      46.924  24.867  37.906  1.00  0.00    -0.744 OA
ENDBRANCH  83  86
ENDBRANCH  56  79
ENDBRANCH  30  31
ENDBRANCH  23  25
ENDBRANCH  22  23
ENDBRANCH  21  22
ENDBRANCH   1  21
TORSDOF 19
ENDMDL
