MODEL 1
REMARK VINA RESULT:     -12.0      0.000      0.000
REMARK SMILES Nc1c(Cl)ccc2c1C=C(C(=O)OCCOCCOC(=O)c1ccc(-c3c4nc(c(-c5cccc(S(=O)(=O)[O-])c5F)c5ccc([nH]5)c(-c5cccc(S(=O)(=O)[O-])c5F)c5nc(c(-c6cccc(S(=O)(=O)[O-])c6F)c6ccc3[nH]6)C=C5)C=C4)cc1)[C@@H](C(F)(F)F)O2
REMARK SMILES IDX 17 1 16 2 15 3 14 4 13 5 11 6 12 7 10 8 2 9 3 10 8 11 4 12
REMARK SMILES IDX 5 13 7 14 9 15 6 16 90 17 85 18 1 19 86 22 87 23 88 24 89 25
REMARK SMILES IDX 18 26 19 27 20 28 21 29 22 30 23 31 84 32 24 33 83 34 25 35
REMARK SMILES IDX 26 36 27 37 77 38 28 39 82 40 76 41 78 42 29 43 81 44 75 45
REMARK SMILES IDX 74 46 30 48 62 49 42 50 61 51 43 52 46 53 60 54 79 55 44 56
REMARK SMILES IDX 45 57 59 59 80 60 47 61 31 62 32 63 40 64 33 65 35 66 41 67
REMARK SMILES IDX 34 68 36 69 37 70 38 71 39 72 63 73 64 74 72 75 65 76 67 77
REMARK SMILES IDX 73 78 66 79 68 80 69 81 70 82 71 83 48 84 49 85 57 86 50 87
REMARK SMILES IDX 52 88 58 89 51 90 53 91 54 92 55 93 56 94
REMARK H PARENT 1 20 1 21 78 47 46 58
REMARK Flexibility Score: inf
ROOT
ATOM      1  C   UNL A   1      36.529  21.489  24.674  1.00  0.00     0.202 C 
ENDROOT
BRANCH   1   2
ATOM      2  O   UNL A   1      36.084  22.344  25.730  1.00  0.00    -0.374 OA
BRANCH   2   3
ATOM      3  C   UNL A   1      35.975  23.737  25.447  1.00  0.00     0.202 C 
BRANCH   3   4
ATOM      4  C   UNL A   1      34.603  24.377  25.680  1.00  0.00     0.261 C 
BRANCH   4   5
ATOM      5  O   UNL A   1      33.616  23.400  26.048  1.00  0.00    -0.460 OA
BRANCH   5   6
ATOM      6  C   UNL A   1      32.480  23.444  25.316  1.00  0.00     0.338 C 
ATOM      7  O   UNL A   1      31.712  24.390  25.210  1.00  0.00    -0.246 OA
BRANCH   6   8
ATOM      8  C   UNL A   1      32.352  22.211  24.518  1.00  0.00     0.088 C 
ATOM      9  C   UNL A   1      32.698  18.564  25.119  1.00  0.00     0.061 A 
ATOM     10  C   UNL A   1      32.874  17.420  24.314  1.00  0.00     0.064 A 
ATOM     11  C   UNL A   1      32.486  19.805  24.474  1.00  0.00     0.042 A 
ATOM     12  Cl  UNL A   1      33.242  15.884  25.030  1.00  0.00    -0.082 Cl
ATOM     13  C   UNL A   1      32.745  17.480  22.926  1.00  0.00     0.026 A 
ATOM     14  C   UNL A   1      32.316  19.852  23.083  1.00  0.00     0.130 A 
ATOM     15  C   UNL A   1      32.498  21.069  25.201  1.00  0.00     0.029 C 
ATOM     16  C   UNL A   1      32.439  18.693  22.315  1.00  0.00     0.049 A 
ATOM     17  O   UNL A   1      32.022  20.986  22.381  1.00  0.00    -0.475 OA
ATOM     18  C   UNL A   1      32.103  22.280  23.040  1.00  0.00     0.316 C 
BRANCH   9  19
ATOM     19  N   UNL A   1      32.860  18.475  26.510  1.00  0.00    -0.397 N 
ATOM     20  H   UNL A   1      33.688  18.804  26.930  1.00  0.00     0.156 HD
ATOM     21  H   UNL A   1      32.147  18.085  27.065  1.00  0.00     0.156 HD
ENDBRANCH   9  19
BRANCH  18  22
ATOM     22  C   UNL A   1      33.152  23.129  22.306  1.00  0.00     0.430 C 
ATOM     23  F   UNL A   1      32.931  24.450  22.492  1.00  0.00    -0.167 F 
ATOM     24  F   UNL A   1      34.404  22.869  22.748  1.00  0.00    -0.167 F 
ATOM     25  F   UNL A   1      33.138  22.896  20.973  1.00  0.00    -0.167 F 
ENDBRANCH  18  22
ENDBRANCH   6   8
ENDBRANCH   5   6
ENDBRANCH   4   5
ENDBRANCH   3   4
ENDBRANCH   2   3
ENDBRANCH   1   2
BRANCH   1  26
ATOM     26  C   UNL A   1      37.746  20.600  24.960  1.00  0.00     0.261 C 
BRANCH  26  27
ATOM     27  O   UNL A   1      38.274  20.821  26.282  1.00  0.00    -0.460 OA
BRANCH  27  28
ATOM     28  C   UNL A   1      39.622  20.924  26.347  1.00  0.00     0.338 C 
ATOM     29  O   UNL A   1      40.447  20.153  25.880  1.00  0.00    -0.246 OA
BRANCH  28  30
ATOM     30  C   UNL A   1      39.995  22.228  26.919  1.00  0.00     0.060 A 
ATOM     31  C   UNL A   1      39.469  23.381  26.321  1.00  0.00     0.016 A 
ATOM     32  C   UNL A   1      40.931  22.320  27.950  1.00  0.00     0.016 A 
ATOM     33  C   UNL A   1      39.915  24.636  26.723  1.00  0.00     0.010 A 
ATOM     34  C   UNL A   1      41.391  23.581  28.339  1.00  0.00     0.010 A 
ATOM     35  C   UNL A   1      40.913  24.738  27.700  1.00  0.00    -0.014 A 
BRANCH  35  36
ATOM     36  C   UNL A   1      41.577  26.040  27.925  1.00  0.00     0.031 A 
ATOM     37  C   UNL A   1      40.829  27.117  28.659  1.00  0.00     0.074 A 
ATOM     38  C   UNL A   1      42.833  26.254  27.499  1.00  0.00     0.049 A 
ATOM     39  N   UNL A   1      41.212  28.329  28.959  1.00  0.00    -0.248 NA
ATOM     40  C   UNL A   1      39.472  26.780  29.124  1.00  0.00     0.031 C 
ATOM     41  C   UNL A   1      43.665  25.275  26.801  1.00  0.00     0.029 A 
ATOM     42  N   UNL A   1      43.621  27.372  27.585  1.00  0.00    -0.354 N 
ATOM     43  C   UNL A   1      40.145  28.903  29.638  1.00  0.00     0.074 A 
ATOM     44  C   UNL A   1      39.093  27.913  29.695  1.00  0.00     0.031 C 
ATOM     45  C   UNL A   1      44.846  25.844  26.506  1.00  0.00     0.029 A 
ATOM     46  C   UNL A   1      44.846  27.227  26.979  1.00  0.00     0.049 A 
ATOM     47  H   UNL A   1      43.337  28.199  28.037  1.00  0.00     0.167 HD
ATOM     48  C   UNL A   1      40.057  30.137  30.185  1.00  0.00     0.034 A 
ATOM     49  C   UNL A   1      45.847  28.114  26.819  1.00  0.00     0.034 A 
ATOM     50  C   UNL A   1      41.104  31.119  30.134  1.00  0.00     0.049 A 
ATOM     51  C   UNL A   1      45.708  29.501  27.383  1.00  0.00     0.074 A 
ATOM     52  C   UNL A   1      41.113  32.393  30.670  1.00  0.00     0.029 A 
ATOM     53  N   UNL A   1      42.326  30.936  29.507  1.00  0.00    -0.354 N 
ATOM     54  N   UNL A   1      44.721  30.007  28.081  1.00  0.00    -0.248 NA
ATOM     55  C   UNL A   1      46.824  30.431  27.157  1.00  0.00     0.031 C 
ATOM     56  C   UNL A   1      42.340  32.987  30.359  1.00  0.00     0.029 A 
ATOM     57  C   UNL A   1      43.098  32.077  29.638  1.00  0.00     0.049 A 
ATOM     58  H   UNL A   1      42.605  30.117  29.039  1.00  0.00     0.167 HD
ATOM     59  C   UNL A   1      45.103  31.306  28.397  1.00  0.00     0.074 A 
ATOM     60  C   UNL A   1      46.417  31.506  27.822  1.00  0.00     0.031 C 
ATOM     61  C   UNL A   1      44.421  32.248  29.094  1.00  0.00     0.034 A 
BRANCH  48  62
ATOM     62  C   UNL A   1      38.797  30.478  30.927  1.00  0.00     0.023 A 
ATOM     63  C   UNL A   1      38.678  30.103  32.281  1.00  0.00     0.012 A 
ATOM     64  C   UNL A   1      37.762  31.205  30.313  1.00  0.00     0.148 A 
ATOM     65  C   UNL A   1      37.538  30.434  33.010  1.00  0.00     0.002 A 
ATOM     66  C   UNL A   1      36.639  31.557  31.054  1.00  0.00     0.091 A 
ATOM     67  F   UNL A   1      37.889  31.529  29.018  1.00  0.00    -0.205 F 
ATOM     68  C   UNL A   1      36.524  31.168  32.399  1.00  0.00     0.022 A 
BRANCH  66  69
ATOM     69  S   UNL A   1      35.297  32.538  30.376  1.00  0.00     0.127 S 
ATOM     70  O   UNL A   1      35.984  33.782  30.035  1.00  0.00    -0.237 OA
ATOM     71  O   UNL A   1      34.878  31.736  29.226  1.00  0.00    -0.237 OA
ATOM     72  O   UNL A   1      34.303  32.647  31.436  1.00  0.00    -0.744 OA
ENDBRANCH  66  69
ENDBRANCH  48  62
BRANCH  49  73
ATOM     73  C   UNL A   1      47.093  27.676  26.136  1.00  0.00     0.023 A 
ATOM     74  C   UNL A   1      48.043  26.929  26.858  1.00  0.00     0.012 A 
ATOM     75  C   UNL A   1      47.296  27.913  24.762  1.00  0.00     0.148 A 
ATOM     76  C   UNL A   1      49.175  26.421  26.222  1.00  0.00     0.002 A 
ATOM     77  C   UNL A   1      48.409  27.375  24.128  1.00  0.00     0.091 A 
ATOM     78  F   UNL A   1      46.373  28.624  24.102  1.00  0.00    -0.205 F 
ATOM     79  C   UNL A   1      49.354  26.636  24.857  1.00  0.00     0.022 A 
BRANCH  77  80
ATOM     80  S   UNL A   1      48.680  27.514  22.358  1.00  0.00     0.127 S 
ATOM     81  O   UNL A   1      47.510  28.282  21.935  1.00  0.00    -0.237 OA
ATOM     82  O   UNL A   1      49.947  28.243  22.310  1.00  0.00    -0.237 OA
ATOM     83  O   UNL A   1      48.738  26.149  21.855  1.00  0.00    -0.744 OA
ENDBRANCH  77  80
ENDBRANCH  49  73
BRANCH  61  84
ATOM     84  C   UNL A   1      45.065  33.591  29.293  1.00  0.00     0.023 A 
ATOM     85  C   UNL A   1      45.886  33.801  30.418  1.00  0.00     0.012 A 
ATOM     86  C   UNL A   1      44.977  34.586  28.299  1.00  0.00     0.148 A 
ATOM     87  C   UNL A   1      46.608  34.986  30.553  1.00  0.00     0.002 A 
ATOM     88  C   UNL A   1      45.725  35.750  28.425  1.00  0.00     0.091 A 
ATOM     89  F   UNL A   1      44.185  34.362  27.241  1.00  0.00    -0.205 F 
ATOM     90  C   UNL A   1      46.538  35.953  29.553  1.00  0.00     0.022 A 
BRANCH  88  91
ATOM     91  S   UNL A   1      45.763  37.021  27.155  1.00  0.00     0.127 S 
ATOM     92  O   UNL A   1      46.678  37.999  27.741  1.00  0.00    -0.237 OA
ATOM     93  O   UNL A   1      46.303  36.293  26.007  1.00  0.00    -0.237 OA
ATOM     94  O   UNL A   1      44.389  37.477  26.996  1.00  0.00    -0.744 OA
ENDBRANCH  88  91
ENDBRANCH  61  84
ENDBRANCH  35  36
ENDBRANCH  28  30
ENDBRANCH  27  28
ENDBRANCH  26  27
ENDBRANCH   1  26
TORSDOF 19
ENDMDL
MODEL 2
REMARK VINA RESULT:     -12.0      1.322      7.592
REMARK SMILES Nc1c(Cl)ccc2c1C=C(C(=O)OCCOCCOC(=O)c1ccc(-c3c4nc(c(-c5cccc(S(=O)(=O)[O-])c5F)c5ccc([nH]5)c(-c5cccc(S(=O)(=O)[O-])c5F)c5nc(c(-c6cccc(S(=O)(=O)[O-])c6F)c6ccc3[nH]6)C=C5)C=C4)cc1)[C@@H](C(F)(F)F)O2
REMARK SMILES IDX 17 1 16 2 15 3 14 4 13 5 11 6 12 7 10 8 2 9 3 10 8 11 4 12
REMARK SMILES IDX 5 13 7 14 9 15 6 16 90 17 85 18 1 19 86 22 87 23 88 24 89 25
REMARK SMILES IDX 18 26 19 27 20 28 21 29 22 30 23 31 84 32 24 33 83 34 25 35
REMARK SMILES IDX 26 36 27 37 77 38 28 39 82 40 76 41 78 42 29 43 81 44 75 45
REMARK SMILES IDX 74 46 30 48 62 49 42 50 61 51 43 52 46 53 60 54 79 55 44 56
REMARK SMILES IDX 45 57 59 59 80 60 47 61 31 62 32 63 40 64 33 65 35 66 41 67
REMARK SMILES IDX 34 68 36 69 37 70 38 71 39 72 63 73 64 74 72 75 65 76 67 77
REMARK SMILES IDX 73 78 66 79 68 80 69 81 70 82 71 83 48 84 49 85 57 86 50 87
REMARK SMILES IDX 52 88 58 89 51 90 53 91 54 92 55 93 56 94
REMARK H PARENT 1 20 1 21 78 47 46 58
REMARK Flexibility Score: inf
ROOT
ATOM      1  C   UNL A   1      36.341  20.402  24.972  1.00  0.00     0.202 C 
ENDROOT
BRANCH   1   2
ATOM      2  O   UNL A   1      35.762  21.158  26.039  1.00  0.00    -0.374 OA
BRANCH   2   3
ATOM      3  C   UNL A   1      35.781  22.579  25.924  1.00  0.00     0.202 C 
BRANCH   3   4
ATOM      4  C   UNL A   1      34.550  23.324  26.450  1.00  0.00     0.261 C 
BRANCH   4   5
ATOM      5  O   UNL A   1      33.733  23.822  25.379  1.00  0.00    -0.460 OA
BRANCH   5   6
ATOM      6  C   UNL A   1      32.455  23.382  25.395  1.00  0.00     0.338 C 
ATOM      7  O   UNL A   1      31.493  23.938  25.906  1.00  0.00    -0.246 OA
BRANCH   6   8
ATOM      8  C   UNL A   1      32.334  22.171  24.561  1.00  0.00     0.088 C 
ATOM      9  C   UNL A   1      32.658  18.508  25.070  1.00  0.00     0.061 A 
ATOM     10  C   UNL A   1      32.841  17.385  24.237  1.00  0.00     0.064 A 
ATOM     11  C   UNL A   1      32.460  19.767  24.455  1.00  0.00     0.042 A 
ATOM     12  Cl  UNL A   1      33.194  15.829  24.916  1.00  0.00    -0.082 Cl
ATOM     13  C   UNL A   1      32.732  17.483  22.849  1.00  0.00     0.026 A 
ATOM     14  C   UNL A   1      32.310  19.851  23.064  1.00  0.00     0.130 A 
ATOM     15  C   UNL A   1      32.466  21.011  25.216  1.00  0.00     0.029 C 
ATOM     16  C   UNL A   1      32.439  18.713  22.267  1.00  0.00     0.049 A 
ATOM     17  O   UNL A   1      32.030  21.005  22.388  1.00  0.00    -0.475 OA
ATOM     18  C   UNL A   1      32.105  22.280  23.083  1.00  0.00     0.316 C 
BRANCH   9  19
ATOM     19  N   UNL A   1      32.801  18.382  26.460  1.00  0.00    -0.397 N 
ATOM     20  H   UNL A   1      32.438  19.075  27.057  1.00  0.00     0.156 HD
ATOM     21  H   UNL A   1      33.262  17.598  26.838  1.00  0.00     0.156 HD
ENDBRANCH   9  19
BRANCH  18  22
ATOM     22  C   UNL A   1      33.168  23.144  22.387  1.00  0.00     0.430 C 
ATOM     23  F   UNL A   1      32.967  24.459  22.631  1.00  0.00    -0.167 F 
ATOM     24  F   UNL A   1      34.415  22.846  22.817  1.00  0.00    -0.167 F 
ATOM     25  F   UNL A   1      33.151  22.971  21.044  1.00  0.00    -0.167 F 
ENDBRANCH  18  22
ENDBRANCH   6   8
ENDBRANCH   5   6
ENDBRANCH   4   5
ENDBRANCH   3   4
ENDBRANCH   2   3
ENDBRANCH   1   2
BRANCH   1  26
ATOM     26  C   UNL A   1      37.789  19.932  25.153  1.00  0.00     0.261 C 
BRANCH  26  27
ATOM     27  O   UNL A   1      38.696  21.038  25.321  1.00  0.00    -0.460 OA
BRANCH  27  28
ATOM     28  C   UNL A   1      39.658  20.849  26.255  1.00  0.00     0.338 C 
ATOM     29  O   UNL A   1      40.300  19.830  26.461  1.00  0.00    -0.246 OA
BRANCH  28  30
ATOM     30  C   UNL A   1      39.980  22.130  26.904  1.00  0.00     0.060 A 
ATOM     31  C   UNL A   1      39.237  23.258  26.531  1.00  0.00     0.016 A 
ATOM     32  C   UNL A   1      41.065  22.243  27.775  1.00  0.00     0.016 A 
ATOM     33  C   UNL A   1      39.606  24.517  26.996  1.00  0.00     0.010 A 
ATOM     34  C   UNL A   1      41.445  23.509  28.224  1.00  0.00     0.010 A 
ATOM     35  C   UNL A   1      40.742  24.652  27.805  1.00  0.00    -0.014 A 
BRANCH  35  36
ATOM     36  C   UNL A   1      41.289  26.000  28.066  1.00  0.00     0.031 A 
ATOM     37  C   UNL A   1      42.681  26.320  27.597  1.00  0.00     0.074 A 
ATOM     38  C   UNL A   1      40.552  26.932  28.693  1.00  0.00     0.049 A 
ATOM     39  N   UNL A   1      43.359  27.428  27.725  1.00  0.00    -0.248 NA
ATOM     40  C   UNL A   1      43.400  25.250  26.884  1.00  0.00     0.031 C 
ATOM     41  C   UNL A   1      39.182  26.745  29.168  1.00  0.00     0.029 A 
ATOM     42  N   UNL A   1      40.863  28.220  29.047  1.00  0.00    -0.354 N 
ATOM     43  C   UNL A   1      44.586  27.191  27.117  1.00  0.00     0.074 A 
ATOM     44  C   UNL A   1      44.565  25.828  26.634  1.00  0.00     0.031 C 
ATOM     45  C   UNL A   1      38.774  27.875  29.767  1.00  0.00     0.029 A 
ATOM     46  C   UNL A   1      39.857  28.857  29.732  1.00  0.00     0.049 A 
ATOM     47  H   UNL A   1      41.723  28.646  28.830  1.00  0.00     0.167 HD
ATOM     48  C   UNL A   1      45.628  28.038  26.957  1.00  0.00     0.034 A 
ATOM     49  C   UNL A   1      39.821  30.089  30.277  1.00  0.00     0.034 A 
ATOM     50  C   UNL A   1      45.647  29.393  27.432  1.00  0.00     0.049 A 
ATOM     51  C   UNL A   1      41.012  30.996  30.140  1.00  0.00     0.074 A 
ATOM     52  C   UNL A   1      46.654  30.332  27.307  1.00  0.00     0.029 A 
ATOM     53  N   UNL A   1      44.612  29.999  28.127  1.00  0.00    -0.354 N 
ATOM     54  N   UNL A   1      42.138  30.781  29.505  1.00  0.00    -0.248 NA
ATOM     55  C   UNL A   1      40.922  32.320  30.774  1.00  0.00     0.031 C 
ATOM     56  C   UNL A   1      46.231  31.508  27.936  1.00  0.00     0.029 A 
ATOM     57  C   UNL A   1      44.957  31.301  28.442  1.00  0.00     0.049 A 
ATOM     58  H   UNL A   1      43.760  29.568  28.361  1.00  0.00     0.167 HD
ATOM     59  C   UNL A   1      42.884  31.947  29.642  1.00  0.00     0.074 A 
ATOM     60  C   UNL A   1      42.077  32.870  30.414  1.00  0.00     0.031 C 
ATOM     61  C   UNL A   1      44.127  32.221  29.177  1.00  0.00     0.034 A 
BRANCH  48  62
ATOM     62  C   UNL A   1      46.820  27.534  26.196  1.00  0.00     0.023 A 
ATOM     63  C   UNL A   1      46.891  27.762  24.807  1.00  0.00     0.012 A 
ATOM     64  C   UNL A   1      47.884  26.887  26.850  1.00  0.00     0.148 A 
ATOM     65  C   UNL A   1      47.999  27.339  24.075  1.00  0.00     0.002 A 
ATOM     66  C   UNL A   1      48.999  26.492  26.119  1.00  0.00     0.091 A 
ATOM     67  F   UNL A   1      47.782  26.661  28.168  1.00  0.00    -0.205 F 
ATOM     68  C   UNL A   1      49.055  26.713  24.732  1.00  0.00     0.022 A 
BRANCH  66  69
ATOM     69  S   UNL A   1      50.432  25.719  26.875  1.00  0.00     0.127 S 
ATOM     70  O   UNL A   1      49.860  24.474  27.386  1.00  0.00    -0.237 OA
ATOM     71  O   UNL A   1      51.332  25.554  25.733  1.00  0.00    -0.237 OA
ATOM     72  O   UNL A   1      50.904  26.650  27.891  1.00  0.00    -0.744 OA
ENDBRANCH  66  69
ENDBRANCH  48  62
BRANCH  49  73
ATOM     73  C   UNL A   1      38.575  30.541  30.952  1.00  0.00     0.023 A 
ATOM     74  C   UNL A   1      38.461  30.395  32.347  1.00  0.00     0.012 A 
ATOM     75  C   UNL A   1      37.552  31.193  30.237  1.00  0.00     0.148 A 
ATOM     76  C   UNL A   1      37.348  30.894  33.022  1.00  0.00     0.002 A 
ATOM     77  C   UNL A   1      36.462  31.718  30.920  1.00  0.00     0.091 A 
ATOM     78  F   UNL A   1      37.691  31.319  28.910  1.00  0.00    -0.205 F 
ATOM     79  C   UNL A   1      36.355  31.564  32.311  1.00  0.00     0.022 A 
BRANCH  77  80
ATOM     80  S   UNL A   1      35.179  32.679  30.110  1.00  0.00     0.127 S 
ATOM     81  O   UNL A   1      34.262  32.948  31.217  1.00  0.00    -0.237 OA
ATOM     82  O   UNL A   1      35.933  33.839  29.638  1.00  0.00    -0.237 OA
ATOM     83  O   UNL A   1      34.645  31.825  29.058  1.00  0.00    -0.744 OA
ENDBRANCH  77  80
ENDBRANCH  49  73
BRANCH  61  84
ATOM     84  C   UNL A   1      44.714  33.573  29.473  1.00  0.00     0.023 A 
ATOM     85  C   UNL A   1      45.530  33.735  30.609  1.00  0.00     0.012 A 
ATOM     86  C   UNL A   1      44.578  34.634  28.556  1.00  0.00     0.148 A 
ATOM     87  C   UNL A   1      46.201  34.937  30.830  1.00  0.00     0.002 A 
ATOM     88  C   UNL A   1      45.277  35.817  28.766  1.00  0.00     0.091 A 
ATOM     89  F   UNL A   1      43.792  34.454  27.485  1.00  0.00    -0.205 F 
ATOM     90  C   UNL A   1      46.086  35.971  29.905  1.00  0.00     0.022 A 
BRANCH  88  91
ATOM     91  S   UNL A   1      45.254  37.179  27.594  1.00  0.00     0.127 S 
ATOM     92  O   UNL A   1      45.829  38.264  28.387  1.00  0.00    -0.237 OA
ATOM     93  O   UNL A   1      46.120  36.680  26.525  1.00  0.00    -0.237 OA
ATOM     94  O   UNL A   1      43.860  37.362  27.212  1.00  0.00    -0.744 OA
ENDBRANCH  88  91
ENDBRANCH  61  84
ENDBRANCH  35  36
ENDBRANCH  28  30
ENDBRANCH  27  28
ENDBRANCH  26  27
ENDBRANCH   1  26
TORSDOF 19
ENDMDL
MODEL 3
REMARK VINA RESULT:     -11.8      3.482      4.368
REMARK SMILES Nc1c(Cl)ccc2c1C=C(C(=O)OCCOCCOC(=O)c1ccc(-c3c4nc(c(-c5cccc(S(=O)(=O)[O-])c5F)c5ccc([nH]5)c(-c5cccc(S(=O)(=O)[O-])c5F)c5nc(c(-c6cccc(S(=O)(=O)[O-])c6F)c6ccc3[nH]6)C=C5)C=C4)cc1)[C@@H](C(F)(F)F)O2
REMARK SMILES IDX 17 1 16 2 15 3 14 4 13 5 11 6 12 7 10 8 2 9 3 10 8 11 4 12
REMARK SMILES IDX 5 13 7 14 9 15 6 16 90 17 85 18 1 19 86 22 87 23 88 24 89 25
REMARK SMILES IDX 18 26 19 27 20 28 21 29 22 30 23 31 84 32 24 33 83 34 25 35
REMARK SMILES IDX 26 36 27 37 77 38 28 39 82 40 76 41 78 42 29 43 81 44 75 45
REMARK SMILES IDX 74 46 30 48 62 49 42 50 61 51 43 52 46 53 60 54 79 55 44 56
REMARK SMILES IDX 45 57 59 59 80 60 47 61 31 62 32 63 40 64 33 65 35 66 41 67
REMARK SMILES IDX 34 68 36 69 37 70 38 71 39 72 63 73 64 74 72 75 65 76 67 77
REMARK SMILES IDX 73 78 66 79 68 80 69 81 70 82 71 83 48 84 49 85 57 86 50 87
REMARK SMILES IDX 52 88 58 89 51 90 53 91 54 92 55 93 56 94
REMARK H PARENT 1 20 1 21 78 47 46 58
REMARK Flexibility Score: inf
ROOT
ATOM      1  C   UNL A   1      35.235  20.939  24.881  1.00  0.00     0.202 C 
ENDROOT
BRANCH   1   2
ATOM      2  O   UNL A   1      34.912  21.879  23.854  1.00  0.00    -0.374 OA
BRANCH   2   3
ATOM      3  C   UNL A   1      33.652  22.541  23.940  1.00  0.00     0.202 C 
BRANCH   3   4
ATOM      4  C   UNL A   1      33.666  23.970  24.491  1.00  0.00     0.261 C 
BRANCH   4   5
ATOM      5  O   UNL A   1      32.946  24.875  23.639  1.00  0.00    -0.460 OA
BRANCH   5   6
ATOM      6  C   UNL A   1      32.740  26.102  24.168  1.00  0.00     0.338 C 
ATOM      7  O   UNL A   1      33.569  26.816  24.713  1.00  0.00    -0.246 OA
BRANCH   6   8
ATOM      8  C   UNL A   1      31.368  26.551  23.865  1.00  0.00     0.088 C 
ATOM      9  C   UNL A   1      29.797  29.435  22.135  1.00  0.00     0.061 A 
ATOM     10  C   UNL A   1      28.513  30.018  22.105  1.00  0.00     0.064 A 
ATOM     11  C   UNL A   1      29.963  28.231  22.858  1.00  0.00     0.042 A 
ATOM     12  Cl  UNL A   1      28.255  31.547  21.328  1.00  0.00    -0.082 Cl
ATOM     13  C   UNL A   1      27.412  29.384  22.682  1.00  0.00     0.026 A 
ATOM     14  C   UNL A   1      28.847  27.579  23.399  1.00  0.00     0.130 A 
ATOM     15  C   UNL A   1      31.280  27.660  23.121  1.00  0.00     0.029 C 
ATOM     16  C   UNL A   1      27.577  28.150  23.305  1.00  0.00     0.049 A 
ATOM     17  O   UNL A   1      28.895  26.371  24.037  1.00  0.00    -0.475 OA
ATOM     18  C   UNL A   1      30.183  25.800  24.397  1.00  0.00     0.316 C 
BRANCH   9  19
ATOM     19  N   UNL A   1      30.888  30.111  21.568  1.00  0.00    -0.397 N 
ATOM     20  H   UNL A   1      30.830  31.078  21.392  1.00  0.00     0.156 HD
ATOM     21  H   UNL A   1      31.712  29.619  21.347  1.00  0.00     0.156 HD
ENDBRANCH   9  19
BRANCH  18  22
ATOM     22  C   UNL A   1      30.227  25.640  25.925  1.00  0.00     0.430 C 
ATOM     23  F   UNL A   1      31.010  24.598  26.286  1.00  0.00    -0.167 F 
ATOM     24  F   UNL A   1      30.728  26.742  26.529  1.00  0.00    -0.167 F 
ATOM     25  F   UNL A   1      28.995  25.422  26.439  1.00  0.00    -0.167 F 
ENDBRANCH  18  22
ENDBRANCH   6   8
ENDBRANCH   5   6
ENDBRANCH   4   5
ENDBRANCH   3   4
ENDBRANCH   2   3
ENDBRANCH   1   2
BRANCH   1  26
ATOM     26  C   UNL A   1      36.387  21.305  25.826  1.00  0.00     0.261 C 
BRANCH  26  27
ATOM     27  O   UNL A   1      37.625  21.491  25.116  1.00  0.00    -0.460 OA
BRANCH  27  28
ATOM     28  C   UNL A   1      38.740  21.193  25.826  1.00  0.00     0.338 C 
ATOM     29  O   UNL A   1      39.351  20.135  25.834  1.00  0.00    -0.246 OA
BRANCH  28  30
ATOM     30  C   UNL A   1      39.253  22.407  26.479  1.00  0.00     0.060 A 
ATOM     31  C   UNL A   1      38.721  23.641  26.080  1.00  0.00     0.016 A 
ATOM     32  C   UNL A   1      40.316  22.344  27.383  1.00  0.00     0.016 A 
ATOM     33  C   UNL A   1      39.283  24.824  26.552  1.00  0.00     0.010 A 
ATOM     34  C   UNL A   1      40.890  23.532  27.838  1.00  0.00     0.010 A 
ATOM     35  C   UNL A   1      40.401  24.773  27.394  1.00  0.00    -0.014 A 
BRANCH  35  36
ATOM     36  C   UNL A   1      41.160  26.013  27.667  1.00  0.00     0.031 A 
ATOM     37  C   UNL A   1      40.494  27.113  28.445  1.00  0.00     0.074 A 
ATOM     38  C   UNL A   1      42.428  26.150  27.245  1.00  0.00     0.049 A 
ATOM     39  N   UNL A   1      40.966  28.281  28.790  1.00  0.00    -0.248 NA
ATOM     40  C   UNL A   1      39.116  26.859  28.901  1.00  0.00     0.031 C 
ATOM     41  C   UNL A   1      43.184  25.140  26.507  1.00  0.00     0.029 A 
ATOM     42  N   UNL A   1      43.296  27.203  27.371  1.00  0.00    -0.354 N 
ATOM     43  C   UNL A   1      39.945  28.906  29.494  1.00  0.00     0.074 A 
ATOM     44  C   UNL A   1      38.822  27.994  29.517  1.00  0.00     0.031 C 
ATOM     45  C   UNL A   1      44.404  25.631  26.230  1.00  0.00     0.029 A 
ATOM     46  C   UNL A   1      44.507  26.991  26.757  1.00  0.00     0.049 A 
ATOM     47  H   UNL A   1      43.075  28.030  27.856  1.00  0.00     0.167 HD
ATOM     48  C   UNL A   1      39.948  30.121  30.089  1.00  0.00     0.034 A 
ATOM     49  C   UNL A   1      45.571  27.807  26.627  1.00  0.00     0.034 A 
ATOM     50  C   UNL A   1      41.065  31.023  30.072  1.00  0.00     0.049 A 
ATOM     51  C   UNL A   1      45.535  29.177  27.244  1.00  0.00     0.074 A 
ATOM     52  C   UNL A   1      41.168  32.272  30.656  1.00  0.00     0.029 A 
ATOM     53  N   UNL A   1      42.270  30.775  29.434  1.00  0.00    -0.354 N 
ATOM     54  N   UNL A   1      44.588  29.728  27.965  1.00  0.00    -0.248 NA
ATOM     55  C   UNL A   1      46.717  30.030  27.051  1.00  0.00     0.031 C 
ATOM     56  C   UNL A   1      42.435  32.785  30.364  1.00  0.00     0.029 A 
ATOM     57  C   UNL A   1      43.124  31.850  29.606  1.00  0.00     0.049 A 
ATOM     58  H   UNL A   1      42.487  29.956  28.934  1.00  0.00     0.167 HD
ATOM     59  C   UNL A   1      45.066  30.982  28.330  1.00  0.00     0.074 A 
ATOM     60  C   UNL A   1      46.391  31.107  27.758  1.00  0.00     0.031 C 
ATOM     61  C   UNL A   1      44.455  31.943  29.065  1.00  0.00     0.034 A 
BRANCH  48  62
ATOM     62  C   UNL A   1      38.718  30.524  30.848  1.00  0.00     0.023 A 
ATOM     63  C   UNL A   1      38.630  30.217  32.221  1.00  0.00     0.012 A 
ATOM     64  C   UNL A   1      37.681  31.245  30.228  1.00  0.00     0.148 A 
ATOM     65  C   UNL A   1      37.518  30.608  32.964  1.00  0.00     0.002 A 
ATOM     66  C   UNL A   1      36.587  31.656  30.981  1.00  0.00     0.091 A 
ATOM     67  F   UNL A   1      37.778  31.504  28.916  1.00  0.00    -0.205 F 
ATOM     68  C   UNL A   1      36.502  31.334  32.347  1.00  0.00     0.022 A 
BRANCH  66  69
ATOM     69  S   UNL A   1      35.247  32.634  30.295  1.00  0.00     0.127 S 
ATOM     70  O   UNL A   1      35.946  33.857  29.902  1.00  0.00    -0.237 OA
ATOM     71  O   UNL A   1      34.799  31.802  29.178  1.00  0.00    -0.237 OA
ATOM     72  O   UNL A   1      34.272  32.791  31.366  1.00  0.00    -0.744 OA
ENDBRANCH  66  69
ENDBRANCH  48  62
BRANCH  49  73
ATOM     73  C   UNL A   1      46.781  27.305  25.923  1.00  0.00     0.023 A 
ATOM     74  C   UNL A   1      46.923  27.554  24.545  1.00  0.00     0.012 A 
ATOM     75  C   UNL A   1      47.824  26.669  26.624  1.00  0.00     0.148 A 
ATOM     76  C   UNL A   1      48.088  27.181  23.875  1.00  0.00     0.002 A 
ATOM     77  C   UNL A   1      48.995  26.331  25.958  1.00  0.00     0.091 A 
ATOM     78  F   UNL A   1      47.660  26.449  27.935  1.00  0.00    -0.205 F 
ATOM     79  C   UNL A   1      49.127  26.579  24.583  1.00  0.00     0.022 A 
BRANCH  77  80
ATOM     80  S   UNL A   1      50.425  25.641  26.797  1.00  0.00     0.127 S 
ATOM     81  O   UNL A   1      50.776  26.714  27.725  1.00  0.00    -0.237 OA
ATOM     82  O   UNL A   1      49.853  24.448  27.421  1.00  0.00    -0.237 OA
ATOM     83  O   UNL A   1      51.409  25.377  25.756  1.00  0.00    -0.744 OA
ENDBRANCH  77  80
ENDBRANCH  49  73
BRANCH  61  84
ATOM     84  C   UNL A   1      45.198  33.227  29.312  1.00  0.00     0.023 A 
ATOM     85  C   UNL A   1      46.072  33.315  30.413  1.00  0.00     0.012 A 
ATOM     86  C   UNL A   1      45.141  34.283  28.382  1.00  0.00     0.148 A 
ATOM     87  C   UNL A   1      46.878  34.439  30.585  1.00  0.00     0.002 A 
ATOM     88  C   UNL A   1      45.972  35.386  28.542  1.00  0.00     0.091 A 
ATOM     89  F   UNL A   1      44.296  34.175  27.346  1.00  0.00    -0.205 F 
ATOM     90  C   UNL A   1      46.838  35.466  29.646  1.00  0.00     0.022 A 
BRANCH  88  91
ATOM     91  S   UNL A   1      46.050  36.724  27.346  1.00  0.00     0.127 S 
ATOM     92  O   UNL A   1      47.051  37.603  27.949  1.00  0.00    -0.237 OA
ATOM     93  O   UNL A   1      46.494  36.031  26.137  1.00  0.00    -0.237 OA
ATOM     94  O   UNL A   1      44.705  37.279  27.271  1.00  0.00    -0.744 OA
ENDBRANCH  88  91
ENDBRANCH  61  84
ENDBRANCH  35  36
ENDBRANCH  28  30
ENDBRANCH  27  28
ENDBRANCH  26  27
ENDBRANCH   1  26
TORSDOF 19
ENDMDL
