MODEL 1
REMARK VINA RESULT:     -10.5      0.000      0.000
REMARK SMILES CC(C)(C)OC(=O)N1CC[N@H+](Cc2ccc(Cl)nc2)[C@H](C(=O)OCCOCCOC(=O)c2ccc(-c3c4nc(c(-c5cccc(S(=O)(=O)[O-])c5F)c5ccc([nH]5)c(-c5cccc(S(=O)(=O)[O-])c5F)c5nc(c(-c6cccc(S(=O)(=O)[O-])c6F)c6ccc3[nH]6)C=C5)C=C4)cc2)C1
REMARK SMILES IDX 26 1 25 2 24 3 23 4 21 5 22 6 20 7 8 8 9 9 95 10 10 11 11 12
REMARK SMILES IDX 6 14 7 15 5 16 2 17 1 18 3 19 4 20 12 21 13 22 14 23 19 24
REMARK SMILES IDX 15 25 18 26 16 27 17 28 27 29 28 30 29 31 30 32 31 33 32 34
REMARK SMILES IDX 33 35 94 36 34 37 93 38 35 39 36 40 37 41 87 42 38 43 92 44
REMARK SMILES IDX 86 45 88 46 39 47 91 48 85 49 84 50 40 52 72 53 52 54 71 55
REMARK SMILES IDX 53 56 56 57 70 58 89 59 54 60 55 61 69 63 90 64 57 65 41 66
REMARK SMILES IDX 42 67 50 68 43 69 45 70 51 71 44 72 46 73 47 74 48 75 49 76
REMARK SMILES IDX 73 77 74 78 82 79 75 80 77 81 83 82 76 83 78 84 79 85 80 86
REMARK SMILES IDX 81 87 58 88 59 89 67 90 60 91 62 92 68 93 61 94 63 95 64 96
REMARK SMILES IDX 65 97 66 98
REMARK H PARENT 11 13 88 51 56 62
REMARK Flexibility Score: inf
ROOT
ATOM      1  O   UNL A   1      38.894  22.314  26.311  1.00  0.00    -0.374 OA
ENDROOT
BRANCH   1   2
ATOM      2  C   UNL A   1      37.795  23.213  26.153  1.00  0.00     0.202 C 
BRANCH   2   3
ATOM      3  C   UNL A   1      36.681  22.753  25.207  1.00  0.00     0.261 C 
BRANCH   3   4
ATOM      4  O   UNL A   1      35.930  23.869  24.678  1.00  0.00    -0.459 OA
BRANCH   4   5
ATOM      5  C   UNL A   1      35.041  23.580  23.687  1.00  0.00     0.366 C 
ATOM      6  O   UNL A   1      35.341  22.996  22.649  1.00  0.00    -0.245 OA
BRANCH   5   7
ATOM      7  C   UNL A   1      33.636  24.132  23.981  1.00  0.00     0.315 C 
ATOM      8  N   UNL A   1      32.120  25.689  25.229  1.00  0.00    -0.296 N 
ATOM      9  C   UNL A   1      31.003  24.799  24.954  1.00  0.00     0.184 C 
ATOM     10  C   UNL A   1      33.504  25.182  25.103  1.00  0.00     0.200 C 
ATOM     11  C   UNL A   1      31.277  23.643  23.982  1.00  0.00     0.285 C 
ATOM     12  N   UNL A   1      32.607  23.050  24.069  1.00  0.00    -0.316 N 
ATOM     13  H   UNL A   1      32.779  22.468  23.248  1.00  0.00     0.349 HD
BRANCH   8  14
ATOM     14  C   UNL A   1      31.791  26.833  25.935  1.00  0.00     0.410 C 
ATOM     15  O   UNL A   1      31.999  26.933  27.143  1.00  0.00    -0.224 OA
BRANCH  14  16
ATOM     16  O   UNL A   1      31.100  27.732  25.196  1.00  0.00    -0.444 OA
BRANCH  16  17
ATOM     17  C   UNL A   1      31.826  28.837  24.583  1.00  0.00     0.106 C 
ATOM     18  C   UNL A   1      31.434  30.078  25.397  1.00  0.00     0.056 C 
ATOM     19  C   UNL A   1      31.385  29.023  23.129  1.00  0.00     0.056 C 
ATOM     20  C   UNL A   1      33.356  28.682  24.691  1.00  0.00     0.056 C 
ENDBRANCH  16  17
ENDBRANCH  14  16
ENDBRANCH   8  14
BRANCH  12  21
ATOM     21  C   UNL A   1      32.779  21.919  24.996  1.00  0.00     0.301 C 
BRANCH  21  22
ATOM     22  C   UNL A   1      33.069  20.533  24.465  1.00  0.00     0.025 A 
ATOM     23  C   UNL A   1      32.288  19.884  23.508  1.00  0.00     0.014 A 
ATOM     24  C   UNL A   1      34.222  19.857  24.842  1.00  0.00     0.122 A 
ATOM     25  C   UNL A   1      32.545  18.556  23.163  1.00  0.00     0.041 A 
ATOM     26  N   UNL A   1      34.529  18.580  24.512  1.00  0.00    -0.244 NA
ATOM     27  C   UNL A   1      33.652  17.948  23.717  1.00  0.00     0.129 A 
ATOM     28  Cl  UNL A   1      34.013  16.303  23.400  1.00  0.00    -0.062 Cl
ENDBRANCH  21  22
ENDBRANCH  12  21
ENDBRANCH   5   7
ENDBRANCH   4   5
ENDBRANCH   3   4
ENDBRANCH   2   3
ENDBRANCH   1   2
BRANCH   1  29
ATOM     29  C   UNL A   1      38.802  21.062  25.645  1.00  0.00     0.202 C 
BRANCH  29  30
ATOM     30  C   UNL A   1      39.765  19.948  26.076  1.00  0.00     0.261 C 
BRANCH  30  31
ATOM     31  O   UNL A   1      40.993  19.978  25.356  1.00  0.00    -0.460 OA
BRANCH  31  32
ATOM     32  C   UNL A   1      42.069  20.175  26.148  1.00  0.00     0.338 C 
ATOM     33  O   UNL A   1      43.007  19.409  26.337  1.00  0.00    -0.246 OA
BRANCH  32  34
ATOM     34  C   UNL A   1      42.047  21.556  26.640  1.00  0.00     0.060 A 
ATOM     35  C   UNL A   1      42.113  22.571  25.680  1.00  0.00     0.016 A 
ATOM     36  C   UNL A   1      41.982  21.852  28.005  1.00  0.00     0.016 A 
ATOM     37  C   UNL A   1      42.184  23.896  26.087  1.00  0.00     0.010 A 
ATOM     38  C   UNL A   1      42.055  23.183  28.411  1.00  0.00     0.010 A 
ATOM     39  C   UNL A   1      42.201  24.200  27.454  1.00  0.00    -0.014 A 
BRANCH  39  40
ATOM     40  C   UNL A   1      42.544  25.574  27.874  1.00  0.00     0.031 A 
ATOM     41  C   UNL A   1      43.980  26.006  27.798  1.00  0.00     0.074 A 
ATOM     42  C   UNL A   1      41.581  26.416  28.281  1.00  0.00     0.049 A 
ATOM     43  N   UNL A   1      44.510  27.162  28.094  1.00  0.00    -0.248 NA
ATOM     44  C   UNL A   1      44.951  25.004  27.322  1.00  0.00     0.031 C 
ATOM     45  C   UNL A   1      40.159  26.088  28.389  1.00  0.00     0.029 A 
ATOM     46  N   UNL A   1      41.657  27.720  28.694  1.00  0.00    -0.354 N 
ATOM     47  C   UNL A   1      45.871  27.025  27.852  1.00  0.00     0.074 A 
ATOM     48  C   UNL A   1      46.094  25.668  27.407  1.00  0.00     0.031 C 
ATOM     49  C   UNL A   1      39.500  27.157  28.867  1.00  0.00     0.029 A 
ATOM     50  C   UNL A   1      40.453  28.237  29.109  1.00  0.00     0.049 A 
ATOM     51  H   UNL A   1      42.496  28.238  28.695  1.00  0.00     0.167 HD
ATOM     52  C   UNL A   1      46.844  27.959  27.963  1.00  0.00     0.034 A 
ATOM     53  C   UNL A   1      40.166  29.443  29.635  1.00  0.00     0.034 A 
ATOM     54  C   UNL A   1      46.607  29.308  28.392  1.00  0.00     0.049 A 
ATOM     55  C   UNL A   1      41.274  30.456  29.766  1.00  0.00     0.074 A 
ATOM     56  C   UNL A   1      47.517  30.341  28.531  1.00  0.00     0.029 A 
ATOM     57  N   UNL A   1      45.367  29.813  28.752  1.00  0.00    -0.354 N 
ATOM     58  N   UNL A   1      42.537  30.346  29.429  1.00  0.00    -0.248 NA
ATOM     59  C   UNL A   1      40.912  31.770  30.313  1.00  0.00     0.031 C 
ATOM     60  C   UNL A   1      46.827  31.469  28.987  1.00  0.00     0.029 A 
ATOM     61  C   UNL A   1      45.485  31.143  29.112  1.00  0.00     0.049 A 
ATOM     62  H   UNL A   1      44.527  29.301  28.752  1.00  0.00     0.167 HD
ATOM     63  C   UNL A   1      43.111  31.586  29.686  1.00  0.00     0.074 A 
ATOM     64  C   UNL A   1      42.051  32.438  30.187  1.00  0.00     0.031 C 
ATOM     65  C   UNL A   1      44.399  31.983  29.543  1.00  0.00     0.034 A 
BRANCH  52  66
ATOM     66  C   UNL A   1      48.241  27.566  27.569  1.00  0.00     0.023 A 
ATOM     67  C   UNL A   1      49.097  27.001  28.536  1.00  0.00     0.012 A 
ATOM     68  C   UNL A   1      48.686  27.690  26.239  1.00  0.00     0.148 A 
ATOM     69  C   UNL A   1      50.381  26.583  28.192  1.00  0.00     0.002 A 
ATOM     70  C   UNL A   1      49.955  27.237  25.895  1.00  0.00     0.091 A 
ATOM     71  F   UNL A   1      47.865  28.250  25.341  1.00  0.00    -0.205 F 
ATOM     72  C   UNL A   1      50.806  26.691  26.871  1.00  0.00     0.022 A 
BRANCH  70  73
ATOM     73  S   UNL A   1      50.575  27.268  24.210  1.00  0.00     0.127 S 
ATOM     74  O   UNL A   1      49.453  26.691  23.470  1.00  0.00    -0.237 OA
ATOM     75  O   UNL A   1      50.780  28.699  23.986  1.00  0.00    -0.237 OA
ATOM     76  O   UNL A   1      51.793  26.470  24.212  1.00  0.00    -0.744 OA
ENDBRANCH  70  73
ENDBRANCH  52  66
BRANCH  53  77
ATOM     77  C   UNL A   1      38.771  29.774  30.039  1.00  0.00     0.023 A 
ATOM     78  C   UNL A   1      38.330  29.466  31.341  1.00  0.00     0.012 A 
ATOM     79  C   UNL A   1      37.879  30.393  29.143  1.00  0.00     0.148 A 
ATOM     80  C   UNL A   1      37.016  29.732  31.728  1.00  0.00     0.002 A 
ATOM     81  C   UNL A   1      36.587  30.707  29.554  1.00  0.00     0.091 A 
ATOM     82  F   UNL A   1      38.306  30.662  27.901  1.00  0.00    -0.205 F 
ATOM     83  C   UNL A   1      36.148  30.361  30.840  1.00  0.00     0.022 A 
BRANCH  81  84
ATOM     84  S   UNL A   1      35.463  31.637  28.506  1.00  0.00     0.127 S 
ATOM     85  O   UNL A   1      35.038  30.623  27.546  1.00  0.00    -0.237 OA
ATOM     86  O   UNL A   1      34.431  32.059  29.455  1.00  0.00    -0.237 OA
ATOM     87  O   UNL A   1      36.260  32.734  27.972  1.00  0.00    -0.744 OA
ENDBRANCH  81  84
ENDBRANCH  53  77
BRANCH  65  88
ATOM     88  C   UNL A   1      44.730  33.409  29.893  1.00  0.00     0.023 A 
ATOM     89  C   UNL A   1      45.212  33.716  31.180  1.00  0.00     0.012 A 
ATOM     90  C   UNL A   1      44.641  34.425  28.923  1.00  0.00     0.148 A 
ATOM     91  C   UNL A   1      45.573  35.023  31.506  1.00  0.00     0.002 A 
ATOM     92  C   UNL A   1      45.046  35.716  29.241  1.00  0.00     0.091 A 
ATOM     93  F   UNL A   1      44.162  34.114  27.709  1.00  0.00    -0.205 F 
ATOM     94  C   UNL A   1      45.502  36.018  30.534  1.00  0.00     0.022 A 
BRANCH  92  95
ATOM     95  S   UNL A   1      45.078  37.038  28.025  1.00  0.00     0.127 S 
ATOM     96  O   UNL A   1      45.841  36.424  26.939  1.00  0.00    -0.237 OA
ATOM     97  O   UNL A   1      43.657  37.233  27.738  1.00  0.00    -0.237 OA
ATOM     98  O   UNL A   1      45.720  38.168  28.682  1.00  0.00    -0.744 OA
ENDBRANCH  92  95
ENDBRANCH  65  88
ENDBRANCH  39  40
ENDBRANCH  32  34
ENDBRANCH  31  32
ENDBRANCH  30  31
ENDBRANCH  29  30
ENDBRANCH   1  29
TORSDOF 22
ENDMDL
MODEL 2
REMARK VINA RESULT:     -10.4      1.612      7.612
REMARK SMILES CC(C)(C)OC(=O)N1CC[N@H+](Cc2ccc(Cl)nc2)[C@H](C(=O)OCCOCCOC(=O)c2ccc(-c3c4nc(c(-c5cccc(S(=O)(=O)[O-])c5F)c5ccc([nH]5)c(-c5cccc(S(=O)(=O)[O-])c5F)c5nc(c(-c6cccc(S(=O)(=O)[O-])c6F)c6ccc3[nH]6)C=C5)C=C4)cc2)C1
REMARK SMILES IDX 26 1 25 2 24 3 23 4 21 5 22 6 20 7 8 8 9 9 95 10 10 11 11 12
REMARK SMILES IDX 6 14 7 15 5 16 2 17 1 18 3 19 4 20 12 21 13 22 14 23 19 24
REMARK SMILES IDX 15 25 18 26 16 27 17 28 27 29 28 30 29 31 30 32 31 33 32 34
REMARK SMILES IDX 33 35 94 36 34 37 93 38 35 39 36 40 37 41 87 42 38 43 92 44
REMARK SMILES IDX 86 45 88 46 39 47 91 48 85 49 84 50 40 52 72 53 52 54 71 55
REMARK SMILES IDX 53 56 56 57 70 58 89 59 54 60 55 61 69 63 90 64 57 65 41 66
REMARK SMILES IDX 42 67 50 68 43 69 45 70 51 71 44 72 46 73 47 74 48 75 49 76
REMARK SMILES IDX 73 77 74 78 82 79 75 80 77 81 83 82 76 83 78 84 79 85 80 86
REMARK SMILES IDX 81 87 58 88 59 89 67 90 60 91 62 92 68 93 61 94 63 95 64 96
REMARK SMILES IDX 65 97 66 98
REMARK H PARENT 11 13 88 51 56 62
REMARK Flexibility Score: inf
ROOT
ATOM      1  O   UNL A   1      35.445  21.492  25.594  1.00  0.00    -0.374 OA
ENDROOT
BRANCH   1   2
ATOM      2  C   UNL A   1      35.307  22.741  26.275  1.00  0.00     0.202 C 
BRANCH   2   3
ATOM      3  C   UNL A   1      34.277  22.779  27.408  1.00  0.00     0.261 C 
BRANCH   3   4
ATOM      4  O   UNL A   1      33.073  22.056  27.065  1.00  0.00    -0.459 OA
BRANCH   4   5
ATOM      5  C   UNL A   1      31.946  22.806  26.909  1.00  0.00     0.366 C 
ATOM      6  O   UNL A   1      30.967  22.730  27.646  1.00  0.00    -0.245 OA
BRANCH   5   7
ATOM      7  C   UNL A   1      32.009  23.704  25.662  1.00  0.00     0.315 C 
ATOM      8  N   UNL A   1      31.098  25.585  24.279  1.00  0.00    -0.296 N 
ATOM      9  C   UNL A   1      31.759  25.026  23.109  1.00  0.00     0.184 C 
ATOM     10  C   UNL A   1      30.877  24.733  25.467  1.00  0.00     0.200 C 
ATOM     11  C   UNL A   1      32.719  23.855  23.365  1.00  0.00     0.285 C 
ATOM     12  N   UNL A   1      32.317  22.931  24.419  1.00  0.00    -0.316 N 
ATOM     13  H   UNL A   1      33.106  22.339  24.678  1.00  0.00     0.349 HD
BRANCH   8  14
ATOM     14  C   UNL A   1      30.409  26.763  24.048  1.00  0.00     0.410 C 
ATOM     15  O   UNL A   1      29.629  26.886  23.105  1.00  0.00    -0.224 OA
BRANCH  14  16
ATOM     16  O   UNL A   1      30.798  27.773  24.861  1.00  0.00    -0.444 OA
BRANCH  16  17
ATOM     17  C   UNL A   1      31.323  28.991  24.258  1.00  0.00     0.106 C 
ATOM     18  C   UNL A   1      31.899  29.804  25.426  1.00  0.00     0.056 C 
ATOM     19  C   UNL A   1      30.196  29.785  23.592  1.00  0.00     0.056 C 
ATOM     20  C   UNL A   1      32.479  28.722  23.272  1.00  0.00     0.056 C 
ENDBRANCH  16  17
ENDBRANCH  14  16
ENDBRANCH   8  14
BRANCH  12  21
ATOM     21  C   UNL A   1      31.489  21.779  24.024  1.00  0.00     0.301 C 
BRANCH  21  22
ATOM     22  C   UNL A   1      32.096  20.397  23.933  1.00  0.00     0.025 A 
ATOM     23  C   UNL A   1      32.642  19.711  25.019  1.00  0.00     0.014 A 
ATOM     24  C   UNL A   1      32.046  19.678  22.747  1.00  0.00     0.122 A 
ATOM     25  C   UNL A   1      33.300  18.493  24.833  1.00  0.00     0.041 A 
ATOM     26  N   UNL A   1      32.643  18.483  22.525  1.00  0.00    -0.244 NA
ATOM     27  C   UNL A   1      33.297  17.946  23.567  1.00  0.00     0.129 A 
ATOM     28  Cl  UNL A   1      34.128  16.487  23.229  1.00  0.00    -0.062 Cl
ENDBRANCH  21  22
ENDBRANCH  12  21
ENDBRANCH   5   7
ENDBRANCH   4   5
ENDBRANCH   3   4
ENDBRANCH   2   3
ENDBRANCH   1   2
BRANCH   1  29
ATOM     29  C   UNL A   1      36.424  21.424  24.567  1.00  0.00     0.202 C 
BRANCH  29  30
ATOM     30  C   UNL A   1      37.709  20.637  24.854  1.00  0.00     0.261 C 
BRANCH  30  31
ATOM     31  O   UNL A   1      38.153  20.784  26.199  1.00  0.00    -0.460 OA
BRANCH  31  32
ATOM     32  C   UNL A   1      39.497  20.741  26.323  1.00  0.00     0.338 C 
ATOM     33  O   UNL A   1      40.253  19.853  25.947  1.00  0.00    -0.246 OA
BRANCH  32  34
ATOM     34  C   UNL A   1      39.965  22.032  26.838  1.00  0.00     0.060 A 
ATOM     35  C   UNL A   1      39.362  23.179  26.313  1.00  0.00     0.016 A 
ATOM     36  C   UNL A   1      40.980  22.119  27.795  1.00  0.00     0.016 A 
ATOM     37  C   UNL A   1      39.821  24.431  26.696  1.00  0.00     0.010 A 
ATOM     38  C   UNL A   1      41.441  23.377  28.177  1.00  0.00     0.010 A 
ATOM     39  C   UNL A   1      40.892  24.531  27.594  1.00  0.00    -0.014 A 
BRANCH  39  40
ATOM     40  C   UNL A   1      41.541  25.843  27.785  1.00  0.00     0.031 A 
ATOM     41  C   UNL A   1      40.789  26.912  28.524  1.00  0.00     0.074 A 
ATOM     42  C   UNL A   1      42.789  26.052  27.332  1.00  0.00     0.049 A 
ATOM     43  N   UNL A   1      41.163  28.126  28.824  1.00  0.00    -0.248 NA
ATOM     44  C   UNL A   1      39.433  26.568  28.990  1.00  0.00     0.031 C 
ATOM     45  C   UNL A   1      43.599  25.076  26.603  1.00  0.00     0.029 A 
ATOM     46  N   UNL A   1      43.586  27.164  27.406  1.00  0.00    -0.354 N 
ATOM     47  C   UNL A   1      40.091  28.693  29.502  1.00  0.00     0.074 A 
ATOM     48  C   UNL A   1      39.040  27.702  29.550  1.00  0.00     0.031 C 
ATOM     49  C   UNL A   1      44.772  25.644  26.272  1.00  0.00     0.029 A 
ATOM     50  C   UNL A   1      44.788  27.022  26.755  1.00  0.00     0.049 A 
ATOM     51  H   UNL A   1      43.323  27.986  27.881  1.00  0.00     0.167 HD
ATOM     52  C   UNL A   1      40.003  29.922  30.060  1.00  0.00     0.034 A 
ATOM     53  C   UNL A   1      45.778  27.916  26.564  1.00  0.00     0.034 A 
ATOM     54  C   UNL A   1      41.060  30.893  30.018  1.00  0.00     0.049 A 
ATOM     55  C   UNL A   1      45.643  29.284  27.180  1.00  0.00     0.074 A 
ATOM     56  C   UNL A   1      41.083  32.166  30.560  1.00  0.00     0.029 A 
ATOM     57  N   UNL A   1      42.284  30.697  29.398  1.00  0.00    -0.354 N 
ATOM     58  N   UNL A   1      44.668  29.768  27.914  1.00  0.00    -0.248 NA
ATOM     59  C   UNL A   1      46.759  30.217  26.977  1.00  0.00     0.031 C 
ATOM     60  C   UNL A   1      42.320  32.744  30.256  1.00  0.00     0.029 A 
ATOM     61  C   UNL A   1      43.072  31.823  29.542  1.00  0.00     0.049 A 
ATOM     62  H   UNL A   1      42.552  29.878  28.924  1.00  0.00     0.167 HD
ATOM     63  C   UNL A   1      45.070  31.044  28.291  1.00  0.00     0.074 A 
ATOM     64  C   UNL A   1      46.387  31.249  27.722  1.00  0.00     0.031 C 
ATOM     65  C   UNL A   1      44.406  31.973  29.021  1.00  0.00     0.034 A 
BRANCH  52  66
ATOM     66  C   UNL A   1      38.742  30.266  30.805  1.00  0.00     0.023 A 
ATOM     67  C   UNL A   1      38.566  29.787  32.119  1.00  0.00     0.012 A 
ATOM     68  C   UNL A   1      37.768  31.109  30.239  1.00  0.00     0.148 A 
ATOM     69  C   UNL A   1      37.430  30.126  32.853  1.00  0.00     0.002 A 
ATOM     70  C   UNL A   1      36.656  31.474  30.990  1.00  0.00     0.091 A 
ATOM     71  F   UNL A   1      37.944  31.534  28.980  1.00  0.00    -0.205 F 
ATOM     72  C   UNL A   1      36.482  30.978  32.293  1.00  0.00     0.022 A 
BRANCH  70  73
ATOM     73  S   UNL A   1      35.408  32.617  30.388  1.00  0.00     0.127 S 
ATOM     74  O   UNL A   1      36.194  33.833  30.182  1.00  0.00    -0.237 OA
ATOM     75  O   UNL A   1      34.962  31.963  29.158  1.00  0.00    -0.237 OA
ATOM     76  O   UNL A   1      34.399  32.701  31.435  1.00  0.00    -0.744 OA
ENDBRANCH  70  73
ENDBRANCH  52  66
BRANCH  53  77
ATOM     77  C   UNL A   1      46.994  27.537  25.792  1.00  0.00     0.023 A 
ATOM     78  C   UNL A   1      47.016  27.711  24.394  1.00  0.00     0.012 A 
ATOM     79  C   UNL A   1      48.130  27.008  26.434  1.00  0.00     0.148 A 
ATOM     80  C   UNL A   1      48.130  27.327  23.647  1.00  0.00     0.002 A 
ATOM     81  C   UNL A   1      49.258  26.680  25.689  1.00  0.00     0.091 A 
ATOM     82  F   UNL A   1      48.088  26.828  27.762  1.00  0.00    -0.205 F 
ATOM     83  C   UNL A   1      49.254  26.821  24.294  1.00  0.00     0.022 A 
BRANCH  81  84
ATOM     84  S   UNL A   1      50.786  26.151  26.473  1.00  0.00     0.127 S 
ATOM     85  O   UNL A   1      51.694  26.062  25.334  1.00  0.00    -0.237 OA
ATOM     86  O   UNL A   1      51.060  27.254  27.395  1.00  0.00    -0.237 OA
ATOM     87  O   UNL A   1      50.459  24.895  27.135  1.00  0.00    -0.744 OA
ENDBRANCH  81  84
ENDBRANCH  53  77
BRANCH  65  88
ATOM     88  C   UNL A   1      45.104  33.280  29.285  1.00  0.00     0.023 A 
ATOM     89  C   UNL A   1      45.967  33.397  30.393  1.00  0.00     0.012 A 
ATOM     90  C   UNL A   1      44.967  34.360  28.393  1.00  0.00     0.148 A 
ATOM     91  C   UNL A   1      46.662  34.583  30.624  1.00  0.00     0.002 A 
ATOM     92  C   UNL A   1      45.699  35.522  28.604  1.00  0.00     0.091 A 
ATOM     93  F   UNL A   1      44.127  34.232  27.356  1.00  0.00    -0.205 F 
ATOM     94  C   UNL A   1      46.537  35.639  29.724  1.00  0.00     0.022 A 
BRANCH  92  95
ATOM     95  S   UNL A   1      45.673  36.895  27.446  1.00  0.00     0.127 S 
ATOM     96  O   UNL A   1      46.401  37.924  28.189  1.00  0.00    -0.237 OA
ATOM     97  O   UNL A   1      46.394  36.348  26.297  1.00  0.00    -0.237 OA
ATOM     98  O   UNL A   1      44.267  37.179  27.195  1.00  0.00    -0.744 OA
ENDBRANCH  92  95
ENDBRANCH  65  88
ENDBRANCH  39  40
ENDBRANCH  32  34
ENDBRANCH  31  32
ENDBRANCH  30  31
ENDBRANCH  29  30
ENDBRANCH   1  29
TORSDOF 22
ENDMDL
MODEL 3
REMARK VINA RESULT:     -10.1      2.361      4.463
REMARK SMILES CC(C)(C)OC(=O)N1CC[N@H+](Cc2ccc(Cl)nc2)[C@H](C(=O)OCCOCCOC(=O)c2ccc(-c3c4nc(c(-c5cccc(S(=O)(=O)[O-])c5F)c5ccc([nH]5)c(-c5cccc(S(=O)(=O)[O-])c5F)c5nc(c(-c6cccc(S(=O)(=O)[O-])c6F)c6ccc3[nH]6)C=C5)C=C4)cc2)C1
REMARK SMILES IDX 26 1 25 2 24 3 23 4 21 5 22 6 20 7 8 8 9 9 95 10 10 11 11 12
REMARK SMILES IDX 6 14 7 15 5 16 2 17 1 18 3 19 4 20 12 21 13 22 14 23 19 24
REMARK SMILES IDX 15 25 18 26 16 27 17 28 27 29 28 30 29 31 30 32 31 33 32 34
REMARK SMILES IDX 33 35 94 36 34 37 93 38 35 39 36 40 37 41 87 42 38 43 92 44
REMARK SMILES IDX 86 45 88 46 39 47 91 48 85 49 84 50 40 52 72 53 52 54 71 55
REMARK SMILES IDX 53 56 56 57 70 58 89 59 54 60 55 61 69 63 90 64 57 65 41 66
REMARK SMILES IDX 42 67 50 68 43 69 45 70 51 71 44 72 46 73 47 74 48 75 49 76
REMARK SMILES IDX 73 77 74 78 82 79 75 80 77 81 83 82 76 83 78 84 79 85 80 86
REMARK SMILES IDX 81 87 58 88 59 89 67 90 60 91 62 92 68 93 61 94 63 95 64 96
REMARK SMILES IDX 65 97 66 98
REMARK H PARENT 11 13 88 51 56 62
REMARK Flexibility Score: inf
ROOT
ATOM      1  O   UNL A   1      37.446  21.204  24.791  1.00  0.00    -0.374 OA
ENDROOT
BRANCH   1   2
ATOM      2  C   UNL A   1      37.120  22.339  25.595  1.00  0.00     0.202 C 
BRANCH   2   3
ATOM      3  C   UNL A   1      37.047  23.683  24.864  1.00  0.00     0.261 C 
BRANCH   3   4
ATOM      4  O   UNL A   1      35.721  24.255  24.920  1.00  0.00    -0.459 OA
BRANCH   4   5
ATOM      5  C   UNL A   1      34.838  23.817  23.979  1.00  0.00     0.366 C 
ATOM      6  O   UNL A   1      34.741  24.302  22.855  1.00  0.00    -0.245 OA
BRANCH   5   7
ATOM      7  C   UNL A   1      33.925  22.698  24.509  1.00  0.00     0.315 C 
ATOM      8  N   UNL A   1      32.757  20.504  24.196  1.00  0.00    -0.296 N 
ATOM      9  C   UNL A   1      31.808  20.876  25.235  1.00  0.00     0.184 C 
ATOM     10  C   UNL A   1      33.569  21.552  23.541  1.00  0.00     0.200 C 
ATOM     11  C   UNL A   1      32.127  22.159  26.018  1.00  0.00     0.285 C 
ATOM     12  N   UNL A   1      32.737  23.233  25.243  1.00  0.00    -0.316 N 
ATOM     13  H   UNL A   1      33.124  23.936  25.875  1.00  0.00     0.349 HD
BRANCH   8  14
ATOM     14  C   UNL A   1      32.559  19.245  23.655  1.00  0.00     0.410 C 
ATOM     15  O   UNL A   1      32.106  19.088  22.523  1.00  0.00    -0.224 OA
BRANCH  14  16
ATOM     16  O   UNL A   1      32.771  18.247  24.545  1.00  0.00    -0.444 OA
BRANCH  16  17
ATOM     17  C   UNL A   1      33.937  17.390  24.366  1.00  0.00     0.106 C 
ATOM     18  C   UNL A   1      35.148  18.300  24.610  1.00  0.00     0.056 C 
ATOM     19  C   UNL A   1      33.986  16.849  22.935  1.00  0.00     0.056 C 
ATOM     20  C   UNL A   1      34.005  16.248  25.401  1.00  0.00     0.056 C 
ENDBRANCH  16  17
ENDBRANCH  14  16
ENDBRANCH   8  14
BRANCH  12  21
ATOM     21  C   UNL A   1      31.831  24.202  24.606  1.00  0.00     0.301 C 
BRANCH  21  22
ATOM     22  C   UNL A   1      31.735  25.618  25.128  1.00  0.00     0.025 A 
ATOM     23  C   UNL A   1      31.751  26.753  24.315  1.00  0.00     0.014 A 
ATOM     24  C   UNL A   1      31.516  25.863  26.477  1.00  0.00     0.122 A 
ATOM     25  C   UNL A   1      31.788  28.029  24.878  1.00  0.00     0.041 A 
ATOM     26  N   UNL A   1      31.515  27.082  27.066  1.00  0.00    -0.244 NA
ATOM     27  C   UNL A   1      31.701  28.132  26.251  1.00  0.00     0.129 A 
ATOM     28  Cl  UNL A   1      31.799  29.652  27.035  1.00  0.00    -0.062 Cl
ENDBRANCH  21  22
ENDBRANCH  12  21
ENDBRANCH   5   7
ENDBRANCH   4   5
ENDBRANCH   3   4
ENDBRANCH   2   3
ENDBRANCH   1   2
BRANCH   1  29
ATOM     29  C   UNL A   1      38.444  20.324  25.293  1.00  0.00     0.202 C 
BRANCH  29  30
ATOM     30  C   UNL A   1      39.611  20.938  26.076  1.00  0.00     0.261 C 
BRANCH  30  31
ATOM     31  O   UNL A   1      40.482  19.952  26.621  1.00  0.00    -0.460 OA
BRANCH  31  32
ATOM     32  C   UNL A   1      41.704  19.944  26.044  1.00  0.00     0.338 C 
ATOM     33  O   UNL A   1      42.162  19.105  25.278  1.00  0.00    -0.246 OA
BRANCH  32  34
ATOM     34  C   UNL A   1      42.372  21.216  26.338  1.00  0.00     0.060 A 
ATOM     35  C   UNL A   1      42.574  21.529  27.687  1.00  0.00     0.016 A 
ATOM     36  C   UNL A   1      42.774  22.089  25.323  1.00  0.00     0.016 A 
ATOM     37  C   UNL A   1      43.121  22.756  28.030  1.00  0.00     0.010 A 
ATOM     38  C   UNL A   1      43.322  23.322  25.671  1.00  0.00     0.010 A 
ATOM     39  C   UNL A   1      43.454  23.673  27.024  1.00  0.00    -0.014 A 
BRANCH  39  40
ATOM     40  C   UNL A   1      43.779  25.062  27.405  1.00  0.00     0.031 A 
ATOM     41  C   UNL A   1      45.215  25.498  27.357  1.00  0.00     0.074 A 
ATOM     42  C   UNL A   1      42.801  25.914  27.754  1.00  0.00     0.049 A 
ATOM     43  N   UNL A   1      45.732  26.666  27.628  1.00  0.00    -0.248 NA
ATOM     44  C   UNL A   1      46.204  24.484  26.946  1.00  0.00     0.031 C 
ATOM     45  C   UNL A   1      41.378  25.583  27.831  1.00  0.00     0.029 A 
ATOM     46  N   UNL A   1      42.861  27.232  28.123  1.00  0.00    -0.354 N 
ATOM     47  C   UNL A   1      47.101  26.527  27.431  1.00  0.00     0.074 A 
ATOM     48  C   UNL A   1      47.341  25.155  27.042  1.00  0.00     0.031 C 
ATOM     49  C   UNL A   1      40.701  26.665  28.251  1.00  0.00     0.029 A 
ATOM     50  C   UNL A   1      41.644  27.757  28.483  1.00  0.00     0.049 A 
ATOM     51  H   UNL A   1      43.697  27.753  28.131  1.00  0.00     0.167 HD
ATOM     52  C   UNL A   1      48.066  27.467  27.539  1.00  0.00     0.034 A 
ATOM     53  C   UNL A   1      41.336  28.980  28.958  1.00  0.00     0.034 A 
ATOM     54  C   UNL A   1      47.812  28.830  27.913  1.00  0.00     0.049 A 
ATOM     55  C   UNL A   1      42.437  30.001  29.087  1.00  0.00     0.074 A 
ATOM     56  C   UNL A   1      48.714  29.871  28.043  1.00  0.00     0.029 A 
ATOM     57  N   UNL A   1      46.560  29.342  28.218  1.00  0.00    -0.354 N 
ATOM     58  N   UNL A   1      43.710  29.886  28.791  1.00  0.00    -0.248 NA
ATOM     59  C   UNL A   1      42.054  31.332  29.577  1.00  0.00     0.031 C 
ATOM     60  C   UNL A   1      48.007  31.011  28.438  1.00  0.00     0.029 A 
ATOM     61  C   UNL A   1      46.663  30.683  28.535  1.00  0.00     0.049 A 
ATOM     62  H   UNL A   1      45.722  28.826  28.210  1.00  0.00     0.167 HD
ATOM     63  C   UNL A   1      44.271  31.136  29.022  1.00  0.00     0.074 A 
ATOM     64  C   UNL A   1      43.194  32.000  29.461  1.00  0.00     0.031 C 
ATOM     65  C   UNL A   1      45.562  31.534  28.904  1.00  0.00     0.034 A 
BRANCH  52  66
ATOM     66  C   UNL A   1      49.476  27.067  27.201  1.00  0.00     0.023 A 
ATOM     67  C   UNL A   1      50.228  26.333  28.140  1.00  0.00     0.012 A 
ATOM     68  C   UNL A   1      50.033  27.354  25.940  1.00  0.00     0.148 A 
ATOM     69  C   UNL A   1      51.521  25.907  27.839  1.00  0.00     0.002 A 
ATOM     70  C   UNL A   1      51.308  26.893  25.632  1.00  0.00     0.091 A 
ATOM     71  F   UNL A   1      49.309  28.073  25.071  1.00  0.00    -0.205 F 
ATOM     72  C   UNL A   1      52.056  26.177  26.582  1.00  0.00     0.022 A 
BRANCH  70  73
ATOM     73  S   UNL A   1      52.066  27.130  24.021  1.00  0.00     0.127 S 
ATOM     74  O   UNL A   1      52.474  28.532  24.088  1.00  0.00    -0.237 OA
ATOM     75  O   UNL A   1      53.169  26.171  24.058  1.00  0.00    -0.237 OA
ATOM     76  O   UNL A   1      51.031  26.831  23.040  1.00  0.00    -0.744 OA
ENDBRANCH  70  73
ENDBRANCH  52  66
BRANCH  53  77
ATOM     77  C   UNL A   1      39.929  29.318  29.309  1.00  0.00     0.023 A 
ATOM     78  C   UNL A   1      39.000  29.589  28.286  1.00  0.00     0.012 A 
ATOM     79  C   UNL A   1      39.504  29.371  30.651  1.00  0.00     0.148 A 
ATOM     80  C   UNL A   1      37.686  29.947  28.594  1.00  0.00     0.002 A 
ATOM     81  C   UNL A   1      38.179  29.673  30.948  1.00  0.00     0.091 A 
ATOM     82  F   UNL A   1      40.404  29.131  31.615  1.00  0.00    -0.205 F 
ATOM     83  C   UNL A   1      37.273  29.979  29.923  1.00  0.00     0.022 A 
BRANCH  81  84
ATOM     84  S   UNL A   1      37.549  29.599  32.629  1.00  0.00     0.127 S 
ATOM     85  O   UNL A   1      37.565  28.163  32.894  1.00  0.00    -0.237 OA
ATOM     86  O   UNL A   1      38.545  30.375  33.369  1.00  0.00    -0.237 OA
ATOM     87  O   UNL A   1      36.234  30.227  32.570  1.00  0.00    -0.744 OA
ENDBRANCH  81  84
ENDBRANCH  53  77
BRANCH  65  88
ATOM     88  C   UNL A   1      45.878  32.972  29.213  1.00  0.00     0.023 A 
ATOM     89  C   UNL A   1      46.392  33.316  30.479  1.00  0.00     0.012 A 
ATOM     90  C   UNL A   1      45.741  33.966  28.224  1.00  0.00     0.148 A 
ATOM     91  C   UNL A   1      46.739  34.635  30.766  1.00  0.00     0.002 A 
ATOM     92  C   UNL A   1      46.133  35.269  28.503  1.00  0.00     0.091 A 
ATOM     93  F   UNL A   1      45.233  33.619  27.033  1.00  0.00    -0.205 F 
ATOM     94  C   UNL A   1      46.621  35.608  29.775  1.00  0.00     0.022 A 
BRANCH  92  95
ATOM     95  S   UNL A   1      46.105  36.565  27.259  1.00  0.00     0.127 S 
ATOM     96  O   UNL A   1      46.849  37.633  27.926  1.00  0.00    -0.237 OA
ATOM     97  O   UNL A   1      46.809  35.938  26.140  1.00  0.00    -0.237 OA
ATOM     98  O   UNL A   1      44.699  36.845  27.005  1.00  0.00    -0.744 OA
ENDBRANCH  92  95
ENDBRANCH  65  88
ENDBRANCH  39  40
ENDBRANCH  32  34
ENDBRANCH  31  32
ENDBRANCH  30  31
ENDBRANCH  29  30
ENDBRANCH   1  29
TORSDOF 22
ENDMDL
