MODEL 1
REMARK VINA RESULT:     -12.7      0.000      0.000
REMARK SMILES CCCc1cc(S(F)(F)(F)(F)F)cc2c1O[C@@H](C(F)(F)F)C(C(=O)OCCOCCOC(=O)c1ccc(-c3c4nc(c(-c5cccc(S(=O)(=O)[O-])c5F)c5ccc([nH]5)c(-c5cccc(S(=O)(=O)[O-])c5F)c5nc(c(-c6cccc(S(=O)(=O)[O-])c6F)c6ccc3[nH]6)C=C5)C=C4)cc1)=C2
REMARK SMILES IDX 29 1 28 2 27 3 26 4 25 5 23 6 24 7 22 8 4 9 5 10 15 11 6 12
REMARK SMILES IDX 14 13 16 14 13 15 97 16 17 17 3 18 2 19 1 20 7 21 8 22 9 23
REMARK SMILES IDX 10 24 11 25 12 26 18 27 19 28 20 29 21 30 30 31 31 32 32 33
REMARK SMILES IDX 33 34 34 35 35 36 96 37 36 38 95 39 37 40 38 41 39 42 89 43
REMARK SMILES IDX 40 44 94 45 88 46 90 47 41 48 93 49 87 50 86 51 42 53 74 54
REMARK SMILES IDX 54 55 73 56 55 57 58 58 72 59 91 60 56 61 57 62 71 64 92 65
REMARK SMILES IDX 59 66 43 67 44 68 52 69 45 70 47 71 53 72 46 73 48 74 49 75
REMARK SMILES IDX 50 76 51 77 75 78 76 79 84 80 77 81 79 82 85 83 78 84 80 85
REMARK SMILES IDX 81 86 82 87 83 88 60 89 61 90 69 91 62 92 64 93 70 94 63 95
REMARK SMILES IDX 65 96 66 97 67 98 68 99
REMARK H PARENT 90 52 58 63
REMARK Flexibility Score: inf
ROOT
ATOM      1  C   UNL A   1      31.956  29.053  23.817  1.00  0.00     0.202 C 
ENDROOT
BRANCH   1   2
ATOM      2  O   UNL A   1      30.898  28.329  24.427  1.00  0.00    -0.374 OA
BRANCH   2   3
ATOM      3  C   UNL A   1      30.050  27.793  23.422  1.00  0.00     0.202 C 
BRANCH   3   4
ATOM      4  C   UNL A   1      29.267  26.623  23.991  1.00  0.00     0.261 C 
BRANCH   4   5
ATOM      5  O   UNL A   1      30.107  25.480  24.060  1.00  0.00    -0.460 OA
BRANCH   5   6
ATOM      6  C   UNL A   1      30.443  24.921  25.321  1.00  0.00     0.338 C 
ATOM      7  O   UNL A   1      29.805  25.274  26.363  1.00  0.00    -0.246 OA
BRANCH   6   8
ATOM      8  C   UNL A   1      31.565  23.901  25.426  1.00  0.00     0.087 C 
ATOM      9  C   UNL A   1      34.836  21.308  25.288  1.00  0.00    -0.004 A 
ATOM     10  C   UNL A   1      34.640  19.961  25.046  1.00  0.00     0.032 A 
ATOM     11  C   UNL A   1      33.749  22.147  25.275  1.00  0.00     0.131 A 
ATOM     12  C   UNL A   1      33.387  19.466  24.793  1.00  0.00     0.108 A 
ATOM     13  C   UNL A   1      32.467  21.680  25.042  1.00  0.00     0.019 A 
ATOM     14  O   UNL A   1      33.974  23.496  25.404  1.00  0.00    -0.475 OA
ATOM     15  C   UNL A   1      32.305  20.322  24.798  1.00  0.00     0.036 A 
ATOM     16  C   UNL A   1      31.389  22.653  25.011  1.00  0.00     0.027 C 
ATOM     17  C   UNL A   1      32.916  24.289  26.012  1.00  0.00     0.316 C 
BRANCH   9  18
ATOM     18  C   UNL A   1      36.199  21.962  25.447  1.00  0.00     0.039 C 
BRANCH  18  19
ATOM     19  C   UNL A   1      36.970  21.849  24.141  1.00  0.00     0.001 C 
ATOM     20  C   UNL A   1      36.499  22.929  23.180  1.00  0.00     0.004 C 
ENDBRANCH  18  19
ENDBRANCH   9  18
BRANCH  12  21
ATOM     21  S   UNL A   1      33.153  17.703  24.455  1.00  0.00     0.310 S 
ATOM     22  F   UNL A   1      34.662  17.371  24.817  1.00  0.00    -0.094 F 
ATOM     23  F   UNL A   1      33.634  17.951  22.976  1.00  0.00    -0.094 F 
ATOM     24  F   UNL A   1      32.954  16.189  24.166  1.00  0.00    -0.094 F 
ATOM     25  F   UNL A   1      32.810  17.450  25.976  1.00  0.00    -0.094 F 
ATOM     26  F   UNL A   1      33.460  19.217  24.792  1.00  0.00    -0.094 F 
ENDBRANCH  12  21
BRANCH  17  27
ATOM     27  C   UNL A   1      33.175  25.760  25.729  1.00  0.00     0.430 C 
ATOM     28  F   UNL A   1      32.377  26.504  26.489  1.00  0.00    -0.167 F 
ATOM     29  F   UNL A   1      34.444  26.048  26.006  1.00  0.00    -0.167 F 
ATOM     30  F   UNL A   1      32.932  26.015  24.447  1.00  0.00    -0.167 F 
ENDBRANCH  17  27
ENDBRANCH   6   8
ENDBRANCH   5   6
ENDBRANCH   4   5
ENDBRANCH   3   4
ENDBRANCH   2   3
ENDBRANCH   1   2
BRANCH   1  31
ATOM     31  C   UNL A   1      32.938  29.510  24.884  1.00  0.00     0.261 C 
BRANCH  31  32
ATOM     32  O   UNL A   1      32.223  30.048  25.986  1.00  0.00    -0.460 OA
BRANCH  32  33
ATOM     33  C   UNL A   1      32.823  31.043  26.802  1.00  0.00     0.338 C 
ATOM     34  O   UNL A   1      32.222  32.143  27.011  1.00  0.00    -0.246 OA
BRANCH  33  35
ATOM     35  C   UNL A   1      34.187  30.793  27.428  1.00  0.00     0.060 A 
ATOM     36  C   UNL A   1      34.457  29.516  27.888  1.00  0.00     0.016 A 
ATOM     37  C   UNL A   1      35.038  31.792  27.627  1.00  0.00     0.016 A 
ATOM     38  C   UNL A   1      35.530  29.453  28.809  1.00  0.00     0.010 A 
ATOM     39  C   UNL A   1      36.140  31.622  28.430  1.00  0.00     0.010 A 
ATOM     40  C   UNL A   1      36.437  30.400  28.967  1.00  0.00    -0.014 A 
BRANCH  40  41
ATOM     41  C   UNL A   1      37.740  30.145  29.707  1.00  0.00     0.031 A 
ATOM     42  C   UNL A   1      37.875  30.728  30.969  1.00  0.00     0.074 A 
ATOM     43  C   UNL A   1      38.658  29.266  29.159  1.00  0.00     0.049 A 
ATOM     44  N   UNL A   1      38.851  30.530  31.856  1.00  0.00    -0.248 NA
ATOM     45  C   UNL A   1      36.919  31.688  31.539  1.00  0.00     0.031 C 
ATOM     46  C   UNL A   1      38.524  28.668  27.891  1.00  0.00     0.029 A 
ATOM     47  N   UNL A   1      39.835  28.818  29.715  1.00  0.00    -0.354 N 
ATOM     48  C   UNL A   1      38.625  31.250  32.957  1.00  0.00     0.074 A 
ATOM     49  C   UNL A   1      37.383  32.009  32.767  1.00  0.00     0.031 C 
ATOM     50  C   UNL A   1      39.611  27.879  27.680  1.00  0.00     0.029 A 
ATOM     51  C   UNL A   1      40.441  27.971  28.813  1.00  0.00     0.049 A 
ATOM     52  H   UNL A   1      40.184  29.062  30.603  1.00  0.00     0.167 HD
ATOM     53  C   UNL A   1      39.407  31.300  34.113  1.00  0.00     0.034 A 
ATOM     54  C   UNL A   1      41.651  27.309  28.951  1.00  0.00     0.034 A 
ATOM     55  C   UNL A   1      40.594  30.604  34.269  1.00  0.00     0.049 A 
ATOM     56  C   UNL A   1      42.462  27.405  30.085  1.00  0.00     0.074 A 
ATOM     57  C   UNL A   1      41.390  30.638  35.430  1.00  0.00     0.029 A 
ATOM     58  N   UNL A   1      41.213  29.776  33.358  1.00  0.00    -0.354 N 
ATOM     59  N   UNL A   1      42.217  28.094  31.201  1.00  0.00    -0.248 NA
ATOM     60  C   UNL A   1      43.761  26.734  30.230  1.00  0.00     0.031 C 
ATOM     61  C   UNL A   1      42.477  29.849  35.219  1.00  0.00     0.029 A 
ATOM     62  C   UNL A   1      42.379  29.311  33.922  1.00  0.00     0.049 A 
ATOM     63  H   UNL A   1      40.878  29.556  32.459  1.00  0.00     0.167 HD
ATOM     64  C   UNL A   1      43.214  27.927  32.072  1.00  0.00     0.074 A 
ATOM     65  C   UNL A   1      44.226  27.057  31.457  1.00  0.00     0.031 C 
ATOM     66  C   UNL A   1      43.320  28.465  33.357  1.00  0.00     0.034 A 
BRANCH  53  67
ATOM     67  C   UNL A   1      38.926  32.167  35.266  1.00  0.00     0.023 A 
ATOM     68  C   UNL A   1      39.175  33.530  35.264  1.00  0.00     0.012 A 
ATOM     69  C   UNL A   1      38.233  31.594  36.242  1.00  0.00     0.148 A 
ATOM     70  C   UNL A   1      38.893  34.165  36.497  1.00  0.00     0.002 A 
ATOM     71  C   UNL A   1      37.873  32.311  37.358  1.00  0.00     0.091 A 
ATOM     72  F   UNL A   1      37.883  30.316  36.139  1.00  0.00    -0.205 F 
ATOM     73  C   UNL A   1      38.139  33.649  37.450  1.00  0.00     0.022 A 
BRANCH  71  74
ATOM     74  S   UNL A   1      37.035  31.471  38.725  1.00  0.00     0.127 S 
ATOM     75  O   UNL A   1      36.886  29.984  38.396  1.00  0.00    -0.237 OA
ATOM     76  O   UNL A   1      37.862  31.631  40.004  1.00  0.00    -0.237 OA
ATOM     77  O   UNL A   1      35.489  32.162  38.957  1.00  0.00    -0.744 OA
ENDBRANCH  71  74
ENDBRANCH  53  67
BRANCH  54  78
ATOM     78  C   UNL A   1      42.122  26.429  27.805  1.00  0.00     0.023 A 
ATOM     79  C   UNL A   1      42.885  26.969  26.783  1.00  0.00     0.012 A 
ATOM     80  C   UNL A   1      41.755  25.154  27.791  1.00  0.00     0.148 A 
ATOM     81  C   UNL A   1      42.968  26.147  25.634  1.00  0.00     0.002 A 
ATOM     82  C   UNL A   1      41.989  24.371  26.686  1.00  0.00     0.091 A 
ATOM     83  F   UNL A   1      41.155  24.629  28.856  1.00  0.00    -0.205 F 
ATOM     84  C   UNL A   1      42.686  24.857  25.615  1.00  0.00     0.022 A 
BRANCH  82  85
ATOM     85  S   UNL A   1      41.369  22.670  26.650  1.00  0.00     0.127 S 
ATOM     86  O   UNL A   1      39.839  22.687  26.632  1.00  0.00    -0.237 OA
ATOM     87  O   UNL A   1      41.886  21.965  25.394  1.00  0.00    -0.237 OA
ATOM     88  O   UNL A   1      41.914  21.835  28.039  1.00  0.00    -0.744 OA
ENDBRANCH  82  85
ENDBRANCH  54  78
BRANCH  66  89
ATOM     89  C   UNL A   1      44.542  28.100  34.184  1.00  0.00     0.023 A 
ATOM     90  C   UNL A   1      45.653  28.919  34.072  1.00  0.00     0.012 A 
ATOM     91  C   UNL A   1      44.563  27.012  34.944  1.00  0.00     0.148 A 
ATOM     92  C   UNL A   1      46.843  28.344  34.579  1.00  0.00     0.002 A 
ATOM     93  C   UNL A   1      45.734  26.583  35.520  1.00  0.00     0.091 A 
ATOM     94  F   UNL A   1      43.439  26.331  35.151  1.00  0.00    -0.205 F 
ATOM     95  C   UNL A   1      46.884  27.312  35.401  1.00  0.00     0.022 A 
BRANCH  93  96
ATOM     96  S   UNL A   1      45.754  25.030  36.450  1.00  0.00     0.127 S 
ATOM     97  O   UNL A   1      47.201  24.632  36.746  1.00  0.00    -0.237 OA
ATOM     98  O   UNL A   1      44.996  25.214  37.767  1.00  0.00    -0.237 OA
ATOM     99  O   UNL A   1      45.003  23.803  35.527  1.00  0.00    -0.744 OA
ENDBRANCH  93  96
ENDBRANCH  66  89
ENDBRANCH  40  41
ENDBRANCH  33  35
ENDBRANCH  32  33
ENDBRANCH  31  32
ENDBRANCH   1  31
TORSDOF 21
ENDMDL
MODEL 2
REMARK VINA RESULT:     -11.3      1.930      2.283
REMARK SMILES CCCc1cc(S(F)(F)(F)(F)F)cc2c1O[C@@H](C(F)(F)F)C(C(=O)OCCOCCOC(=O)c1ccc(-c3c4nc(c(-c5cccc(S(=O)(=O)[O-])c5F)c5ccc([nH]5)c(-c5cccc(S(=O)(=O)[O-])c5F)c5nc(c(-c6cccc(S(=O)(=O)[O-])c6F)c6ccc3[nH]6)C=C5)C=C4)cc1)=C2
REMARK SMILES IDX 29 1 28 2 27 3 26 4 25 5 23 6 24 7 22 8 4 9 5 10 15 11 6 12
REMARK SMILES IDX 14 13 16 14 13 15 97 16 17 17 3 18 2 19 1 20 7 21 8 22 9 23
REMARK SMILES IDX 10 24 11 25 12 26 18 27 19 28 20 29 21 30 30 31 31 32 32 33
REMARK SMILES IDX 33 34 34 35 35 36 96 37 36 38 95 39 37 40 38 41 39 42 89 43
REMARK SMILES IDX 40 44 94 45 88 46 90 47 41 48 93 49 87 50 86 51 42 53 74 54
REMARK SMILES IDX 54 55 73 56 55 57 58 58 72 59 91 60 56 61 57 62 71 64 92 65
REMARK SMILES IDX 59 66 43 67 44 68 52 69 45 70 47 71 53 72 46 73 48 74 49 75
REMARK SMILES IDX 50 76 51 77 75 78 76 79 84 80 77 81 79 82 85 83 78 84 80 85
REMARK SMILES IDX 81 86 82 87 83 88 60 89 61 90 69 91 62 92 64 93 70 94 63 95
REMARK SMILES IDX 65 96 66 97 67 98 68 99
REMARK H PARENT 90 52 58 63
REMARK Flexibility Score: inf
ROOT
ATOM      1  C   UNL A   1      31.899  29.229  24.409  1.00  0.00     0.202 C 
ENDROOT
BRANCH   1   2
ATOM      2  O   UNL A   1      30.890  28.397  24.962  1.00  0.00    -0.374 OA
BRANCH   2   3
ATOM      3  C   UNL A   1      30.401  27.518  23.961  1.00  0.00     0.202 C 
BRANCH   3   4
ATOM      4  C   UNL A   1      29.526  26.455  24.603  1.00  0.00     0.261 C 
BRANCH   4   5
ATOM      5  O   UNL A   1      30.169  25.192  24.509  1.00  0.00    -0.460 OA
BRANCH   5   6
ATOM      6  C   UNL A   1      30.670  24.561  25.678  1.00  0.00     0.338 C 
ATOM      7  O   UNL A   1      30.152  24.818  26.810  1.00  0.00    -0.246 OA
BRANCH   6   8
ATOM      8  C   UNL A   1      31.825  23.579  25.576  1.00  0.00     0.087 C 
ATOM      9  C   UNL A   1      35.103  21.096  24.845  1.00  0.00    -0.004 A 
ATOM     10  C   UNL A   1      34.910  19.743  24.632  1.00  0.00     0.032 A 
ATOM     11  C   UNL A   1      34.004  21.898  25.030  1.00  0.00     0.131 A 
ATOM     12  C   UNL A   1      33.649  19.207  24.601  1.00  0.00     0.108 A 
ATOM     13  C   UNL A   1      32.717  21.389  25.023  1.00  0.00     0.019 A 
ATOM     14  O   UNL A   1      34.205  23.254  25.126  1.00  0.00    -0.475 OA
ATOM     15  C   UNL A   1      32.558  20.027  24.803  1.00  0.00     0.036 A 
ATOM     16  C   UNL A   1      31.619  22.327  25.190  1.00  0.00     0.027 C 
ATOM     17  C   UNL A   1      33.246  24.011  25.917  1.00  0.00     0.316 C 
BRANCH   9  18
ATOM     18  C   UNL A   1      36.451  21.794  24.765  1.00  0.00     0.039 C 
BRANCH  18  19
ATOM     19  C   UNL A   1      37.504  20.943  25.457  1.00  0.00     0.001 C 
ATOM     20  C   UNL A   1      37.702  19.652  24.681  1.00  0.00     0.004 C 
ENDBRANCH  18  19
ENDBRANCH   9  18
BRANCH  12  21
ATOM     21  S   UNL A   1      33.417  17.438  24.297  1.00  0.00     0.310 S 
ATOM     22  F   UNL A   1      34.727  17.356  23.407  1.00  0.00    -0.094 F 
ATOM     23  F   UNL A   1      32.628  17.796  22.983  1.00  0.00    -0.094 F 
ATOM     24  F   UNL A   1      33.219  15.918  24.037  1.00  0.00    -0.094 F 
ATOM     25  F   UNL A   1      34.329  17.098  25.541  1.00  0.00    -0.094 F 
ATOM     26  F   UNL A   1      33.723  18.974  24.513  1.00  0.00    -0.094 F 
ENDBRANCH  12  21
BRANCH  17  27
ATOM     27  C   UNL A   1      33.402  25.490  25.603  1.00  0.00     0.430 C 
ATOM     28  F   UNL A   1      34.672  25.847  25.771  1.00  0.00    -0.167 F 
ATOM     29  F   UNL A   1      33.042  25.717  24.342  1.00  0.00    -0.167 F 
ATOM     30  F   UNL A   1      32.630  26.201  26.419  1.00  0.00    -0.167 F 
ENDBRANCH  17  27
ENDBRANCH   6   8
ENDBRANCH   5   6
ENDBRANCH   4   5
ENDBRANCH   3   4
ENDBRANCH   2   3
ENDBRANCH   1   2
BRANCH   1  31
ATOM     31  C   UNL A   1      33.010  29.424  25.429  1.00  0.00     0.261 C 
BRANCH  31  32
ATOM     32  O   UNL A   1      32.495  30.098  26.567  1.00  0.00    -0.460 OA
BRANCH  32  33
ATOM     33  C   UNL A   1      33.247  31.138  27.176  1.00  0.00     0.338 C 
ATOM     34  O   UNL A   1      32.775  32.317  27.228  1.00  0.00    -0.246 OA
BRANCH  33  35
ATOM     35  C   UNL A   1      34.617  30.842  27.765  1.00  0.00     0.060 A 
ATOM     36  C   UNL A   1      34.829  29.580  28.293  1.00  0.00     0.016 A 
ATOM     37  C   UNL A   1      35.534  31.796  27.871  1.00  0.00     0.016 A 
ATOM     38  C   UNL A   1      35.931  29.505  29.177  1.00  0.00     0.010 A 
ATOM     39  C   UNL A   1      36.655  31.606  28.643  1.00  0.00     0.010 A 
ATOM     40  C   UNL A   1      36.899  30.402  29.243  1.00  0.00    -0.014 A 
BRANCH  40  41
ATOM     41  C   UNL A   1      38.213  30.111  29.950  1.00  0.00     0.031 A 
ATOM     42  C   UNL A   1      38.375  30.646  31.229  1.00  0.00     0.074 A 
ATOM     43  C   UNL A   1      39.115  29.247  29.354  1.00  0.00     0.049 A 
ATOM     44  N   UNL A   1      39.365  30.410  32.090  1.00  0.00    -0.248 NA
ATOM     45  C   UNL A   1      37.437  31.592  31.851  1.00  0.00     0.031 C 
ATOM     46  C   UNL A   1      38.954  28.695  28.067  1.00  0.00     0.029 A 
ATOM     47  N   UNL A   1      40.298  28.770  29.871  1.00  0.00    -0.354 N 
ATOM     48  C   UNL A   1      39.165  31.090  33.221  1.00  0.00     0.074 A 
ATOM     49  C   UNL A   1      37.925  31.865  33.081  1.00  0.00     0.031 C 
ATOM     50  C   UNL A   1      40.031  27.908  27.807  1.00  0.00     0.029 A 
ATOM     51  C   UNL A   1      40.882  27.953  28.928  1.00  0.00     0.049 A 
ATOM     52  H   UNL A   1      40.665  28.979  30.761  1.00  0.00     0.167 HD
ATOM     53  C   UNL A   1      39.967  31.093  34.364  1.00  0.00     0.034 A 
ATOM     54  C   UNL A   1      42.089  27.278  29.021  1.00  0.00     0.034 A 
ATOM     55  C   UNL A   1      41.152  30.383  34.473  1.00  0.00     0.049 A 
ATOM     56  C   UNL A   1      42.921  27.326  30.142  1.00  0.00     0.074 A 
ATOM     57  C   UNL A   1      41.969  30.369  35.620  1.00  0.00     0.029 A 
ATOM     58  N   UNL A   1      41.748  29.585  33.521  1.00  0.00    -0.354 N 
ATOM     59  N   UNL A   1      42.700  27.976  31.287  1.00  0.00    -0.248 NA
ATOM     60  C   UNL A   1      44.217  26.642  30.239  1.00  0.00     0.031 C 
ATOM     61  C   UNL A   1      43.046  29.581  35.360  1.00  0.00     0.029 A 
ATOM     62  C   UNL A   1      42.921  29.091  34.047  1.00  0.00     0.049 A 
ATOM     63  H   UNL A   1      41.396  29.400  32.621  1.00  0.00     0.167 HD
ATOM     64  C   UNL A   1      43.712  27.771  32.133  1.00  0.00     0.074 A 
ATOM     65  C   UNL A   1      44.706  26.917  31.468  1.00  0.00     0.031 C 
ATOM     66  C   UNL A   1      43.845  28.260  33.434  1.00  0.00     0.034 A 
BRANCH  53  67
ATOM     67  C   UNL A   1      39.514  31.921  35.555  1.00  0.00     0.023 A 
ATOM     68  C   UNL A   1      38.676  31.370  36.510  1.00  0.00     0.012 A 
ATOM     69  C   UNL A   1      39.974  33.160  35.675  1.00  0.00     0.148 A 
ATOM     70  C   UNL A   1      38.143  32.315  37.419  1.00  0.00     0.002 A 
ATOM     71  C   UNL A   1      39.510  33.986  36.671  1.00  0.00     0.091 A 
ATOM     72  F   UNL A   1      40.894  33.607  34.825  1.00  0.00    -0.205 F 
ATOM     73  C   UNL A   1      38.633  33.525  37.614  1.00  0.00     0.022 A 
BRANCH  71  74
ATOM     74  S   UNL A   1      40.065  35.708  36.734  1.00  0.00     0.127 S 
ATOM     75  O   UNL A   1      41.587  35.748  36.882  1.00  0.00    -0.237 OA
ATOM     76  O   UNL A   1      39.658  36.421  35.442  1.00  0.00    -0.237 OA
ATOM     77  O   UNL A   1      39.341  36.492  38.069  1.00  0.00    -0.744 OA
ENDBRANCH  71  74
ENDBRANCH  53  67
BRANCH  54  78
ATOM     78  C   UNL A   1      42.533  26.437  27.835  1.00  0.00     0.023 A 
ATOM     79  C   UNL A   1      43.274  27.010  26.815  1.00  0.00     0.012 A 
ATOM     80  C   UNL A   1      42.163  25.163  27.784  1.00  0.00     0.148 A 
ATOM     81  C   UNL A   1      43.330  26.229  25.637  1.00  0.00     0.002 A 
ATOM     82  C   UNL A   1      42.371  24.418  26.649  1.00  0.00     0.091 A 
ATOM     83  F   UNL A   1      41.585  24.603  28.844  1.00  0.00    -0.205 F 
ATOM     84  C   UNL A   1      43.045  24.940  25.580  1.00  0.00     0.022 A 
BRANCH  82  85
ATOM     85  S   UNL A   1      41.746  22.721  26.568  1.00  0.00     0.127 S 
ATOM     86  O   UNL A   1      42.114  21.981  27.856  1.00  0.00    -0.237 OA
ATOM     87  O   UNL A   1      40.225  22.744  26.409  1.00  0.00    -0.237 OA
ATOM     88  O   UNL A   1      42.447  21.919  25.230  1.00  0.00    -0.744 OA
ENDBRANCH  82  85
ENDBRANCH  54  78
BRANCH  66  89
ATOM     89  C   UNL A   1      45.079  27.857  34.225  1.00  0.00     0.023 A 
ATOM     90  C   UNL A   1      44.992  26.708  34.995  1.00  0.00     0.012 A 
ATOM     91  C   UNL A   1      46.178  28.601  34.221  1.00  0.00     0.148 A 
ATOM     92  C   UNL A   1      46.022  26.583  35.957  1.00  0.00     0.002 A 
ATOM     93  C   UNL A   1      47.204  28.338  35.096  1.00  0.00     0.091 A 
ATOM     94  F   UNL A   1      46.287  29.609  33.361  1.00  0.00    -0.205 F 
ATOM     95  C   UNL A   1      47.159  27.254  35.928  1.00  0.00     0.022 A 
BRANCH  93  96
ATOM     96  S   UNL A   1      48.636  29.444  35.149  1.00  0.00     0.127 S 
ATOM     97  O   UNL A   1      49.595  28.983  36.248  1.00  0.00    -0.237 OA
ATOM     98  O   UNL A   1      49.355  29.413  33.798  1.00  0.00    -0.237 OA
ATOM     99  O   UNL A   1      48.113  31.038  35.479  1.00  0.00    -0.744 OA
ENDBRANCH  93  96
ENDBRANCH  66  89
ENDBRANCH  40  41
ENDBRANCH  33  35
ENDBRANCH  32  33
ENDBRANCH  31  32
ENDBRANCH   1  31
TORSDOF 21
ENDMDL
MODEL 3
REMARK VINA RESULT:     -11.2      2.498      3.226
REMARK SMILES CCCc1cc(S(F)(F)(F)(F)F)cc2c1O[C@@H](C(F)(F)F)C(C(=O)OCCOCCOC(=O)c1ccc(-c3c4nc(c(-c5cccc(S(=O)(=O)[O-])c5F)c5ccc([nH]5)c(-c5cccc(S(=O)(=O)[O-])c5F)c5nc(c(-c6cccc(S(=O)(=O)[O-])c6F)c6ccc3[nH]6)C=C5)C=C4)cc1)=C2
REMARK SMILES IDX 29 1 28 2 27 3 26 4 25 5 23 6 24 7 22 8 4 9 5 10 15 11 6 12
REMARK SMILES IDX 14 13 16 14 13 15 97 16 17 17 3 18 2 19 1 20 7 21 8 22 9 23
REMARK SMILES IDX 10 24 11 25 12 26 18 27 19 28 20 29 21 30 30 31 31 32 32 33
REMARK SMILES IDX 33 34 34 35 35 36 96 37 36 38 95 39 37 40 38 41 39 42 89 43
REMARK SMILES IDX 40 44 94 45 88 46 90 47 41 48 93 49 87 50 86 51 42 53 74 54
REMARK SMILES IDX 54 55 73 56 55 57 58 58 72 59 91 60 56 61 57 62 71 64 92 65
REMARK SMILES IDX 59 66 43 67 44 68 52 69 45 70 47 71 53 72 46 73 48 74 49 75
REMARK SMILES IDX 50 76 51 77 75 78 76 79 84 80 77 81 79 82 85 83 78 84 80 85
REMARK SMILES IDX 81 86 82 87 83 88 60 89 61 90 69 91 62 92 64 93 70 94 63 95
REMARK SMILES IDX 65 96 66 97 67 98 68 99
REMARK H PARENT 90 52 58 63
REMARK Flexibility Score: inf
ROOT
ATOM      1  C   UNL A   1      32.338  29.534  25.207  1.00  0.00     0.202 C 
ENDROOT
BRANCH   1   2
ATOM      2  O   UNL A   1      31.048  28.995  24.960  1.00  0.00    -0.374 OA
BRANCH   2   3
ATOM      3  C   UNL A   1      31.118  28.075  23.881  1.00  0.00     0.202 C 
BRANCH   3   4
ATOM      4  C   UNL A   1      30.018  27.037  24.027  1.00  0.00     0.261 C 
BRANCH   4   5
ATOM      5  O   UNL A   1      30.580  25.813  24.478  1.00  0.00    -0.460 OA
BRANCH   5   6
ATOM      6  C   UNL A   1      31.334  25.007  23.585  1.00  0.00     0.338 C 
ATOM      7  O   UNL A   1      31.294  25.235  22.335  1.00  0.00    -0.246 OA
BRANCH   6   8
ATOM      8  C   UNL A   1      32.189  23.872  24.124  1.00  0.00     0.087 C 
ATOM      9  C   UNL A   1      34.897  20.910  25.279  1.00  0.00    -0.004 A 
ATOM     10  C   UNL A   1      34.627  19.582  25.003  1.00  0.00     0.032 A 
ATOM     11  C   UNL A   1      34.016  21.868  24.841  1.00  0.00     0.131 A 
ATOM     12  C   UNL A   1      33.506  19.221  24.302  1.00  0.00     0.108 A 
ATOM     13  C   UNL A   1      32.864  21.540  24.147  1.00  0.00     0.019 A 
ATOM     14  O   UNL A   1      34.354  23.187  25.024  1.00  0.00    -0.475 OA
ATOM     15  C   UNL A   1      32.625  20.197  23.883  1.00  0.00     0.036 A 
ATOM     16  C   UNL A   1      32.016  22.629  23.694  1.00  0.00     0.027 C 
ATOM     17  C   UNL A   1      33.262  24.136  25.172  1.00  0.00     0.316 C 
BRANCH   9  18
ATOM     18  C   UNL A   1      36.176  21.408  25.932  1.00  0.00     0.039 C 
BRANCH  18  19
ATOM     19  C   UNL A   1      37.118  21.938  24.863  1.00  0.00     0.001 C 
ATOM     20  C   UNL A   1      37.818  23.185  25.378  1.00  0.00     0.004 C 
ENDBRANCH  18  19
ENDBRANCH   9  18
BRANCH  12  21
ATOM     21  S   UNL A   1      33.182  17.480  23.930  1.00  0.00     0.310 S 
ATOM     22  F   UNL A   1      32.004  17.848  22.934  1.00  0.00    -0.094 F 
ATOM     23  F   UNL A   1      32.111  17.462  25.084  1.00  0.00    -0.094 F 
ATOM     24  F   UNL A   1      32.904  15.985  23.609  1.00  0.00    -0.094 F 
ATOM     25  F   UNL A   1      34.157  17.557  22.690  1.00  0.00    -0.094 F 
ATOM     26  F   UNL A   1      33.393  19.028  24.171  1.00  0.00    -0.094 F 
ENDBRANCH  12  21
BRANCH  17  27
ATOM     27  C   UNL A   1      33.801  25.545  24.984  1.00  0.00     0.430 C 
ATOM     28  F   UNL A   1      33.110  26.389  25.744  1.00  0.00    -0.167 F 
ATOM     29  F   UNL A   1      35.084  25.580  25.337  1.00  0.00    -0.167 F 
ATOM     30  F   UNL A   1      33.684  25.898  23.707  1.00  0.00    -0.167 F 
ENDBRANCH  17  27
ENDBRANCH   6   8
ENDBRANCH   5   6
ENDBRANCH   4   5
ENDBRANCH   3   4
ENDBRANCH   2   3
ENDBRANCH   1   2
BRANCH   1  31
ATOM     31  C   UNL A   1      32.411  30.036  26.641  1.00  0.00     0.261 C 
BRANCH  31  32
ATOM     32  O   UNL A   1      33.669  29.689  27.200  1.00  0.00    -0.460 OA
BRANCH  32  33
ATOM     33  C   UNL A   1      34.533  30.705  27.688  1.00  0.00     0.338 C 
ATOM     34  O   UNL A   1      34.187  31.925  27.611  1.00  0.00    -0.246 OA
BRANCH  33  35
ATOM     35  C   UNL A   1      35.873  30.333  28.303  1.00  0.00     0.060 A 
ATOM     36  C   UNL A   1      37.018  30.741  27.641  1.00  0.00     0.016 A 
ATOM     37  C   UNL A   1      35.937  29.547  29.372  1.00  0.00     0.016 A 
ATOM     38  C   UNL A   1      38.181  30.026  28.013  1.00  0.00     0.010 A 
ATOM     39  C   UNL A   1      37.132  28.991  29.759  1.00  0.00     0.010 A 
ATOM     40  C   UNL A   1      38.296  29.304  29.114  1.00  0.00    -0.014 A 
BRANCH  40  41
ATOM     41  C   UNL A   1      39.649  28.845  29.632  1.00  0.00     0.031 A 
ATOM     42  C   UNL A   1      40.125  29.462  30.791  1.00  0.00     0.074 A 
ATOM     43  C   UNL A   1      40.274  27.777  29.013  1.00  0.00     0.049 A 
ATOM     44  N   UNL A   1      41.201  29.132  31.505  1.00  0.00    -0.248 NA
ATOM     45  C   UNL A   1      39.483  30.620  31.431  1.00  0.00     0.031 C 
ATOM     46  C   UNL A   1      39.795  27.144  27.849  1.00  0.00     0.029 A 
ATOM     47  N   UNL A   1      41.436  27.143  29.390  1.00  0.00    -0.354 N 
ATOM     48  C   UNL A   1      41.323  29.943  32.558  1.00  0.00     0.074 A 
ATOM     49  C   UNL A   1      40.222  30.916  32.522  1.00  0.00     0.031 C 
ATOM     50  C   UNL A   1      40.663  26.150  27.522  1.00  0.00     0.029 A 
ATOM     51  C   UNL A   1      41.697  26.145  28.477  1.00  0.00     0.049 A 
ATOM     52  H   UNL A   1      41.986  27.365  30.176  1.00  0.00     0.167 HD
ATOM     53  C   UNL A   1      42.307  29.908  33.548  1.00  0.00     0.034 A 
ATOM     54  C   UNL A   1      42.773  25.272  28.459  1.00  0.00     0.034 A 
ATOM     55  C   UNL A   1      43.358  29.007  33.554  1.00  0.00     0.049 A 
ATOM     56  C   UNL A   1      43.791  25.274  29.417  1.00  0.00     0.074 A 
ATOM     57  C   UNL A   1      44.355  28.953  34.548  1.00  0.00     0.029 A 
ATOM     58  N   UNL A   1      43.634  28.024  32.628  1.00  0.00    -0.354 N 
ATOM     59  N   UNL A   1      43.890  26.060  30.491  1.00  0.00    -0.248 NA
ATOM     60  C   UNL A   1      44.952  24.375  29.391  1.00  0.00     0.031 C 
ATOM     61  C   UNL A   1      45.223  27.959  34.221  1.00  0.00     0.029 A 
ATOM     62  C   UNL A   1      44.784  27.376  33.017  1.00  0.00     0.049 A 
ATOM     63  H   UNL A   1      43.100  27.822  31.826  1.00  0.00     0.167 HD
ATOM     64  C   UNL A   1      44.990  25.755  31.183  1.00  0.00     0.074 A 
ATOM     65  C   UNL A   1      45.693  24.673  30.481  1.00  0.00     0.031 C 
ATOM     66  C   UNL A   1      45.434  26.334  32.373  1.00  0.00     0.034 A 
BRANCH  53  67
ATOM     67  C   UNL A   1      42.219  30.916  34.682  1.00  0.00     0.023 A 
ATOM     68  C   UNL A   1      41.603  30.573  35.874  1.00  0.00     0.012 A 
ATOM     69  C   UNL A   1      42.780  32.107  34.514  1.00  0.00     0.148 A 
ATOM     70  C   UNL A   1      41.377  31.671  36.739  1.00  0.00     0.002 A 
ATOM     71  C   UNL A   1      42.632  33.090  35.463  1.00  0.00     0.091 A 
ATOM     72  F   UNL A   1      43.492  32.351  33.419  1.00  0.00    -0.205 F 
ATOM     73  C   UNL A   1      41.984  32.839  36.640  1.00  0.00     0.022 A 
BRANCH  71  74
ATOM     74  S   UNL A   1      43.305  34.741  35.150  1.00  0.00     0.127 S 
ATOM     75  O   UNL A   1      43.164  35.598  36.410  1.00  0.00    -0.237 OA
ATOM     76  O   UNL A   1      44.785  34.625  34.775  1.00  0.00    -0.237 OA
ATOM     77  O   UNL A   1      42.447  35.472  33.865  1.00  0.00    -0.744 OA
ENDBRANCH  71  74
ENDBRANCH  53  67
BRANCH  54  78
ATOM     78  C   UNL A   1      42.852  24.254  27.333  1.00  0.00     0.023 A 
ATOM     79  C   UNL A   1      43.457  24.590  26.134  1.00  0.00     0.012 A 
ATOM     80  C   UNL A   1      42.298  23.061  27.515  1.00  0.00     0.148 A 
ATOM     81  C   UNL A   1      43.169  23.695  25.076  1.00  0.00     0.002 A 
ATOM     82  C   UNL A   1      42.171  22.182  26.467  1.00  0.00     0.091 A 
ATOM     83  F   UNL A   1      41.861  22.715  28.723  1.00  0.00    -0.205 F 
ATOM     84  C   UNL A   1      42.693  22.473  25.237  1.00  0.00     0.022 A 
BRANCH  82  85
ATOM     85  S   UNL A   1      41.302  20.613  26.718  1.00  0.00     0.127 S 
ATOM     86  O   UNL A   1      41.831  19.935  27.984  1.00  0.00    -0.237 OA
ATOM     87  O   UNL A   1      39.803  20.879  26.870  1.00  0.00    -0.237 OA
ATOM     88  O   UNL A   1      41.567  19.593  25.372  1.00  0.00    -0.744 OA
ENDBRANCH  82  85
ENDBRANCH  54  78
BRANCH  66  89
ATOM     89  C   UNL A   1      46.706  25.789  33.001  1.00  0.00     0.023 A 
ATOM     90  C   UNL A   1      47.903  26.372  32.621  1.00  0.00     0.012 A 
ATOM     91  C   UNL A   1      46.677  24.761  33.841  1.00  0.00     0.148 A 
ATOM     92  C   UNL A   1      49.046  25.609  32.959  1.00  0.00     0.002 A 
ATOM     93  C   UNL A   1      47.842  24.149  34.238  1.00  0.00     0.091 A 
ATOM     94  F   UNL A   1      45.511  24.321  34.304  1.00  0.00    -0.205 F 
ATOM     95  C   UNL A   1      49.059  24.636  33.851  1.00  0.00     0.022 A 
BRANCH  93  96
ATOM     96  S   UNL A   1      47.762  22.675  35.286  1.00  0.00     0.127 S 
ATOM     97  O   UNL A   1      47.092  23.031  36.615  1.00  0.00    -0.237 OA
ATOM     98  O   UNL A   1      46.949  21.589  34.579  1.00  0.00    -0.237 OA
ATOM     99  O   UNL A   1      49.345  22.100  35.582  1.00  0.00    -0.744 OA
ENDBRANCH  93  96
ENDBRANCH  66  89
ENDBRANCH  40  41
ENDBRANCH  33  35
ENDBRANCH  32  33
ENDBRANCH  31  32
ENDBRANCH   1  31
TORSDOF 21
ENDMDL
