MODEL 1
REMARK VINA RESULT:     -11.3      0.000      0.000
REMARK SMILES O=C(OCCOCCOC(=O)c1cccc(Nc2ccc([N+](=O)[O-])cc2)c1)c1ccc(-c2c3nc(c(-c4cccc(S(=O)(=O)[O-])c4F)c4ccc([nH]4)c(-c4cccc(S(=O)(=O)[O-])c4F)c4nc(c(-c5cccc(S(=O)(=O)[O-])c5F)c5ccc2[nH]5)C=C4)C=C3)cc1
REMARK SMILES IDX 6 1 5 2 4 3 3 4 2 5 1 6 28 7 29 8 90 9 30 10 89 11 31 12
REMARK SMILES IDX 32 13 33 14 83 15 34 16 88 17 82 18 84 19 35 20 87 21 81 22
REMARK SMILES IDX 80 23 36 25 68 26 48 27 67 28 49 29 52 30 66 31 85 32 50 33
REMARK SMILES IDX 51 34 65 36 86 37 53 38 37 39 38 40 46 41 39 42 41 43 47 44
REMARK SMILES IDX 40 45 42 46 43 47 44 48 45 49 69 50 70 51 78 52 71 53 73 54
REMARK SMILES IDX 79 55 72 56 74 57 75 58 76 59 77 60 54 61 55 62 63 63 56 64
REMARK SMILES IDX 58 65 64 66 57 67 59 68 60 69 61 70 62 71 7 72 8 73 9 74
REMARK SMILES IDX 10 75 11 76 12 77 13 78 27 79 14 80 16 81 15 82 17 83 18 85
REMARK SMILES IDX 19 86 26 87 20 88 25 89 21 90 22 91 23 92 24 93
REMARK H PARENT 84 24 52 35 17 84
REMARK Flexibility Score: inf
ROOT
ATOM      1  O   UNL A   1      30.599  28.194  24.419  1.00  0.00    -0.374 OA
ENDROOT
BRANCH   1   2
ATOM      2  C   UNL A   1      31.271  28.668  25.585  1.00  0.00     0.202 C 
BRANCH   2   3
ATOM      3  C   UNL A   1      31.613  30.160  25.563  1.00  0.00     0.261 C 
BRANCH   3   4
ATOM      4  O   UNL A   1      32.975  30.364  25.974  1.00  0.00    -0.460 OA
BRANCH   4   5
ATOM      5  C   UNL A   1      33.441  31.184  26.948  1.00  0.00     0.338 C 
ATOM      6  O   UNL A   1      32.787  32.186  27.228  1.00  0.00    -0.246 OA
BRANCH   5   7
ATOM      7  C   UNL A   1      34.708  30.932  27.699  1.00  0.00     0.060 A 
ATOM      8  C   UNL A   1      35.683  31.898  27.956  1.00  0.00     0.016 A 
ATOM      9  C   UNL A   1      34.880  29.660  28.267  1.00  0.00     0.016 A 
ATOM     10  C   UNL A   1      36.821  31.611  28.688  1.00  0.00     0.010 A 
ATOM     11  C   UNL A   1      36.003  29.371  29.047  1.00  0.00     0.010 A 
ATOM     12  C   UNL A   1      36.982  30.350  29.245  1.00  0.00    -0.014 A 
BRANCH  12  13
ATOM     13  C   UNL A   1      38.240  30.086  29.959  1.00  0.00     0.031 A 
ATOM     14  C   UNL A   1      39.281  29.259  29.282  1.00  0.00     0.074 A 
ATOM     15  C   UNL A   1      38.465  30.702  31.134  1.00  0.00     0.049 A 
ATOM     16  N   UNL A   1      40.453  28.894  29.717  1.00  0.00    -0.248 NA
ATOM     17  C   UNL A   1      38.968  28.790  27.919  1.00  0.00     0.031 C 
ATOM     18  C   UNL A   1      37.529  31.613  31.799  1.00  0.00     0.029 A 
ATOM     19  N   UNL A   1      39.550  30.674  31.965  1.00  0.00    -0.354 N 
ATOM     20  C   UNL A   1      40.995  28.106  28.711  1.00  0.00     0.074 A 
ATOM     21  C   UNL A   1      40.037  28.065  27.631  1.00  0.00     0.031 C 
ATOM     22  C   UNL A   1      38.084  32.057  32.938  1.00  0.00     0.029 A 
ATOM     23  C   UNL A   1      39.379  31.413  33.112  1.00  0.00     0.049 A 
ATOM     24  H   UNL A   1      40.374  30.174  31.762  1.00  0.00     0.167 HD
ATOM     25  C   UNL A   1      42.186  27.467  28.708  1.00  0.00     0.034 A 
ATOM     26  C   UNL A   1      40.170  31.517  34.195  1.00  0.00     0.034 A 
ATOM     27  C   UNL A   1      43.115  27.539  29.800  1.00  0.00     0.049 A 
ATOM     28  C   UNL A   1      41.468  30.756  34.183  1.00  0.00     0.074 A 
ATOM     29  C   UNL A   1      44.337  26.912  29.936  1.00  0.00     0.029 A 
ATOM     30  N   UNL A   1      42.910  28.285  30.953  1.00  0.00    -0.354 N 
ATOM     31  N   UNL A   1      41.982  30.020  33.224  1.00  0.00    -0.248 NA
ATOM     32  C   UNL A   1      42.302  30.843  35.388  1.00  0.00     0.031 C 
ATOM     33  C   UNL A   1      44.858  27.255  31.189  1.00  0.00     0.029 A 
ATOM     34  C   UNL A   1      43.978  28.126  31.816  1.00  0.00     0.049 A 
ATOM     35  H   UNL A   1      42.119  28.844  31.131  1.00  0.00     0.167 HD
ATOM     36  C   UNL A   1      43.207  29.574  33.697  1.00  0.00     0.074 A 
ATOM     37  C   UNL A   1      43.369  30.146  35.022  1.00  0.00     0.031 C 
ATOM     38  C   UNL A   1      44.112  28.754  33.108  1.00  0.00     0.034 A 
BRANCH  25  39
ATOM     39  C   UNL A   1      42.501  26.606  27.516  1.00  0.00     0.023 A 
ATOM     40  C   UNL A   1      43.179  27.147  26.405  1.00  0.00     0.012 A 
ATOM     41  C   UNL A   1      42.098  25.257  27.493  1.00  0.00     0.148 A 
ATOM     42  C   UNL A   1      43.417  26.366  25.273  1.00  0.00     0.002 A 
ATOM     43  C   UNL A   1      42.376  24.475  26.379  1.00  0.00     0.091 A 
ATOM     44  F   UNL A   1      41.428  24.773  28.547  1.00  0.00    -0.205 F 
ATOM     45  C   UNL A   1      43.023  25.030  25.263  1.00  0.00     0.022 A 
BRANCH  43  46
ATOM     46  S   UNL A   1      41.958  22.730  26.292  1.00  0.00     0.127 S 
ATOM     47  O   UNL A   1      42.651  22.322  25.070  1.00  0.00    -0.237 OA
ATOM     48  O   UNL A   1      42.545  22.214  27.529  1.00  0.00    -0.237 OA
ATOM     49  O   UNL A   1      40.504  22.667  26.233  1.00  0.00    -0.744 OA
ENDBRANCH  43  46
ENDBRANCH  25  39
BRANCH  26  50
ATOM     50  C   UNL A   1      39.749  32.343  35.362  1.00  0.00     0.023 A 
ATOM     51  C   UNL A   1      38.988  31.766  36.395  1.00  0.00     0.012 A 
ATOM     52  C   UNL A   1      40.126  33.699  35.468  1.00  0.00     0.148 A 
ATOM     53  C   UNL A   1      38.588  32.527  37.497  1.00  0.00     0.002 A 
ATOM     54  C   UNL A   1      39.775  34.435  36.592  1.00  0.00     0.091 A 
ATOM     55  F   UNL A   1      40.832  34.241  34.465  1.00  0.00    -0.205 F 
ATOM     56  C   UNL A   1      38.990  33.857  37.601  1.00  0.00     0.022 A 
BRANCH  54  57
ATOM     57  S   UNL A   1      40.359  36.112  36.866  1.00  0.00     0.127 S 
ATOM     58  O   UNL A   1      39.825  36.809  35.700  1.00  0.00    -0.237 OA
ATOM     59  O   UNL A   1      39.719  36.454  38.136  1.00  0.00    -0.237 OA
ATOM     60  O   UNL A   1      41.811  36.015  36.936  1.00  0.00    -0.744 OA
ENDBRANCH  54  57
ENDBRANCH  26  50
BRANCH  38  61
ATOM     61  C   UNL A   1      45.367  28.455  33.877  1.00  0.00     0.023 A 
ATOM     62  C   UNL A   1      46.483  29.307  33.760  1.00  0.00     0.012 A 
ATOM     63  C   UNL A   1      45.400  27.382  34.788  1.00  0.00     0.148 A 
ATOM     64  C   UNL A   1      47.626  29.078  34.522  1.00  0.00     0.002 A 
ATOM     65  C   UNL A   1      46.522  27.194  35.584  1.00  0.00     0.091 A 
ATOM     66  F   UNL A   1      44.333  26.575  34.865  1.00  0.00    -0.205 F 
ATOM     67  C   UNL A   1      47.640  28.032  35.443  1.00  0.00     0.022 A 
BRANCH  65  68
ATOM     68  S   UNL A   1      46.581  25.946  36.871  1.00  0.00     0.127 S 
ATOM     69  O   UNL A   1      46.515  24.711  36.092  1.00  0.00    -0.237 OA
ATOM     70  O   UNL A   1      47.878  26.205  37.496  1.00  0.00    -0.237 OA
ATOM     71  O   UNL A   1      45.436  26.204  37.734  1.00  0.00    -0.744 OA
ENDBRANCH  65  68
ENDBRANCH  38  61
ENDBRANCH  12  13
ENDBRANCH   5   7
ENDBRANCH   4   5
ENDBRANCH   3   4
ENDBRANCH   2   3
ENDBRANCH   1   2
BRANCH   1  72
ATOM     72  C   UNL A   1      30.761  26.805  24.108  1.00  0.00     0.202 C 
BRANCH  72  73
ATOM     73  C   UNL A   1      31.849  26.656  23.040  1.00  0.00     0.261 C 
BRANCH  73  74
ATOM     74  O   UNL A   1      31.667  25.385  22.397  1.00  0.00    -0.460 OA
BRANCH  74  75
ATOM     75  C   UNL A   1      32.779  24.902  21.785  1.00  0.00     0.338 C 
ATOM     76  O   UNL A   1      33.407  25.402  20.868  1.00  0.00    -0.246 OA
BRANCH  75  77
ATOM     77  C   UNL A   1      33.248  23.745  22.573  1.00  0.00     0.062 A 
ATOM     78  C   UNL A   1      34.412  23.875  23.337  1.00  0.00     0.016 A 
ATOM     79  C   UNL A   1      32.506  22.562  22.611  1.00  0.00     0.041 A 
ATOM     80  C   UNL A   1      34.808  22.829  24.165  1.00  0.00     0.003 A 
ATOM     81  C   UNL A   1      32.930  21.481  23.387  1.00  0.00     0.039 A 
ATOM     82  C   UNL A   1      34.072  21.641  24.185  1.00  0.00     0.026 A 
BRANCH  81  83
ATOM     83  N   UNL A   1      32.189  20.284  23.322  1.00  0.00    -0.355 N 
ATOM     84  H   UNL A   1      31.305  20.336  22.893  1.00  0.00     0.167 HD
BRANCH  83  85
ATOM     85  C   UNL A   1      32.584  19.030  23.806  1.00  0.00     0.039 A 
ATOM     86  C   UNL A   1      33.078  18.078  22.904  1.00  0.00     0.033 A 
ATOM     87  C   UNL A   1      32.569  18.741  25.173  1.00  0.00     0.033 A 
ATOM     88  C   UNL A   1      33.556  16.849  23.357  1.00  0.00     0.088 A 
ATOM     89  C   UNL A   1      33.036  17.511  25.642  1.00  0.00     0.088 A 
ATOM     90  C   UNL A   1      33.533  16.571  24.729  1.00  0.00     0.269 A 
BRANCH  90  91
ATOM     91  N   UNL A   1      34.043  15.284  25.215  1.00  0.00     0.062 N 
ATOM     92  O   UNL A   1      35.270  15.161  25.341  1.00  0.00    -0.258 OA
ATOM     93  O   UNL A   1      33.219  14.395  25.468  1.00  0.00    -0.258 OA
ENDBRANCH  90  91
ENDBRANCH  83  85
ENDBRANCH  81  83
ENDBRANCH  75  77
ENDBRANCH  74  75
ENDBRANCH  73  74
ENDBRANCH  72  73
ENDBRANCH   1  72
TORSDOF 20
ENDMDL
MODEL 2
REMARK VINA RESULT:     -11.3      2.032      7.891
REMARK SMILES O=C(OCCOCCOC(=O)c1cccc(Nc2ccc([N+](=O)[O-])cc2)c1)c1ccc(-c2c3nc(c(-c4cccc(S(=O)(=O)[O-])c4F)c4ccc([nH]4)c(-c4cccc(S(=O)(=O)[O-])c4F)c4nc(c(-c5cccc(S(=O)(=O)[O-])c5F)c5ccc2[nH]5)C=C4)C=C3)cc1
REMARK SMILES IDX 6 1 5 2 4 3 3 4 2 5 1 6 28 7 29 8 90 9 30 10 89 11 31 12
REMARK SMILES IDX 32 13 33 14 83 15 34 16 88 17 82 18 84 19 35 20 87 21 81 22
REMARK SMILES IDX 80 23 36 25 68 26 48 27 67 28 49 29 52 30 66 31 85 32 50 33
REMARK SMILES IDX 51 34 65 36 86 37 53 38 37 39 38 40 46 41 39 42 41 43 47 44
REMARK SMILES IDX 40 45 42 46 43 47 44 48 45 49 69 50 70 51 78 52 71 53 73 54
REMARK SMILES IDX 79 55 72 56 74 57 75 58 76 59 77 60 54 61 55 62 63 63 56 64
REMARK SMILES IDX 58 65 64 66 57 67 59 68 60 69 61 70 62 71 7 72 8 73 9 74
REMARK SMILES IDX 10 75 11 76 12 77 13 78 27 79 14 80 16 81 15 82 17 83 18 85
REMARK SMILES IDX 19 86 26 87 20 88 25 89 21 90 22 91 23 92 24 93
REMARK H PARENT 84 24 52 35 17 84
REMARK Flexibility Score: inf
ROOT
ATOM      1  O   UNL A   1      31.104  30.590  25.414  1.00  0.00    -0.374 OA
ENDROOT
BRANCH   1   2
ATOM      2  C   UNL A   1      31.076  31.849  26.084  1.00  0.00     0.202 C 
BRANCH   2   3
ATOM      3  C   UNL A   1      32.249  32.093  27.036  1.00  0.00     0.261 C 
BRANCH   3   4
ATOM      4  O   UNL A   1      32.320  33.483  27.393  1.00  0.00    -0.460 OA
BRANCH   4   5
ATOM      5  C   UNL A   1      33.271  34.111  28.126  1.00  0.00     0.338 C 
ATOM      6  O   UNL A   1      33.182  35.327  28.278  1.00  0.00    -0.246 OA
BRANCH   5   7
ATOM      7  C   UNL A   1      34.424  33.401  28.759  1.00  0.00     0.060 A 
ATOM      8  C   UNL A   1      34.317  32.236  29.521  1.00  0.00     0.016 A 
ATOM      9  C   UNL A   1      35.712  33.890  28.486  1.00  0.00     0.016 A 
ATOM     10  C   UNL A   1      35.427  31.606  30.054  1.00  0.00     0.010 A 
ATOM     11  C   UNL A   1      36.845  33.237  28.980  1.00  0.00     0.010 A 
ATOM     12  C   UNL A   1      36.696  32.098  29.778  1.00  0.00    -0.014 A 
BRANCH  12  13
ATOM     13  C   UNL A   1      37.833  31.424  30.422  1.00  0.00     0.031 A 
ATOM     14  C   UNL A   1      38.086  31.685  31.870  1.00  0.00     0.074 A 
ATOM     15  C   UNL A   1      38.523  30.500  29.729  1.00  0.00     0.049 A 
ATOM     16  N   UNL A   1      39.025  31.212  32.639  1.00  0.00    -0.248 NA
ATOM     17  C   UNL A   1      37.143  32.591  32.551  1.00  0.00     0.031 C 
ATOM     18  C   UNL A   1      38.254  30.117  28.339  1.00  0.00     0.029 A 
ATOM     19  N   UNL A   1      39.571  29.703  30.098  1.00  0.00    -0.354 N 
ATOM     20  C   UNL A   1      38.824  31.804  33.877  1.00  0.00     0.074 A 
ATOM     21  C   UNL A   1      37.660  32.652  33.769  1.00  0.00     0.031 C 
ATOM     22  C   UNL A   1      39.118  29.157  27.974  1.00  0.00     0.029 A 
ATOM     23  C   UNL A   1      40.036  28.907  29.077  1.00  0.00     0.049 A 
ATOM     24  H   UNL A   1      39.954  29.699  31.004  1.00  0.00     0.167 HD
ATOM     25  C   UNL A   1      39.564  31.655  35.000  1.00  0.00     0.034 A 
ATOM     26  C   UNL A   1      41.113  28.100  29.038  1.00  0.00     0.034 A 
ATOM     27  C   UNL A   1      40.711  30.795  35.070  1.00  0.00     0.049 A 
ATOM     28  C   UNL A   1      41.945  27.990  30.286  1.00  0.00     0.074 A 
ATOM     29  C   UNL A   1      41.566  30.582  36.133  1.00  0.00     0.029 A 
ATOM     30  N   UNL A   1      41.167  30.011  34.018  1.00  0.00    -0.354 N 
ATOM     31  N   UNL A   1      41.745  28.545  31.460  1.00  0.00    -0.248 NA
ATOM     32  C   UNL A   1      43.140  27.141  30.217  1.00  0.00     0.031 C 
ATOM     33  C   UNL A   1      42.559  29.690  35.712  1.00  0.00     0.029 A 
ATOM     34  C   UNL A   1      42.301  29.319  34.400  1.00  0.00     0.049 A 
ATOM     35  H   UNL A   1      40.745  29.957  33.130  1.00  0.00     0.167 HD
ATOM     36  C   UNL A   1      42.774  28.097  32.276  1.00  0.00     0.074 A 
ATOM     37  C   UNL A   1      43.581  27.202  31.466  1.00  0.00     0.031 C 
ATOM     38  C   UNL A   1      43.044  28.404  33.569  1.00  0.00     0.034 A 
BRANCH  25  39
ATOM     39  C   UNL A   1      39.175  32.480  36.195  1.00  0.00     0.023 A 
ATOM     40  C   UNL A   1      39.720  33.766  36.381  1.00  0.00     0.012 A 
ATOM     41  C   UNL A   1      38.280  31.961  37.150  1.00  0.00     0.148 A 
ATOM     42  C   UNL A   1      39.407  34.509  37.521  1.00  0.00     0.002 A 
ATOM     43  C   UNL A   1      37.941  32.723  38.261  1.00  0.00     0.091 A 
ATOM     44  F   UNL A   1      37.798  30.724  36.968  1.00  0.00    -0.205 F 
ATOM     45  C   UNL A   1      38.514  33.991  38.456  1.00  0.00     0.022 A 
BRANCH  43  46
ATOM     46  S   UNL A   1      36.758  32.167  39.493  1.00  0.00     0.127 S 
ATOM     47  O   UNL A   1      37.086  30.746  39.595  1.00  0.00    -0.237 OA
ATOM     48  O   UNL A   1      37.135  32.967  40.659  1.00  0.00    -0.237 OA
ATOM     49  O   UNL A   1      35.440  32.464  38.949  1.00  0.00    -0.744 OA
ENDBRANCH  43  46
ENDBRANCH  25  39
BRANCH  26  50
ATOM     50  C   UNL A   1      41.462  27.368  27.787  1.00  0.00     0.023 A 
ATOM     51  C   UNL A   1      41.929  28.075  26.664  1.00  0.00     0.012 A 
ATOM     52  C   UNL A   1      41.361  25.962  27.714  1.00  0.00     0.148 A 
ATOM     53  C   UNL A   1      42.264  27.402  25.486  1.00  0.00     0.002 A 
ATOM     54  C   UNL A   1      41.750  25.293  26.560  1.00  0.00     0.091 A 
ATOM     55  F   UNL A   1      40.894  25.304  28.785  1.00  0.00    -0.205 F 
ATOM     56  C   UNL A   1      42.185  26.012  25.437  1.00  0.00     0.022 A 
BRANCH  54  57
ATOM     57  S   UNL A   1      41.802  23.500  26.458  1.00  0.00     0.127 S 
ATOM     58  O   UNL A   1      42.525  23.293  25.207  1.00  0.00    -0.237 OA
ATOM     59  O   UNL A   1      42.548  23.148  27.667  1.00  0.00    -0.237 OA
ATOM     60  O   UNL A   1      40.411  23.065  26.467  1.00  0.00    -0.744 OA
ENDBRANCH  54  57
ENDBRANCH  26  50
BRANCH  38  61
ATOM     61  C   UNL A   1      44.241  27.744  34.193  1.00  0.00     0.023 A 
ATOM     62  C   UNL A   1      45.505  28.359  34.108  1.00  0.00     0.012 A 
ATOM     63  C   UNL A   1      44.086  26.565  34.945  1.00  0.00     0.148 A 
ATOM     64  C   UNL A   1      46.607  27.791  34.743  1.00  0.00     0.002 A 
ATOM     65  C   UNL A   1      45.177  26.036  35.621  1.00  0.00     0.091 A 
ATOM     66  F   UNL A   1      42.876  25.990  34.993  1.00  0.00    -0.205 F 
ATOM     67  C   UNL A   1      46.441  26.640  35.511  1.00  0.00     0.022 A 
BRANCH  65  68
ATOM     68  S   UNL A   1      45.028  24.625  36.719  1.00  0.00     0.127 S 
ATOM     69  O   UNL A   1      44.610  23.571  35.796  1.00  0.00    -0.237 OA
ATOM     70  O   UNL A   1      46.392  24.483  37.230  1.00  0.00    -0.237 OA
ATOM     71  O   UNL A   1      44.045  25.002  37.726  1.00  0.00    -0.744 OA
ENDBRANCH  65  68
ENDBRANCH  38  61
ENDBRANCH  12  13
ENDBRANCH   5   7
ENDBRANCH   4   5
ENDBRANCH   3   4
ENDBRANCH   2   3
ENDBRANCH   1   2
BRANCH   1  72
ATOM     72  C   UNL A   1      32.015  29.611  25.927  1.00  0.00     0.202 C 
BRANCH  72  73
ATOM     73  C   UNL A   1      32.960  29.172  24.804  1.00  0.00     0.261 C 
BRANCH  73  74
ATOM     74  O   UNL A   1      32.671  27.800  24.493  1.00  0.00    -0.460 OA
BRANCH  74  75
ATOM     75  C   UNL A   1      33.471  26.902  25.124  1.00  0.00     0.338 C 
ATOM     76  O   UNL A   1      34.093  27.052  26.161  1.00  0.00    -0.246 OA
BRANCH  75  77
ATOM     77  C   UNL A   1      33.292  25.601  24.449  1.00  0.00     0.062 A 
ATOM     78  C   UNL A   1      33.145  25.576  23.059  1.00  0.00     0.016 A 
ATOM     79  C   UNL A   1      33.338  24.411  25.177  1.00  0.00     0.041 A 
ATOM     80  C   UNL A   1      33.081  24.352  22.400  1.00  0.00     0.003 A 
ATOM     81  C   UNL A   1      33.208  23.178  24.534  1.00  0.00     0.039 A 
ATOM     82  C   UNL A   1      33.109  23.163  23.135  1.00  0.00     0.026 A 
BRANCH  81  83
ATOM     83  N   UNL A   1      33.177  22.013  25.326  1.00  0.00    -0.355 N 
ATOM     84  H   UNL A   1      32.968  22.134  26.280  1.00  0.00     0.167 HD
BRANCH  83  85
ATOM     85  C   UNL A   1      33.413  20.701  24.893  1.00  0.00     0.039 A 
ATOM     86  C   UNL A   1      34.719  20.195  24.943  1.00  0.00     0.033 A 
ATOM     87  C   UNL A   1      32.365  19.869  24.491  1.00  0.00     0.033 A 
ATOM     88  C   UNL A   1      34.981  18.869  24.597  1.00  0.00     0.088 A 
ATOM     89  C   UNL A   1      32.613  18.542  24.134  1.00  0.00     0.088 A 
ATOM     90  C   UNL A   1      33.922  18.046  24.193  1.00  0.00     0.269 A 
BRANCH  90  91
ATOM     91  N   UNL A   1      34.188  16.648  23.838  1.00  0.00     0.062 N 
ATOM     92  O   UNL A   1      34.132  16.336  22.640  1.00  0.00    -0.258 OA
ATOM     93  O   UNL A   1      34.451  15.859  24.757  1.00  0.00    -0.258 OA
ENDBRANCH  90  91
ENDBRANCH  83  85
ENDBRANCH  81  83
ENDBRANCH  75  77
ENDBRANCH  74  75
ENDBRANCH  73  74
ENDBRANCH  72  73
ENDBRANCH   1  72
TORSDOF 20
ENDMDL
MODEL 3
REMARK VINA RESULT:     -11.3      5.239      7.967
REMARK SMILES O=C(OCCOCCOC(=O)c1cccc(Nc2ccc([N+](=O)[O-])cc2)c1)c1ccc(-c2c3nc(c(-c4cccc(S(=O)(=O)[O-])c4F)c4ccc([nH]4)c(-c4cccc(S(=O)(=O)[O-])c4F)c4nc(c(-c5cccc(S(=O)(=O)[O-])c5F)c5ccc2[nH]5)C=C4)C=C3)cc1
REMARK SMILES IDX 6 1 5 2 4 3 3 4 2 5 1 6 28 7 29 8 90 9 30 10 89 11 31 12
REMARK SMILES IDX 32 13 33 14 83 15 34 16 88 17 82 18 84 19 35 20 87 21 81 22
REMARK SMILES IDX 80 23 36 25 68 26 48 27 67 28 49 29 52 30 66 31 85 32 50 33
REMARK SMILES IDX 51 34 65 36 86 37 53 38 37 39 38 40 46 41 39 42 41 43 47 44
REMARK SMILES IDX 40 45 42 46 43 47 44 48 45 49 69 50 70 51 78 52 71 53 73 54
REMARK SMILES IDX 79 55 72 56 74 57 75 58 76 59 77 60 54 61 55 62 63 63 56 64
REMARK SMILES IDX 58 65 64 66 57 67 59 68 60 69 61 70 62 71 7 72 8 73 9 74
REMARK SMILES IDX 10 75 11 76 12 77 13 78 27 79 14 80 16 81 15 82 17 83 18 85
REMARK SMILES IDX 19 86 26 87 20 88 25 89 21 90 22 91 23 92 24 93
REMARK H PARENT 84 24 52 35 17 84
REMARK Flexibility Score: inf
ROOT
ATOM      1  O   UNL A   1      37.150  20.820  25.210  1.00  0.00    -0.374 OA
ENDROOT
BRANCH   1   2
ATOM      2  C   UNL A   1      38.147  19.943  24.687  1.00  0.00     0.202 C 
BRANCH   2   3
ATOM      3  C   UNL A   1      38.900  19.128  25.741  1.00  0.00     0.261 C 
BRANCH   3   4
ATOM      4  O   UNL A   1      40.313  19.364  25.637  1.00  0.00    -0.460 OA
BRANCH   4   5
ATOM      5  C   UNL A   1      41.176  19.717  26.621  1.00  0.00     0.338 C 
ATOM      6  O   UNL A   1      41.650  18.829  27.327  1.00  0.00    -0.246 OA
BRANCH   5   7
ATOM      7  C   UNL A   1      41.583  21.129  26.892  1.00  0.00     0.060 A 
ATOM      8  C   UNL A   1      42.303  21.547  28.013  1.00  0.00     0.016 A 
ATOM      9  C   UNL A   1      41.305  22.083  25.899  1.00  0.00     0.016 A 
ATOM     10  C   UNL A   1      42.680  22.865  28.191  1.00  0.00     0.010 A 
ATOM     11  C   UNL A   1      41.721  23.409  26.045  1.00  0.00     0.010 A 
ATOM     12  C   UNL A   1      42.399  23.801  27.204  1.00  0.00    -0.014 A 
BRANCH  12  13
ATOM     13  C   UNL A   1      42.770  25.197  27.476  1.00  0.00     0.031 A 
ATOM     14  C   UNL A   1      44.080  25.697  26.966  1.00  0.00     0.074 A 
ATOM     15  C   UNL A   1      41.869  26.011  28.056  1.00  0.00     0.049 A 
ATOM     16  N   UNL A   1      44.615  26.878  27.090  1.00  0.00    -0.248 NA
ATOM     17  C   UNL A   1      44.896  24.741  26.194  1.00  0.00     0.031 C 
ATOM     18  C   UNL A   1      40.524  25.610  28.481  1.00  0.00     0.029 A 
ATOM     19  N   UNL A   1      41.935  27.340  28.370  1.00  0.00    -0.354 N 
ATOM     20  C   UNL A   1      45.851  26.794  26.466  1.00  0.00     0.074 A 
ATOM     21  C   UNL A   1      45.980  25.455  25.939  1.00  0.00     0.031 C 
ATOM     22  C   UNL A   1      39.892  26.674  29.000  1.00  0.00     0.029 A 
ATOM     23  C   UNL A   1      40.807  27.807  29.005  1.00  0.00     0.049 A 
ATOM     24  H   UNL A   1      42.712  27.906  28.162  1.00  0.00     0.167 HD
ATOM     25  C   UNL A   1      46.795  27.756  26.359  1.00  0.00     0.034 A 
ATOM     26  C   UNL A   1      40.569  29.010  29.560  1.00  0.00     0.034 A 
ATOM     27  C   UNL A   1      46.626  29.079  26.890  1.00  0.00     0.049 A 
ATOM     28  C   UNL A   1      41.656  30.046  29.468  1.00  0.00     0.074 A 
ATOM     29  C   UNL A   1      47.517  30.134  26.880  1.00  0.00     0.029 A 
ATOM     30  N   UNL A   1      45.479  29.521  27.538  1.00  0.00    -0.354 N 
ATOM     31  N   UNL A   1      42.821  29.965  28.867  1.00  0.00    -0.248 NA
ATOM     32  C   UNL A   1      41.401  31.338  30.116  1.00  0.00     0.031 C 
ATOM     33  C   UNL A   1      46.919  31.206  27.552  1.00  0.00     0.029 A 
ATOM     34  C   UNL A   1      45.642  30.832  27.946  1.00  0.00     0.049 A 
ATOM     35  H   UNL A   1      44.671  28.980  27.686  1.00  0.00     0.167 HD
ATOM     36  C   UNL A   1      43.430  31.199  29.042  1.00  0.00     0.074 A 
ATOM     37  C   UNL A   1      42.490  32.019  29.785  1.00  0.00     0.031 C 
ATOM     38  C   UNL A   1      44.657  31.619  28.645  1.00  0.00     0.034 A 
BRANCH  25  39
ATOM     39  C   UNL A   1      48.091  27.378  25.697  1.00  0.00     0.023 A 
ATOM     40  C   UNL A   1      49.165  26.883  26.464  1.00  0.00     0.012 A 
ATOM     41  C   UNL A   1      48.248  27.540  24.308  1.00  0.00     0.148 A 
ATOM     42  C   UNL A   1      50.389  26.589  25.860  1.00  0.00     0.002 A 
ATOM     43  C   UNL A   1      49.455  27.206  23.708  1.00  0.00     0.091 A 
ATOM     44  F   UNL A   1      47.224  28.042  23.604  1.00  0.00    -0.205 F 
ATOM     45  C   UNL A   1      50.531  26.744  24.483  1.00  0.00     0.022 A 
BRANCH  43  46
ATOM     46  S   UNL A   1      49.720  27.319  21.935  1.00  0.00     0.127 S 
ATOM     47  O   UNL A   1      48.649  26.465  21.422  1.00  0.00    -0.237 OA
ATOM     48  O   UNL A   1      49.532  28.749  21.689  1.00  0.00    -0.237 OA
ATOM     49  O   UNL A   1      51.071  26.831  21.697  1.00  0.00    -0.744 OA
ENDBRANCH  43  46
ENDBRANCH  25  39
BRANCH  26  50
ATOM     50  C   UNL A   1      39.278  29.278  30.254  1.00  0.00     0.023 A 
ATOM     51  C   UNL A   1      39.025  28.706  31.515  1.00  0.00     0.012 A 
ATOM     52  C   UNL A   1      38.305  30.125  29.682  1.00  0.00     0.148 A 
ATOM     53  C   UNL A   1      37.820  28.951  32.180  1.00  0.00     0.002 A 
ATOM     54  C   UNL A   1      37.135  30.411  30.373  1.00  0.00     0.091 A 
ATOM     55  F   UNL A   1      38.551  30.645  28.471  1.00  0.00    -0.205 F 
ATOM     56  C   UNL A   1      36.881  29.811  31.615  1.00  0.00     0.022 A 
BRANCH  54  57
ATOM     57  S   UNL A   1      35.933  31.607  29.777  1.00  0.00     0.127 S 
ATOM     58  O   UNL A   1      35.318  30.885  28.667  1.00  0.00    -0.237 OA
ATOM     59  O   UNL A   1      35.074  31.784  30.948  1.00  0.00    -0.237 OA
ATOM     60  O   UNL A   1      36.702  32.790  29.416  1.00  0.00    -0.744 OA
ENDBRANCH  54  57
ENDBRANCH  26  50
BRANCH  38  61
ATOM     61  C   UNL A   1      45.037  33.034  28.980  1.00  0.00     0.023 A 
ATOM     62  C   UNL A   1      45.612  33.329  30.231  1.00  0.00     0.012 A 
ATOM     63  C   UNL A   1      44.910  34.048  28.012  1.00  0.00     0.148 A 
ATOM     64  C   UNL A   1      46.032  34.625  30.524  1.00  0.00     0.002 A 
ATOM     65  C   UNL A   1      45.382  35.323  28.291  1.00  0.00     0.091 A 
ATOM     66  F   UNL A   1      44.341  33.745  26.837  1.00  0.00    -0.205 F 
ATOM     67  C   UNL A   1      45.931  35.617  29.550  1.00  0.00     0.022 A 
BRANCH  65  68
ATOM     68  S   UNL A   1      45.394  36.628  27.059  1.00  0.00     0.127 S 
ATOM     69  O   UNL A   1      43.968  36.912  26.912  1.00  0.00    -0.237 OA
ATOM     70  O   UNL A   1      46.161  37.680  27.728  1.00  0.00    -0.237 OA
ATOM     71  O   UNL A   1      46.045  36.064  25.884  1.00  0.00    -0.744 OA
ENDBRANCH  65  68
ENDBRANCH  38  61
ENDBRANCH  12  13
ENDBRANCH   5   7
ENDBRANCH   4   5
ENDBRANCH   3   4
ENDBRANCH   2   3
ENDBRANCH   1   2
BRANCH   1  72
ATOM     72  C   UNL A   1      37.614  21.900  26.028  1.00  0.00     0.202 C 
BRANCH  72  73
ATOM     73  C   UNL A   1      37.544  23.201  25.223  1.00  0.00     0.261 C 
BRANCH  73  74
ATOM     74  O   UNL A   1      36.174  23.419  24.851  1.00  0.00    -0.460 OA
BRANCH  74  75
ATOM     75  C   UNL A   1      35.904  23.185  23.541  1.00  0.00     0.338 C 
ATOM     76  O   UNL A   1      36.695  22.952  22.643  1.00  0.00    -0.246 OA
BRANCH  75  77
ATOM     77  C   UNL A   1      34.441  23.038  23.411  1.00  0.00     0.062 A 
ATOM     78  C   UNL A   1      33.672  24.170  23.126  1.00  0.00     0.016 A 
ATOM     79  C   UNL A   1      33.842  21.780  23.500  1.00  0.00     0.041 A 
ATOM     80  C   UNL A   1      32.306  24.030  22.898  1.00  0.00     0.003 A 
ATOM     81  C   UNL A   1      32.462  21.637  23.338  1.00  0.00     0.039 A 
ATOM     82  C   UNL A   1      31.708  22.771  23.006  1.00  0.00     0.026 A 
BRANCH  81  83
ATOM     83  N   UNL A   1      31.900  20.357  23.522  1.00  0.00    -0.355 N 
ATOM     84  H   UNL A   1      30.933  20.273  23.358  1.00  0.00     0.167 HD
BRANCH  83  85
ATOM     85  C   UNL A   1      32.578  19.195  23.914  1.00  0.00     0.039 A 
ATOM     86  C   UNL A   1      32.825  18.980  25.277  1.00  0.00     0.033 A 
ATOM     87  C   UNL A   1      32.939  18.216  22.985  1.00  0.00     0.033 A 
ATOM     88  C   UNL A   1      33.424  17.799  25.713  1.00  0.00     0.088 A 
ATOM     89  C   UNL A   1      33.547  17.032  23.405  1.00  0.00     0.088 A 
ATOM     90  C   UNL A   1      33.784  16.827  24.771  1.00  0.00     0.269 A 
BRANCH  90  91
ATOM     91  N   UNL A   1      34.405  15.577  25.223  1.00  0.00     0.062 N 
ATOM     92  O   UNL A   1      35.622  15.590  25.460  1.00  0.00    -0.258 OA
ATOM     93  O   UNL A   1      33.678  14.580  25.340  1.00  0.00    -0.258 OA
ENDBRANCH  90  91
ENDBRANCH  83  85
ENDBRANCH  81  83
ENDBRANCH  75  77
ENDBRANCH  74  75
ENDBRANCH  73  74
ENDBRANCH  72  73
ENDBRANCH   1  72
TORSDOF 20
ENDMDL
