MODEL 1
REMARK VINA RESULT:     -11.2      0.000      0.000
REMARK SMILES COc1ccccc1-c1ccc(C(=O)OCCOCCOC(=O)c2ccc(-c3c4nc(c(-c5cccc(S(=O)(=O)[O-])c5F)c5ccc([nH]5)c(-c5cccc(S(=O)(=O)[O-])c5F)c5nc(c(-c6cccc(S(=O)(=O)[O-])c6F)c6ccc3[nH]6)C=C5)C=C4)cc2)c(O)c1
REMARK SMILES IDX 19 1 18 2 17 3 16 4 15 5 13 6 14 7 12 8 9 9 10 10 89 11
REMARK SMILES IDX 11 12 87 13 8 14 3 15 4 16 5 17 7 18 6 19 2 20 1 21 88 22
REMARK SMILES IDX 20 24 21 25 22 26 23 27 24 28 25 29 86 30 26 31 85 32 27 33
REMARK SMILES IDX 28 34 29 35 79 36 30 37 84 38 78 39 80 40 31 41 83 42 77 43
REMARK SMILES IDX 76 44 32 46 64 47 44 48 63 49 45 50 48 51 62 52 81 53 46 54
REMARK SMILES IDX 47 55 61 57 82 58 49 59 33 60 34 61 42 62 35 63 37 64 43 65
REMARK SMILES IDX 36 66 38 67 39 68 40 69 41 70 65 71 66 72 74 73 67 74 69 75
REMARK SMILES IDX 75 76 68 77 70 78 71 79 72 80 73 81 50 82 51 83 59 84 52 85
REMARK SMILES IDX 54 86 60 87 53 88 55 89 56 90 57 91 58 92
REMARK H PARENT 88 23 80 45 48 56
REMARK Flexibility Score: inf
ROOT
ATOM      1  C   UNL A   1      32.348  31.214  26.728  1.00  0.00     0.202 C 
ENDROOT
BRANCH   1   2
ATOM      2  O   UNL A   1      31.484  30.658  25.735  1.00  0.00    -0.374 OA
BRANCH   2   3
ATOM      3  C   UNL A   1      32.001  29.579  24.950  1.00  0.00     0.202 C 
BRANCH   3   4
ATOM      4  C   UNL A   1      30.965  28.630  24.347  1.00  0.00     0.261 C 
BRANCH   4   5
ATOM      5  O   UNL A   1      31.581  27.381  24.010  1.00  0.00    -0.460 OA
BRANCH   5   6
ATOM      6  C   UNL A   1      31.259  26.882  22.798  1.00  0.00     0.341 C 
ATOM      7  O   UNL A   1      30.928  27.524  21.809  1.00  0.00    -0.246 OA
BRANCH   6   8
ATOM      8  C   UNL A   1      31.558  25.435  22.718  1.00  0.00     0.101 A 
ATOM      9  C   UNL A   1      32.132  22.699  22.992  1.00  0.00    -0.011 A 
ATOM     10  C   UNL A   1      30.968  23.238  23.560  1.00  0.00     0.010 A 
ATOM     11  C   UNL A   1      32.934  23.521  22.177  1.00  0.00     0.056 A 
ATOM     12  C   UNL A   1      30.689  24.596  23.432  1.00  0.00     0.020 A 
ATOM     13  C   UNL A   1      32.653  24.885  22.048  1.00  0.00     0.130 A 
BRANCH   9  14
ATOM     14  C   UNL A   1      32.587  21.367  23.416  1.00  0.00     0.024 A 
ATOM     15  C   UNL A   1      33.432  21.198  24.534  1.00  0.00     0.126 A 
ATOM     16  C   UNL A   1      33.823  19.925  24.957  1.00  0.00     0.047 A 
ATOM     17  C   UNL A   1      33.349  18.795  24.298  1.00  0.00     0.004 A 
ATOM     18  C   UNL A   1      32.129  20.211  22.760  1.00  0.00     0.012 A 
ATOM     19  C   UNL A   1      32.504  18.936  23.199  1.00  0.00     0.001 A 
BRANCH  15  20
ATOM     20  O   UNL A   1      33.980  22.252  25.226  1.00  0.00    -0.496 OA
ATOM     21  C   UNL A   1      35.116  21.868  26.002  1.00  0.00     0.278 C 
ENDBRANCH  15  20
ENDBRANCH   9  14
BRANCH  13  22
ATOM     22  O   UNL A   1      33.499  25.678  21.327  1.00  0.00    -0.507 OA
ATOM     23  H   UNL A   1      33.661  26.559  21.601  1.00  0.00     0.293 HD
ENDBRANCH  13  22
ENDBRANCH   6   8
ENDBRANCH   5   6
ENDBRANCH   4   5
ENDBRANCH   3   4
ENDBRANCH   2   3
ENDBRANCH   1   2
BRANCH   1  24
ATOM     24  C   UNL A   1      32.120  32.686  27.094  1.00  0.00     0.261 C 
BRANCH  24  25
ATOM     25  O   UNL A   1      33.339  33.447  27.091  1.00  0.00    -0.460 OA
BRANCH  25  26
ATOM     26  C   UNL A   1      33.812  33.770  28.318  1.00  0.00     0.338 C 
ATOM     27  O   UNL A   1      33.285  34.508  29.140  1.00  0.00    -0.246 OA
BRANCH  26  28
ATOM     28  C   UNL A   1      35.002  32.958  28.631  1.00  0.00     0.060 A 
ATOM     29  C   UNL A   1      34.795  31.698  29.207  1.00  0.00     0.016 A 
ATOM     30  C   UNL A   1      36.297  33.442  28.429  1.00  0.00     0.016 A 
ATOM     31  C   UNL A   1      35.882  30.937  29.632  1.00  0.00     0.010 A 
ATOM     32  C   UNL A   1      37.386  32.680  28.863  1.00  0.00     0.010 A 
ATOM     33  C   UNL A   1      37.181  31.442  29.499  1.00  0.00    -0.014 A 
BRANCH  33  34
ATOM     34  C   UNL A   1      38.313  30.739  30.148  1.00  0.00     0.031 A 
ATOM     35  C   UNL A   1      38.704  31.123  31.550  1.00  0.00     0.074 A 
ATOM     36  C   UNL A   1      38.988  29.775  29.497  1.00  0.00     0.049 A 
ATOM     37  N   UNL A   1      39.677  30.665  32.292  1.00  0.00    -0.248 NA
ATOM     38  C   UNL A   1      37.891  32.166  32.198  1.00  0.00     0.031 C 
ATOM     39  C   UNL A   1      38.704  29.317  28.138  1.00  0.00     0.029 A 
ATOM     40  N   UNL A   1      40.072  29.029  29.886  1.00  0.00    -0.354 N 
ATOM     41  C   UNL A   1      39.614  31.381  33.482  1.00  0.00     0.074 A 
ATOM     42  C   UNL A   1      38.515  32.313  33.358  1.00  0.00     0.031 C 
ATOM     43  C   UNL A   1      39.613  28.388  27.794  1.00  0.00     0.029 A 
ATOM     44  C   UNL A   1      40.553  28.203  28.898  1.00  0.00     0.049 A 
ATOM     45  H   UNL A   1      40.467  29.080  30.787  1.00  0.00     0.167 HD
ATOM     46  C   UNL A   1      40.391  31.262  34.585  1.00  0.00     0.034 A 
ATOM     47  C   UNL A   1      41.640  27.407  28.881  1.00  0.00     0.034 A 
ATOM     48  C   UNL A   1      41.466  30.317  34.716  1.00  0.00     0.049 A 
ATOM     49  C   UNL A   1      42.503  27.310  30.113  1.00  0.00     0.074 A 
ATOM     50  C   UNL A   1      42.270  30.076  35.815  1.00  0.00     0.029 A 
ATOM     51  N   UNL A   1      41.899  29.468  33.710  1.00  0.00    -0.354 N 
ATOM     52  N   UNL A   1      42.350  27.893  31.277  1.00  0.00    -0.248 NA
ATOM     53  C   UNL A   1      43.673  26.422  30.037  1.00  0.00     0.031 C 
ATOM     54  C   UNL A   1      43.206  29.098  35.466  1.00  0.00     0.029 A 
ATOM     55  C   UNL A   1      42.972  28.714  34.155  1.00  0.00     0.049 A 
ATOM     56  H   UNL A   1      41.503  29.410  32.811  1.00  0.00     0.167 HD
ATOM     57  C   UNL A   1      43.384  27.424  32.081  1.00  0.00     0.074 A 
ATOM     58  C   UNL A   1      44.142  26.488  31.277  1.00  0.00     0.031 C 
ATOM     59  C   UNL A   1      43.689  27.750  33.361  1.00  0.00     0.034 A 
BRANCH  46  60
ATOM     60  C   UNL A   1      40.084  32.158  35.755  1.00  0.00     0.023 A 
ATOM     61  C   UNL A   1      40.826  33.342  35.939  1.00  0.00     0.012 A 
ATOM     62  C   UNL A   1      39.028  31.858  36.638  1.00  0.00     0.148 A 
ATOM     63  C   UNL A   1      40.543  34.199  37.001  1.00  0.00     0.002 A 
ATOM     64  C   UNL A   1      38.725  32.738  37.670  1.00  0.00     0.091 A 
ATOM     65  F   UNL A   1      38.350  30.716  36.460  1.00  0.00    -0.205 F 
ATOM     66  C   UNL A   1      39.487  33.903  37.860  1.00  0.00     0.022 A 
BRANCH  64  67
ATOM     67  S   UNL A   1      37.339  32.481  38.785  1.00  0.00     0.127 S 
ATOM     68  O   UNL A   1      37.653  33.416  39.865  1.00  0.00    -0.237 OA
ATOM     69  O   UNL A   1      36.200  32.872  37.955  1.00  0.00    -0.237 OA
ATOM     70  O   UNL A   1      37.372  31.072  39.148  1.00  0.00    -0.744 OA
ENDBRANCH  64  67
ENDBRANCH  46  60
BRANCH  47  71
ATOM     71  C   UNL A   1      41.960  26.613  27.661  1.00  0.00     0.023 A 
ATOM     72  C   UNL A   1      42.571  27.246  26.562  1.00  0.00     0.012 A 
ATOM     73  C   UNL A   1      41.679  25.235  27.591  1.00  0.00     0.148 A 
ATOM     74  C   UNL A   1      42.870  26.527  25.404  1.00  0.00     0.002 A 
ATOM     75  C   UNL A   1      42.029  24.513  26.456  1.00  0.00     0.091 A 
ATOM     76  F   UNL A   1      41.079  24.654  28.640  1.00  0.00    -0.205 F 
ATOM     77  C   UNL A   1      42.610  25.160  25.355  1.00  0.00     0.022 A 
BRANCH  75  78
ATOM     78  S   UNL A   1      41.845  22.729  26.356  1.00  0.00     0.127 S 
ATOM     79  O   UNL A   1      42.490  22.432  25.080  1.00  0.00    -0.237 OA
ATOM     80  O   UNL A   1      42.581  22.281  27.539  1.00  0.00    -0.237 OA
ATOM     81  O   UNL A   1      40.410  22.478  26.414  1.00  0.00    -0.744 OA
ENDBRANCH  75  78
ENDBRANCH  47  71
BRANCH  59  82
ATOM     82  C   UNL A   1      44.886  27.083  33.988  1.00  0.00     0.023 A 
ATOM     83  C   UNL A   1      46.140  27.723  33.949  1.00  0.00     0.012 A 
ATOM     84  C   UNL A   1      44.752  25.866  34.687  1.00  0.00     0.148 A 
ATOM     85  C   UNL A   1      47.249  27.149  34.569  1.00  0.00     0.002 A 
ATOM     86  C   UNL A   1      45.852  25.324  35.343  1.00  0.00     0.091 A 
ATOM     87  F   UNL A   1      43.554  25.263  34.700  1.00  0.00    -0.205 F 
ATOM     88  C   UNL A   1      47.102  25.958  35.276  1.00  0.00     0.022 A 
BRANCH  86  89
ATOM     89  S   UNL A   1      45.737  23.843  36.354  1.00  0.00     0.127 S 
ATOM     90  O   UNL A   1      45.240  22.861  35.392  1.00  0.00    -0.237 OA
ATOM     91  O   UNL A   1      47.125  23.642  36.769  1.00  0.00    -0.237 OA
ATOM     92  O   UNL A   1      44.824  24.169  37.442  1.00  0.00    -0.744 OA
ENDBRANCH  86  89
ENDBRANCH  59  82
ENDBRANCH  33  34
ENDBRANCH  26  28
ENDBRANCH  25  26
ENDBRANCH  24  25
ENDBRANCH   1  24
TORSDOF 20
ENDMDL
MODEL 2
REMARK VINA RESULT:     -11.0      2.375      3.254
REMARK SMILES COc1ccccc1-c1ccc(C(=O)OCCOCCOC(=O)c2ccc(-c3c4nc(c(-c5cccc(S(=O)(=O)[O-])c5F)c5ccc([nH]5)c(-c5cccc(S(=O)(=O)[O-])c5F)c5nc(c(-c6cccc(S(=O)(=O)[O-])c6F)c6ccc3[nH]6)C=C5)C=C4)cc2)c(O)c1
REMARK SMILES IDX 19 1 18 2 17 3 16 4 15 5 13 6 14 7 12 8 9 9 10 10 89 11
REMARK SMILES IDX 11 12 87 13 8 14 3 15 4 16 5 17 7 18 6 19 2 20 1 21 88 22
REMARK SMILES IDX 20 24 21 25 22 26 23 27 24 28 25 29 86 30 26 31 85 32 27 33
REMARK SMILES IDX 28 34 29 35 79 36 30 37 84 38 78 39 80 40 31 41 83 42 77 43
REMARK SMILES IDX 76 44 32 46 64 47 44 48 63 49 45 50 48 51 62 52 81 53 46 54
REMARK SMILES IDX 47 55 61 57 82 58 49 59 33 60 34 61 42 62 35 63 37 64 43 65
REMARK SMILES IDX 36 66 38 67 39 68 40 69 41 70 65 71 66 72 74 73 67 74 69 75
REMARK SMILES IDX 75 76 68 77 70 78 71 79 72 80 73 81 50 82 51 83 59 84 52 85
REMARK SMILES IDX 54 86 60 87 53 88 55 89 56 90 57 91 58 92
REMARK H PARENT 88 23 80 45 48 56
REMARK Flexibility Score: inf
ROOT
ATOM      1  C   UNL A   1      31.987  28.159  26.270  1.00  0.00     0.202 C 
ENDROOT
BRANCH   1   2
ATOM      2  O   UNL A   1      31.527  28.985  25.199  1.00  0.00    -0.374 OA
BRANCH   2   3
ATOM      3  C   UNL A   1      30.752  28.353  24.175  1.00  0.00     0.202 C 
BRANCH   3   4
ATOM      4  C   UNL A   1      31.199  28.617  22.737  1.00  0.00     0.261 C 
BRANCH   4   5
ATOM      5  O   UNL A   1      31.717  27.415  22.155  1.00  0.00    -0.460 OA
BRANCH   5   6
ATOM      6  C   UNL A   1      33.053  27.252  22.249  1.00  0.00     0.341 C 
ATOM      7  O   UNL A   1      33.905  28.121  22.118  1.00  0.00    -0.246 OA
BRANCH   6   8
ATOM      8  C   UNL A   1      33.393  25.903  22.754  1.00  0.00     0.101 A 
ATOM      9  C   UNL A   1      34.419  23.507  23.801  1.00  0.00    -0.011 A 
ATOM     10  C   UNL A   1      34.371  24.663  24.594  1.00  0.00     0.010 A 
ATOM     11  C   UNL A   1      33.826  23.535  22.524  1.00  0.00     0.056 A 
ATOM     12  C   UNL A   1      33.872  25.852  24.072  1.00  0.00     0.020 A 
ATOM     13  C   UNL A   1      33.323  24.730  22.000  1.00  0.00     0.130 A 
BRANCH   9  14
ATOM     14  C   UNL A   1      35.247  22.372  24.234  1.00  0.00     0.024 A 
ATOM     15  C   UNL A   1      34.670  21.195  24.756  1.00  0.00     0.126 A 
ATOM     16  C   UNL A   1      35.463  20.105  25.123  1.00  0.00     0.047 A 
ATOM     17  C   UNL A   1      36.842  20.151  24.940  1.00  0.00     0.004 A 
ATOM     18  C   UNL A   1      36.643  22.400  24.068  1.00  0.00     0.012 A 
ATOM     19  C   UNL A   1      37.433  21.298  24.414  1.00  0.00     0.001 A 
BRANCH  15  20
ATOM     20  O   UNL A   1      33.325  21.068  25.008  1.00  0.00    -0.496 OA
ATOM     21  C   UNL A   1      32.638  20.357  23.976  1.00  0.00     0.278 C 
ENDBRANCH  15  20
ENDBRANCH   9  14
BRANCH  13  22
ATOM     22  O   UNL A   1      32.838  24.750  20.724  1.00  0.00    -0.507 OA
ATOM     23  H   UNL A   1      32.583  25.562  20.333  1.00  0.00     0.293 HD
ENDBRANCH  13  22
ENDBRANCH   6   8
ENDBRANCH   5   6
ENDBRANCH   4   5
ENDBRANCH   3   4
ENDBRANCH   2   3
ENDBRANCH   1   2
BRANCH   1  24
ATOM     24  C   UNL A   1      33.478  28.249  26.619  1.00  0.00     0.261 C 
BRANCH  24  25
ATOM     25  O   UNL A   1      33.717  29.008  27.816  1.00  0.00    -0.460 OA
BRANCH  25  26
ATOM     26  C   UNL A   1      34.479  30.114  27.648  1.00  0.00     0.338 C 
ATOM     27  O   UNL A   1      34.117  31.199  27.209  1.00  0.00    -0.246 OA
BRANCH  26  28
ATOM     28  C   UNL A   1      35.811  29.904  28.241  1.00  0.00     0.060 A 
ATOM     29  C   UNL A   1      36.927  30.100  27.417  1.00  0.00     0.016 A 
ATOM     30  C   UNL A   1      35.969  29.460  29.556  1.00  0.00     0.016 A 
ATOM     31  C   UNL A   1      38.204  29.803  27.888  1.00  0.00     0.010 A 
ATOM     32  C   UNL A   1      37.252  29.155  30.024  1.00  0.00     0.010 A 
ATOM     33  C   UNL A   1      38.369  29.291  29.181  1.00  0.00    -0.014 A 
BRANCH  33  34
ATOM     34  C   UNL A   1      39.691  28.768  29.602  1.00  0.00     0.031 A 
ATOM     35  C   UNL A   1      40.447  29.484  30.688  1.00  0.00     0.074 A 
ATOM     36  C   UNL A   1      40.214  27.674  29.021  1.00  0.00     0.049 A 
ATOM     37  N   UNL A   1      41.626  29.222  31.186  1.00  0.00    -0.248 NA
ATOM     38  C   UNL A   1      39.785  30.654  31.290  1.00  0.00     0.031 C 
ATOM     39  C   UNL A   1      39.578  26.897  27.958  1.00  0.00     0.029 A 
ATOM     40  N   UNL A   1      41.417  27.046  29.226  1.00  0.00    -0.354 N 
ATOM     41  C   UNL A   1      41.863  30.208  32.137  1.00  0.00     0.074 A 
ATOM     42  C   UNL A   1      40.710  31.081  32.138  1.00  0.00     0.031 C 
ATOM     43  C   UNL A   1      40.412  25.912  27.582  1.00  0.00     0.029 A 
ATOM     44  C   UNL A   1      41.645  26.003  28.360  1.00  0.00     0.049 A 
ATOM     45  H   UNL A   1      42.054  27.315  29.926  1.00  0.00     0.167 HD
ATOM     46  C   UNL A   1      42.936  30.362  32.948  1.00  0.00     0.034 A 
ATOM     47  C   UNL A   1      42.736  25.226  28.201  1.00  0.00     0.034 A 
ATOM     48  C   UNL A   1      44.069  29.478  32.964  1.00  0.00     0.049 A 
ATOM     49  C   UNL A   1      43.927  25.435  29.100  1.00  0.00     0.074 A 
ATOM     50  C   UNL A   1      45.176  29.513  33.793  1.00  0.00     0.029 A 
ATOM     51  N   UNL A   1      44.249  28.408  32.102  1.00  0.00    -0.354 N 
ATOM     52  N   UNL A   1      44.080  26.285  30.086  1.00  0.00    -0.248 NA
ATOM     53  C   UNL A   1      45.085  24.554  28.883  1.00  0.00     0.031 C 
ATOM     54  C   UNL A   1      46.039  28.479  33.415  1.00  0.00     0.029 A 
ATOM     55  C   UNL A   1      45.458  27.786  32.364  1.00  0.00     0.049 A 
ATOM     56  H   UNL A   1      43.612  28.131  31.405  1.00  0.00     0.167 HD
ATOM     57  C   UNL A   1      45.337  26.027  30.624  1.00  0.00     0.074 A 
ATOM     58  C   UNL A   1      45.892  24.922  29.870  1.00  0.00     0.031 C 
ATOM     59  C   UNL A   1      45.980  26.657  31.638  1.00  0.00     0.034 A 
BRANCH  46  60
ATOM     60  C   UNL A   1      42.921  31.518  33.913  1.00  0.00     0.023 A 
ATOM     61  C   UNL A   1      43.446  32.764  33.515  1.00  0.00     0.012 A 
ATOM     62  C   UNL A   1      42.340  31.387  35.190  1.00  0.00     0.148 A 
ATOM     63  C   UNL A   1      43.420  33.854  34.383  1.00  0.00     0.002 A 
ATOM     64  C   UNL A   1      42.281  32.490  36.034  1.00  0.00     0.091 A 
ATOM     65  F   UNL A   1      41.868  30.188  35.558  1.00  0.00    -0.205 F 
ATOM     66  C   UNL A   1      42.829  33.720  35.637  1.00  0.00     0.022 A 
BRANCH  64  67
ATOM     67  S   UNL A   1      41.475  32.436  37.639  1.00  0.00     0.127 S 
ATOM     68  O   UNL A   1      40.134  31.977  37.281  1.00  0.00    -0.237 OA
ATOM     69  O   UNL A   1      42.284  31.451  38.357  1.00  0.00    -0.237 OA
ATOM     70  O   UNL A   1      41.552  33.789  38.172  1.00  0.00    -0.744 OA
ENDBRANCH  64  67
ENDBRANCH  46  60
BRANCH  47  71
ATOM     71  C   UNL A   1      42.741  24.157  27.162  1.00  0.00     0.023 A 
ATOM     72  C   UNL A   1      43.386  24.388  25.933  1.00  0.00     0.012 A 
ATOM     73  C   UNL A   1      42.125  22.912  27.392  1.00  0.00     0.148 A 
ATOM     74  C   UNL A   1      43.395  23.407  24.940  1.00  0.00     0.002 A 
ATOM     75  C   UNL A   1      42.185  21.919  26.421  1.00  0.00     0.091 A 
ATOM     76  F   UNL A   1      41.498  22.719  28.561  1.00  0.00    -0.205 F 
ATOM     77  C   UNL A   1      42.806  22.170  25.187  1.00  0.00     0.022 A 
BRANCH  75  78
ATOM     78  S   UNL A   1      41.562  20.258  26.703  1.00  0.00     0.127 S 
ATOM     79  O   UNL A   1      40.136  20.503  26.901  1.00  0.00    -0.237 OA
ATOM     80  O   UNL A   1      41.905  19.589  25.448  1.00  0.00    -0.237 OA
ATOM     81  O   UNL A   1      42.286  19.760  27.865  1.00  0.00    -0.744 OA
ENDBRANCH  75  78
ENDBRANCH  47  71
BRANCH  59  82
ATOM     82  C   UNL A   1      47.354  26.163  32.011  1.00  0.00     0.023 A 
ATOM     83  C   UNL A   1      48.485  26.698  31.363  1.00  0.00     0.012 A 
ATOM     84  C   UNL A   1      47.530  25.235  33.057  1.00  0.00     0.148 A 
ATOM     85  C   UNL A   1      49.769  26.295  31.730  1.00  0.00     0.002 A 
ATOM     86  C   UNL A   1      48.815  24.874  33.448  1.00  0.00     0.091 A 
ATOM     87  F   UNL A   1      46.441  24.725  33.650  1.00  0.00    -0.205 F 
ATOM     88  C   UNL A   1      49.933  25.394  32.779  1.00  0.00     0.022 A 
BRANCH  86  89
ATOM     89  S   UNL A   1      49.128  23.792  34.848  1.00  0.00     0.127 S 
ATOM     90  O   UNL A   1      48.481  22.553  34.419  1.00  0.00    -0.237 OA
ATOM     91  O   UNL A   1      50.589  23.739  34.880  1.00  0.00    -0.237 OA
ATOM     92  O   UNL A   1      48.523  24.444  36.002  1.00  0.00    -0.744 OA
ENDBRANCH  86  89
ENDBRANCH  59  82
ENDBRANCH  33  34
ENDBRANCH  26  28
ENDBRANCH  25  26
ENDBRANCH  24  25
ENDBRANCH   1  24
TORSDOF 20
ENDMDL
MODEL 3
REMARK VINA RESULT:     -11.0      4.545      7.565
REMARK SMILES COc1ccccc1-c1ccc(C(=O)OCCOCCOC(=O)c2ccc(-c3c4nc(c(-c5cccc(S(=O)(=O)[O-])c5F)c5ccc([nH]5)c(-c5cccc(S(=O)(=O)[O-])c5F)c5nc(c(-c6cccc(S(=O)(=O)[O-])c6F)c6ccc3[nH]6)C=C5)C=C4)cc2)c(O)c1
REMARK SMILES IDX 19 1 18 2 17 3 16 4 15 5 13 6 14 7 12 8 9 9 10 10 89 11
REMARK SMILES IDX 11 12 87 13 8 14 3 15 4 16 5 17 7 18 6 19 2 20 1 21 88 22
REMARK SMILES IDX 20 24 21 25 22 26 23 27 24 28 25 29 86 30 26 31 85 32 27 33
REMARK SMILES IDX 28 34 29 35 79 36 30 37 84 38 78 39 80 40 31 41 83 42 77 43
REMARK SMILES IDX 76 44 32 46 64 47 44 48 63 49 45 50 48 51 62 52 81 53 46 54
REMARK SMILES IDX 47 55 61 57 82 58 49 59 33 60 34 61 42 62 35 63 37 64 43 65
REMARK SMILES IDX 36 66 38 67 39 68 40 69 41 70 65 71 66 72 74 73 67 74 69 75
REMARK SMILES IDX 75 76 68 77 70 78 71 79 72 80 73 81 50 82 51 83 59 84 52 85
REMARK SMILES IDX 54 86 60 87 53 88 55 89 56 90 57 91 58 92
REMARK H PARENT 88 23 80 45 48 56
REMARK Flexibility Score: inf
ROOT
ATOM      1  C   UNL A   1      33.394  35.069  29.936  1.00  0.00     0.202 C 
ENDROOT
BRANCH   1   2
ATOM      2  O   UNL A   1      33.438  34.550  31.266  1.00  0.00    -0.374 OA
BRANCH   2   3
ATOM      3  C   UNL A   1      33.060  35.435  32.325  1.00  0.00     0.202 C 
BRANCH   3   4
ATOM      4  C   UNL A   1      34.205  36.029  33.145  1.00  0.00     0.261 C 
BRANCH   4   5
ATOM      5  O   UNL A   1      35.461  35.718  32.530  1.00  0.00    -0.460 OA
BRANCH   5   6
ATOM      6  C   UNL A   1      36.264  34.891  33.233  1.00  0.00     0.341 C 
ATOM      7  O   UNL A   1      35.934  34.177  34.171  1.00  0.00    -0.246 OA
BRANCH   6   8
ATOM      8  C   UNL A   1      37.595  34.771  32.597  1.00  0.00     0.101 A 
ATOM      9  C   UNL A   1      39.974  34.180  31.224  1.00  0.00    -0.011 A 
ATOM     10  C   UNL A   1      38.769  34.327  30.522  1.00  0.00     0.010 A 
ATOM     11  C   UNL A   1      39.994  34.463  32.604  1.00  0.00     0.056 A 
ATOM     12  C   UNL A   1      37.589  34.610  31.203  1.00  0.00     0.020 A 
ATOM     13  C   UNL A   1      38.808  34.748  33.289  1.00  0.00     0.130 A 
BRANCH   9  14
ATOM     14  C   UNL A   1      41.123  33.553  30.556  1.00  0.00     0.024 A 
ATOM     15  C   UNL A   1      42.002  34.301  29.745  1.00  0.00     0.126 A 
ATOM     16  C   UNL A   1      43.117  33.707  29.150  1.00  0.00     0.047 A 
ATOM     17  C   UNL A   1      43.400  32.364  29.384  1.00  0.00     0.004 A 
ATOM     18  C   UNL A   1      41.423  32.196  30.770  1.00  0.00     0.012 A 
ATOM     19  C   UNL A   1      42.554  31.608  30.192  1.00  0.00     0.001 A 
BRANCH  15  20
ATOM     20  O   UNL A   1      41.787  35.621  29.426  1.00  0.00    -0.496 OA
ATOM     21  C   UNL A   1      41.621  35.827  28.021  1.00  0.00     0.278 C 
ENDBRANCH  15  20
ENDBRANCH   9  14
BRANCH  13  22
ATOM     22  O   UNL A   1      38.842  34.926  34.642  1.00  0.00    -0.507 OA
ATOM     23  H   UNL A   1      38.047  34.909  35.136  1.00  0.00     0.293 HD
ENDBRANCH  13  22
ENDBRANCH   6   8
ENDBRANCH   5   6
ENDBRANCH   4   5
ENDBRANCH   3   4
ENDBRANCH   2   3
ENDBRANCH   1   2
BRANCH   1  24
ATOM     24  C   UNL A   1      34.521  34.638  28.989  1.00  0.00     0.261 C 
BRANCH  24  25
ATOM     25  O   UNL A   1      34.024  34.071  27.766  1.00  0.00    -0.460 OA
BRANCH  25  26
ATOM     26  C   UNL A   1      33.783  32.740  27.811  1.00  0.00     0.338 C 
ATOM     27  O   UNL A   1      32.761  32.164  27.458  1.00  0.00    -0.246 OA
BRANCH  26  28
ATOM     28  C   UNL A   1      35.010  32.017  28.188  1.00  0.00     0.060 A 
ATOM     29  C   UNL A   1      34.867  30.727  28.716  1.00  0.00     0.016 A 
ATOM     30  C   UNL A   1      36.272  32.609  28.093  1.00  0.00     0.016 A 
ATOM     31  C   UNL A   1      35.980  30.043  29.199  1.00  0.00     0.010 A 
ATOM     32  C   UNL A   1      37.386  31.923  28.586  1.00  0.00     0.010 A 
ATOM     33  C   UNL A   1      37.240  30.654  29.174  1.00  0.00    -0.014 A 
BRANCH  33  34
ATOM     34  C   UNL A   1      38.378  30.024  29.885  1.00  0.00     0.031 A 
ATOM     35  C   UNL A   1      38.584  30.327  31.344  1.00  0.00     0.074 A 
ATOM     36  C   UNL A   1      39.220  29.197  29.239  1.00  0.00     0.049 A 
ATOM     37  N   UNL A   1      39.527  29.915  32.149  1.00  0.00    -0.248 NA
ATOM     38  C   UNL A   1      37.597  31.217  31.978  1.00  0.00     0.031 C 
ATOM     39  C   UNL A   1      39.123  28.829  27.828  1.00  0.00     0.029 A 
ATOM     40  N   UNL A   1      40.340  28.542  29.685  1.00  0.00    -0.354 N 
ATOM     41  C   UNL A   1      39.267  30.516  33.375  1.00  0.00     0.074 A 
ATOM     42  C   UNL A   1      38.085  31.331  33.205  1.00  0.00     0.031 C 
ATOM     43  C   UNL A   1      40.162  28.035  27.514  1.00  0.00     0.029 A 
ATOM     44  C   UNL A   1      41.006  27.859  28.694  1.00  0.00     0.049 A 
ATOM     45  H   UNL A   1      40.637  28.557  30.623  1.00  0.00     0.167 HD
ATOM     46  C   UNL A   1      39.942  30.387  34.543  1.00  0.00     0.034 A 
ATOM     47  C   UNL A   1      42.175  27.189  28.733  1.00  0.00     0.034 A 
ATOM     48  C   UNL A   1      41.102  29.555  34.716  1.00  0.00     0.049 A 
ATOM     49  C   UNL A   1      42.920  27.081  30.039  1.00  0.00     0.074 A 
ATOM     50  C   UNL A   1      41.818  29.309  35.874  1.00  0.00     0.029 A 
ATOM     51  N   UNL A   1      41.725  28.847  33.701  1.00  0.00    -0.354 N 
ATOM     52  N   UNL A   1      42.588  27.543  31.221  1.00  0.00    -0.248 NA
ATOM     53  C   UNL A   1      44.186  26.333  30.022  1.00  0.00     0.031 C 
ATOM     54  C   UNL A   1      42.890  28.471  35.554  1.00  0.00     0.029 A 
ATOM     55  C   UNL A   1      42.830  28.177  34.201  1.00  0.00     0.049 A 
ATOM     56  H   UNL A   1      41.427  28.823  32.764  1.00  0.00     0.167 HD
ATOM     57  C   UNL A   1      43.587  27.121  32.092  1.00  0.00     0.074 A 
ATOM     58  C   UNL A   1      44.523  26.343  31.306  1.00  0.00     0.031 C 
ATOM     59  C   UNL A   1      43.727  27.367  33.418  1.00  0.00     0.034 A 
BRANCH  46  60
ATOM     60  C   UNL A   1      39.422  31.142  35.736  1.00  0.00     0.023 A 
ATOM     61  C   UNL A   1      38.266  30.683  36.400  1.00  0.00     0.012 A 
ATOM     62  C   UNL A   1      40.104  32.270  36.233  1.00  0.00     0.148 A 
ATOM     63  C   UNL A   1      37.780  31.352  37.522  1.00  0.00     0.002 A 
ATOM     64  C   UNL A   1      39.636  32.907  37.376  1.00  0.00     0.091 A 
ATOM     65  F   UNL A   1      41.186  32.705  35.574  1.00  0.00    -0.205 F 
ATOM     66  C   UNL A   1      38.469  32.456  38.016  1.00  0.00     0.022 A 
BRANCH  64  67
ATOM     67  S   UNL A   1      40.495  34.293  38.131  1.00  0.00     0.127 S 
ATOM     68  O   UNL A   1      41.848  33.758  38.276  1.00  0.00    -0.237 OA
ATOM     69  O   UNL A   1      40.358  35.333  37.110  1.00  0.00    -0.237 OA
ATOM     70  O   UNL A   1      39.795  34.570  39.377  1.00  0.00    -0.744 OA
ENDBRANCH  64  67
ENDBRANCH  46  60
BRANCH  47  71
ATOM     71  C   UNL A   1      42.701  26.541  27.498  1.00  0.00     0.023 A 
ATOM     72  C   UNL A   1      43.482  27.292  26.600  1.00  0.00     0.012 A 
ATOM     73  C   UNL A   1      42.445  25.184  27.220  1.00  0.00     0.148 A 
ATOM     74  C   UNL A   1      43.976  26.711  25.432  1.00  0.00     0.002 A 
ATOM     75  C   UNL A   1      42.986  24.597  26.082  1.00  0.00     0.091 A 
ATOM     76  F   UNL A   1      41.682  24.492  28.077  1.00  0.00    -0.205 F 
ATOM     77  C   UNL A   1      43.739  25.363  25.178  1.00  0.00     0.022 A 
BRANCH  75  78
ATOM     78  S   UNL A   1      42.836  22.840  25.742  1.00  0.00     0.127 S 
ATOM     79  O   UNL A   1      41.403  22.621  25.924  1.00  0.00    -0.237 OA
ATOM     80  O   UNL A   1      43.302  22.758  24.357  1.00  0.00    -0.237 OA
ATOM     81  O   UNL A   1      43.705  22.178  26.706  1.00  0.00    -0.744 OA
ENDBRANCH  75  78
ENDBRANCH  47  71
BRANCH  59  82
ATOM     82  C   UNL A   1      44.926  26.781  34.117  1.00  0.00     0.023 A 
ATOM     83  C   UNL A   1      46.125  27.519  34.180  1.00  0.00     0.012 A 
ATOM     84  C   UNL A   1      44.842  25.541  34.782  1.00  0.00     0.148 A 
ATOM     85  C   UNL A   1      47.231  27.020  34.868  1.00  0.00     0.002 A 
ATOM     86  C   UNL A   1      45.933  25.072  35.505  1.00  0.00     0.091 A 
ATOM     87  F   UNL A   1      43.699  24.846  34.697  1.00  0.00    -0.205 F 
ATOM     88  C   UNL A   1      47.130  25.804  35.539  1.00  0.00     0.022 A 
BRANCH  86  89
ATOM     89  S   UNL A   1      45.868  23.563  36.477  1.00  0.00     0.127 S 
ATOM     90  O   UNL A   1      45.500  22.572  35.467  1.00  0.00    -0.237 OA
ATOM     91  O   UNL A   1      47.240  23.450  36.971  1.00  0.00    -0.237 OA
ATOM     92  O   UNL A   1      44.871  23.796  37.514  1.00  0.00    -0.744 OA
ENDBRANCH  86  89
ENDBRANCH  59  82
ENDBRANCH  33  34
ENDBRANCH  26  28
ENDBRANCH  25  26
ENDBRANCH  24  25
ENDBRANCH   1  24
TORSDOF 20
ENDMDL
