MODEL 1
REMARK VINA RESULT:     -12.4      0.000      0.000
REMARK SMILES O=C(OCCOCCOC(=O)[C@@H]1CCCC[C@H]1C(=O)Nc1cccc(-c2nnc(-c3ccccc3)o2)c1)c1ccc(-c2c3nc(c(-c4cccc(S(=O)(=O)[O-])c4F)c4ccc([nH]4)c(-c4cccc(S(=O)(=O)[O-])c4F)c4nc(c(-c5cccc(S(=O)(=O)[O-])c5F)c5ccc2[nH]5)C=C4)C=C3)cc1
REMARK SMILES IDX 7 1 6 2 5 3 4 4 3 5 2 6 1 7 38 8 39 9 100 10 40 11 99 12
REMARK SMILES IDX 41 13 42 14 43 15 93 16 44 17 98 18 92 19 94 20 45 21 97 22
REMARK SMILES IDX 91 23 90 24 46 26 78 27 58 28 77 29 59 30 62 31 76 32 95 33
REMARK SMILES IDX 60 34 61 35 75 37 96 38 63 39 47 40 48 41 56 42 49 43 51 44
REMARK SMILES IDX 57 45 50 46 52 47 53 48 54 49 55 50 79 51 80 52 88 53 81 54
REMARK SMILES IDX 83 55 89 56 82 57 84 58 85 59 86 60 87 61 64 62 65 63 73 64
REMARK SMILES IDX 66 65 68 66 74 67 67 68 69 69 70 70 71 71 72 72 8 73 9 74
REMARK SMILES IDX 10 75 11 76 12 77 13 78 17 79 14 80 16 81 15 82 18 83 19 84
REMARK SMILES IDX 20 85 21 87 22 88 37 89 23 90 25 91 24 92 26 93 27 94 36 95
REMARK SMILES IDX 28 96 29 97 30 98 31 99 35 100 32 101 34 102 33 103
REMARK H PARENT 94 25 62 36 20 86
REMARK Flexibility Score: inf
ROOT
ATOM      1  C   UNL A   1      33.868  27.465  23.059  1.00  0.00     0.202 C 
ENDROOT
BRANCH   1   2
ATOM      2  O   UNL A   1      34.005  26.972  24.389  1.00  0.00    -0.374 OA
BRANCH   2   3
ATOM      3  C   UNL A   1      33.486  27.822  25.405  1.00  0.00     0.202 C 
BRANCH   3   4
ATOM      4  C   UNL A   1      33.215  29.277  25.016  1.00  0.00     0.261 C 
BRANCH   4   5
ATOM      5  O   UNL A   1      32.608  29.996  26.108  1.00  0.00    -0.460 OA
BRANCH   5   6
ATOM      6  C   UNL A   1      33.183  30.993  26.828  1.00  0.00     0.338 C 
ATOM      7  O   UNL A   1      32.641  32.091  26.903  1.00  0.00    -0.246 OA
BRANCH   6   8
ATOM      8  C   UNL A   1      34.452  30.754  27.560  1.00  0.00     0.060 A 
ATOM      9  C   UNL A   1      34.780  29.500  28.060  1.00  0.00     0.016 A 
ATOM     10  C   UNL A   1      35.369  31.795  27.719  1.00  0.00     0.016 A 
ATOM     11  C   UNL A   1      35.879  29.295  28.857  1.00  0.00     0.010 A 
ATOM     12  C   UNL A   1      36.565  31.564  28.406  1.00  0.00     0.010 A 
ATOM     13  C   UNL A   1      36.808  30.314  28.994  1.00  0.00    -0.014 A 
BRANCH  13  14
ATOM     14  C   UNL A   1      38.012  30.009  29.779  1.00  0.00     0.031 A 
ATOM     15  C   UNL A   1      39.091  29.199  29.145  1.00  0.00     0.074 A 
ATOM     16  C   UNL A   1      38.149  30.567  30.998  1.00  0.00     0.049 A 
ATOM     17  N   UNL A   1      40.168  28.706  29.685  1.00  0.00    -0.248 NA
ATOM     18  C   UNL A   1      38.940  28.902  27.709  1.00  0.00     0.031 C 
ATOM     19  C   UNL A   1      37.180  31.475  31.626  1.00  0.00     0.029 A 
ATOM     20  N   UNL A   1      39.159  30.483  31.914  1.00  0.00    -0.354 N 
ATOM     21  C   UNL A   1      40.776  27.962  28.686  1.00  0.00     0.074 A 
ATOM     22  C   UNL A   1      39.976  28.106  27.489  1.00  0.00     0.031 C 
ATOM     23  C   UNL A   1      37.660  31.888  32.807  1.00  0.00     0.029 A 
ATOM     24  C   UNL A   1      38.908  31.190  33.069  1.00  0.00     0.049 A 
ATOM     25  H   UNL A   1      39.984  29.967  31.765  1.00  0.00     0.167 HD
ATOM     26  C   UNL A   1      41.894  27.211  28.782  1.00  0.00     0.034 A 
ATOM     27  C   UNL A   1      39.588  31.216  34.228  1.00  0.00     0.034 A 
ATOM     28  C   UNL A   1      42.669  27.129  29.989  1.00  0.00     0.049 A 
ATOM     29  C   UNL A   1      40.818  30.358  34.316  1.00  0.00     0.074 A 
ATOM     30  C   UNL A   1      43.788  26.366  30.251  1.00  0.00     0.029 A 
ATOM     31  N   UNL A   1      42.396  27.859  31.141  1.00  0.00    -0.354 N 
ATOM     32  N   UNL A   1      41.369  29.616  33.381  1.00  0.00    -0.248 NA
ATOM     33  C   UNL A   1      41.514  30.326  35.604  1.00  0.00     0.031 C 
ATOM     34  C   UNL A   1      44.185  26.627  31.568  1.00  0.00     0.029 A 
ATOM     35  C   UNL A   1      43.325  27.569  32.118  1.00  0.00     0.049 A 
ATOM     36  H   UNL A   1      41.647  28.490  31.243  1.00  0.00     0.167 HD
ATOM     37  C   UNL A   1      42.483  29.035  33.963  1.00  0.00     0.074 A 
ATOM     38  C   UNL A   1      42.547  29.539  35.323  1.00  0.00     0.031 C 
ATOM     39  C   UNL A   1      43.363  28.145  33.441  1.00  0.00     0.034 A 
BRANCH  26  40
ATOM     40  C   UNL A   1      42.279  26.400  27.578  1.00  0.00     0.023 A 
ATOM     41  C   UNL A   1      42.911  27.016  26.479  1.00  0.00     0.012 A 
ATOM     42  C   UNL A   1      41.967  25.028  27.516  1.00  0.00     0.148 A 
ATOM     43  C   UNL A   1      43.192  26.287  25.323  1.00  0.00     0.002 A 
ATOM     44  C   UNL A   1      42.283  24.300  26.374  1.00  0.00     0.091 A 
ATOM     45  F   UNL A   1      41.335  24.468  28.557  1.00  0.00    -0.205 F 
ATOM     46  C   UNL A   1      42.883  24.930  25.272  1.00  0.00     0.022 A 
BRANCH  44  47
ATOM     47  S   UNL A   1      41.962  22.538  26.232  1.00  0.00     0.127 S 
ATOM     48  O   UNL A   1      40.504  22.511  26.130  1.00  0.00    -0.237 OA
ATOM     49  O   UNL A   1      42.666  22.198  24.995  1.00  0.00    -0.237 OA
ATOM     50  O   UNL A   1      42.516  21.929  27.433  1.00  0.00    -0.744 OA
ENDBRANCH  44  47
ENDBRANCH  26  40
BRANCH  27  51
ATOM     51  C   UNL A   1      39.109  32.050  35.369  1.00  0.00     0.023 A 
ATOM     52  C   UNL A   1      38.183  31.514  36.282  1.00  0.00     0.012 A 
ATOM     53  C   UNL A   1      39.606  33.353  35.590  1.00  0.00     0.148 A 
ATOM     54  C   UNL A   1      37.747  32.261  37.380  1.00  0.00     0.002 A 
ATOM     55  C   UNL A   1      39.215  34.067  36.717  1.00  0.00     0.091 A 
ATOM     56  F   UNL A   1      40.468  33.866  34.700  1.00  0.00    -0.205 F 
ATOM     57  C   UNL A   1      38.274  33.530  37.605  1.00  0.00     0.022 A 
BRANCH  55  58
ATOM     58  S   UNL A   1      39.960  35.646  37.153  1.00  0.00     0.127 S 
ATOM     59  O   UNL A   1      41.366  35.283  37.296  1.00  0.00    -0.237 OA
ATOM     60  O   UNL A   1      39.650  36.466  35.981  1.00  0.00    -0.237 OA
ATOM     61  O   UNL A   1      39.281  36.070  38.371  1.00  0.00    -0.744 OA
ENDBRANCH  55  58
ENDBRANCH  27  51
BRANCH  39  62
ATOM     62  C   UNL A   1      44.475  27.690  34.339  1.00  0.00     0.023 A 
ATOM     63  C   UNL A   1      45.660  28.448  34.417  1.00  0.00     0.012 A 
ATOM     64  C   UNL A   1      44.303  26.570  35.171  1.00  0.00     0.148 A 
ATOM     65  C   UNL A   1      46.670  28.082  35.303  1.00  0.00     0.002 A 
ATOM     66  C   UNL A   1      45.292  26.240  36.085  1.00  0.00     0.091 A 
ATOM     67  F   UNL A   1      43.174  25.853  35.054  1.00  0.00    -0.205 F 
ATOM     68  C   UNL A   1      46.479  26.988  36.147  1.00  0.00     0.022 A 
BRANCH  66  69
ATOM     69  S   UNL A   1      45.078  24.914  37.275  1.00  0.00     0.127 S 
ATOM     70  O   UNL A   1      46.368  24.921  37.963  1.00  0.00    -0.237 OA
ATOM     71  O   UNL A   1      43.955  25.395  38.080  1.00  0.00    -0.237 OA
ATOM     72  O   UNL A   1      44.789  23.720  36.493  1.00  0.00    -0.744 OA
ENDBRANCH  66  69
ENDBRANCH  39  62
ENDBRANCH  13  14
ENDBRANCH   6   8
ENDBRANCH   5   6
ENDBRANCH   4   5
ENDBRANCH   3   4
ENDBRANCH   2   3
ENDBRANCH   1   2
BRANCH   1  73
ATOM     73  C   UNL A   1      33.678  26.292  22.110  1.00  0.00     0.261 C 
BRANCH  73  74
ATOM     74  O   UNL A   1      34.545  25.214  22.515  1.00  0.00    -0.463 OA
BRANCH  74  75
ATOM     75  C   UNL A   1      33.939  24.017  22.737  1.00  0.00     0.309 C 
ATOM     76  O   UNL A   1      33.119  23.492  21.995  1.00  0.00    -0.252 OA
BRANCH  75  77
ATOM     77  C   UNL A   1      34.363  23.408  24.062  1.00  0.00     0.111 C 
ATOM     78  C   UNL A   1      35.822  23.825  24.331  1.00  0.00     0.016 C 
ATOM     79  C   UNL A   1      34.151  21.888  24.184  1.00  0.00     0.093 C 
ATOM     80  C   UNL A   1      36.303  23.304  25.674  1.00  0.00     0.001 C 
ATOM     81  C   UNL A   1      34.749  21.339  25.494  1.00  0.00     0.014 C 
ATOM     82  C   UNL A   1      36.187  21.788  25.719  1.00  0.00     0.001 C 
BRANCH  79  83
ATOM     83  C   UNL A   1      32.776  21.194  24.019  1.00  0.00     0.228 C 
ATOM     84  O   UNL A   1      32.780  19.991  23.703  1.00  0.00    -0.274 OA
ATOM     85  N   UNL A   1      31.553  21.671  24.377  1.00  0.00    -0.326 N 
ATOM     86  H   UNL A   1      30.800  21.067  24.184  1.00  0.00     0.169 HD
BRANCH  85  87
ATOM     87  C   UNL A   1      31.197  22.877  24.972  1.00  0.00     0.041 A 
ATOM     88  C   UNL A   1      31.462  23.052  26.328  1.00  0.00     0.026 A 
ATOM     89  C   UNL A   1      30.633  23.907  24.242  1.00  0.00     0.040 A 
ATOM     90  C   UNL A   1      31.355  24.325  26.886  1.00  0.00     0.003 A 
ATOM     91  C   UNL A   1      30.632  25.207  24.748  1.00  0.00     0.041 A 
ATOM     92  C   UNL A   1      30.999  25.411  26.082  1.00  0.00     0.014 A 
BRANCH  91  93
ATOM     93  C   UNL A   1      30.542  26.316  23.814  1.00  0.00     0.248 A 
ATOM     94  N   UNL A   1      30.784  26.288  22.518  1.00  0.00    -0.107 NA
ATOM     95  O   UNL A   1      29.927  27.469  24.222  1.00  0.00    -0.416 OA
ATOM     96  N   UNL A   1      30.276  27.459  22.005  1.00  0.00    -0.107 NA
ATOM     97  C   UNL A   1      29.800  28.139  23.030  1.00  0.00     0.248 A 
BRANCH  97  98
ATOM     98  C   UNL A   1      29.195  29.459  23.051  1.00  0.00     0.039 A 
ATOM     99  C   UNL A   1      28.195  29.786  22.124  1.00  0.00     0.014 A 
ATOM    100  C   UNL A   1      29.652  30.447  23.933  1.00  0.00     0.014 A 
ATOM    101  C   UNL A   1      27.667  31.079  22.076  1.00  0.00     0.001 A 
ATOM    102  C   UNL A   1      29.137  31.744  23.871  1.00  0.00     0.001 A 
ATOM    103  C   UNL A   1      28.147  32.059  22.943  1.00  0.00     0.000 A 
ENDBRANCH  97  98
ENDBRANCH  91  93
ENDBRANCH  85  87
ENDBRANCH  79  83
ENDBRANCH  75  77
ENDBRANCH  74  75
ENDBRANCH  73  74
ENDBRANCH   1  73
TORSDOF 21
ENDMDL
MODEL 2
REMARK VINA RESULT:     -11.8      1.791      2.068
REMARK SMILES O=C(OCCOCCOC(=O)[C@@H]1CCCC[C@H]1C(=O)Nc1cccc(-c2nnc(-c3ccccc3)o2)c1)c1ccc(-c2c3nc(c(-c4cccc(S(=O)(=O)[O-])c4F)c4ccc([nH]4)c(-c4cccc(S(=O)(=O)[O-])c4F)c4nc(c(-c5cccc(S(=O)(=O)[O-])c5F)c5ccc2[nH]5)C=C4)C=C3)cc1
REMARK SMILES IDX 7 1 6 2 5 3 4 4 3 5 2 6 1 7 38 8 39 9 100 10 40 11 99 12
REMARK SMILES IDX 41 13 42 14 43 15 93 16 44 17 98 18 92 19 94 20 45 21 97 22
REMARK SMILES IDX 91 23 90 24 46 26 78 27 58 28 77 29 59 30 62 31 76 32 95 33
REMARK SMILES IDX 60 34 61 35 75 37 96 38 63 39 47 40 48 41 56 42 49 43 51 44
REMARK SMILES IDX 57 45 50 46 52 47 53 48 54 49 55 50 79 51 80 52 88 53 81 54
REMARK SMILES IDX 83 55 89 56 82 57 84 58 85 59 86 60 87 61 64 62 65 63 73 64
REMARK SMILES IDX 66 65 68 66 74 67 67 68 69 69 70 70 71 71 72 72 8 73 9 74
REMARK SMILES IDX 10 75 11 76 12 77 13 78 17 79 14 80 16 81 15 82 18 83 19 84
REMARK SMILES IDX 20 85 21 87 22 88 37 89 23 90 25 91 24 92 26 93 27 94 36 95
REMARK SMILES IDX 28 96 29 97 30 98 31 99 35 100 32 101 34 102 33 103
REMARK H PARENT 94 25 62 36 20 86
REMARK Flexibility Score: inf
ROOT
ATOM      1  C   UNL A   1      33.859  27.633  23.032  1.00  0.00     0.202 C 
ENDROOT
BRANCH   1   2
ATOM      2  O   UNL A   1      33.440  27.519  24.389  1.00  0.00    -0.374 OA
BRANCH   2   3
ATOM      3  C   UNL A   1      33.912  28.544  25.255  1.00  0.00     0.202 C 
BRANCH   3   4
ATOM      4  C   UNL A   1      33.046  29.800  25.376  1.00  0.00     0.261 C 
BRANCH   4   5
ATOM      5  O   UNL A   1      32.948  30.225  26.750  1.00  0.00    -0.460 OA
BRANCH   5   6
ATOM      6  C   UNL A   1      33.675  31.212  27.336  1.00  0.00     0.338 C 
ATOM      7  O   UNL A   1      33.248  32.361  27.358  1.00  0.00    -0.246 OA
BRANCH   6   8
ATOM      8  C   UNL A   1      34.972  30.901  27.987  1.00  0.00     0.060 A 
ATOM      9  C   UNL A   1      35.232  29.651  28.535  1.00  0.00     0.016 A 
ATOM     10  C   UNL A   1      35.982  31.865  28.017  1.00  0.00     0.016 A 
ATOM     11  C   UNL A   1      36.369  29.394  29.262  1.00  0.00     0.010 A 
ATOM     12  C   UNL A   1      37.204  31.567  28.629  1.00  0.00     0.010 A 
ATOM     13  C   UNL A   1      37.387  30.333  29.270  1.00  0.00    -0.014 A 
BRANCH  13  14
ATOM     14  C   UNL A   1      38.619  29.966  29.983  1.00  0.00     0.031 A 
ATOM     15  C   UNL A   1      39.601  29.077  29.299  1.00  0.00     0.074 A 
ATOM     16  C   UNL A   1      38.870  30.536  31.178  1.00  0.00     0.049 A 
ATOM     17  N   UNL A   1      40.678  28.526  29.780  1.00  0.00    -0.248 NA
ATOM     18  C   UNL A   1      39.338  28.764  27.883  1.00  0.00     0.031 C 
ATOM     19  C   UNL A   1      38.004  31.516  31.847  1.00  0.00     0.029 A 
ATOM     20  N   UNL A   1      39.931  30.404  32.029  1.00  0.00    -0.354 N 
ATOM     21  C   UNL A   1      41.170  27.727  28.760  1.00  0.00     0.074 A 
ATOM     22  C   UNL A   1      40.305  27.900  27.615  1.00  0.00     0.031 C 
ATOM     23  C   UNL A   1      38.584  31.919  32.985  1.00  0.00     0.029 A 
ATOM     24  C   UNL A   1      39.801  31.147  33.181  1.00  0.00     0.049 A 
ATOM     25  H   UNL A   1      40.711  29.834  31.839  1.00  0.00     0.167 HD
ATOM     26  C   UNL A   1      42.243  26.907  28.801  1.00  0.00     0.034 A 
ATOM     27  C   UNL A   1      40.556  31.151  34.293  1.00  0.00     0.034 A 
ATOM     28  C   UNL A   1      43.089  26.798  29.957  1.00  0.00     0.049 A 
ATOM     29  C   UNL A   1      41.732  30.216  34.321  1.00  0.00     0.074 A 
ATOM     30  C   UNL A   1      44.173  25.969  30.164  1.00  0.00     0.029 A 
ATOM     31  N   UNL A   1      42.939  27.564  31.107  1.00  0.00    -0.354 N 
ATOM     32  N   UNL A   1      42.173  29.424  33.370  1.00  0.00    -0.248 NA
ATOM     33  C   UNL A   1      42.509  30.163  35.562  1.00  0.00     0.031 C 
ATOM     34  C   UNL A   1      44.671  26.228  31.446  1.00  0.00     0.029 A 
ATOM     35  C   UNL A   1      43.910  27.233  32.029  1.00  0.00     0.049 A 
ATOM     36  H   UNL A   1      42.239  28.244  31.244  1.00  0.00     0.167 HD
ATOM     37  C   UNL A   1      43.285  28.783  33.891  1.00  0.00     0.074 A 
ATOM     38  C   UNL A   1      43.469  29.307  35.233  1.00  0.00     0.031 C 
ATOM     39  C   UNL A   1      44.071  27.829  33.334  1.00  0.00     0.034 A 
BRANCH  26  40
ATOM     40  C   UNL A   1      42.497  26.051  27.593  1.00  0.00     0.023 A 
ATOM     41  C   UNL A   1      43.112  26.600  26.450  1.00  0.00     0.012 A 
ATOM     42  C   UNL A   1      42.076  24.707  27.574  1.00  0.00     0.148 A 
ATOM     43  C   UNL A   1      43.271  25.835  25.294  1.00  0.00     0.002 A 
ATOM     44  C   UNL A   1      42.271  23.940  26.430  1.00  0.00     0.091 A 
ATOM     45  F   UNL A   1      41.461  24.214  28.658  1.00  0.00    -0.205 F 
ATOM     46  C   UNL A   1      42.856  24.506  25.286  1.00  0.00     0.022 A 
BRANCH  44  47
ATOM     47  S   UNL A   1      41.807  22.207  26.338  1.00  0.00     0.127 S 
ATOM     48  O   UNL A   1      42.652  21.734  25.243  1.00  0.00    -0.237 OA
ATOM     49  O   UNL A   1      42.193  21.716  27.661  1.00  0.00    -0.237 OA
ATOM     50  O   UNL A   1      40.375  22.186  26.077  1.00  0.00    -0.744 OA
ENDBRANCH  44  47
ENDBRANCH  26  40
BRANCH  27  51
ATOM     51  C   UNL A   1      40.206  32.034  35.443  1.00  0.00     0.023 A 
ATOM     52  C   UNL A   1      40.843  33.282  35.582  1.00  0.00     0.012 A 
ATOM     53  C   UNL A   1      39.205  31.675  36.372  1.00  0.00     0.148 A 
ATOM     54  C   UNL A   1      40.506  34.144  36.628  1.00  0.00     0.002 A 
ATOM     55  C   UNL A   1      38.832  32.563  37.375  1.00  0.00     0.091 A 
ATOM     56  F   UNL A   1      38.623  30.474  36.248  1.00  0.00    -0.205 F 
ATOM     57  C   UNL A   1      39.491  33.791  37.515  1.00  0.00     0.022 A 
BRANCH  55  58
ATOM     58  S   UNL A   1      37.436  32.243  38.462  1.00  0.00     0.127 S 
ATOM     59  O   UNL A   1      36.391  33.064  37.858  1.00  0.00    -0.237 OA
ATOM     60  O   UNL A   1      37.251  30.799  38.309  1.00  0.00    -0.237 OA
ATOM     61  O   UNL A   1      37.879  32.647  39.790  1.00  0.00    -0.744 OA
ENDBRANCH  55  58
ENDBRANCH  27  51
BRANCH  39  62
ATOM     62  C   UNL A   1      45.209  27.321  34.168  1.00  0.00     0.023 A 
ATOM     63  C   UNL A   1      45.019  26.196  34.992  1.00  0.00     0.012 A 
ATOM     64  C   UNL A   1      46.484  27.903  34.057  1.00  0.00     0.148 A 
ATOM     65  C   UNL A   1      46.086  25.665  35.713  1.00  0.00     0.002 A 
ATOM     66  C   UNL A   1      47.552  27.340  34.739  1.00  0.00     0.091 A 
ATOM     67  F   UNL A   1      46.627  28.990  33.285  1.00  0.00    -0.205 F 
ATOM     68  C   UNL A   1      47.354  26.227  35.574  1.00  0.00     0.022 A 
BRANCH  66  69
ATOM     69  S   UNL A   1      49.231  27.938  34.532  1.00  0.00     0.127 S 
ATOM     70  O   UNL A   1      49.260  28.255  33.105  1.00  0.00    -0.237 OA
ATOM     71  O   UNL A   1      49.259  29.104  35.417  1.00  0.00    -0.237 OA
ATOM     72  O   UNL A   1      50.098  26.845  34.951  1.00  0.00    -0.744 OA
ENDBRANCH  66  69
ENDBRANCH  39  62
ENDBRANCH  13  14
ENDBRANCH   6   8
ENDBRANCH   5   6
ENDBRANCH   4   5
ENDBRANCH   3   4
ENDBRANCH   2   3
ENDBRANCH   1   2
BRANCH   1  73
ATOM     73  C   UNL A   1      34.005  26.240  22.438  1.00  0.00     0.261 C 
BRANCH  73  74
ATOM     74  O   UNL A   1      33.750  25.261  23.465  1.00  0.00    -0.463 OA
BRANCH  74  75
ATOM     75  C   UNL A   1      34.105  23.982  23.166  1.00  0.00     0.309 C 
ATOM     76  O   UNL A   1      34.016  23.464  22.060  1.00  0.00    -0.252 OA
BRANCH  75  77
ATOM     77  C   UNL A   1      34.590  23.231  24.393  1.00  0.00     0.111 C 
ATOM     78  C   UNL A   1      36.044  23.660  24.668  1.00  0.00     0.016 C 
ATOM     79  C   UNL A   1      34.426  21.702  24.335  1.00  0.00     0.093 C 
ATOM     80  C   UNL A   1      36.585  22.997  25.923  1.00  0.00     0.001 C 
ATOM     81  C   UNL A   1      35.083  21.018  25.550  1.00  0.00     0.014 C 
ATOM     82  C   UNL A   1      36.515  21.484  25.787  1.00  0.00     0.001 C 
BRANCH  79  83
ATOM     83  C   UNL A   1      33.067  20.988  24.127  1.00  0.00     0.228 C 
ATOM     84  O   UNL A   1      33.099  19.794  23.780  1.00  0.00    -0.274 OA
ATOM     85  N   UNL A   1      31.829  21.434  24.474  1.00  0.00    -0.326 N 
ATOM     86  H   UNL A   1      31.092  20.822  24.251  1.00  0.00     0.169 HD
BRANCH  85  87
ATOM     87  C   UNL A   1      31.442  22.618  25.093  1.00  0.00     0.041 A 
ATOM     88  C   UNL A   1      31.733  22.788  26.443  1.00  0.00     0.026 A 
ATOM     89  C   UNL A   1      30.820  23.633  24.389  1.00  0.00     0.040 A 
ATOM     90  C   UNL A   1      31.589  24.049  27.020  1.00  0.00     0.003 A 
ATOM     91  C   UNL A   1      30.780  24.927  24.912  1.00  0.00     0.041 A 
ATOM     92  C   UNL A   1      31.171  25.129  26.239  1.00  0.00     0.014 A 
BRANCH  91  93
ATOM     93  C   UNL A   1      30.623  26.042  23.994  1.00  0.00     0.248 A 
ATOM     94  N   UNL A   1      30.829  26.037  22.692  1.00  0.00    -0.107 NA
ATOM     95  O   UNL A   1      29.979  27.167  24.434  1.00  0.00    -0.416 OA
ATOM     96  N   UNL A   1      30.264  27.195  22.208  1.00  0.00    -0.107 NA
ATOM     97  C   UNL A   1      29.794  27.846  23.254  1.00  0.00     0.248 A 
BRANCH  97  98
ATOM     98  C   UNL A   1      29.143  29.142  23.308  1.00  0.00     0.039 A 
ATOM     99  C   UNL A   1      27.869  29.311  22.747  1.00  0.00     0.014 A 
ATOM    100  C   UNL A   1      29.803  30.257  23.841  1.00  0.00     0.014 A 
ATOM    101  C   UNL A   1      27.268  30.572  22.714  1.00  0.00     0.001 A 
ATOM    102  C   UNL A   1      29.210  31.521  23.791  1.00  0.00     0.001 A 
ATOM    103  C   UNL A   1      27.945  31.678  23.227  1.00  0.00     0.000 A 
ENDBRANCH  97  98
ENDBRANCH  91  93
ENDBRANCH  85  87
ENDBRANCH  79  83
ENDBRANCH  75  77
ENDBRANCH  74  75
ENDBRANCH  73  74
ENDBRANCH   1  73
TORSDOF 21
ENDMDL
MODEL 3
REMARK VINA RESULT:     -10.6      1.782      2.412
REMARK SMILES O=C(OCCOCCOC(=O)[C@@H]1CCCC[C@H]1C(=O)Nc1cccc(-c2nnc(-c3ccccc3)o2)c1)c1ccc(-c2c3nc(c(-c4cccc(S(=O)(=O)[O-])c4F)c4ccc([nH]4)c(-c4cccc(S(=O)(=O)[O-])c4F)c4nc(c(-c5cccc(S(=O)(=O)[O-])c5F)c5ccc2[nH]5)C=C4)C=C3)cc1
REMARK SMILES IDX 7 1 6 2 5 3 4 4 3 5 2 6 1 7 38 8 39 9 100 10 40 11 99 12
REMARK SMILES IDX 41 13 42 14 43 15 93 16 44 17 98 18 92 19 94 20 45 21 97 22
REMARK SMILES IDX 91 23 90 24 46 26 78 27 58 28 77 29 59 30 62 31 76 32 95 33
REMARK SMILES IDX 60 34 61 35 75 37 96 38 63 39 47 40 48 41 56 42 49 43 51 44
REMARK SMILES IDX 57 45 50 46 52 47 53 48 54 49 55 50 79 51 80 52 88 53 81 54
REMARK SMILES IDX 83 55 89 56 82 57 84 58 85 59 86 60 87 61 64 62 65 63 73 64
REMARK SMILES IDX 66 65 68 66 74 67 67 68 69 69 70 70 71 71 72 72 8 73 9 74
REMARK SMILES IDX 10 75 11 76 12 77 13 78 17 79 14 80 16 81 15 82 18 83 19 84
REMARK SMILES IDX 20 85 21 87 22 88 37 89 23 90 25 91 24 92 26 93 27 94 36 95
REMARK SMILES IDX 28 96 29 97 30 98 31 99 35 100 32 101 34 102 33 103
REMARK H PARENT 94 25 62 36 20 86
REMARK Flexibility Score: inf
ROOT
ATOM      1  C   UNL A   1      33.893  26.722  23.752  1.00  0.00     0.202 C 
ENDROOT
BRANCH   1   2
ATOM      2  O   UNL A   1      33.686  26.764  25.161  1.00  0.00    -0.374 OA
BRANCH   2   3
ATOM      3  C   UNL A   1      33.827  28.049  25.754  1.00  0.00     0.202 C 
BRANCH   3   4
ATOM      4  C   UNL A   1      32.536  28.780  26.132  1.00  0.00     0.261 C 
BRANCH   4   5
ATOM      5  O   UNL A   1      32.769  29.706  27.212  1.00  0.00    -0.460 OA
BRANCH   5   6
ATOM      6  C   UNL A   1      33.693  30.700  27.229  1.00  0.00     0.338 C 
ATOM      7  O   UNL A   1      33.495  31.737  26.603  1.00  0.00    -0.246 OA
BRANCH   6   8
ATOM      8  C   UNL A   1      34.932  30.558  28.034  1.00  0.00     0.060 A 
ATOM      9  C   UNL A   1      35.515  29.318  28.263  1.00  0.00     0.016 A 
ATOM     10  C   UNL A   1      35.564  31.695  28.542  1.00  0.00     0.016 A 
ATOM     11  C   UNL A   1      36.576  29.156  29.118  1.00  0.00     0.010 A 
ATOM     12  C   UNL A   1      36.734  31.557  29.297  1.00  0.00     0.010 A 
ATOM     13  C   UNL A   1      37.227  30.280  29.601  1.00  0.00    -0.014 A 
BRANCH  13  14
ATOM     14  C   UNL A   1      38.415  30.049  30.435  1.00  0.00     0.031 A 
ATOM     15  C   UNL A   1      39.516  29.204  29.889  1.00  0.00     0.074 A 
ATOM     16  C   UNL A   1      38.519  30.700  31.610  1.00  0.00     0.049 A 
ATOM     17  N   UNL A   1      40.584  28.766  30.490  1.00  0.00    -0.248 NA
ATOM     18  C   UNL A   1      39.401  28.797  28.477  1.00  0.00     0.031 C 
ATOM     19  C   UNL A   1      37.528  31.643  32.145  1.00  0.00     0.029 A 
ATOM     20  N   UNL A   1      39.508  30.696  32.553  1.00  0.00    -0.354 N 
ATOM     21  C   UNL A   1      41.221  27.954  29.564  1.00  0.00     0.074 A 
ATOM     22  C   UNL A   1      40.449  27.997  28.342  1.00  0.00     0.031 C 
ATOM     23  C   UNL A   1      37.976  32.150  33.301  1.00  0.00     0.029 A 
ATOM     24  C   UNL A   1      39.224  31.487  33.644  1.00  0.00     0.049 A 
ATOM     25  H   UNL A   1      40.341  30.180  32.462  1.00  0.00     0.167 HD
ATOM     26  C   UNL A   1      42.343  27.223  29.743  1.00  0.00     0.034 A 
ATOM     27  C   UNL A   1      39.877  31.609  34.812  1.00  0.00     0.034 A 
ATOM     28  C   UNL A   1      43.091  27.243  30.969  1.00  0.00     0.049 A 
ATOM     29  C   UNL A   1      41.111  30.772  34.993  1.00  0.00     0.074 A 
ATOM     30  C   UNL A   1      44.211  26.514  31.314  1.00  0.00     0.029 A 
ATOM     31  N   UNL A   1      42.785  28.055  32.055  1.00  0.00    -0.354 N 
ATOM     32  N   UNL A   1      41.690  29.967  34.131  1.00  0.00    -0.248 NA
ATOM     33  C   UNL A   1      41.778  30.846  36.296  1.00  0.00     0.031 C 
ATOM     34  C   UNL A   1      44.574  26.878  32.617  1.00  0.00     0.029 A 
ATOM     35  C   UNL A   1      43.693  27.850  33.073  1.00  0.00     0.049 A 
ATOM     36  H   UNL A   1      42.028  28.685  32.093  1.00  0.00     0.167 HD
ATOM     37  C   UNL A   1      42.796  29.444  34.781  1.00  0.00     0.074 A 
ATOM     38  C   UNL A   1      42.823  30.052  36.099  1.00  0.00     0.031 C 
ATOM     39  C   UNL A   1      43.696  28.526  34.349  1.00  0.00     0.034 A 
BRANCH  26  40
ATOM     40  C   UNL A   1      42.764  26.327  28.614  1.00  0.00     0.023 A 
ATOM     41  C   UNL A   1      42.168  25.061  28.451  1.00  0.00     0.012 A 
ATOM     42  C   UNL A   1      43.793  26.725  27.737  1.00  0.00     0.148 A 
ATOM     43  C   UNL A   1      42.615  24.188  27.458  1.00  0.00     0.002 A 
ATOM     44  C   UNL A   1      44.208  25.864  26.727  1.00  0.00     0.091 A 
ATOM     45  F   UNL A   1      44.371  27.918  27.929  1.00  0.00    -0.205 F 
ATOM     46  C   UNL A   1      43.630  24.591  26.594  1.00  0.00     0.022 A 
BRANCH  44  47
ATOM     47  S   UNL A   1      45.480  26.311  25.539  1.00  0.00     0.127 S 
ATOM     48  O   UNL A   1      44.900  27.503  24.922  1.00  0.00    -0.237 OA
ATOM     49  O   UNL A   1      46.630  26.570  26.404  1.00  0.00    -0.237 OA
ATOM     50  O   UNL A   1      45.630  25.161  24.658  1.00  0.00    -0.744 OA
ENDBRANCH  44  47
ENDBRANCH  26  40
BRANCH  27  51
ATOM     51  C   UNL A   1      39.364  32.523  35.875  1.00  0.00     0.023 A 
ATOM     52  C   UNL A   1      38.452  32.036  36.830  1.00  0.00     0.012 A 
ATOM     53  C   UNL A   1      39.814  33.856  35.982  1.00  0.00     0.148 A 
ATOM     54  C   UNL A   1      37.986  32.861  37.857  1.00  0.00     0.002 A 
ATOM     55  C   UNL A   1      39.394  34.652  37.042  1.00  0.00     0.091 A 
ATOM     56  F   UNL A   1      40.663  34.319  35.052  1.00  0.00    -0.205 F 
ATOM     57  C   UNL A   1      38.468  34.163  37.971  1.00  0.00     0.022 A 
BRANCH  55  58
ATOM     58  S   UNL A   1      40.082  36.287  37.339  1.00  0.00     0.127 S 
ATOM     59  O   UNL A   1      39.222  36.784  38.409  1.00  0.00    -0.237 OA
ATOM     60  O   UNL A   1      41.454  35.976  37.744  1.00  0.00    -0.237 OA
ATOM     61  O   UNL A   1      39.983  36.986  36.063  1.00  0.00    -0.744 OA
ENDBRANCH  55  58
ENDBRANCH  27  51
BRANCH  39  62
ATOM     62  C   UNL A   1      44.791  28.154  35.303  1.00  0.00     0.023 A 
ATOM     63  C   UNL A   1      46.026  28.826  35.241  1.00  0.00     0.012 A 
ATOM     64  C   UNL A   1      44.556  27.208  36.317  1.00  0.00     0.148 A 
ATOM     65  C   UNL A   1      47.025  28.545  36.170  1.00  0.00     0.002 A 
ATOM     66  C   UNL A   1      45.538  26.969  37.267  1.00  0.00     0.091 A 
ATOM     67  F   UNL A   1      43.379  26.565  36.333  1.00  0.00    -0.205 F 
ATOM     68  C   UNL A   1      46.775  27.630  37.191  1.00  0.00     0.022 A 
BRANCH  66  69
ATOM     69  S   UNL A   1      45.256  25.886  38.670  1.00  0.00     0.127 S 
ATOM     70  O   UNL A   1      44.328  26.678  39.476  1.00  0.00    -0.237 OA
ATOM     71  O   UNL A   1      44.662  24.706  38.039  1.00  0.00    -0.237 OA
ATOM     72  O   UNL A   1      46.565  25.654  39.264  1.00  0.00    -0.744 OA
ENDBRANCH  66  69
ENDBRANCH  39  62
ENDBRANCH  13  14
ENDBRANCH   6   8
ENDBRANCH   5   6
ENDBRANCH   4   5
ENDBRANCH   3   4
ENDBRANCH   2   3
ENDBRANCH   1   2
BRANCH   1  73
ATOM     73  C   UNL A   1      34.144  25.283  23.327  1.00  0.00     0.261 C 
BRANCH  73  74
ATOM     74  O   UNL A   1      34.769  24.573  24.416  1.00  0.00    -0.463 OA
BRANCH  74  75
ATOM     75  C   UNL A   1      35.596  23.553  24.062  1.00  0.00     0.309 C 
ATOM     76  O   UNL A   1      35.594  22.985  22.978  1.00  0.00    -0.252 OA
BRANCH  75  77
ATOM     77  C   UNL A   1      36.515  23.153  25.202  1.00  0.00     0.111 C 
ATOM     78  C   UNL A   1      37.584  24.251  25.360  1.00  0.00     0.016 C 
ATOM     79  C   UNL A   1      37.127  21.744  25.090  1.00  0.00     0.093 C 
ATOM     80  C   UNL A   1      38.510  23.954  26.526  1.00  0.00     0.001 C 
ATOM     81  C   UNL A   1      38.158  21.487  26.205  1.00  0.00     0.014 C 
ATOM     82  C   UNL A   1      39.186  22.606  26.328  1.00  0.00     0.001 C 
BRANCH  79  83
ATOM     83  C   UNL A   1      36.288  20.447  24.977  1.00  0.00     0.228 C 
ATOM     84  O   UNL A   1      36.900  19.395  24.721  1.00  0.00    -0.274 OA
ATOM     85  N   UNL A   1      34.985  20.263  25.326  1.00  0.00    -0.326 N 
ATOM     86  H   UNL A   1      34.641  19.355  25.173  1.00  0.00     0.169 HD
BRANCH  85  87
ATOM     87  C   UNL A   1      34.065  21.156  25.865  1.00  0.00     0.041 A 
ATOM     88  C   UNL A   1      34.285  21.642  27.151  1.00  0.00     0.026 A 
ATOM     89  C   UNL A   1      32.973  21.597  25.139  1.00  0.00     0.040 A 
ATOM     90  C   UNL A   1      33.530  22.720  27.612  1.00  0.00     0.003 A 
ATOM     91  C   UNL A   1      32.287  22.747  25.533  1.00  0.00     0.041 A 
ATOM     92  C   UNL A   1      32.575  23.309  26.780  1.00  0.00     0.014 A 
BRANCH  91  93
ATOM     93  C   UNL A   1      31.530  23.479  24.533  1.00  0.00     0.248 A 
ATOM     94  N   UNL A   1      30.900  22.982  23.487  1.00  0.00    -0.107 NA
ATOM     95  O   UNL A   1      31.213  24.788  24.779  1.00  0.00    -0.416 OA
ATOM     96  N   UNL A   1      30.081  23.982  23.017  1.00  0.00    -0.107 NA
ATOM     97  C   UNL A   1      30.303  25.035  23.780  1.00  0.00     0.248 A 
BRANCH  97  98
ATOM     98  C   UNL A   1      29.734  26.367  23.689  1.00  0.00     0.039 A 
ATOM     99  C   UNL A   1      28.347  26.546  23.789  1.00  0.00     0.014 A 
ATOM    100  C   UNL A   1      30.544  27.478  23.420  1.00  0.00     0.014 A 
ATOM    101  C   UNL A   1      27.779  27.811  23.615  1.00  0.00     0.001 A 
ATOM    102  C   UNL A   1      29.974  28.739  23.228  1.00  0.00     0.001 A 
ATOM    103  C   UNL A   1      28.593  28.904  23.324  1.00  0.00     0.000 A 
ENDBRANCH  97  98
ENDBRANCH  91  93
ENDBRANCH  85  87
ENDBRANCH  79  83
ENDBRANCH  75  77
ENDBRANCH  74  75
ENDBRANCH  73  74
ENDBRANCH   1  73
TORSDOF 21
ENDMDL
