MODEL 1
REMARK VINA RESULT:      -9.0      0.000      0.000
REMARK SMILES O=C(CCC(=O)OCCOCCOC(=O)c1ccc(-c2c3nc(c(-c4cccc(S(=O)(=O)[O-])c4F)c4ccc([nH]4)c(-c4cccc(S(=O)(=O)[O-])c4F)c4nc(c(-c5cccc(S(=O)(=O)[O-])c5F)c5ccc2[nH]5)C=C4)C=C3)cc1)NCCCO
REMARK SMILES IDX 8 1 7 2 5 3 6 4 4 5 3 6 2 7 1 8 79 9 80 11 81 12 82 13 83 14
REMARK SMILES IDX 9 16 10 17 11 18 12 19 13 20 14 21 15 22 16 23 17 24 78 25
REMARK SMILES IDX 18 26 77 27 19 28 20 29 21 30 71 31 22 32 76 33 70 34 72 35
REMARK SMILES IDX 23 36 75 37 69 38 68 39 24 41 56 42 36 43 55 44 37 45 40 46
REMARK SMILES IDX 54 47 73 48 38 49 39 50 53 52 74 53 41 54 25 55 26 56 34 57
REMARK SMILES IDX 27 58 29 59 35 60 28 61 30 62 31 63 32 64 33 65 57 66 58 67
REMARK SMILES IDX 66 68 59 69 61 70 67 71 60 72 62 73 63 74 64 75 65 76 42 77
REMARK SMILES IDX 43 78 51 79 44 80 46 81 52 82 45 83 47 84 48 85 49 86 50 87
REMARK H PARENT 79 10 83 15 72 40 40 51
REMARK Flexibility Score: inf
ROOT
ATOM      1  C   UNL A   1      33.759  34.977  30.728  1.00  0.00     0.261 C 
ENDROOT
BRANCH   1   2
ATOM      2  O   UNL A   1      33.110  34.945  32.020  1.00  0.00    -0.463 OA
BRANCH   2   3
ATOM      3  C   UNL A   1      33.279  36.036  32.814  1.00  0.00     0.306 C 
ATOM      4  O   UNL A   1      32.533  37.006  32.855  1.00  0.00    -0.252 OA
BRANCH   3   5
ATOM      5  C   UNL A   1      34.553  35.945  33.621  1.00  0.00     0.132 C 
BRANCH   5   6
ATOM      6  C   UNL A   1      34.930  34.528  34.034  1.00  0.00     0.111 C 
BRANCH   6   7
ATOM      7  C   UNL A   1      36.301  34.137  33.531  1.00  0.00     0.220 C 
ATOM      8  O   UNL A   1      36.969  33.278  34.096  1.00  0.00    -0.275 OA
ATOM      9  N   UNL A   1      36.696  34.805  32.402  1.00  0.00    -0.356 N 
ATOM     10  H   UNL A   1      36.051  35.403  31.961  1.00  0.00     0.163 HD
BRANCH   9  11
ATOM     11  C   UNL A   1      38.019  34.671  31.825  1.00  0.00     0.118 C 
BRANCH  11  12
ATOM     12  C   UNL A   1      38.067  33.650  30.697  1.00  0.00     0.049 C 
BRANCH  12  13
ATOM     13  C   UNL A   1      36.834  33.638  29.806  1.00  0.00     0.158 C 
BRANCH  13  14
ATOM     14  O   UNL A   1      37.139  33.709  28.424  1.00  0.00    -0.396 OA
ATOM     15  H   UNL A   1      37.150  32.814  28.049  1.00  0.00     0.210 HD
ENDBRANCH  13  14
ENDBRANCH  12  13
ENDBRANCH  11  12
ENDBRANCH   9  11
ENDBRANCH   6   7
ENDBRANCH   5   6
ENDBRANCH   3   5
ENDBRANCH   2   3
ENDBRANCH   1   2
BRANCH   1  16
ATOM     16  C   UNL A   1      32.909  35.713  29.685  1.00  0.00     0.202 C 
BRANCH  16  17
ATOM     17  O   UNL A   1      32.598  34.921  28.533  1.00  0.00    -0.374 OA
BRANCH  17  18
ATOM     18  C   UNL A   1      33.702  34.200  27.988  1.00  0.00     0.202 C 
BRANCH  18  19
ATOM     19  C   UNL A   1      33.425  32.714  27.747  1.00  0.00     0.261 C 
BRANCH  19  20
ATOM     20  O   UNL A   1      34.634  32.006  27.418  1.00  0.00    -0.460 OA
BRANCH  20  21
ATOM     21  C   UNL A   1      34.583  30.659  27.598  1.00  0.00     0.338 C 
ATOM     22  O   UNL A   1      33.696  29.909  27.249  1.00  0.00    -0.246 OA
BRANCH  21  23
ATOM     23  C   UNL A   1      35.861  30.188  28.183  1.00  0.00     0.060 A 
ATOM     24  C   UNL A   1      37.011  30.277  27.389  1.00  0.00     0.016 A 
ATOM     25  C   UNL A   1      35.946  29.668  29.478  1.00  0.00     0.016 A 
ATOM     26  C   UNL A   1      38.241  29.831  27.880  1.00  0.00     0.010 A 
ATOM     27  C   UNL A   1      37.186  29.242  29.975  1.00  0.00     0.010 A 
ATOM     28  C   UNL A   1      38.342  29.298  29.173  1.00  0.00    -0.014 A 
BRANCH  28  29
ATOM     29  C   UNL A   1      39.636  28.733  29.644  1.00  0.00     0.031 A 
ATOM     30  C   UNL A   1      40.303  29.322  30.858  1.00  0.00     0.074 A 
ATOM     31  C   UNL A   1      40.229  27.703  29.005  1.00  0.00     0.049 A 
ATOM     32  N   UNL A   1      41.335  28.876  31.526  1.00  0.00    -0.248 NA
ATOM     33  C   UNL A   1      39.741  30.575  31.388  1.00  0.00     0.031 C 
ATOM     34  C   UNL A   1      39.740  27.056  27.789  1.00  0.00     0.029 A 
ATOM     35  N   UNL A   1      41.392  27.028  29.289  1.00  0.00    -0.354 N 
ATOM     36  C   UNL A   1      41.545  29.788  32.553  1.00  0.00     0.074 A 
ATOM     37  C   UNL A   1      40.573  30.846  32.382  1.00  0.00     0.031 C 
ATOM     38  C   UNL A   1      40.608  26.101  27.413  1.00  0.00     0.029 A 
ATOM     39  C   UNL A   1      41.694  26.034  28.386  1.00  0.00     0.049 A 
ATOM     40  H   UNL A   1      41.957  27.235  30.068  1.00  0.00     0.167 HD
ATOM     41  C   UNL A   1      42.426  29.732  33.578  1.00  0.00     0.034 A 
ATOM     42  C   UNL A   1      42.703  25.140  28.367  1.00  0.00     0.034 A 
ATOM     43  C   UNL A   1      43.375  28.672  33.773  1.00  0.00     0.049 A 
ATOM     44  C   UNL A   1      43.667  25.087  29.525  1.00  0.00     0.074 A 
ATOM     45  C   UNL A   1      44.237  28.468  34.837  1.00  0.00     0.029 A 
ATOM     46  N   UNL A   1      43.606  27.646  32.871  1.00  0.00    -0.354 N 
ATOM     47  N   UNL A   1      43.685  25.808  30.619  1.00  0.00    -0.248 NA
ATOM     48  C   UNL A   1      44.704  24.046  29.476  1.00  0.00     0.031 C 
ATOM     49  C   UNL A   1      45.002  27.327  34.567  1.00  0.00     0.029 A 
ATOM     50  C   UNL A   1      44.607  26.814  33.343  1.00  0.00     0.049 A 
ATOM     51  H   UNL A   1      43.127  27.526  32.020  1.00  0.00     0.167 HD
ATOM     52  C   UNL A   1      44.693  25.269  31.413  1.00  0.00     0.074 A 
ATOM     53  C   UNL A   1      45.254  24.155  30.677  1.00  0.00     0.031 C 
ATOM     54  C   UNL A   1      45.116  25.665  32.639  1.00  0.00     0.034 A 
BRANCH  41  55
ATOM     55  C   UNL A   1      42.344  30.826  34.608  1.00  0.00     0.023 A 
ATOM     56  C   UNL A   1      41.483  30.665  35.714  1.00  0.00     0.012 A 
ATOM     57  C   UNL A   1      43.108  32.000  34.491  1.00  0.00     0.148 A 
ATOM     58  C   UNL A   1      41.349  31.675  36.664  1.00  0.00     0.002 A 
ATOM     59  C   UNL A   1      42.999  32.988  35.463  1.00  0.00     0.091 A 
ATOM     60  F   UNL A   1      43.900  32.146  33.418  1.00  0.00    -0.205 F 
ATOM     61  C   UNL A   1      42.112  32.833  36.542  1.00  0.00     0.022 A 
BRANCH  59  62
ATOM     62  S   UNL A   1      43.987  34.487  35.424  1.00  0.00     0.127 S 
ATOM     63  O   UNL A   1      45.343  33.943  35.358  1.00  0.00    -0.237 OA
ATOM     64  O   UNL A   1      43.529  35.129  34.191  1.00  0.00    -0.237 OA
ATOM     65  O   UNL A   1      43.656  35.211  36.643  1.00  0.00    -0.744 OA
ENDBRANCH  59  62
ENDBRANCH  41  55
BRANCH  42  66
ATOM     66  C   UNL A   1      42.783  24.118  27.286  1.00  0.00     0.023 A 
ATOM     67  C   UNL A   1      43.513  24.416  26.118  1.00  0.00     0.012 A 
ATOM     68  C   UNL A   1      42.134  22.874  27.393  1.00  0.00     0.148 A 
ATOM     69  C   UNL A   1      43.560  23.512  25.056  1.00  0.00     0.002 A 
ATOM     70  C   UNL A   1      42.215  21.962  26.347  1.00  0.00     0.091 A 
ATOM     71  F   UNL A   1      41.444  22.614  28.512  1.00  0.00    -0.205 F 
ATOM     72  C   UNL A   1      42.914  22.285  25.172  1.00  0.00     0.022 A 
BRANCH  70  73
ATOM     73  S   UNL A   1      41.496  20.318  26.434  1.00  0.00     0.127 S 
ATOM     74  O   UNL A   1      42.141  19.650  25.306  1.00  0.00    -0.237 OA
ATOM     75  O   UNL A   1      41.939  19.868  27.754  1.00  0.00    -0.237 OA
ATOM     76  O   UNL A   1      40.057  20.513  26.315  1.00  0.00    -0.744 OA
ENDBRANCH  70  73
ENDBRANCH  42  66
BRANCH  54  77
ATOM     77  C   UNL A   1      46.214  24.869  33.296  1.00  0.00     0.023 A 
ATOM     78  C   UNL A   1      47.551  25.305  33.202  1.00  0.00     0.012 A 
ATOM     79  C   UNL A   1      45.915  23.727  34.064  1.00  0.00     0.148 A 
ATOM     80  C   UNL A   1      48.575  24.598  33.832  1.00  0.00     0.002 A 
ATOM     81  C   UNL A   1      46.935  23.056  34.732  1.00  0.00     0.091 A 
ATOM     82  F   UNL A   1      44.642  23.307  34.125  1.00  0.00    -0.205 F 
ATOM     83  C   UNL A   1      48.266  23.482  34.607  1.00  0.00     0.022 A 
BRANCH  81  84
ATOM     84  S   UNL A   1      46.596  21.676  35.833  1.00  0.00     0.127 S 
ATOM     85  O   UNL A   1      45.574  22.238  36.713  1.00  0.00    -0.237 OA
ATOM     86  O   UNL A   1      46.108  20.648  34.912  1.00  0.00    -0.237 OA
ATOM     87  O   UNL A   1      47.871  21.357  36.461  1.00  0.00    -0.744 OA
ENDBRANCH  81  84
ENDBRANCH  54  77
ENDBRANCH  28  29
ENDBRANCH  21  23
ENDBRANCH  20  21
ENDBRANCH  19  20
ENDBRANCH  18  19
ENDBRANCH  17  18
ENDBRANCH  16  17
ENDBRANCH   1  16
TORSDOF 23
ENDMDL
MODEL 2
REMARK VINA RESULT:      -8.5      1.358      8.143
REMARK SMILES O=C(CCC(=O)OCCOCCOC(=O)c1ccc(-c2c3nc(c(-c4cccc(S(=O)(=O)[O-])c4F)c4ccc([nH]4)c(-c4cccc(S(=O)(=O)[O-])c4F)c4nc(c(-c5cccc(S(=O)(=O)[O-])c5F)c5ccc2[nH]5)C=C4)C=C3)cc1)NCCCO
REMARK SMILES IDX 8 1 7 2 5 3 6 4 4 5 3 6 2 7 1 8 79 9 80 11 81 12 82 13 83 14
REMARK SMILES IDX 9 16 10 17 11 18 12 19 13 20 14 21 15 22 16 23 17 24 78 25
REMARK SMILES IDX 18 26 77 27 19 28 20 29 21 30 71 31 22 32 76 33 70 34 72 35
REMARK SMILES IDX 23 36 75 37 69 38 68 39 24 41 56 42 36 43 55 44 37 45 40 46
REMARK SMILES IDX 54 47 73 48 38 49 39 50 53 52 74 53 41 54 25 55 26 56 34 57
REMARK SMILES IDX 27 58 29 59 35 60 28 61 30 62 31 63 32 64 33 65 57 66 58 67
REMARK SMILES IDX 66 68 59 69 61 70 67 71 60 72 62 73 63 74 64 75 65 76 42 77
REMARK SMILES IDX 43 78 51 79 44 80 46 81 52 82 45 83 47 84 48 85 49 86 50 87
REMARK H PARENT 79 10 83 15 72 40 40 51
REMARK Flexibility Score: inf
ROOT
ATOM      1  C   UNL A   1      33.746  35.036  30.950  1.00  0.00     0.261 C 
ENDROOT
BRANCH   1   2
ATOM      2  O   UNL A   1      33.194  35.224  32.272  1.00  0.00    -0.463 OA
BRANCH   2   3
ATOM      3  C   UNL A   1      33.830  36.117  33.078  1.00  0.00     0.306 C 
ATOM      4  O   UNL A   1      33.428  37.241  33.347  1.00  0.00    -0.252 OA
BRANCH   3   5
ATOM      5  C   UNL A   1      35.151  35.576  33.572  1.00  0.00     0.132 C 
BRANCH   5   6
ATOM      6  C   UNL A   1      35.039  34.276  34.357  1.00  0.00     0.111 C 
BRANCH   6   7
ATOM      7  C   UNL A   1      35.896  33.179  33.765  1.00  0.00     0.220 C 
ATOM      8  O   UNL A   1      36.509  32.391  34.476  1.00  0.00    -0.275 OA
ATOM      9  N   UNL A   1      35.896  33.146  32.395  1.00  0.00    -0.356 N 
ATOM     10  H   UNL A   1      35.292  33.755  31.911  1.00  0.00     0.163 HD
BRANCH   9  11
ATOM     11  C   UNL A   1      36.742  32.256  31.625  1.00  0.00     0.118 C 
BRANCH  11  12
ATOM     12  C   UNL A   1      37.220  32.882  30.322  1.00  0.00     0.049 C 
BRANCH  12  13
ATOM     13  C   UNL A   1      38.317  33.923  30.488  1.00  0.00     0.158 C 
BRANCH  13  14
ATOM     14  O   UNL A   1      37.973  34.963  31.386  1.00  0.00    -0.396 OA
ATOM     15  H   UNL A   1      37.343  34.629  32.043  1.00  0.00     0.210 HD
ENDBRANCH  13  14
ENDBRANCH  12  13
ENDBRANCH  11  12
ENDBRANCH   9  11
ENDBRANCH   6   7
ENDBRANCH   5   6
ENDBRANCH   3   5
ENDBRANCH   2   3
ENDBRANCH   1   2
BRANCH   1  16
ATOM     16  C   UNL A   1      32.884  35.709  29.875  1.00  0.00     0.202 C 
BRANCH  16  17
ATOM     17  O   UNL A   1      32.711  34.916  28.695  1.00  0.00    -0.374 OA
BRANCH  17  18
ATOM     18  C   UNL A   1      33.881  34.223  28.264  1.00  0.00     0.202 C 
BRANCH  18  19
ATOM     19  C   UNL A   1      33.678  32.720  28.050  1.00  0.00     0.261 C 
BRANCH  19  20
ATOM     20  O   UNL A   1      34.908  32.079  27.666  1.00  0.00    -0.460 OA
BRANCH  20  21
ATOM     21  C   UNL A   1      34.857  30.722  27.603  1.00  0.00     0.338 C 
ATOM     22  O   UNL A   1      33.965  30.046  27.135  1.00  0.00    -0.246 OA
BRANCH  21  23
ATOM     23  C   UNL A   1      36.141  30.155  28.080  1.00  0.00     0.060 A 
ATOM     24  C   UNL A   1      36.140  29.491  29.313  1.00  0.00     0.016 A 
ATOM     25  C   UNL A   1      37.326  30.262  27.346  1.00  0.00     0.016 A 
ATOM     26  C   UNL A   1      37.325  28.952  29.823  1.00  0.00     0.010 A 
ATOM     27  C   UNL A   1      38.508  29.701  27.850  1.00  0.00     0.010 A 
ATOM     28  C   UNL A   1      38.524  29.061  29.104  1.00  0.00    -0.014 A 
BRANCH  28  29
ATOM     29  C   UNL A   1      39.796  28.573  29.705  1.00  0.00     0.031 A 
ATOM     30  C   UNL A   1      40.513  27.407  29.077  1.00  0.00     0.074 A 
ATOM     31  C   UNL A   1      40.323  29.152  30.804  1.00  0.00     0.049 A 
ATOM     32  N   UNL A   1      41.705  26.938  29.339  1.00  0.00    -0.248 NA
ATOM     33  C   UNL A   1      39.796  26.671  28.023  1.00  0.00     0.031 C 
ATOM     34  C   UNL A   1      39.728  30.254  31.558  1.00  0.00     0.029 A 
ATOM     35  N   UNL A   1      41.483  28.876  31.488  1.00  0.00    -0.354 N 
ATOM     36  C   UNL A   1      41.883  25.857  28.484  1.00  0.00     0.074 A 
ATOM     37  C   UNL A   1      40.652  25.701  27.741  1.00  0.00     0.031 C 
ATOM     38  C   UNL A   1      40.507  30.540  32.616  1.00  0.00     0.029 A 
ATOM     39  C   UNL A   1      41.682  29.674  32.592  1.00  0.00     0.049 A 
ATOM     40  H   UNL A   1      42.114  28.172  31.213  1.00  0.00     0.167 HD
ATOM     41  C   UNL A   1      42.984  25.094  28.291  1.00  0.00     0.034 A 
ATOM     42  C   UNL A   1      42.713  29.735  33.458  1.00  0.00     0.034 A 
ATOM     43  C   UNL A   1      44.220  25.260  29.003  1.00  0.00     0.049 A 
ATOM     44  C   UNL A   1      43.934  28.884  33.217  1.00  0.00     0.074 A 
ATOM     45  C   UNL A   1      45.424  24.609  28.805  1.00  0.00     0.029 A 
ATOM     46  N   UNL A   1      44.404  26.125  30.068  1.00  0.00    -0.354 N 
ATOM     47  N   UNL A   1      44.177  28.046  32.241  1.00  0.00    -0.248 NA
ATOM     48  C   UNL A   1      45.050  29.047  34.160  1.00  0.00     0.031 C 
ATOM     49  C   UNL A   1      46.333  25.069  29.766  1.00  0.00     0.029 A 
ATOM     50  C   UNL A   1      45.696  26.016  30.552  1.00  0.00     0.049 A 
ATOM     51  H   UNL A   1      43.716  26.730  30.429  1.00  0.00     0.167 HD
ATOM     52  C   UNL A   1      45.493  27.628  32.417  1.00  0.00     0.074 A 
ATOM     53  C   UNL A   1      45.996  28.315  33.588  1.00  0.00     0.031 C 
ATOM     54  C   UNL A   1      46.216  26.752  31.676  1.00  0.00     0.034 A 
BRANCH  41  55
ATOM     55  C   UNL A   1      42.909  24.054  27.206  1.00  0.00     0.023 A 
ATOM     56  C   UNL A   1      43.446  24.347  25.935  1.00  0.00     0.012 A 
ATOM     57  C   UNL A   1      42.319  22.798  27.436  1.00  0.00     0.148 A 
ATOM     58  C   UNL A   1      43.356  23.424  24.895  1.00  0.00     0.002 A 
ATOM     59  C   UNL A   1      42.267  21.868  26.405  1.00  0.00     0.091 A 
ATOM     60  F   UNL A   1      41.789  22.549  28.643  1.00  0.00    -0.205 F 
ATOM     61  C   UNL A   1      42.773  22.183  25.132  1.00  0.00     0.022 A 
BRANCH  59  62
ATOM     62  S   UNL A   1      41.592  20.219  26.632  1.00  0.00     0.127 S 
ATOM     63  O   UNL A   1      42.002  19.560  25.393  1.00  0.00    -0.237 OA
ATOM     64  O   UNL A   1      42.296  19.757  27.829  1.00  0.00    -0.237 OA
ATOM     65  O   UNL A   1      40.157  20.400  26.806  1.00  0.00    -0.744 OA
ENDBRANCH  59  62
ENDBRANCH  41  55
BRANCH  42  66
ATOM     66  C   UNL A   1      42.710  30.737  34.561  1.00  0.00     0.023 A 
ATOM     67  C   UNL A   1      42.369  30.317  35.863  1.00  0.00     0.012 A 
ATOM     68  C   UNL A   1      43.020  32.090  34.334  1.00  0.00     0.148 A 
ATOM     69  C   UNL A   1      42.293  31.235  36.911  1.00  0.00     0.002 A 
ATOM     70  C   UNL A   1      42.979  32.994  35.390  1.00  0.00     0.091 A 
ATOM     71  F   UNL A   1      43.339  32.466  33.088  1.00  0.00    -0.205 F 
ATOM     72  C   UNL A   1      42.601  32.571  36.675  1.00  0.00     0.022 A 
BRANCH  70  73
ATOM     73  S   UNL A   1      43.446  34.719  35.211  1.00  0.00     0.127 S 
ATOM     74  O   UNL A   1      44.809  34.607  34.695  1.00  0.00    -0.237 OA
ATOM     75  O   UNL A   1      42.458  35.197  34.244  1.00  0.00    -0.237 OA
ATOM     76  O   UNL A   1      43.320  35.299  36.540  1.00  0.00    -0.744 OA
ENDBRANCH  70  73
ENDBRANCH  42  66
BRANCH  54  77
ATOM     77  C   UNL A   1      47.649  26.508  32.074  1.00  0.00     0.023 A 
ATOM     78  C   UNL A   1      48.666  27.355  31.588  1.00  0.00     0.012 A 
ATOM     79  C   UNL A   1      47.981  25.484  32.982  1.00  0.00     0.148 A 
ATOM     80  C   UNL A   1      49.993  27.164  31.974  1.00  0.00     0.002 A 
ATOM     81  C   UNL A   1      49.298  25.332  33.401  1.00  0.00     0.091 A 
ATOM     82  F   UNL A   1      47.008  24.669  33.415  1.00  0.00    -0.205 F 
ATOM     83  C   UNL A   1      50.308  26.162  32.889  1.00  0.00     0.022 A 
BRANCH  81  84
ATOM     84  S   UNL A   1      49.757  24.132  34.658  1.00  0.00     0.127 S 
ATOM     85  O   UNL A   1      48.855  24.484  35.753  1.00  0.00    -0.237 OA
ATOM     86  O   UNL A   1      49.454  22.857  34.006  1.00  0.00    -0.237 OA
ATOM     87  O   UNL A   1      51.176  24.351  34.907  1.00  0.00    -0.744 OA
ENDBRANCH  81  84
ENDBRANCH  54  77
ENDBRANCH  28  29
ENDBRANCH  21  23
ENDBRANCH  20  21
ENDBRANCH  19  20
ENDBRANCH  18  19
ENDBRANCH  17  18
ENDBRANCH  16  17
ENDBRANCH   1  16
TORSDOF 23
ENDMDL
MODEL 3
REMARK VINA RESULT:      -7.7      4.116      8.571
REMARK SMILES O=C(CCC(=O)OCCOCCOC(=O)c1ccc(-c2c3nc(c(-c4cccc(S(=O)(=O)[O-])c4F)c4ccc([nH]4)c(-c4cccc(S(=O)(=O)[O-])c4F)c4nc(c(-c5cccc(S(=O)(=O)[O-])c5F)c5ccc2[nH]5)C=C4)C=C3)cc1)NCCCO
REMARK SMILES IDX 8 1 7 2 5 3 6 4 4 5 3 6 2 7 1 8 79 9 80 11 81 12 82 13 83 14
REMARK SMILES IDX 9 16 10 17 11 18 12 19 13 20 14 21 15 22 16 23 17 24 78 25
REMARK SMILES IDX 18 26 77 27 19 28 20 29 21 30 71 31 22 32 76 33 70 34 72 35
REMARK SMILES IDX 23 36 75 37 69 38 68 39 24 41 56 42 36 43 55 44 37 45 40 46
REMARK SMILES IDX 54 47 73 48 38 49 39 50 53 52 74 53 41 54 25 55 26 56 34 57
REMARK SMILES IDX 27 58 29 59 35 60 28 61 30 62 31 63 32 64 33 65 57 66 58 67
REMARK SMILES IDX 66 68 59 69 61 70 67 71 60 72 62 73 63 74 64 75 65 76 42 77
REMARK SMILES IDX 43 78 51 79 44 80 46 81 52 82 45 83 47 84 48 85 49 86 50 87
REMARK H PARENT 79 10 83 15 72 40 40 51
REMARK Flexibility Score: inf
ROOT
ATOM      1  C   UNL A   1      36.460  34.526  32.738  1.00  0.00     0.261 C 
ENDROOT
BRANCH   1   2
ATOM      2  O   UNL A   1      35.294  34.610  33.588  1.00  0.00    -0.463 OA
BRANCH   2   3
ATOM      3  C   UNL A   1      34.085  34.638  32.966  1.00  0.00     0.306 C 
ATOM      4  O   UNL A   1      33.352  33.673  32.796  1.00  0.00    -0.252 OA
BRANCH   3   5
ATOM      5  C   UNL A   1      33.760  36.018  32.442  1.00  0.00     0.132 C 
BRANCH   5   6
ATOM      6  C   UNL A   1      32.550  36.066  31.519  1.00  0.00     0.111 C 
BRANCH   6   7
ATOM      7  C   UNL A   1      32.940  35.923  30.065  1.00  0.00     0.220 C 
ATOM      8  O   UNL A   1      32.298  36.468  29.173  1.00  0.00    -0.275 OA
ATOM      9  N   UNL A   1      34.062  35.164  29.857  1.00  0.00    -0.356 N 
ATOM     10  H   UNL A   1      34.569  34.852  30.641  1.00  0.00     0.163 HD
BRANCH   9  11
ATOM     11  C   UNL A   1      34.538  34.800  28.537  1.00  0.00     0.118 C 
BRANCH  11  12
ATOM     12  C   UNL A   1      34.337  33.323  28.227  1.00  0.00     0.049 C 
BRANCH  12  13
ATOM     13  C   UNL A   1      33.065  33.010  27.452  1.00  0.00     0.158 C 
BRANCH  13  14
ATOM     14  O   UNL A   1      32.093  34.037  27.529  1.00  0.00    -0.396 OA
ATOM     15  H   UNL A   1      32.497  34.838  27.897  1.00  0.00     0.210 HD
ENDBRANCH  13  14
ENDBRANCH  12  13
ENDBRANCH  11  12
ENDBRANCH   9  11
ENDBRANCH   6   7
ENDBRANCH   5   6
ENDBRANCH   3   5
ENDBRANCH   2   3
ENDBRANCH   1   2
BRANCH   1  16
ATOM     16  C   UNL A   1      36.567  33.156  32.056  1.00  0.00     0.202 C 
BRANCH  16  17
ATOM     17  O   UNL A   1      36.343  32.054  32.942  1.00  0.00    -0.374 OA
BRANCH  17  18
ATOM     18  C   UNL A   1      36.801  30.794  32.455  1.00  0.00     0.202 C 
BRANCH  18  19
ATOM     19  C   UNL A   1      36.287  30.436  31.057  1.00  0.00     0.261 C 
BRANCH  19  20
ATOM     20  O   UNL A   1      37.128  29.450  30.431  1.00  0.00    -0.460 OA
BRANCH  20  21
ATOM     21  C   UNL A   1      38.031  29.942  29.541  1.00  0.00     0.338 C 
ATOM     22  O   UNL A   1      37.841  30.804  28.710  1.00  0.00    -0.246 OA
BRANCH  21  23
ATOM     23  C   UNL A   1      39.366  29.360  29.816  1.00  0.00     0.060 A 
ATOM     24  C   UNL A   1      39.448  27.972  29.986  1.00  0.00     0.016 A 
ATOM     25  C   UNL A   1      40.521  30.143  29.908  1.00  0.00     0.016 A 
ATOM     26  C   UNL A   1      40.677  27.369  30.267  1.00  0.00     0.010 A 
ATOM     27  C   UNL A   1      41.755  29.531  30.168  1.00  0.00     0.010 A 
ATOM     28  C   UNL A   1      41.842  28.142  30.373  1.00  0.00    -0.014 A 
BRANCH  28  29
ATOM     29  C   UNL A   1      43.125  27.499  30.772  1.00  0.00     0.031 A 
ATOM     30  C   UNL A   1      44.052  26.972  29.709  1.00  0.00     0.074 A 
ATOM     31  C   UNL A   1      43.476  27.375  32.069  1.00  0.00     0.049 A 
ATOM     32  N   UNL A   1      45.278  26.534  29.832  1.00  0.00    -0.248 NA
ATOM     33  C   UNL A   1      43.534  26.927  28.332  1.00  0.00     0.031 C 
ATOM     34  C   UNL A   1      42.669  27.786  33.216  1.00  0.00     0.029 A 
ATOM     35  N   UNL A   1      44.610  26.848  32.639  1.00  0.00    -0.354 N 
ATOM     36  C   UNL A   1      45.679  26.166  28.554  1.00  0.00     0.074 A 
ATOM     37  C   UNL A   1      44.544  26.371  27.682  1.00  0.00     0.031 C 
ATOM     38  C   UNL A   1      43.315  27.469  34.351  1.00  0.00     0.029 A 
ATOM     39  C   UNL A   1      44.605  26.873  34.015  1.00  0.00     0.049 A 
ATOM     40  H   UNL A   1      45.358  26.485  32.112  1.00  0.00     0.167 HD
ATOM     41  C   UNL A   1      46.892  25.745  28.128  1.00  0.00     0.034 A 
ATOM     42  C   UNL A   1      45.548  26.504  34.905  1.00  0.00     0.034 A 
ATOM     43  C   UNL A   1      48.033  25.566  28.982  1.00  0.00     0.049 A 
ATOM     44  C   UNL A   1      46.896  26.049  34.409  1.00  0.00     0.074 A 
ATOM     45  C   UNL A   1      49.333  25.248  28.630  1.00  0.00     0.029 A 
ATOM     46  N   UNL A   1      48.006  25.667  30.362  1.00  0.00    -0.354 N 
ATOM     47  N   UNL A   1      47.334  25.953  33.178  1.00  0.00    -0.248 NA
ATOM     48  C   UNL A   1      47.903  25.725  35.431  1.00  0.00     0.031 C 
ATOM     49  C   UNL A   1      50.089  25.138  29.804  1.00  0.00     0.029 A 
ATOM     50  C   UNL A   1      49.261  25.402  30.883  1.00  0.00     0.049 A 
ATOM     51  H   UNL A   1      47.211  25.895  30.896  1.00  0.00     0.167 HD
ATOM     52  C   UNL A   1      48.681  25.616  33.278  1.00  0.00     0.074 A 
ATOM     53  C   UNL A   1      48.987  25.536  34.691  1.00  0.00     0.031 C 
ATOM     54  C   UNL A   1      49.580  25.391  32.288  1.00  0.00     0.034 A 
BRANCH  41  55
ATOM     55  C   UNL A   1      47.055  25.522  26.649  1.00  0.00     0.023 A 
ATOM     56  C   UNL A   1      46.693  24.275  26.099  1.00  0.00     0.012 A 
ATOM     57  C   UNL A   1      47.556  26.531  25.807  1.00  0.00     0.148 A 
ATOM     58  C   UNL A   1      46.869  24.018  24.741  1.00  0.00     0.002 A 
ATOM     59  C   UNL A   1      47.693  26.281  24.447  1.00  0.00     0.091 A 
ATOM     60  F   UNL A   1      47.921  27.700  26.353  1.00  0.00    -0.205 F 
ATOM     61  C   UNL A   1      47.364  25.022  23.914  1.00  0.00     0.022 A 
BRANCH  59  62
ATOM     62  S   UNL A   1      48.263  27.534  23.293  1.00  0.00     0.127 S 
ATOM     63  O   UNL A   1      47.121  28.447  23.264  1.00  0.00    -0.237 OA
ATOM     64  O   UNL A   1      49.448  28.063  23.969  1.00  0.00    -0.237 OA
ATOM     65  O   UNL A   1      48.540  26.830  22.049  1.00  0.00    -0.744 OA
ENDBRANCH  59  62
ENDBRANCH  41  55
BRANCH  42  66
ATOM     66  C   UNL A   1      45.313  26.679  36.366  1.00  0.00     0.023 A 
ATOM     67  C   UNL A   1      44.906  25.567  37.130  1.00  0.00     0.012 A 
ATOM     68  C   UNL A   1      45.469  27.927  36.997  1.00  0.00     0.148 A 
ATOM     69  C   UNL A   1      44.615  25.701  38.488  1.00  0.00     0.002 A 
ATOM     70  C   UNL A   1      45.214  28.047  38.359  1.00  0.00     0.091 A 
ATOM     71  F   UNL A   1      45.855  28.970  36.251  1.00  0.00    -0.205 F 
ATOM     72  C   UNL A   1      44.772  26.940  39.102  1.00  0.00     0.022 A 
BRANCH  70  73
ATOM     73  S   UNL A   1      45.474  29.577  39.264  1.00  0.00     0.127 S 
ATOM     74  O   UNL A   1      44.474  30.454  38.660  1.00  0.00    -0.237 OA
ATOM     75  O   UNL A   1      45.185  29.164  40.638  1.00  0.00    -0.237 OA
ATOM     76  O   UNL A   1      46.864  29.943  39.024  1.00  0.00    -0.744 OA
ENDBRANCH  70  73
ENDBRANCH  42  66
BRANCH  54  77
ATOM     77  C   UNL A   1      50.999  25.077  32.684  1.00  0.00     0.023 A 
ATOM     78  C   UNL A   1      51.934  26.121  32.832  1.00  0.00     0.012 A 
ATOM     79  C   UNL A   1      51.391  23.756  32.976  1.00  0.00     0.148 A 
ATOM     80  C   UNL A   1      53.244  25.850  33.232  1.00  0.00     0.002 A 
ATOM     81  C   UNL A   1      52.684  23.500  33.422  1.00  0.00     0.091 A 
ATOM     82  F   UNL A   1      50.500  22.768  32.805  1.00  0.00    -0.205 F 
ATOM     83  C   UNL A   1      53.615  24.543  33.539  1.00  0.00     0.022 A 
BRANCH  81  84
ATOM     84  S   UNL A   1      53.198  21.856  33.938  1.00  0.00     0.127 S 
ATOM     85  O   UNL A   1      52.703  21.028  32.840  1.00  0.00    -0.237 OA
ATOM     86  O   UNL A   1      54.656  21.984  33.995  1.00  0.00    -0.237 OA
ATOM     87  O   UNL A   1      52.568  21.640  35.233  1.00  0.00    -0.744 OA
ENDBRANCH  81  84
ENDBRANCH  54  77
ENDBRANCH  28  29
ENDBRANCH  21  23
ENDBRANCH  20  21
ENDBRANCH  19  20
ENDBRANCH  18  19
ENDBRANCH  17  18
ENDBRANCH  16  17
ENDBRANCH   1  16
TORSDOF 23
ENDMDL
