MODEL 1
REMARK VINA RESULT:     -10.9      0.000      0.000
REMARK SMILES C[C@H](NC(=O)N1CC[C@H](C(=O)OCCOCCOC(=O)c2ccc(-c3c4nc(c(-c5cccc(S(=O)(=O)[O-])c5F)c5ccc([nH]5)c(-c5cccc(S(=O)(=O)[O-])c5F)c5nc(c(-c6cccc(S(=O)(=O)[O-])c6F)c6ccc3[nH]6)C=C5)C=C4)cc2)[C@H]1C)c1ccsc1
REMARK SMILES IDX 15 1 14 2 13 3 12 4 10 5 11 6 9 7 6 8 7 9 84 10 8 11 85 12
REMARK SMILES IDX 4 13 3 14 5 16 2 17 1 18 86 19 87 20 90 21 88 22 89 23 16 24
REMARK SMILES IDX 17 25 18 26 19 27 20 28 21 29 22 30 83 31 23 32 82 33 24 34
REMARK SMILES IDX 25 35 26 36 76 37 27 38 81 39 75 40 77 41 28 42 80 43 74 44
REMARK SMILES IDX 73 45 29 47 61 48 41 49 60 50 42 51 45 52 59 53 78 54 43 55
REMARK SMILES IDX 44 56 58 58 79 59 46 60 30 61 31 62 39 63 32 64 34 65 40 66
REMARK SMILES IDX 33 67 35 68 36 69 37 70 38 71 62 72 63 73 71 74 64 75 66 76
REMARK SMILES IDX 72 77 65 78 67 79 68 80 69 81 70 82 47 83 48 84 56 85 49 86
REMARK SMILES IDX 51 87 57 88 50 89 52 90 53 91 54 92 55 93
REMARK H PARENT 3 15 77 46 45 57
REMARK Flexibility Score: inf
ROOT
ATOM      1  O   UNL A   1      34.821  19.794  24.998  1.00  0.00    -0.374 OA
ENDROOT
BRANCH   1   2
ATOM      2  C   UNL A   1      33.488  20.299  25.146  1.00  0.00     0.202 C 
BRANCH   2   3
ATOM      3  C   UNL A   1      33.002  21.303  24.096  1.00  0.00     0.261 C 
BRANCH   3   4
ATOM      4  O   UNL A   1      32.409  22.422  24.776  1.00  0.00    -0.463 OA
BRANCH   4   5
ATOM      5  C   UNL A   1      31.885  23.402  23.992  1.00  0.00     0.311 C 
ATOM      6  O   UNL A   1      31.788  23.353  22.774  1.00  0.00    -0.252 OA
BRANCH   5   7
ATOM      7  C   UNL A   1      31.179  24.404  24.881  1.00  0.00     0.123 C 
ATOM      8  N   UNL A   1      31.816  26.651  24.440  1.00  0.00    -0.321 N 
ATOM      9  C   UNL A   1      32.748  26.080  25.408  1.00  0.00     0.122 C 
ATOM     10  C   UNL A   1      30.762  25.665  24.107  1.00  0.00     0.098 C 
ATOM     11  C   UNL A   1      32.001  24.934  26.045  1.00  0.00     0.039 C 
ATOM     12  C   UNL A   1      29.340  26.022  24.566  1.00  0.00     0.032 C 
BRANCH   8  13
ATOM     13  C   UNL A   1      32.367  27.516  23.522  1.00  0.00     0.318 C 
ATOM     14  N   UNL A   1      31.803  28.736  23.350  1.00  0.00    -0.331 N 
ATOM     15  H   UNL A   1      32.117  29.252  22.573  1.00  0.00     0.165 HD
ATOM     16  O   UNL A   1      33.420  27.288  22.929  1.00  0.00    -0.249 OA
BRANCH  14  17
ATOM     17  C   UNL A   1      30.802  29.371  24.169  1.00  0.00     0.112 C 
ATOM     18  C   UNL A   1      31.404  30.280  25.241  1.00  0.00     0.036 C 
BRANCH  17  19
ATOM     19  C   UNL A   1      29.743  30.081  23.353  1.00  0.00    -0.015 A 
ATOM     20  C   UNL A   1      28.667  30.911  23.813  1.00  0.00     0.017 A 
ATOM     21  C   UNL A   1      29.718  29.998  21.967  1.00  0.00     0.070 A 
ATOM     22  C   UNL A   1      27.891  31.400  22.783  1.00  0.00     0.065 A 
ATOM     23  S   UNL A   1      28.437  30.870  21.257  1.00  0.00    -0.152 S 
ENDBRANCH  17  19
ENDBRANCH  14  17
ENDBRANCH   8  13
ENDBRANCH   5   7
ENDBRANCH   4   5
ENDBRANCH   3   4
ENDBRANCH   2   3
ENDBRANCH   1   2
BRANCH   1  24
ATOM     24  C   UNL A   1      35.903  20.717  25.032  1.00  0.00     0.202 C 
BRANCH  24  25
ATOM     25  C   UNL A   1      37.331  20.147  25.017  1.00  0.00     0.261 C 
BRANCH  25  26
ATOM     26  O   UNL A   1      38.358  21.149  25.032  1.00  0.00    -0.460 OA
BRANCH  26  27
ATOM     27  C   UNL A   1      39.336  20.925  25.943  1.00  0.00     0.338 C 
ATOM     28  O   UNL A   1      39.925  19.870  26.149  1.00  0.00    -0.246 OA
BRANCH  27  29
ATOM     29  C   UNL A   1      39.742  22.183  26.587  1.00  0.00     0.060 A 
ATOM     30  C   UNL A   1      39.108  23.358  26.165  1.00  0.00     0.016 A 
ATOM     31  C   UNL A   1      40.792  22.231  27.508  1.00  0.00     0.016 A 
ATOM     32  C   UNL A   1      39.544  24.593  26.635  1.00  0.00     0.010 A 
ATOM     33  C   UNL A   1      41.236  23.474  27.969  1.00  0.00     0.010 A 
ATOM     34  C   UNL A   1      40.636  24.662  27.509  1.00  0.00    -0.014 A 
BRANCH  34  35
ATOM     35  C   UNL A   1      41.230  25.983  27.821  1.00  0.00     0.031 A 
ATOM     36  C   UNL A   1      42.634  26.278  27.370  1.00  0.00     0.074 A 
ATOM     37  C   UNL A   1      40.519  26.915  28.480  1.00  0.00     0.049 A 
ATOM     38  N   UNL A   1      43.345  27.364  27.534  1.00  0.00    -0.248 NA
ATOM     39  C   UNL A   1      43.330  25.210  26.634  1.00  0.00     0.031 C 
ATOM     40  C   UNL A   1      39.149  26.746  28.961  1.00  0.00     0.029 A 
ATOM     41  N   UNL A   1      40.862  28.183  28.876  1.00  0.00    -0.354 N 
ATOM     42  C   UNL A   1      44.578  27.102  26.949  1.00  0.00     0.074 A 
ATOM     43  C   UNL A   1      44.524  25.751  26.435  1.00  0.00     0.031 C 
ATOM     44  C   UNL A   1      38.776  27.861  29.613  1.00  0.00     0.029 A 
ATOM     45  C   UNL A   1      39.887  28.812  29.611  1.00  0.00     0.049 A 
ATOM     46  H   UNL A   1      41.725  28.603  28.654  1.00  0.00     0.167 HD
ATOM     47  C   UNL A   1      45.651  27.918  26.836  1.00  0.00     0.034 A 
ATOM     48  C   UNL A   1      39.897  30.010  30.228  1.00  0.00     0.034 A 
ATOM     49  C   UNL A   1      45.694  29.268  27.328  1.00  0.00     0.049 A 
ATOM     50  C   UNL A   1      41.112  30.892  30.103  1.00  0.00     0.074 A 
ATOM     51  C   UNL A   1      46.719  30.191  27.221  1.00  0.00     0.029 A 
ATOM     52  N   UNL A   1      44.671  29.886  28.030  1.00  0.00    -0.354 N 
ATOM     53  N   UNL A   1      42.225  30.675  29.445  1.00  0.00    -0.248 NA
ATOM     54  C   UNL A   1      41.059  32.198  30.777  1.00  0.00     0.031 C 
ATOM     55  C   UNL A   1      46.325  31.360  27.880  1.00  0.00     0.029 A 
ATOM     56  C   UNL A   1      45.044  31.174  28.373  1.00  0.00     0.049 A 
ATOM     57  H   UNL A   1      43.808  29.470  28.253  1.00  0.00     0.167 HD
ATOM     58  C   UNL A   1      42.988  31.830  29.590  1.00  0.00     0.074 A 
ATOM     59  C   UNL A   1      42.202  32.749  30.388  1.00  0.00     0.031 C 
ATOM     60  C   UNL A   1      44.228  32.101  29.116  1.00  0.00     0.034 A 
BRANCH  47  61
ATOM     61  C   UNL A   1      46.866  27.381  26.127  1.00  0.00     0.023 A 
ATOM     62  C   UNL A   1      47.715  26.470  26.790  1.00  0.00     0.012 A 
ATOM     63  C   UNL A   1      47.137  27.730  24.791  1.00  0.00     0.148 A 
ATOM     64  C   UNL A   1      48.830  25.939  26.143  1.00  0.00     0.002 A 
ATOM     65  C   UNL A   1      48.227  27.165  24.139  1.00  0.00     0.091 A 
ATOM     66  F   UNL A   1      46.333  28.616  24.185  1.00  0.00    -0.205 F 
ATOM     67  C   UNL A   1      49.079  26.278  24.816  1.00  0.00     0.022 A 
BRANCH  65  68
ATOM     68  S   UNL A   1      48.588  27.480  22.408  1.00  0.00     0.127 S 
ATOM     69  O   UNL A   1      49.897  28.127  22.493  1.00  0.00    -0.237 OA
ATOM     70  O   UNL A   1      48.611  26.129  21.846  1.00  0.00    -0.237 OA
ATOM     71  O   UNL A   1      47.504  28.321  21.919  1.00  0.00    -0.744 OA
ENDBRANCH  65  68
ENDBRANCH  47  61
BRANCH  48  72
ATOM     72  C   UNL A   1      38.700  30.462  30.992  1.00  0.00     0.023 A 
ATOM     73  C   UNL A   1      38.628  30.229  32.380  1.00  0.00     0.012 A 
ATOM     74  C   UNL A   1      37.642  31.137  30.354  1.00  0.00     0.148 A 
ATOM     75  C   UNL A   1      37.513  30.636  33.112  1.00  0.00     0.002 A 
ATOM     76  C   UNL A   1      36.559  31.588  31.099  1.00  0.00     0.091 A 
ATOM     77  F   UNL A   1      37.720  31.332  29.030  1.00  0.00    -0.205 F 
ATOM     78  C   UNL A   1      36.484  31.325  32.475  1.00  0.00     0.022 A 
BRANCH  76  79
ATOM     79  S   UNL A   1      35.252  32.592  30.383  1.00  0.00     0.127 S 
ATOM     80  O   UNL A   1      34.909  31.827  29.186  1.00  0.00    -0.237 OA
ATOM     81  O   UNL A   1      34.242  32.570  31.440  1.00  0.00    -0.237 OA
ATOM     82  O   UNL A   1      35.849  33.901  30.149  1.00  0.00    -0.744 OA
ENDBRANCH  76  79
ENDBRANCH  48  72
BRANCH  60  83
ATOM     83  C   UNL A   1      44.810  33.461  29.402  1.00  0.00     0.023 A 
ATOM     84  C   UNL A   1      45.550  33.675  30.581  1.00  0.00     0.012 A 
ATOM     85  C   UNL A   1      44.699  34.499  28.455  1.00  0.00     0.148 A 
ATOM     86  C   UNL A   1      46.146  34.911  30.827  1.00  0.00     0.002 A 
ATOM     87  C   UNL A   1      45.337  35.712  28.686  1.00  0.00     0.091 A 
ATOM     88  F   UNL A   1      43.976  34.281  27.347  1.00  0.00    -0.205 F 
ATOM     89  C   UNL A   1      46.052  35.923  29.875  1.00  0.00     0.022 A 
BRANCH  87  90
ATOM     90  S   UNL A   1      45.351  37.038  27.472  1.00  0.00     0.127 S 
ATOM     91  O   UNL A   1      46.142  38.060  28.157  1.00  0.00    -0.237 OA
ATOM     92  O   UNL A   1      46.021  36.410  26.333  1.00  0.00    -0.237 OA
ATOM     93  O   UNL A   1      43.955  37.381  27.237  1.00  0.00    -0.744 OA
ENDBRANCH  87  90
ENDBRANCH  60  83
ENDBRANCH  34  35
ENDBRANCH  27  29
ENDBRANCH  26  27
ENDBRANCH  25  26
ENDBRANCH  24  25
ENDBRANCH   1  24
TORSDOF 20
ENDMDL
MODEL 2
REMARK VINA RESULT:     -10.9      1.948      2.484
REMARK SMILES C[C@H](NC(=O)N1CC[C@H](C(=O)OCCOCCOC(=O)c2ccc(-c3c4nc(c(-c5cccc(S(=O)(=O)[O-])c5F)c5ccc([nH]5)c(-c5cccc(S(=O)(=O)[O-])c5F)c5nc(c(-c6cccc(S(=O)(=O)[O-])c6F)c6ccc3[nH]6)C=C5)C=C4)cc2)[C@H]1C)c1ccsc1
REMARK SMILES IDX 15 1 14 2 13 3 12 4 10 5 11 6 9 7 6 8 7 9 84 10 8 11 85 12
REMARK SMILES IDX 4 13 3 14 5 16 2 17 1 18 86 19 87 20 90 21 88 22 89 23 16 24
REMARK SMILES IDX 17 25 18 26 19 27 20 28 21 29 22 30 83 31 23 32 82 33 24 34
REMARK SMILES IDX 25 35 26 36 76 37 27 38 81 39 75 40 77 41 28 42 80 43 74 44
REMARK SMILES IDX 73 45 29 47 61 48 41 49 60 50 42 51 45 52 59 53 78 54 43 55
REMARK SMILES IDX 44 56 58 58 79 59 46 60 30 61 31 62 39 63 32 64 34 65 40 66
REMARK SMILES IDX 33 67 35 68 36 69 37 70 38 71 62 72 63 73 71 74 64 75 66 76
REMARK SMILES IDX 72 77 65 78 67 79 68 80 69 81 70 82 47 83 48 84 56 85 49 86
REMARK SMILES IDX 51 87 57 88 50 89 52 90 53 91 54 92 55 93
REMARK H PARENT 3 15 77 46 45 57
REMARK Flexibility Score: inf
ROOT
ATOM      1  O   UNL A   1      35.478  21.296  25.407  1.00  0.00    -0.374 OA
ENDROOT
BRANCH   1   2
ATOM      2  C   UNL A   1      34.483  21.224  26.434  1.00  0.00     0.202 C 
BRANCH   2   3
ATOM      3  C   UNL A   1      33.212  20.429  26.121  1.00  0.00     0.261 C 
BRANCH   3   4
ATOM      4  O   UNL A   1      32.630  20.957  24.917  1.00  0.00    -0.463 OA
BRANCH   4   5
ATOM      5  C   UNL A   1      31.854  22.066  25.052  1.00  0.00     0.311 C 
ATOM      6  O   UNL A   1      30.864  22.149  25.764  1.00  0.00    -0.252 OA
BRANCH   5   7
ATOM      7  C   UNL A   1      32.581  23.240  24.433  1.00  0.00     0.123 C 
ATOM      8  N   UNL A   1      31.632  25.338  25.023  1.00  0.00    -0.321 N 
ATOM      9  C   UNL A   1      30.944  24.827  23.841  1.00  0.00     0.122 C 
ATOM     10  C   UNL A   1      32.720  24.413  25.417  1.00  0.00     0.098 C 
ATOM     11  C   UNL A   1      31.909  23.852  23.214  1.00  0.00     0.039 C 
ATOM     12  C   UNL A   1      34.149  24.956  25.267  1.00  0.00     0.032 C 
BRANCH   8  13
ATOM     13  C   UNL A   1      30.843  26.014  25.925  1.00  0.00     0.318 C 
ATOM     14  N   UNL A   1      31.023  27.347  26.084  1.00  0.00    -0.331 N 
ATOM     15  H   UNL A   1      30.565  27.758  26.852  1.00  0.00     0.165 HD
ATOM     16  O   UNL A   1      29.897  25.495  26.515  1.00  0.00    -0.249 OA
BRANCH  14  17
ATOM     17  C   UNL A   1      31.803  28.239  25.264  1.00  0.00     0.112 C 
ATOM     18  C   UNL A   1      30.940  29.094  24.335  1.00  0.00     0.036 C 
BRANCH  17  19
ATOM     19  C   UNL A   1      32.773  29.078  26.067  1.00  0.00    -0.015 A 
ATOM     20  C   UNL A   1      32.615  30.424  26.537  1.00  0.00     0.017 A 
ATOM     21  C   UNL A   1      34.005  28.578  26.467  1.00  0.00     0.070 A 
ATOM     22  C   UNL A   1      33.708  30.874  27.247  1.00  0.00     0.065 A 
ATOM     23  S   UNL A   1      34.937  29.696  27.355  1.00  0.00    -0.152 S 
ENDBRANCH  17  19
ENDBRANCH  14  17
ENDBRANCH   8  13
ENDBRANCH   5   7
ENDBRANCH   4   5
ENDBRANCH   3   4
ENDBRANCH   2   3
ENDBRANCH   1   2
BRANCH   1  24
ATOM     24  C   UNL A   1      36.118  20.094  24.997  1.00  0.00     0.202 C 
BRANCH  24  25
ATOM     25  C   UNL A   1      37.647  20.114  24.836  1.00  0.00     0.261 C 
BRANCH  25  26
ATOM     26  O   UNL A   1      38.265  21.327  25.290  1.00  0.00    -0.460 OA
BRANCH  26  27
ATOM     27  C   UNL A   1      39.319  21.133  26.120  1.00  0.00     0.338 C 
ATOM     28  O   UNL A   1      39.947  20.093  26.286  1.00  0.00    -0.246 OA
BRANCH  27  29
ATOM     29  C   UNL A   1      39.749  22.407  26.717  1.00  0.00     0.060 A 
ATOM     30  C   UNL A   1      39.165  23.581  26.224  1.00  0.00     0.016 A 
ATOM     31  C   UNL A   1      40.774  22.464  27.664  1.00  0.00     0.016 A 
ATOM     32  C   UNL A   1      39.628  24.822  26.649  1.00  0.00     0.010 A 
ATOM     33  C   UNL A   1      41.246  23.713  28.081  1.00  0.00     0.010 A 
ATOM     34  C   UNL A   1      40.698  24.896  27.550  1.00  0.00    -0.014 A 
BRANCH  34  35
ATOM     35  C   UNL A   1      41.326  26.211  27.819  1.00  0.00     0.031 A 
ATOM     36  C   UNL A   1      42.728  26.464  27.335  1.00  0.00     0.074 A 
ATOM     37  C   UNL A   1      40.647  27.175  28.467  1.00  0.00     0.049 A 
ATOM     38  N   UNL A   1      43.464  27.538  27.460  1.00  0.00    -0.248 NA
ATOM     39  C   UNL A   1      43.387  25.363  26.615  1.00  0.00     0.031 C 
ATOM     40  C   UNL A   1      39.283  27.048  28.976  1.00  0.00     0.029 A 
ATOM     41  N   UNL A   1      41.025  28.444  28.825  1.00  0.00    -0.354 N 
ATOM     42  C   UNL A   1      44.681  27.234  26.860  1.00  0.00     0.074 A 
ATOM     43  C   UNL A   1      44.588  25.872  26.381  1.00  0.00     0.031 C 
ATOM     44  C   UNL A   1      38.946  28.187  29.606  1.00  0.00     0.029 A 
ATOM     45  C   UNL A   1      40.077  29.113  29.561  1.00  0.00     0.049 A 
ATOM     46  H   UNL A   1      41.893  28.839  28.577  1.00  0.00     0.167 HD
ATOM     47  C   UNL A   1      45.769  28.023  26.708  1.00  0.00     0.034 A 
ATOM     48  C   UNL A   1      40.125  30.325  30.148  1.00  0.00     0.034 A 
ATOM     49  C   UNL A   1      45.850  29.383  27.165  1.00  0.00     0.049 A 
ATOM     50  C   UNL A   1      41.356  31.176  29.979  1.00  0.00     0.074 A 
ATOM     51  C   UNL A   1      46.893  30.280  27.016  1.00  0.00     0.029 A 
ATOM     52  N   UNL A   1      44.854  30.041  27.870  1.00  0.00    -0.354 N 
ATOM     53  N   UNL A   1      42.452  30.919  29.307  1.00  0.00    -0.248 NA
ATOM     54  C   UNL A   1      41.344  32.500  30.621  1.00  0.00     0.031 C 
ATOM     55  C   UNL A   1      46.537  31.474  27.653  1.00  0.00     0.029 A 
ATOM     56  C   UNL A   1      45.261  31.329  28.173  1.00  0.00     0.049 A 
ATOM     57  H   UNL A   1      43.986  29.650  28.118  1.00  0.00     0.167 HD
ATOM     58  C   UNL A   1      43.242  32.060  29.410  1.00  0.00     0.074 A 
ATOM     59  C   UNL A   1      42.491  33.015  30.198  1.00  0.00     0.031 C 
ATOM     60  C   UNL A   1      44.479  32.291  28.908  1.00  0.00     0.034 A 
BRANCH  47  61
ATOM     61  C   UNL A   1      46.959  27.442  25.991  1.00  0.00     0.023 A 
ATOM     62  C   UNL A   1      47.078  27.598  24.595  1.00  0.00     0.012 A 
ATOM     63  C   UNL A   1      47.986  26.793  26.703  1.00  0.00     0.148 A 
ATOM     64  C   UNL A   1      48.185  27.091  23.915  1.00  0.00     0.002 A 
ATOM     65  C   UNL A   1      49.106  26.327  26.025  1.00  0.00     0.091 A 
ATOM     66  F   UNL A   1      47.844  26.632  28.027  1.00  0.00    -0.205 F 
ATOM     67  C   UNL A   1      49.203  26.466  24.631  1.00  0.00     0.022 A 
BRANCH  65  68
ATOM     68  S   UNL A   1      50.503  25.575  26.868  1.00  0.00     0.127 S 
ATOM     69  O   UNL A   1      51.382  25.246  25.746  1.00  0.00    -0.237 OA
ATOM     70  O   UNL A   1      50.979  26.670  27.714  1.00  0.00    -0.237 OA
ATOM     71  O   UNL A   1      49.965  24.435  27.597  1.00  0.00    -0.744 OA
ENDBRANCH  65  68
ENDBRANCH  47  61
BRANCH  48  72
ATOM     72  C   UNL A   1      38.952  30.822  30.921  1.00  0.00     0.023 A 
ATOM     73  C   UNL A   1      38.824  30.491  32.284  1.00  0.00     0.012 A 
ATOM     74  C   UNL A   1      37.973  31.635  30.317  1.00  0.00     0.148 A 
ATOM     75  C   UNL A   1      37.729  30.939  33.024  1.00  0.00     0.002 A 
ATOM     76  C   UNL A   1      36.915  32.122  31.073  1.00  0.00     0.091 A 
ATOM     77  F   UNL A   1      38.103  31.922  29.014  1.00  0.00    -0.205 F 
ATOM     78  C   UNL A   1      36.782  31.763  32.423  1.00  0.00     0.022 A 
BRANCH  76  79
ATOM     79  S   UNL A   1      35.719  33.290  30.413  1.00  0.00     0.127 S 
ATOM     80  O   UNL A   1      34.556  32.434  30.193  1.00  0.00    -0.237 OA
ATOM     81  O   UNL A   1      35.586  34.241  31.516  1.00  0.00    -0.237 OA
ATOM     82  O   UNL A   1      36.335  33.843  29.214  1.00  0.00    -0.744 OA
ENDBRANCH  76  79
ENDBRANCH  48  72
BRANCH  60  83
ATOM     83  C   UNL A   1      45.096  33.645  29.148  1.00  0.00     0.023 A 
ATOM     84  C   UNL A   1      45.876  33.866  30.300  1.00  0.00     0.012 A 
ATOM     85  C   UNL A   1      44.975  34.667  28.186  1.00  0.00     0.148 A 
ATOM     86  C   UNL A   1      46.504  35.094  30.504  1.00  0.00     0.002 A 
ATOM     87  C   UNL A   1      45.643  35.871  28.373  1.00  0.00     0.091 A 
ATOM     88  F   UNL A   1      44.213  34.442  27.106  1.00  0.00    -0.205 F 
ATOM     89  C   UNL A   1      46.398  36.091  29.536  1.00  0.00     0.022 A 
BRANCH  87  90
ATOM     90  S   UNL A   1      45.643  37.174  27.135  1.00  0.00     0.127 S 
ATOM     91  O   UNL A   1      46.431  38.213  27.797  1.00  0.00    -0.237 OA
ATOM     92  O   UNL A   1      46.312  36.528  26.005  1.00  0.00    -0.237 OA
ATOM     93  O   UNL A   1      44.244  37.505  26.900  1.00  0.00    -0.744 OA
ENDBRANCH  87  90
ENDBRANCH  60  83
ENDBRANCH  34  35
ENDBRANCH  27  29
ENDBRANCH  26  27
ENDBRANCH  25  26
ENDBRANCH  24  25
ENDBRANCH   1  24
TORSDOF 20
ENDMDL
MODEL 3
REMARK VINA RESULT:     -10.9      5.288     10.885
REMARK SMILES C[C@H](NC(=O)N1CC[C@H](C(=O)OCCOCCOC(=O)c2ccc(-c3c4nc(c(-c5cccc(S(=O)(=O)[O-])c5F)c5ccc([nH]5)c(-c5cccc(S(=O)(=O)[O-])c5F)c5nc(c(-c6cccc(S(=O)(=O)[O-])c6F)c6ccc3[nH]6)C=C5)C=C4)cc2)[C@H]1C)c1ccsc1
REMARK SMILES IDX 15 1 14 2 13 3 12 4 10 5 11 6 9 7 6 8 7 9 84 10 8 11 85 12
REMARK SMILES IDX 4 13 3 14 5 16 2 17 1 18 86 19 87 20 90 21 88 22 89 23 16 24
REMARK SMILES IDX 17 25 18 26 19 27 20 28 21 29 22 30 83 31 23 32 82 33 24 34
REMARK SMILES IDX 25 35 26 36 76 37 27 38 81 39 75 40 77 41 28 42 80 43 74 44
REMARK SMILES IDX 73 45 29 47 61 48 41 49 60 50 42 51 45 52 59 53 78 54 43 55
REMARK SMILES IDX 44 56 58 58 79 59 46 60 30 61 31 62 39 63 32 64 34 65 40 66
REMARK SMILES IDX 33 67 35 68 36 69 37 70 38 71 62 72 63 73 71 74 64 75 66 76
REMARK SMILES IDX 72 77 65 78 67 79 68 80 69 81 70 82 47 83 48 84 56 85 49 86
REMARK SMILES IDX 51 87 57 88 50 89 52 90 53 91 54 92 55 93
REMARK H PARENT 3 15 77 46 45 57
REMARK Flexibility Score: inf
ROOT
ATOM      1  O   UNL A   1      31.171  30.778  25.499  1.00  0.00    -0.374 OA
ENDROOT
BRANCH   1   2
ATOM      2  C   UNL A   1      31.414  29.450  25.021  1.00  0.00     0.202 C 
BRANCH   2   3
ATOM      3  C   UNL A   1      30.885  29.103  23.626  1.00  0.00     0.261 C 
BRANCH   3   4
ATOM      4  O   UNL A   1      31.645  27.994  23.114  1.00  0.00    -0.463 OA
BRANCH   4   5
ATOM      5  C   UNL A   1      31.236  26.752  23.487  1.00  0.00     0.311 C 
ATOM      6  O   UNL A   1      30.071  26.393  23.577  1.00  0.00    -0.252 OA
BRANCH   5   7
ATOM      7  C   UNL A   1      32.433  25.825  23.470  1.00  0.00     0.123 C 
ATOM      8  N   UNL A   1      32.240  24.028  25.014  1.00  0.00    -0.321 N 
ATOM      9  C   UNL A   1      32.829  25.175  25.699  1.00  0.00     0.122 C 
ATOM     10  C   UNL A   1      32.018  24.349  23.585  1.00  0.00     0.098 C 
ATOM     11  C   UNL A   1      33.425  26.024  24.605  1.00  0.00     0.039 C 
ATOM     12  C   UNL A   1      32.876  23.565  22.580  1.00  0.00     0.032 C 
BRANCH   8  13
ATOM     13  C   UNL A   1      31.376  23.264  25.765  1.00  0.00     0.318 C 
ATOM     14  N   UNL A   1      31.692  21.970  26.013  1.00  0.00    -0.331 N 
ATOM     15  H   UNL A   1      30.977  21.417  26.402  1.00  0.00     0.165 HD
ATOM     16  O   UNL A   1      30.385  23.724  26.327  1.00  0.00    -0.249 OA
BRANCH  14  17
ATOM     17  C   UNL A   1      32.948  21.305  25.778  1.00  0.00     0.112 C 
ATOM     18  C   UNL A   1      33.813  21.215  27.036  1.00  0.00     0.036 C 
BRANCH  17  19
ATOM     19  C   UNL A   1      32.783  19.959  25.107  1.00  0.00    -0.015 A 
ATOM     20  C   UNL A   1      32.598  19.670  23.714  1.00  0.00     0.017 A 
ATOM     21  C   UNL A   1      32.805  18.777  25.837  1.00  0.00     0.070 A 
ATOM     22  C   UNL A   1      32.485  18.319  23.459  1.00  0.00     0.065 A 
ATOM     23  S   UNL A   1      32.593  17.383  24.880  1.00  0.00    -0.152 S 
ENDBRANCH  17  19
ENDBRANCH  14  17
ENDBRANCH   8  13
ENDBRANCH   5   7
ENDBRANCH   4   5
ENDBRANCH   3   4
ENDBRANCH   2   3
ENDBRANCH   1   2
BRANCH   1  24
ATOM     24  C   UNL A   1      31.890  31.230  26.640  1.00  0.00     0.202 C 
BRANCH  24  25
ATOM     25  C   UNL A   1      32.027  32.747  26.846  1.00  0.00     0.261 C 
BRANCH  25  26
ATOM     26  O   UNL A   1      32.538  33.117  28.135  1.00  0.00    -0.460 OA
BRANCH  26  27
ATOM     27  C   UNL A   1      33.646  33.896  28.087  1.00  0.00     0.338 C 
ATOM     28  O   UNL A   1      33.688  35.113  27.943  1.00  0.00    -0.246 OA
BRANCH  27  29
ATOM     29  C   UNL A   1      34.848  33.107  28.396  1.00  0.00     0.060 A 
ATOM     30  C   UNL A   1      34.663  31.862  29.010  1.00  0.00     0.016 A 
ATOM     31  C   UNL A   1      36.133  33.614  28.186  1.00  0.00     0.016 A 
ATOM     32  C   UNL A   1      35.762  31.130  29.450  1.00  0.00     0.010 A 
ATOM     33  C   UNL A   1      37.235  32.882  28.641  1.00  0.00     0.010 A 
ATOM     34  C   UNL A   1      37.052  31.655  29.305  1.00  0.00    -0.014 A 
BRANCH  34  35
ATOM     35  C   UNL A   1      38.187  30.978  29.976  1.00  0.00     0.031 A 
ATOM     36  C   UNL A   1      38.541  31.369  31.385  1.00  0.00     0.074 A 
ATOM     37  C   UNL A   1      38.879  30.013  29.345  1.00  0.00     0.049 A 
ATOM     38  N   UNL A   1      39.491  30.907  32.157  1.00  0.00    -0.248 NA
ATOM     39  C   UNL A   1      37.717  32.417  32.007  1.00  0.00     0.031 C 
ATOM     40  C   UNL A   1      38.624  29.545  27.984  1.00  0.00     0.029 A 
ATOM     41  N   UNL A   1      39.952  29.267  29.763  1.00  0.00    -0.354 N 
ATOM     42  C   UNL A   1      39.396  31.625  33.343  1.00  0.00     0.074 A 
ATOM     43  C   UNL A   1      38.305  32.561  33.186  1.00  0.00     0.031 C 
ATOM     44  C   UNL A   1      39.534  28.609  27.668  1.00  0.00     0.029 A 
ATOM     45  C   UNL A   1      40.447  28.426  28.796  1.00  0.00     0.049 A 
ATOM     46  H   UNL A   1      40.331  29.328  30.670  1.00  0.00     0.167 HD
ATOM     47  C   UNL A   1      40.141  31.504  34.467  1.00  0.00     0.034 A 
ATOM     48  C   UNL A   1      41.524  27.617  28.813  1.00  0.00     0.034 A 
ATOM     49  C   UNL A   1      41.209  30.557  34.628  1.00  0.00     0.049 A 
ATOM     50  C   UNL A   1      42.348  27.514  30.070  1.00  0.00     0.074 A 
ATOM     51  C   UNL A   1      41.993  30.325  35.746  1.00  0.00     0.029 A 
ATOM     52  N   UNL A   1      41.655  29.692  33.641  1.00  0.00    -0.354 N 
ATOM     53  N   UNL A   1      42.172  28.113  31.223  1.00  0.00    -0.248 NA
ATOM     54  C   UNL A   1      43.498  26.598  30.040  1.00  0.00     0.031 C 
ATOM     55  C   UNL A   1      42.928  29.336  35.426  1.00  0.00     0.029 A 
ATOM     56  C   UNL A   1      42.710  28.932  34.119  1.00  0.00     0.049 A 
ATOM     57  H   UNL A   1      41.278  29.627  32.735  1.00  0.00     0.167 HD
ATOM     58  C   UNL A   1      43.162  27.618  32.067  1.00  0.00     0.074 A 
ATOM     59  C   UNL A   1      43.925  26.659  31.295  1.00  0.00     0.031 C 
ATOM     60  C   UNL A   1      43.422  27.937  33.358  1.00  0.00     0.034 A 
BRANCH  47  61
ATOM     61  C   UNL A   1      39.807  32.404  35.627  1.00  0.00     0.023 A 
ATOM     62  C   UNL A   1      40.418  33.671  35.726  1.00  0.00     0.012 A 
ATOM     63  C   UNL A   1      38.849  32.023  36.586  1.00  0.00     0.148 A 
ATOM     64  C   UNL A   1      40.103  34.532  36.777  1.00  0.00     0.002 A 
ATOM     65  C   UNL A   1      38.509  32.903  37.607  1.00  0.00     0.091 A 
ATOM     66  F   UNL A   1      38.296  30.805  36.489  1.00  0.00    -0.205 F 
ATOM     67  C   UNL A   1      39.142  34.152  37.710  1.00  0.00     0.022 A 
BRANCH  65  68
ATOM     68  S   UNL A   1      37.229  32.536  38.813  1.00  0.00     0.127 S 
ATOM     69  O   UNL A   1      37.453  31.112  39.057  1.00  0.00    -0.237 OA
ATOM     70  O   UNL A   1      37.596  33.411  39.928  1.00  0.00    -0.237 OA
ATOM     71  O   UNL A   1      35.965  32.871  38.170  1.00  0.00    -0.744 OA
ENDBRANCH  65  68
ENDBRANCH  47  61
BRANCH  48  72
ATOM     72  C   UNL A   1      41.865  26.809  27.607  1.00  0.00     0.023 A 
ATOM     73  C   UNL A   1      42.482  27.430  26.503  1.00  0.00     0.012 A 
ATOM     74  C   UNL A   1      41.598  25.427  27.559  1.00  0.00     0.148 A 
ATOM     75  C   UNL A   1      42.801  26.693  25.362  1.00  0.00     0.002 A 
ATOM     76  C   UNL A   1      41.969  24.690  26.441  1.00  0.00     0.091 A 
ATOM     77  F   UNL A   1      40.994  24.860  28.611  1.00  0.00    -0.205 F 
ATOM     78  C   UNL A   1      42.556  25.323  25.335  1.00  0.00     0.022 A 
BRANCH  76  79
ATOM     79  S   UNL A   1      41.806  22.902  26.372  1.00  0.00     0.127 S 
ATOM     80  O   UNL A   1      42.506  22.491  27.586  1.00  0.00    -0.237 OA
ATOM     81  O   UNL A   1      40.353  22.731  26.408  1.00  0.00    -0.237 OA
ATOM     82  O   UNL A   1      42.426  22.502  25.116  1.00  0.00    -0.744 OA
ENDBRANCH  76  79
ENDBRANCH  48  72
BRANCH  60  83
ATOM     83  C   UNL A   1      44.551  27.215  34.049  1.00  0.00     0.023 A 
ATOM     84  C   UNL A   1      45.853  27.750  34.012  1.00  0.00     0.012 A 
ATOM     85  C   UNL A   1      44.299  26.055  34.809  1.00  0.00     0.148 A 
ATOM     86  C   UNL A   1      46.894  27.126  34.698  1.00  0.00     0.002 A 
ATOM     87  C   UNL A   1      45.332  25.467  35.529  1.00  0.00     0.091 A 
ATOM     88  F   UNL A   1      43.056  25.552  34.816  1.00  0.00    -0.205 F 
ATOM     89  C   UNL A   1      46.631  25.994  35.466  1.00  0.00     0.022 A 
BRANCH  87  90
ATOM     90  S   UNL A   1      45.065  24.065  36.622  1.00  0.00     0.127 S 
ATOM     91  O   UNL A   1      44.244  24.661  37.675  1.00  0.00    -0.237 OA
ATOM     92  O   UNL A   1      44.356  23.124  35.754  1.00  0.00    -0.237 OA
ATOM     93  O   UNL A   1      46.390  23.623  37.037  1.00  0.00    -0.744 OA
ENDBRANCH  87  90
ENDBRANCH  60  83
ENDBRANCH  34  35
ENDBRANCH  27  29
ENDBRANCH  26  27
ENDBRANCH  25  26
ENDBRANCH  24  25
ENDBRANCH   1  24
TORSDOF 20
ENDMDL
