MODEL 1
REMARK VINA RESULT:     -11.0      0.000      0.000
REMARK SMILES CSc1nc(O)nc(C)c1C(=O)N1C[C@@H](O)C[C@@H]1C(=O)OCCOCCOC(=O)c1ccc(-c2c3nc(c(-c4cccc(S(=O)(=O)[O-])c4F)c4ccc([nH]4)c(-c4cccc(S(=O)(=O)[O-])c4F)c4nc(c(-c5cccc(S(=O)(=O)[O-])c5F)c5ccc2[nH]5)C=C4)C=C3)cc1
REMARK SMILES IDX 24 1 23 2 22 3 21 4 19 5 20 6 18 7 13 8 14 9 15 10 17 11
REMARK SMILES IDX 11 12 12 13 10 14 3 15 4 16 5 17 8 18 7 19 9 20 2 21 1 22
REMARK SMILES IDX 6 23 16 25 25 27 26 28 27 29 28 30 29 31 30 32 31 33 92 34
REMARK SMILES IDX 32 35 91 36 33 37 34 38 35 39 85 40 36 41 90 42 84 43 86 44
REMARK SMILES IDX 37 45 89 46 83 47 82 48 38 50 70 51 50 52 69 53 51 54 54 55
REMARK SMILES IDX 68 56 87 57 52 58 53 59 67 61 88 62 55 63 39 64 40 65 48 66
REMARK SMILES IDX 41 67 43 68 49 69 42 70 44 71 45 72 46 73 47 74 71 75 72 76
REMARK SMILES IDX 80 77 73 78 75 79 81 80 74 81 76 82 77 83 78 84 79 85 56 86
REMARK SMILES IDX 57 87 65 88 58 89 60 90 66 91 59 92 61 93 62 94 63 95 64 96
REMARK H PARENT 6 24 16 26 86 49 54 60
REMARK Flexibility Score: inf
ROOT
ATOM      1  O   UNL A   1      35.910  21.676  25.706  1.00  0.00    -0.374 OA
ENDROOT
BRANCH   1   2
ATOM      2  C   UNL A   1      35.502  22.790  24.920  1.00  0.00     0.202 C 
BRANCH   2   3
ATOM      3  C   UNL A   1      34.814  23.950  25.648  1.00  0.00     0.261 C 
BRANCH   3   4
ATOM      4  O   UNL A   1      34.533  25.113  24.854  1.00  0.00    -0.462 OA
BRANCH   4   5
ATOM      5  C   UNL A   1      33.581  25.947  25.366  1.00  0.00     0.329 C 
ATOM      6  O   UNL A   1      33.496  26.262  26.548  1.00  0.00    -0.250 OA
BRANCH   5   7
ATOM      7  C   UNL A   1      32.628  26.447  24.271  1.00  0.00     0.198 C 
ATOM      8  N   UNL A   1      32.366  25.484  23.176  1.00  0.00    -0.322 N 
ATOM      9  C   UNL A   1      32.544  26.172  21.906  1.00  0.00     0.152 C 
ATOM     10  C   UNL A   1      33.678  27.141  22.208  1.00  0.00     0.136 C 
ATOM     11  C   UNL A   1      33.244  27.679  23.571  1.00  0.00     0.071 C 
BRANCH   8  12
ATOM     12  C   UNL A   1      31.388  24.517  23.341  1.00  0.00     0.259 C 
ATOM     13  O   UNL A   1      30.249  24.791  22.969  1.00  0.00    -0.269 OA
BRANCH  12  14
ATOM     14  C   UNL A   1      31.672  23.191  24.013  1.00  0.00     0.093 A 
ATOM     15  C   UNL A   1      31.357  22.816  25.331  1.00  0.00     0.116 A 
ATOM     16  N   UNL A   1      31.592  21.571  25.819  1.00  0.00    -0.188 NA
ATOM     17  C   UNL A   1      32.097  20.682  24.984  1.00  0.00     0.315 A 
ATOM     18  C   UNL A   1      32.205  22.139  23.238  1.00  0.00     0.058 A 
ATOM     19  N   UNL A   1      32.415  20.884  23.720  1.00  0.00    -0.200 NA
ATOM     20  C   UNL A   1      32.590  22.250  21.787  1.00  0.00     0.068 C 
BRANCH  15  21
ATOM     21  S   UNL A   1      30.539  23.840  26.559  1.00  0.00    -0.109 SA
ATOM     22  C   UNL A   1      29.353  22.687  27.302  1.00  0.00     0.092 C 
ENDBRANCH  15  21
BRANCH  17  23
ATOM     23  O   UNL A   1      32.241  19.408  25.424  1.00  0.00    -0.479 OA
ATOM     24  H   UNL A   1      31.522  18.810  25.376  1.00  0.00     0.297 HD
ENDBRANCH  17  23
ENDBRANCH  12  14
ENDBRANCH   8  12
BRANCH  10  25
ATOM     25  O   UNL A   1      33.824  28.164  21.240  1.00  0.00    -0.391 OA
ATOM     26  H   UNL A   1      33.239  28.905  21.462  1.00  0.00     0.211 HD
ENDBRANCH  10  25
ENDBRANCH   5   7
ENDBRANCH   4   5
ENDBRANCH   3   4
ENDBRANCH   2   3
ENDBRANCH   1   2
BRANCH   1  27
ATOM     27  C   UNL A   1      36.113  20.437  25.021  1.00  0.00     0.202 C 
BRANCH  27  28
ATOM     28  C   UNL A   1      37.547  19.908  25.024  1.00  0.00     0.261 C 
BRANCH  28  29
ATOM     29  O   UNL A   1      38.480  21.001  25.103  1.00  0.00    -0.460 OA
BRANCH  29  30
ATOM     30  C   UNL A   1      39.457  20.806  26.013  1.00  0.00     0.338 C 
ATOM     31  O   UNL A   1      40.139  19.794  26.153  1.00  0.00    -0.246 OA
BRANCH  30  32
ATOM     32  C   UNL A   1      39.722  22.050  26.745  1.00  0.00     0.060 A 
ATOM     33  C   UNL A   1      39.028  23.207  26.373  1.00  0.00     0.016 A 
ATOM     34  C   UNL A   1      40.774  22.111  27.660  1.00  0.00     0.016 A 
ATOM     35  C   UNL A   1      39.426  24.446  26.876  1.00  0.00     0.010 A 
ATOM     36  C   UNL A   1      41.168  23.352  28.167  1.00  0.00     0.010 A 
ATOM     37  C   UNL A   1      40.531  24.527  27.735  1.00  0.00    -0.014 A 
BRANCH  37  38
ATOM     38  C   UNL A   1      41.139  25.849  28.018  1.00  0.00     0.031 A 
ATOM     39  C   UNL A   1      42.546  26.114  27.551  1.00  0.00     0.074 A 
ATOM     40  C   UNL A   1      40.447  26.806  28.661  1.00  0.00     0.049 A 
ATOM     41  N   UNL A   1      43.264  27.197  27.672  1.00  0.00    -0.248 NA
ATOM     42  C   UNL A   1      43.232  25.012  26.852  1.00  0.00     0.031 C 
ATOM     43  C   UNL A   1      39.079  26.669  29.158  1.00  0.00     0.029 A 
ATOM     44  N   UNL A   1      40.811  28.079  29.017  1.00  0.00    -0.354 N 
ATOM     45  C   UNL A   1      44.487  26.909  27.077  1.00  0.00     0.074 A 
ATOM     46  C   UNL A   1      44.421  25.544  26.606  1.00  0.00     0.031 C 
ATOM     47  C   UNL A   1      38.723  27.811  29.770  1.00  0.00     0.029 A 
ATOM     48  C   UNL A   1      39.841  28.754  29.717  1.00  0.00     0.049 A 
ATOM     49  H   UNL A   1      41.685  28.474  28.792  1.00  0.00     0.167 HD
ATOM     50  C   UNL A   1      45.560  27.716  26.914  1.00  0.00     0.034 A 
ATOM     51  C   UNL A   1      39.853  29.988  30.258  1.00  0.00     0.034 A 
ATOM     52  C   UNL A   1      45.620  29.080  27.361  1.00  0.00     0.049 A 
ATOM     53  C   UNL A   1      41.068  30.861  30.086  1.00  0.00     0.074 A 
ATOM     54  C   UNL A   1      46.654  29.986  27.208  1.00  0.00     0.029 A 
ATOM     55  N   UNL A   1      44.609  29.730  28.047  1.00  0.00    -0.354 N 
ATOM     56  N   UNL A   1      42.177  30.605  29.435  1.00  0.00    -0.248 NA
ATOM     57  C   UNL A   1      41.025  32.198  30.699  1.00  0.00     0.031 C 
ATOM     58  C   UNL A   1      46.269  31.188  27.812  1.00  0.00     0.029 A 
ATOM     59  C   UNL A   1      44.995  31.027  28.332  1.00  0.00     0.049 A 
ATOM     60  H   UNL A   1      43.745  29.330  28.297  1.00  0.00     0.167 HD
ATOM     61  C   UNL A   1      42.955  31.753  29.540  1.00  0.00     0.074 A 
ATOM     62  C   UNL A   1      42.186  32.712  30.307  1.00  0.00     0.031 C 
ATOM     63  C   UNL A   1      44.198  31.985  29.055  1.00  0.00     0.034 A 
BRANCH  50  64
ATOM     64  C   UNL A   1      46.744  27.168  26.170  1.00  0.00     0.023 A 
ATOM     65  C   UNL A   1      46.792  27.306  24.769  1.00  0.00     0.012 A 
ATOM     66  C   UNL A   1      47.835  26.599  26.853  1.00  0.00     0.148 A 
ATOM     67  C   UNL A   1      47.909  26.875  24.054  1.00  0.00     0.002 A 
ATOM     68  C   UNL A   1      48.955  26.195  26.137  1.00  0.00     0.091 A 
ATOM     69  F   UNL A   1      47.754  26.465  28.185  1.00  0.00    -0.205 F 
ATOM     70  C   UNL A   1      48.993  26.329  24.738  1.00  0.00     0.022 A 
BRANCH  68  71
ATOM     71  S   UNL A   1      50.424  25.523  26.921  1.00  0.00     0.127 S 
ATOM     72  O   UNL A   1      50.774  26.591  27.857  1.00  0.00    -0.237 OA
ATOM     73  O   UNL A   1      49.907  24.307  27.549  1.00  0.00    -0.237 OA
ATOM     74  O   UNL A   1      51.387  25.299  25.852  1.00  0.00    -0.744 OA
ENDBRANCH  68  71
ENDBRANCH  50  64
BRANCH  51  75
ATOM     75  C   UNL A   1      38.642  30.485  30.965  1.00  0.00     0.023 A 
ATOM     76  C   UNL A   1      38.570  30.378  32.366  1.00  0.00     0.012 A 
ATOM     77  C   UNL A   1      37.600  31.123  30.265  1.00  0.00     0.148 A 
ATOM     78  C   UNL A   1      37.475  30.894  33.060  1.00  0.00     0.002 A 
ATOM     79  C   UNL A   1      36.531  31.669  30.965  1.00  0.00     0.091 A 
ATOM     80  F   UNL A   1      37.692  31.204  28.930  1.00  0.00    -0.205 F 
ATOM     81  C   UNL A   1      36.462  31.547  32.362  1.00  0.00     0.022 A 
BRANCH  79  82
ATOM     82  S   UNL A   1      35.230  32.617  30.168  1.00  0.00     0.127 S 
ATOM     83  O   UNL A   1      35.951  33.816  29.746  1.00  0.00    -0.237 OA
ATOM     84  O   UNL A   1      34.834  31.722  29.081  1.00  0.00    -0.237 OA
ATOM     85  O   UNL A   1      34.210  32.826  31.186  1.00  0.00    -0.744 OA
ENDBRANCH  79  82
ENDBRANCH  51  75
BRANCH  63  86
ATOM     86  C   UNL A   1      44.829  33.323  29.322  1.00  0.00     0.023 A 
ATOM     87  C   UNL A   1      45.551  33.516  30.515  1.00  0.00     0.012 A 
ATOM     88  C   UNL A   1      44.831  34.329  28.335  1.00  0.00     0.148 A 
ATOM     89  C   UNL A   1      46.265  34.694  30.725  1.00  0.00     0.002 A 
ATOM     90  C   UNL A   1      45.571  35.487  28.538  1.00  0.00     0.091 A 
ATOM     91  F   UNL A   1      44.130  34.120  27.212  1.00  0.00    -0.205 F 
ATOM     92  C   UNL A   1      46.286  35.673  29.734  1.00  0.00     0.022 A 
BRANCH  90  93
ATOM     93  S   UNL A   1      45.725  36.770  27.289  1.00  0.00     0.127 S 
ATOM     94  O   UNL A   1      46.643  37.706  27.938  1.00  0.00    -0.237 OA
ATOM     95  O   UNL A   1      46.299  36.036  26.162  1.00  0.00    -0.237 OA
ATOM     96  O   UNL A   1      44.379  37.278  27.063  1.00  0.00    -0.744 OA
ENDBRANCH  90  93
ENDBRANCH  63  86
ENDBRANCH  37  38
ENDBRANCH  30  32
ENDBRANCH  29  30
ENDBRANCH  28  29
ENDBRANCH  27  28
ENDBRANCH   1  27
TORSDOF 22
ENDMDL
MODEL 2
REMARK VINA RESULT:     -10.9      1.449      2.986
REMARK SMILES CSc1nc(O)nc(C)c1C(=O)N1C[C@@H](O)C[C@@H]1C(=O)OCCOCCOC(=O)c1ccc(-c2c3nc(c(-c4cccc(S(=O)(=O)[O-])c4F)c4ccc([nH]4)c(-c4cccc(S(=O)(=O)[O-])c4F)c4nc(c(-c5cccc(S(=O)(=O)[O-])c5F)c5ccc2[nH]5)C=C4)C=C3)cc1
REMARK SMILES IDX 24 1 23 2 22 3 21 4 19 5 20 6 18 7 13 8 14 9 15 10 17 11
REMARK SMILES IDX 11 12 12 13 10 14 3 15 4 16 5 17 8 18 7 19 9 20 2 21 1 22
REMARK SMILES IDX 6 23 16 25 25 27 26 28 27 29 28 30 29 31 30 32 31 33 92 34
REMARK SMILES IDX 32 35 91 36 33 37 34 38 35 39 85 40 36 41 90 42 84 43 86 44
REMARK SMILES IDX 37 45 89 46 83 47 82 48 38 50 70 51 50 52 69 53 51 54 54 55
REMARK SMILES IDX 68 56 87 57 52 58 53 59 67 61 88 62 55 63 39 64 40 65 48 66
REMARK SMILES IDX 41 67 43 68 49 69 42 70 44 71 45 72 46 73 47 74 71 75 72 76
REMARK SMILES IDX 80 77 73 78 75 79 81 80 74 81 76 82 77 83 78 84 79 85 56 86
REMARK SMILES IDX 57 87 65 88 58 89 60 90 66 91 59 92 61 93 62 94 63 95 64 96
REMARK H PARENT 6 24 16 26 86 49 54 60
REMARK Flexibility Score: inf
ROOT
ATOM      1  O   UNL A   1      36.621  21.600  25.449  1.00  0.00    -0.374 OA
ENDROOT
BRANCH   1   2
ATOM      2  C   UNL A   1      35.374  22.238  25.195  1.00  0.00     0.202 C 
BRANCH   2   3
ATOM      3  C   UNL A   1      35.360  23.369  24.161  1.00  0.00     0.261 C 
BRANCH   3   4
ATOM      4  O   UNL A   1      34.065  23.866  23.791  1.00  0.00    -0.462 OA
BRANCH   4   5
ATOM      5  C   UNL A   1      33.549  24.816  24.626  1.00  0.00     0.329 C 
ATOM      6  O   UNL A   1      34.220  25.630  25.251  1.00  0.00    -0.250 OA
BRANCH   5   7
ATOM      7  C   UNL A   1      32.017  24.739  24.681  1.00  0.00     0.198 C 
ATOM      8  N   UNL A   1      31.406  25.235  25.936  1.00  0.00    -0.322 N 
ATOM      9  C   UNL A   1      30.450  24.243  26.406  1.00  0.00     0.152 C 
ATOM     10  C   UNL A   1      31.107  22.931  26.000  1.00  0.00     0.136 C 
ATOM     11  C   UNL A   1      31.568  23.265  24.582  1.00  0.00     0.071 C 
BRANCH   8  12
ATOM     12  C   UNL A   1      31.169  26.591  26.087  1.00  0.00     0.259 C 
ATOM     13  O   UNL A   1      30.959  27.009  27.224  1.00  0.00    -0.269 OA
BRANCH  12  14
ATOM     14  C   UNL A   1      31.097  27.533  24.905  1.00  0.00     0.093 A 
ATOM     15  C   UNL A   1      32.038  28.506  24.527  1.00  0.00     0.116 A 
ATOM     16  N   UNL A   1      31.914  29.256  23.403  1.00  0.00    -0.188 NA
ATOM     17  C   UNL A   1      30.876  29.007  22.625  1.00  0.00     0.315 A 
ATOM     18  C   UNL A   1      30.042  27.378  23.979  1.00  0.00     0.058 A 
ATOM     19  N   UNL A   1      29.932  28.111  22.839  1.00  0.00    -0.200 NA
ATOM     20  C   UNL A   1      28.922  26.383  24.112  1.00  0.00     0.068 C 
BRANCH  15  21
ATOM     21  S   UNL A   1      33.576  28.880  25.378  1.00  0.00    -0.109 SA
ATOM     22  C   UNL A   1      33.087  30.223  26.494  1.00  0.00     0.092 C 
ENDBRANCH  15  21
BRANCH  17  23
ATOM     23  O   UNL A   1      30.791  29.674  21.447  1.00  0.00    -0.479 OA
ATOM     24  H   UNL A   1      30.134  29.440  20.822  1.00  0.00     0.297 HD
ENDBRANCH  17  23
ENDBRANCH  12  14
ENDBRANCH   8  12
BRANCH  10  25
ATOM     25  O   UNL A   1      30.229  21.821  26.040  1.00  0.00    -0.391 OA
ATOM     26  H   UNL A   1      29.607  21.928  26.776  1.00  0.00     0.211 HD
ENDBRANCH  10  25
ENDBRANCH   5   7
ENDBRANCH   4   5
ENDBRANCH   3   4
ENDBRANCH   2   3
ENDBRANCH   1   2
BRANCH   1  27
ATOM     27  C   UNL A   1      36.801  20.288  24.913  1.00  0.00     0.202 C 
BRANCH  27  28
ATOM     28  C   UNL A   1      38.163  19.646  25.178  1.00  0.00     0.261 C 
BRANCH  28  29
ATOM     29  O   UNL A   1      39.187  20.656  25.222  1.00  0.00    -0.460 OA
BRANCH  29  30
ATOM     30  C   UNL A   1      40.022  20.526  26.275  1.00  0.00     0.338 C 
ATOM     31  O   UNL A   1      40.667  19.526  26.581  1.00  0.00    -0.246 OA
BRANCH  30  32
ATOM     32  C   UNL A   1      40.190  21.818  26.950  1.00  0.00     0.060 A 
ATOM     33  C   UNL A   1      39.506  22.931  26.446  1.00  0.00     0.016 A 
ATOM     34  C   UNL A   1      41.153  21.964  27.949  1.00  0.00     0.016 A 
ATOM     35  C   UNL A   1      39.828  24.208  26.905  1.00  0.00     0.010 A 
ATOM     36  C   UNL A   1      41.470  23.243  28.412  1.00  0.00     0.010 A 
ATOM     37  C   UNL A   1      40.848  24.372  27.852  1.00  0.00    -0.014 A 
BRANCH  37  38
ATOM     38  C   UNL A   1      41.397  25.726  28.106  1.00  0.00     0.031 A 
ATOM     39  C   UNL A   1      42.788  26.044  27.626  1.00  0.00     0.074 A 
ATOM     40  C   UNL A   1      40.665  26.662  28.735  1.00  0.00     0.049 A 
ATOM     41  N   UNL A   1      43.457  27.162  27.722  1.00  0.00    -0.248 NA
ATOM     42  C   UNL A   1      43.520  24.962  26.944  1.00  0.00     0.031 C 
ATOM     43  C   UNL A   1      39.308  26.473  29.242  1.00  0.00     0.029 A 
ATOM     44  N   UNL A   1      40.973  27.958  29.064  1.00  0.00    -0.354 N 
ATOM     45  C   UNL A   1      44.688  26.917  27.126  1.00  0.00     0.074 A 
ATOM     46  C   UNL A   1      44.682  25.541  26.681  1.00  0.00     0.031 C 
ATOM     47  C   UNL A   1      38.904  27.610  29.834  1.00  0.00     0.029 A 
ATOM     48  C   UNL A   1      39.977  28.601  29.756  1.00  0.00     0.049 A 
ATOM     49  H   UNL A   1      41.827  28.387  28.826  1.00  0.00     0.167 HD
ATOM     50  C   UNL A   1      45.723  27.769  26.940  1.00  0.00     0.034 A 
ATOM     51  C   UNL A   1      39.936  29.846  30.273  1.00  0.00     0.034 A 
ATOM     52  C   UNL A   1      45.723  29.142  27.360  1.00  0.00     0.049 A 
ATOM     53  C   UNL A   1      41.109  30.768  30.077  1.00  0.00     0.074 A 
ATOM     54  C   UNL A   1      46.715  30.091  27.185  1.00  0.00     0.029 A 
ATOM     55  N   UNL A   1      44.688  29.759  28.040  1.00  0.00    -0.354 N 
ATOM     56  N   UNL A   1      42.225  30.551  29.425  1.00  0.00    -0.248 NA
ATOM     57  C   UNL A   1      41.009  32.114  30.664  1.00  0.00     0.031 C 
ATOM     58  C   UNL A   1      46.279  31.286  27.767  1.00  0.00     0.029 A 
ATOM     59  C   UNL A   1      45.016  31.078  28.297  1.00  0.00     0.049 A 
ATOM     60  H   UNL A   1      43.844  29.325  28.302  1.00  0.00     0.167 HD
ATOM     61  C   UNL A   1      42.951  31.734  29.503  1.00  0.00     0.074 A 
ATOM     62  C   UNL A   1      42.143  32.672  30.256  1.00  0.00     0.031 C 
ATOM     63  C   UNL A   1      44.180  32.012  29.007  1.00  0.00     0.034 A 
BRANCH  50  64
ATOM     64  C   UNL A   1      46.927  27.260  26.201  1.00  0.00     0.023 A 
ATOM     65  C   UNL A   1      47.014  27.475  24.811  1.00  0.00     0.012 A 
ATOM     66  C   UNL A   1      47.998  26.652  26.881  1.00  0.00     0.148 A 
ATOM     67  C   UNL A   1      48.151  27.082  24.104  1.00  0.00     0.002 A 
ATOM     68  C   UNL A   1      49.138  26.286  26.175  1.00  0.00     0.091 A 
ATOM     69  F   UNL A   1      47.881  26.445  28.200  1.00  0.00    -0.205 F 
ATOM     70  C   UNL A   1      49.214  26.498  24.787  1.00  0.00     0.022 A 
BRANCH  68  71
ATOM     71  S   UNL A   1      50.584  25.569  26.961  1.00  0.00     0.127 S 
ATOM     72  O   UNL A   1      51.427  25.263  25.806  1.00  0.00    -0.237 OA
ATOM     73  O   UNL A   1      51.063  26.675  27.790  1.00  0.00    -0.237 OA
ATOM     74  O   UNL A   1      50.108  24.409  27.702  1.00  0.00    -0.744 OA
ENDBRANCH  68  71
ENDBRANCH  50  64
BRANCH  51  75
ATOM     75  C   UNL A   1      38.707  30.301  30.977  1.00  0.00     0.023 A 
ATOM     76  C   UNL A   1      38.578  30.066  32.359  1.00  0.00     0.012 A 
ATOM     77  C   UNL A   1      37.705  31.022  30.301  1.00  0.00     0.148 A 
ATOM     78  C   UNL A   1      37.467  30.539  33.057  1.00  0.00     0.002 A 
ATOM     79  C   UNL A   1      36.619  31.524  31.009  1.00  0.00     0.091 A 
ATOM     80  F   UNL A   1      37.850  31.224  28.984  1.00  0.00    -0.205 F 
ATOM     81  C   UNL A   1      36.494  31.276  32.385  1.00  0.00     0.022 A 
BRANCH  79  82
ATOM     82  S   UNL A   1      35.368  32.570  30.255  1.00  0.00     0.127 S 
ATOM     83  O   UNL A   1      36.157  33.725  29.835  1.00  0.00    -0.237 OA
ATOM     84  O   UNL A   1      34.890  31.720  29.164  1.00  0.00    -0.237 OA
ATOM     85  O   UNL A   1      34.385  32.829  31.298  1.00  0.00    -0.744 OA
ENDBRANCH  79  82
ENDBRANCH  51  75
BRANCH  63  86
ATOM     86  C   UNL A   1      44.751  33.383  29.244  1.00  0.00     0.023 A 
ATOM     87  C   UNL A   1      45.611  33.588  30.339  1.00  0.00     0.012 A 
ATOM     88  C   UNL A   1      44.554  34.418  28.308  1.00  0.00     0.148 A 
ATOM     89  C   UNL A   1      46.267  34.807  30.502  1.00  0.00     0.002 A 
ATOM     90  C   UNL A   1      45.236  35.619  28.460  1.00  0.00     0.091 A 
ATOM     91  F   UNL A   1      43.725  34.196  27.278  1.00  0.00    -0.205 F 
ATOM     92  C   UNL A   1      46.091  35.816  29.558  1.00  0.00     0.022 A 
BRANCH  90  93
ATOM     93  S   UNL A   1      45.137  36.949  27.256  1.00  0.00     0.127 S 
ATOM     94  O   UNL A   1      46.056  36.478  26.218  1.00  0.00    -0.237 OA
ATOM     95  O   UNL A   1      43.725  36.919  26.878  1.00  0.00    -0.237 OA
ATOM     96  O   UNL A   1      45.556  38.157  27.952  1.00  0.00    -0.744 OA
ENDBRANCH  90  93
ENDBRANCH  63  86
ENDBRANCH  37  38
ENDBRANCH  30  32
ENDBRANCH  29  30
ENDBRANCH  28  29
ENDBRANCH  27  28
ENDBRANCH   1  27
TORSDOF 22
ENDMDL
MODEL 3
REMARK VINA RESULT:     -10.9      1.689      3.357
REMARK SMILES CSc1nc(O)nc(C)c1C(=O)N1C[C@@H](O)C[C@@H]1C(=O)OCCOCCOC(=O)c1ccc(-c2c3nc(c(-c4cccc(S(=O)(=O)[O-])c4F)c4ccc([nH]4)c(-c4cccc(S(=O)(=O)[O-])c4F)c4nc(c(-c5cccc(S(=O)(=O)[O-])c5F)c5ccc2[nH]5)C=C4)C=C3)cc1
REMARK SMILES IDX 24 1 23 2 22 3 21 4 19 5 20 6 18 7 13 8 14 9 15 10 17 11
REMARK SMILES IDX 11 12 12 13 10 14 3 15 4 16 5 17 8 18 7 19 9 20 2 21 1 22
REMARK SMILES IDX 6 23 16 25 25 27 26 28 27 29 28 30 29 31 30 32 31 33 92 34
REMARK SMILES IDX 32 35 91 36 33 37 34 38 35 39 85 40 36 41 90 42 84 43 86 44
REMARK SMILES IDX 37 45 89 46 83 47 82 48 38 50 70 51 50 52 69 53 51 54 54 55
REMARK SMILES IDX 68 56 87 57 52 58 53 59 67 61 88 62 55 63 39 64 40 65 48 66
REMARK SMILES IDX 41 67 43 68 49 69 42 70 44 71 45 72 46 73 47 74 71 75 72 76
REMARK SMILES IDX 80 77 73 78 75 79 81 80 74 81 76 82 77 83 78 84 79 85 56 86
REMARK SMILES IDX 57 87 65 88 58 89 60 90 66 91 59 92 61 93 62 94 63 95 64 96
REMARK H PARENT 6 24 16 26 86 49 54 60
REMARK Flexibility Score: inf
ROOT
ATOM      1  O   UNL A   1      35.581  21.217  25.878  1.00  0.00    -0.374 OA
ENDROOT
BRANCH   1   2
ATOM      2  C   UNL A   1      34.324  21.821  25.594  1.00  0.00     0.202 C 
BRANCH   2   3
ATOM      3  C   UNL A   1      34.132  22.419  24.196  1.00  0.00     0.261 C 
BRANCH   3   4
ATOM      4  O   UNL A   1      32.871  23.064  23.957  1.00  0.00    -0.462 OA
BRANCH   4   5
ATOM      5  C   UNL A   1      32.951  24.282  23.343  1.00  0.00     0.329 C 
ATOM      6  O   UNL A   1      33.751  24.562  22.457  1.00  0.00    -0.250 OA
BRANCH   5   7
ATOM      7  C   UNL A   1      31.908  25.260  23.902  1.00  0.00     0.198 C 
ATOM      8  N   UNL A   1      32.375  26.107  25.023  1.00  0.00    -0.322 N 
ATOM      9  C   UNL A   1      31.387  26.044  26.090  1.00  0.00     0.152 C 
ATOM     10  C   UNL A   1      30.881  24.612  25.991  1.00  0.00     0.136 C 
ATOM     11  C   UNL A   1      30.714  24.468  24.479  1.00  0.00     0.071 C 
BRANCH   8  12
ATOM     12  C   UNL A   1      33.067  27.276  24.750  1.00  0.00     0.259 C 
ATOM     13  O   UNL A   1      34.169  27.173  24.217  1.00  0.00    -0.269 OA
BRANCH  12  14
ATOM     14  C   UNL A   1      32.536  28.637  25.145  1.00  0.00     0.093 A 
ATOM     15  C   UNL A   1      31.469  29.341  24.562  1.00  0.00     0.116 A 
ATOM     16  N   UNL A   1      31.023  30.531  25.039  1.00  0.00    -0.188 NA
ATOM     17  C   UNL A   1      31.606  31.002  26.126  1.00  0.00     0.315 A 
ATOM     18  C   UNL A   1      33.062  29.260  26.299  1.00  0.00     0.058 A 
ATOM     19  N   UNL A   1      32.596  30.439  26.791  1.00  0.00    -0.200 NA
ATOM     20  C   UNL A   1      34.177  28.705  27.142  1.00  0.00     0.068 C 
BRANCH  15  21
ATOM     21  S   UNL A   1      30.467  28.792  23.176  1.00  0.00    -0.109 SA
ATOM     22  C   UNL A   1      29.040  29.908  23.259  1.00  0.00     0.092 C 
ENDBRANCH  15  21
BRANCH  17  23
ATOM     23  O   UNL A   1      31.106  32.136  26.675  1.00  0.00    -0.479 OA
ATOM     24  H   UNL A   1      31.672  32.861  26.852  1.00  0.00     0.297 HD
ENDBRANCH  17  23
ENDBRANCH  12  14
ENDBRANCH   8  12
BRANCH  10  25
ATOM     25  O   UNL A   1      29.676  24.386  26.697  1.00  0.00    -0.391 OA
ATOM     26  H   UNL A   1      29.271  23.560  26.390  1.00  0.00     0.211 HD
ENDBRANCH  10  25
ENDBRANCH   5   7
ENDBRANCH   4   5
ENDBRANCH   3   4
ENDBRANCH   2   3
ENDBRANCH   1   2
BRANCH   1  27
ATOM     27  C   UNL A   1      36.029  20.196  24.985  1.00  0.00     0.202 C 
BRANCH  27  28
ATOM     28  C   UNL A   1      37.544  20.020  24.887  1.00  0.00     0.261 C 
BRANCH  28  29
ATOM     29  O   UNL A   1      38.209  21.258  25.202  1.00  0.00    -0.460 OA
BRANCH  29  30
ATOM     30  C   UNL A   1      39.304  21.095  25.973  1.00  0.00     0.338 C 
ATOM     31  O   UNL A   1      40.060  20.127  25.981  1.00  0.00    -0.246 OA
BRANCH  30  32
ATOM     32  C   UNL A   1      39.582  22.326  26.722  1.00  0.00     0.060 A 
ATOM     33  C   UNL A   1      38.889  23.492  26.376  1.00  0.00     0.016 A 
ATOM     34  C   UNL A   1      40.646  22.369  27.625  1.00  0.00     0.016 A 
ATOM     35  C   UNL A   1      39.298  24.721  26.894  1.00  0.00     0.010 A 
ATOM     36  C   UNL A   1      41.051  23.600  28.147  1.00  0.00     0.010 A 
ATOM     37  C   UNL A   1      40.413  24.785  27.741  1.00  0.00    -0.014 A 
BRANCH  37  38
ATOM     38  C   UNL A   1      41.030  26.100  28.038  1.00  0.00     0.031 A 
ATOM     39  C   UNL A   1      42.438  26.360  27.574  1.00  0.00     0.074 A 
ATOM     40  C   UNL A   1      40.344  27.054  28.692  1.00  0.00     0.049 A 
ATOM     41  N   UNL A   1      43.163  27.438  27.706  1.00  0.00    -0.248 NA
ATOM     42  C   UNL A   1      43.117  25.262  26.862  1.00  0.00     0.031 C 
ATOM     43  C   UNL A   1      38.976  26.920  29.187  1.00  0.00     0.029 A 
ATOM     44  N   UNL A   1      40.716  28.321  29.061  1.00  0.00    -0.354 N 
ATOM     45  C   UNL A   1      44.384  27.148  27.107  1.00  0.00     0.074 A 
ATOM     46  C   UNL A   1      44.309  25.788  26.622  1.00  0.00     0.031 C 
ATOM     47  C   UNL A   1      38.627  28.058  29.812  1.00  0.00     0.029 A 
ATOM     48  C   UNL A   1      39.751  28.994  29.769  1.00  0.00     0.049 A 
ATOM     49  H   UNL A   1      41.593  28.712  28.839  1.00  0.00     0.167 HD
ATOM     50  C   UNL A   1      45.462  27.950  26.952  1.00  0.00     0.034 A 
ATOM     51  C   UNL A   1      39.771  30.223  30.322  1.00  0.00     0.034 A 
ATOM     52  C   UNL A   1      45.531  29.308  27.413  1.00  0.00     0.049 A 
ATOM     53  C   UNL A   1      40.992  31.089  30.159  1.00  0.00     0.074 A 
ATOM     54  C   UNL A   1      46.571  30.209  27.270  1.00  0.00     0.029 A 
ATOM     55  N   UNL A   1      44.525  29.958  28.107  1.00  0.00    -0.354 N 
ATOM     56  N   UNL A   1      42.098  30.834  29.505  1.00  0.00    -0.248 NA
ATOM     57  C   UNL A   1      40.958  32.420  30.786  1.00  0.00     0.031 C 
ATOM     58  C   UNL A   1      46.194  31.407  27.887  1.00  0.00     0.029 A 
ATOM     59  C   UNL A   1      44.919  31.249  28.405  1.00  0.00     0.049 A 
ATOM     60  H   UNL A   1      43.658  29.560  28.353  1.00  0.00     0.167 HD
ATOM     61  C   UNL A   1      42.884  31.975  29.622  1.00  0.00     0.074 A 
ATOM     62  C   UNL A   1      42.121  32.931  30.400  1.00  0.00     0.031 C 
ATOM     63  C   UNL A   1      44.129  32.204  29.139  1.00  0.00     0.034 A 
BRANCH  50  64
ATOM     64  C   UNL A   1      46.642  27.402  26.202  1.00  0.00     0.023 A 
ATOM     65  C   UNL A   1      46.718  27.603  24.810  1.00  0.00     0.012 A 
ATOM     66  C   UNL A   1      47.705  26.770  26.875  1.00  0.00     0.148 A 
ATOM     67  C   UNL A   1      47.834  27.173  24.093  1.00  0.00     0.002 A 
ATOM     68  C   UNL A   1      48.826  26.367  26.158  1.00  0.00     0.091 A 
ATOM     69  F   UNL A   1      47.598  26.578  28.197  1.00  0.00    -0.205 F 
ATOM     70  C   UNL A   1      48.890  26.565  24.768  1.00  0.00     0.022 A 
BRANCH  68  71
ATOM     71  S   UNL A   1      50.261  25.617  26.933  1.00  0.00     0.127 S 
ATOM     72  O   UNL A   1      51.150  25.429  25.787  1.00  0.00    -0.237 OA
ATOM     73  O   UNL A   1      50.684  26.658  27.869  1.00  0.00    -0.237 OA
ATOM     74  O   UNL A   1      49.788  24.389  27.556  1.00  0.00    -0.744 OA
ENDBRANCH  68  71
ENDBRANCH  50  64
BRANCH  51  75
ATOM     75  C   UNL A   1      38.564  30.720  31.035  1.00  0.00     0.023 A 
ATOM     76  C   UNL A   1      38.496  30.608  32.436  1.00  0.00     0.012 A 
ATOM     77  C   UNL A   1      37.520  31.362  30.340  1.00  0.00     0.148 A 
ATOM     78  C   UNL A   1      37.405  31.124  33.136  1.00  0.00     0.002 A 
ATOM     79  C   UNL A   1      36.455  31.908  31.046  1.00  0.00     0.091 A 
ATOM     80  F   UNL A   1      37.608  31.447  29.006  1.00  0.00    -0.205 F 
ATOM     81  C   UNL A   1      36.391  31.782  32.443  1.00  0.00     0.022 A 
BRANCH  79  82
ATOM     82  S   UNL A   1      35.153  32.862  30.257  1.00  0.00     0.127 S 
ATOM     83  O   UNL A   1      34.634  31.907  29.281  1.00  0.00    -0.237 OA
ATOM     84  O   UNL A   1      34.263  33.137  31.385  1.00  0.00    -0.237 OA
ATOM     85  O   UNL A   1      35.805  34.037  29.697  1.00  0.00    -0.744 OA
ENDBRANCH  79  82
ENDBRANCH  51  75
BRANCH  63  86
ATOM     86  C   UNL A   1      44.768  33.536  29.420  1.00  0.00     0.023 A 
ATOM     87  C   UNL A   1      45.479  33.715  30.622  1.00  0.00     0.012 A 
ATOM     88  C   UNL A   1      44.789  34.546  28.439  1.00  0.00     0.148 A 
ATOM     89  C   UNL A   1      46.201  34.887  30.846  1.00  0.00     0.002 A 
ATOM     90  C   UNL A   1      45.537  35.697  28.656  1.00  0.00     0.091 A 
ATOM     91  F   UNL A   1      44.098  34.350  27.307  1.00  0.00    -0.205 F 
ATOM     92  C   UNL A   1      46.241  35.870  29.860  1.00  0.00     0.022 A 
BRANCH  90  93
ATOM     93  S   UNL A   1      45.715  36.985  27.415  1.00  0.00     0.127 S 
ATOM     94  O   UNL A   1      44.372  37.565  27.395  1.00  0.00    -0.237 OA
ATOM     95  O   UNL A   1      46.741  37.844  28.007  1.00  0.00    -0.237 OA
ATOM     96  O   UNL A   1      46.118  36.312  26.188  1.00  0.00    -0.744 OA
ENDBRANCH  90  93
ENDBRANCH  63  86
ENDBRANCH  37  38
ENDBRANCH  30  32
ENDBRANCH  29  30
ENDBRANCH  28  29
ENDBRANCH  27  28
ENDBRANCH   1  27
TORSDOF 22
ENDMDL
