MODEL 1
REMARK VINA RESULT:     -10.5      0.000      0.000
REMARK SMILES C[C@H](C(=O)OCCOCCOC(=O)c1ccc(-c2c3nc(c(-c4cccc(S(=O)(=O)[O-])c4F)c4ccc([nH]4)c(-c4cccc(S(=O)(=O)[O-])c4F)c4nc(c(-c5cccc(S(=O)(=O)[O-])c5F)c5ccc2[nH]5)C=C4)C=C3)cc1)c1ccc2c(c1)[nH]c1ccc(Cl)cc12
REMARK SMILES IDX 9 1 8 2 7 3 6 4 5 5 3 6 4 7 2 8 1 9 77 10 78 11 82 12 79 13
REMARK SMILES IDX 81 14 80 15 83 16 90 17 84 18 89 20 85 21 87 22 86 23 88 24
REMARK SMILES IDX 10 25 11 26 12 27 13 28 14 29 15 30 76 31 16 32 75 33 17 34
REMARK SMILES IDX 18 35 19 36 69 37 20 38 74 39 68 40 70 41 21 42 73 43 67 44
REMARK SMILES IDX 66 45 22 47 54 48 34 49 53 50 35 51 38 52 52 53 71 54 36 55
REMARK SMILES IDX 37 56 51 58 72 59 39 60 23 61 24 62 32 63 25 64 27 65 33 66
REMARK SMILES IDX 26 67 28 68 29 69 30 70 31 71 55 72 56 73 64 74 57 75 59 76
REMARK SMILES IDX 65 77 58 78 60 79 61 80 62 81 63 82 40 83 41 84 49 85 42 86
REMARK SMILES IDX 44 87 50 88 43 89 45 90 46 91 47 92 48 93
REMARK H PARENT 83 19 70 46 38 57
REMARK Flexibility Score: inf
ROOT
ATOM      1  C   UNL A   1      34.179  35.012  28.301  1.00  0.00     0.202 C 
ENDROOT
BRANCH   1   2
ATOM      2  O   UNL A   1      34.165  35.657  29.568  1.00  0.00    -0.374 OA
BRANCH   2   3
ATOM      3  C   UNL A   1      32.865  35.979  30.087  1.00  0.00     0.202 C 
BRANCH   3   4
ATOM      4  C   UNL A   1      32.792  36.600  31.497  1.00  0.00     0.261 C 
BRANCH   4   5
ATOM      5  O   UNL A   1      32.969  35.613  32.543  1.00  0.00    -0.463 OA
BRANCH   5   6
ATOM      6  C   UNL A   1      34.014  35.825  33.392  1.00  0.00     0.313 C 
ATOM      7  O   UNL A   1      34.277  36.911  33.900  1.00  0.00    -0.252 OA
BRANCH   6   8
ATOM      8  C   UNL A   1      34.782  34.557  33.750  1.00  0.00     0.126 C 
ATOM      9  C   UNL A   1      34.041  33.277  33.325  1.00  0.00     0.025 C 
BRANCH   8  10
ATOM     10  C   UNL A   1      36.247  34.441  33.364  1.00  0.00    -0.032 A 
ATOM     11  C   UNL A   1      37.340  34.482  34.233  1.00  0.00     0.005 A 
ATOM     12  C   UNL A   1      36.484  34.349  31.980  1.00  0.00     0.031 A 
ATOM     13  C   UNL A   1      38.664  34.442  33.735  1.00  0.00     0.011 A 
ATOM     14  C   UNL A   1      37.780  34.475  31.510  1.00  0.00     0.047 A 
ATOM     15  C   UNL A   1      38.893  34.469  32.338  1.00  0.00     0.007 A 
ATOM     16  N   UNL A   1      38.203  34.669  30.225  1.00  0.00    -0.355 N 
ATOM     17  C   UNL A   1      40.037  34.485  31.467  1.00  0.00     0.009 A 
ATOM     18  C   UNL A   1      39.568  34.731  30.172  1.00  0.00     0.047 A 
ATOM     19  H   UNL A   1      37.608  34.754  29.446  1.00  0.00     0.167 HD
ATOM     20  C   UNL A   1      41.429  34.346  31.643  1.00  0.00     0.031 A 
ATOM     21  C   UNL A   1      40.395  34.973  29.074  1.00  0.00     0.028 A 
ATOM     22  C   UNL A   1      42.270  34.498  30.530  1.00  0.00     0.041 A 
ATOM     23  C   UNL A   1      41.767  34.846  29.277  1.00  0.00     0.022 A 
ATOM     24  Cl  UNL A   1      43.963  34.233  30.700  1.00  0.00    -0.084 Cl
ENDBRANCH   8  10
ENDBRANCH   6   8
ENDBRANCH   5   6
ENDBRANCH   4   5
ENDBRANCH   3   4
ENDBRANCH   2   3
ENDBRANCH   1   2
BRANCH   1  25
ATOM     25  C   UNL A   1      33.300  33.777  28.084  1.00  0.00     0.261 C 
BRANCH  25  26
ATOM     26  O   UNL A   1      33.867  32.867  27.140  1.00  0.00    -0.460 OA
BRANCH  26  27
ATOM     27  C   UNL A   1      33.816  31.580  27.550  1.00  0.00     0.338 C 
ATOM     28  O   UNL A   1      32.846  30.831  27.508  1.00  0.00    -0.246 OA
BRANCH  27  29
ATOM     29  C   UNL A   1      35.162  31.115  27.903  1.00  0.00     0.060 A 
ATOM     30  C   UNL A   1      35.337  29.731  28.027  1.00  0.00     0.016 A 
ATOM     31  C   UNL A   1      36.214  31.998  28.160  1.00  0.00     0.016 A 
ATOM     32  C   UNL A   1      36.541  29.226  28.491  1.00  0.00     0.010 A 
ATOM     33  C   UNL A   1      37.427  31.486  28.627  1.00  0.00     0.010 A 
ATOM     34  C   UNL A   1      37.573  30.105  28.844  1.00  0.00    -0.014 A 
BRANCH  34  35
ATOM     35  C   UNL A   1      38.734  29.577  29.594  1.00  0.00     0.031 A 
ATOM     36  C   UNL A   1      38.899  29.965  31.037  1.00  0.00     0.074 A 
ATOM     37  C   UNL A   1      39.600  28.736  29.005  1.00  0.00     0.049 A 
ATOM     38  N   UNL A   1      39.828  29.617  31.887  1.00  0.00    -0.248 NA
ATOM     39  C   UNL A   1      37.878  30.868  31.600  1.00  0.00     0.031 C 
ATOM     40  C   UNL A   1      39.529  28.290  27.614  1.00  0.00     0.029 A 
ATOM     41  N   UNL A   1      40.721  28.123  29.502  1.00  0.00    -0.354 N 
ATOM     42  C   UNL A   1      39.523  30.276  33.072  1.00  0.00     0.074 A 
ATOM     43  C   UNL A   1      38.332  31.060  32.829  1.00  0.00     0.031 C 
ATOM     44  C   UNL A   1      40.579  27.493  27.360  1.00  0.00     0.029 A 
ATOM     45  C   UNL A   1      41.407  27.394  28.560  1.00  0.00     0.049 A 
ATOM     46  H   UNL A   1      41.007  28.197  30.441  1.00  0.00     0.167 HD
ATOM     47  C   UNL A   1      40.168  30.218  34.260  1.00  0.00     0.034 A 
ATOM     48  C   UNL A   1      42.582  26.743  28.655  1.00  0.00     0.034 A 
ATOM     49  C   UNL A   1      41.343  29.424  34.495  1.00  0.00     0.049 A 
ATOM     50  C   UNL A   1      43.293  26.712  29.981  1.00  0.00     0.074 A 
ATOM     51  C   UNL A   1      42.051  29.263  35.672  1.00  0.00     0.029 A 
ATOM     52  N   UNL A   1      41.990  28.669  33.529  1.00  0.00    -0.354 N 
ATOM     53  N   UNL A   1      42.935  27.250  31.123  1.00  0.00    -0.248 NA
ATOM     54  C   UNL A   1      44.551  25.955  30.045  1.00  0.00     0.031 C 
ATOM     55  C   UNL A   1      43.148  28.434  35.408  1.00  0.00     0.029 A 
ATOM     56  C   UNL A   1      43.099  28.049  34.078  1.00  0.00     0.049 A 
ATOM     57  H   UNL A   1      41.703  28.586  32.590  1.00  0.00     0.167 HD
ATOM     58  C   UNL A   1      43.902  26.868  32.046  1.00  0.00     0.074 A 
ATOM     59  C   UNL A   1      44.851  26.037  31.334  1.00  0.00     0.031 C 
ATOM     60  C   UNL A   1      44.005  27.186  33.361  1.00  0.00     0.034 A 
BRANCH  47  61
ATOM     61  C   UNL A   1      39.603  31.025  35.402  1.00  0.00     0.023 A 
ATOM     62  C   UNL A   1      38.441  30.582  36.064  1.00  0.00     0.012 A 
ATOM     63  C   UNL A   1      40.249  32.196  35.845  1.00  0.00     0.148 A 
ATOM     64  C   UNL A   1      37.908  31.310  37.128  1.00  0.00     0.002 A 
ATOM     65  C   UNL A   1      39.738  32.890  36.937  1.00  0.00     0.091 A 
ATOM     66  F   UNL A   1      41.339  32.614  35.189  1.00  0.00    -0.205 F 
ATOM     67  C   UNL A   1      38.562  32.456  37.570  1.00  0.00     0.022 A 
BRANCH  65  68
ATOM     68  S   UNL A   1      40.549  34.335  37.631  1.00  0.00     0.127 S 
ATOM     69  O   UNL A   1      40.801  35.136  36.433  1.00  0.00    -0.237 OA
ATOM     70  O   UNL A   1      39.516  34.871  38.516  1.00  0.00    -0.237 OA
ATOM     71  O   UNL A   1      41.738  33.841  38.311  1.00  0.00    -0.744 OA
ENDBRANCH  65  68
ENDBRANCH  47  61
BRANCH  48  72
ATOM     72  C   UNL A   1      43.143  26.049  27.462  1.00  0.00     0.023 A 
ATOM     73  C   UNL A   1      44.085  26.704  26.648  1.00  0.00     0.012 A 
ATOM     74  C   UNL A   1      42.765  24.729  27.150  1.00  0.00     0.148 A 
ATOM     75  C   UNL A   1      44.620  26.067  25.526  1.00  0.00     0.002 A 
ATOM     76  C   UNL A   1      43.343  24.080  26.066  1.00  0.00     0.091 A 
ATOM     77  F   UNL A   1      41.855  24.128  27.930  1.00  0.00    -0.205 F 
ATOM     78  C   UNL A   1      44.257  24.753  25.242  1.00  0.00     0.022 A 
BRANCH  76  79
ATOM     79  S   UNL A   1      43.036  22.348  25.706  1.00  0.00     0.127 S 
ATOM     80  O   UNL A   1      43.649  21.691  26.858  1.00  0.00    -0.237 OA
ATOM     81  O   UNL A   1      41.574  22.302  25.675  1.00  0.00    -0.237 OA
ATOM     82  O   UNL A   1      43.671  22.093  24.420  1.00  0.00    -0.744 OA
ENDBRANCH  76  79
ENDBRANCH  48  72
BRANCH  60  83
ATOM     83  C   UNL A   1      45.161  26.603  34.132  1.00  0.00     0.023 A 
ATOM     84  C   UNL A   1      46.403  27.267  34.148  1.00  0.00     0.012 A 
ATOM     85  C   UNL A   1      44.991  25.434  34.900  1.00  0.00     0.148 A 
ATOM     86  C   UNL A   1      47.469  26.758  34.890  1.00  0.00     0.002 A 
ATOM     87  C   UNL A   1      46.040  24.962  35.678  1.00  0.00     0.091 A 
ATOM     88  F   UNL A   1      43.806  24.807  34.858  1.00  0.00    -0.205 F 
ATOM     89  C   UNL A   1      47.284  25.614  35.663  1.00  0.00     0.022 A 
BRANCH  87  90
ATOM     90  S   UNL A   1      45.865  23.555  36.781  1.00  0.00     0.127 S 
ATOM     91  O   UNL A   1      45.226  22.570  35.909  1.00  0.00    -0.237 OA
ATOM     92  O   UNL A   1      47.256  23.255  37.123  1.00  0.00    -0.237 OA
ATOM     93  O   UNL A   1      45.054  24.019  37.899  1.00  0.00    -0.744 OA
ENDBRANCH  87  90
ENDBRANCH  60  83
ENDBRANCH  34  35
ENDBRANCH  27  29
ENDBRANCH  26  27
ENDBRANCH  25  26
ENDBRANCH   1  25
TORSDOF 18
ENDMDL
MODEL 2
REMARK VINA RESULT:     -10.3      5.426     11.718
REMARK SMILES C[C@H](C(=O)OCCOCCOC(=O)c1ccc(-c2c3nc(c(-c4cccc(S(=O)(=O)[O-])c4F)c4ccc([nH]4)c(-c4cccc(S(=O)(=O)[O-])c4F)c4nc(c(-c5cccc(S(=O)(=O)[O-])c5F)c5ccc2[nH]5)C=C4)C=C3)cc1)c1ccc2c(c1)[nH]c1ccc(Cl)cc12
REMARK SMILES IDX 9 1 8 2 7 3 6 4 5 5 3 6 4 7 2 8 1 9 77 10 78 11 82 12 79 13
REMARK SMILES IDX 81 14 80 15 83 16 90 17 84 18 89 20 85 21 87 22 86 23 88 24
REMARK SMILES IDX 10 25 11 26 12 27 13 28 14 29 15 30 76 31 16 32 75 33 17 34
REMARK SMILES IDX 18 35 19 36 69 37 20 38 74 39 68 40 70 41 21 42 73 43 67 44
REMARK SMILES IDX 66 45 22 47 54 48 34 49 53 50 35 51 38 52 52 53 71 54 36 55
REMARK SMILES IDX 37 56 51 58 72 59 39 60 23 61 24 62 32 63 25 64 27 65 33 66
REMARK SMILES IDX 26 67 28 68 29 69 30 70 31 71 55 72 56 73 64 74 57 75 59 76
REMARK SMILES IDX 65 77 58 78 60 79 61 80 62 81 63 82 40 83 41 84 49 85 42 86
REMARK SMILES IDX 44 87 50 88 43 89 45 90 46 91 47 92 48 93
REMARK H PARENT 83 19 70 46 38 57
REMARK Flexibility Score: inf
ROOT
ATOM      1  C   UNL A   1      35.838  20.826  24.803  1.00  0.00     0.202 C 
ENDROOT
BRANCH   1   2
ATOM      2  O   UNL A   1      35.071  21.337  25.886  1.00  0.00    -0.374 OA
BRANCH   2   3
ATOM      3  C   UNL A   1      33.794  20.714  26.092  1.00  0.00     0.202 C 
BRANCH   3   4
ATOM      4  C   UNL A   1      32.808  20.696  24.905  1.00  0.00     0.261 C 
BRANCH   4   5
ATOM      5  O   UNL A   1      31.438  20.910  25.325  1.00  0.00    -0.463 OA
BRANCH   5   6
ATOM      6  C   UNL A   1      31.056  22.209  25.474  1.00  0.00     0.313 C 
ATOM      7  O   UNL A   1      30.366  22.621  26.402  1.00  0.00    -0.252 OA
BRANCH   6   8
ATOM      8  C   UNL A   1      31.653  23.149  24.432  1.00  0.00     0.126 C 
ATOM      9  C   UNL A   1      30.653  23.510  23.320  1.00  0.00     0.025 C 
BRANCH   8  10
ATOM     10  C   UNL A   1      32.369  24.408  24.891  1.00  0.00    -0.032 A 
ATOM     11  C   UNL A   1      33.664  24.484  25.410  1.00  0.00     0.005 A 
ATOM     12  C   UNL A   1      31.594  25.581  24.829  1.00  0.00     0.031 A 
ATOM     13  C   UNL A   1      34.188  25.714  25.876  1.00  0.00     0.011 A 
ATOM     14  C   UNL A   1      32.065  26.732  25.437  1.00  0.00     0.047 A 
ATOM     15  C   UNL A   1      33.359  26.862  25.919  1.00  0.00     0.007 A 
ATOM     16  N   UNL A   1      31.387  27.885  25.717  1.00  0.00    -0.355 N 
ATOM     17  C   UNL A   1      33.491  28.229  26.345  1.00  0.00     0.009 A 
ATOM     18  C   UNL A   1      32.212  28.795  26.316  1.00  0.00     0.047 A 
ATOM     19  H   UNL A   1      30.435  28.038  25.517  1.00  0.00     0.167 HD
ATOM     20  C   UNL A   1      34.556  29.041  26.783  1.00  0.00     0.031 A 
ATOM     21  C   UNL A   1      31.909  30.065  26.810  1.00  0.00     0.028 A 
ATOM     22  C   UNL A   1      34.281  30.352  27.199  1.00  0.00     0.041 A 
ATOM     23  C   UNL A   1      32.976  30.842  27.252  1.00  0.00     0.022 A 
ATOM     24  Cl  UNL A   1      35.578  31.395  27.641  1.00  0.00    -0.084 Cl
ENDBRANCH   8  10
ENDBRANCH   6   8
ENDBRANCH   5   6
ENDBRANCH   4   5
ENDBRANCH   3   4
ENDBRANCH   2   3
ENDBRANCH   1   2
BRANCH   1  25
ATOM     25  C   UNL A   1      37.337  20.585  25.000  1.00  0.00     0.261 C 
BRANCH  25  26
ATOM     26  O   UNL A   1      38.028  21.769  25.402  1.00  0.00    -0.460 OA
BRANCH  26  27
ATOM     27  C   UNL A   1      39.145  21.511  26.118  1.00  0.00     0.338 C 
ATOM     28  O   UNL A   1      39.795  20.471  26.121  1.00  0.00    -0.246 OA
BRANCH  27  29
ATOM     29  C   UNL A   1      39.604  22.734  26.787  1.00  0.00     0.060 A 
ATOM     30  C   UNL A   1      38.975  23.928  26.415  1.00  0.00     0.016 A 
ATOM     31  C   UNL A   1      40.652  22.731  27.711  1.00  0.00     0.016 A 
ATOM     32  C   UNL A   1      39.447  25.138  26.900  1.00  0.00     0.010 A 
ATOM     33  C   UNL A   1      41.126  23.951  28.198  1.00  0.00     0.010 A 
ATOM     34  C   UNL A   1      40.559  25.158  27.753  1.00  0.00    -0.014 A 
BRANCH  34  35
ATOM     35  C   UNL A   1      41.219  26.452  28.033  1.00  0.00     0.031 A 
ATOM     36  C   UNL A   1      42.615  26.676  27.523  1.00  0.00     0.074 A 
ATOM     37  C   UNL A   1      40.566  27.419  28.697  1.00  0.00     0.049 A 
ATOM     38  N   UNL A   1      43.380  27.729  27.642  1.00  0.00    -0.248 NA
ATOM     39  C   UNL A   1      43.234  25.564  26.779  1.00  0.00     0.031 C 
ATOM     40  C   UNL A   1      39.207  27.309  29.228  1.00  0.00     0.029 A 
ATOM     41  N   UNL A   1      40.967  28.681  29.053  1.00  0.00    -0.354 N 
ATOM     42  C   UNL A   1      44.576  27.400  27.015  1.00  0.00     0.074 A 
ATOM     43  C   UNL A   1      44.444  26.043  26.532  1.00  0.00     0.031 C 
ATOM     44  C   UNL A   1      38.897  28.448  29.867  1.00  0.00     0.029 A 
ATOM     45  C   UNL A   1      40.040  29.355  29.810  1.00  0.00     0.049 A 
ATOM     46  H   UNL A   1      41.835  29.066  28.791  1.00  0.00     0.167 HD
ATOM     47  C   UNL A   1      45.678  28.167  26.842  1.00  0.00     0.034 A 
ATOM     48  C   UNL A   1      40.122  30.559  30.411  1.00  0.00     0.034 A 
ATOM     49  C   UNL A   1      45.793  29.520  27.313  1.00  0.00     0.049 A 
ATOM     50  C   UNL A   1      41.366  31.384  30.222  1.00  0.00     0.074 A 
ATOM     51  C   UNL A   1      46.848  30.399  27.156  1.00  0.00     0.029 A 
ATOM     52  N   UNL A   1      44.821  30.185  28.045  1.00  0.00    -0.354 N 
ATOM     53  N   UNL A   1      42.448  31.103  29.535  1.00  0.00    -0.248 NA
ATOM     54  C   UNL A   1      41.391  32.707  30.863  1.00  0.00     0.031 C 
ATOM     55  C   UNL A   1      46.527  31.586  27.823  1.00  0.00     0.029 A 
ATOM     56  C   UNL A   1      45.256  31.460  28.361  1.00  0.00     0.049 A 
ATOM     57  H   UNL A   1      43.949  29.806  28.303  1.00  0.00     0.167 HD
ATOM     58  C   UNL A   1      43.264  32.225  29.629  1.00  0.00     0.074 A 
ATOM     59  C   UNL A   1      42.543  33.197  30.426  1.00  0.00     0.031 C 
ATOM     60  C   UNL A   1      44.502  32.429  29.116  1.00  0.00     0.034 A 
BRANCH  47  61
ATOM     61  C   UNL A   1      46.840  27.562  26.096  1.00  0.00     0.023 A 
ATOM     62  C   UNL A   1      46.914  27.687  24.694  1.00  0.00     0.012 A 
ATOM     63  C   UNL A   1      47.878  26.909  26.788  1.00  0.00     0.148 A 
ATOM     64  C   UNL A   1      47.986  27.142  23.988  1.00  0.00     0.002 A 
ATOM     65  C   UNL A   1      48.967  26.409  26.081  1.00  0.00     0.091 A 
ATOM     66  F   UNL A   1      47.779  26.778  28.118  1.00  0.00    -0.205 F 
ATOM     67  C   UNL A   1      49.016  26.514  24.681  1.00  0.00     0.022 A 
BRANCH  65  68
ATOM     68  S   UNL A   1      50.380  25.651  26.889  1.00  0.00     0.127 S 
ATOM     69  O   UNL A   1      49.778  24.453  27.474  1.00  0.00    -0.237 OA
ATOM     70  O   UNL A   1      51.277  25.393  25.762  1.00  0.00    -0.237 OA
ATOM     71  O   UNL A   1      50.872  26.631  27.846  1.00  0.00    -0.744 OA
ENDBRANCH  65  68
ENDBRANCH  47  61
BRANCH  48  72
ATOM     72  C   UNL A   1      38.978  31.060  31.222  1.00  0.00     0.023 A 
ATOM     73  C   UNL A   1      38.899  30.747  32.592  1.00  0.00     0.012 A 
ATOM     74  C   UNL A   1      37.983  31.872  30.644  1.00  0.00     0.148 A 
ATOM     75  C   UNL A   1      37.833  31.209  33.366  1.00  0.00     0.002 A 
ATOM     76  C   UNL A   1      36.955  32.376  31.432  1.00  0.00     0.091 A 
ATOM     77  F   UNL A   1      38.069  32.147  29.335  1.00  0.00    -0.205 F 
ATOM     78  C   UNL A   1      36.869  32.032  32.790  1.00  0.00     0.022 A 
BRANCH  76  79
ATOM     79  S   UNL A   1      35.748  33.549  30.805  1.00  0.00     0.127 S 
ATOM     80  O   UNL A   1      34.584  32.692  30.591  1.00  0.00    -0.237 OA
ATOM     81  O   UNL A   1      35.629  34.484  31.924  1.00  0.00    -0.237 OA
ATOM     82  O   UNL A   1      36.341  34.121  29.604  1.00  0.00    -0.744 OA
ENDBRANCH  76  79
ENDBRANCH  48  72
BRANCH  60  83
ATOM     83  C   UNL A   1      45.148  33.769  29.362  1.00  0.00     0.023 A 
ATOM     84  C   UNL A   1      45.930  33.973  30.514  1.00  0.00     0.012 A 
ATOM     85  C   UNL A   1      45.036  34.802  28.409  1.00  0.00     0.148 A 
ATOM     86  C   UNL A   1      46.565  35.195  30.733  1.00  0.00     0.002 A 
ATOM     87  C   UNL A   1      45.713  35.998  28.607  1.00  0.00     0.091 A 
ATOM     88  F   UNL A   1      44.273  34.593  27.326  1.00  0.00    -0.205 F 
ATOM     89  C   UNL A   1      46.466  36.202  29.775  1.00  0.00     0.022 A 
BRANCH  87  90
ATOM     90  S   UNL A   1      45.726  37.313  27.383  1.00  0.00     0.127 S 
ATOM     91  O   UNL A   1      46.184  36.603  26.190  1.00  0.00    -0.237 OA
ATOM     92  O   UNL A   1      44.321  37.719  27.350  1.00  0.00    -0.237 OA
ATOM     93  O   UNL A   1      46.637  38.328  27.894  1.00  0.00    -0.744 OA
ENDBRANCH  87  90
ENDBRANCH  60  83
ENDBRANCH  34  35
ENDBRANCH  27  29
ENDBRANCH  26  27
ENDBRANCH  25  26
ENDBRANCH   1  25
TORSDOF 18
ENDMDL
MODEL 3
REMARK VINA RESULT:     -10.2      5.127      8.249
REMARK SMILES C[C@H](C(=O)OCCOCCOC(=O)c1ccc(-c2c3nc(c(-c4cccc(S(=O)(=O)[O-])c4F)c4ccc([nH]4)c(-c4cccc(S(=O)(=O)[O-])c4F)c4nc(c(-c5cccc(S(=O)(=O)[O-])c5F)c5ccc2[nH]5)C=C4)C=C3)cc1)c1ccc2c(c1)[nH]c1ccc(Cl)cc12
REMARK SMILES IDX 9 1 8 2 7 3 6 4 5 5 3 6 4 7 2 8 1 9 77 10 78 11 82 12 79 13
REMARK SMILES IDX 81 14 80 15 83 16 90 17 84 18 89 20 85 21 87 22 86 23 88 24
REMARK SMILES IDX 10 25 11 26 12 27 13 28 14 29 15 30 76 31 16 32 75 33 17 34
REMARK SMILES IDX 18 35 19 36 69 37 20 38 74 39 68 40 70 41 21 42 73 43 67 44
REMARK SMILES IDX 66 45 22 47 54 48 34 49 53 50 35 51 38 52 52 53 71 54 36 55
REMARK SMILES IDX 37 56 51 58 72 59 39 60 23 61 24 62 32 63 25 64 27 65 33 66
REMARK SMILES IDX 26 67 28 68 29 69 30 70 31 71 55 72 56 73 64 74 57 75 59 76
REMARK SMILES IDX 65 77 58 78 60 79 61 80 62 81 63 82 40 83 41 84 49 85 42 86
REMARK SMILES IDX 44 87 50 88 43 89 45 90 46 91 47 92 48 93
REMARK H PARENT 83 19 70 46 38 57
REMARK Flexibility Score: inf
ROOT
ATOM      1  C   UNL A   1      32.195  30.021  25.336  1.00  0.00     0.202 C 
ENDROOT
BRANCH   1   2
ATOM      2  O   UNL A   1      32.946  28.827  25.520  1.00  0.00    -0.374 OA
BRANCH   2   3
ATOM      3  C   UNL A   1      33.665  28.361  24.368  1.00  0.00     0.202 C 
BRANCH   3   4
ATOM      4  C   UNL A   1      33.642  26.847  24.076  1.00  0.00     0.261 C 
BRANCH   4   5
ATOM      5  O   UNL A   1      33.621  26.561  22.656  1.00  0.00    -0.463 OA
BRANCH   5   6
ATOM      6  C   UNL A   1      33.070  25.368  22.296  1.00  0.00     0.313 C 
ATOM      7  O   UNL A   1      33.149  24.885  21.170  1.00  0.00    -0.252 OA
BRANCH   6   8
ATOM      8  C   UNL A   1      32.424  24.615  23.454  1.00  0.00     0.126 C 
ATOM      9  C   UNL A   1      30.894  24.522  23.318  1.00  0.00     0.025 C 
BRANCH   8  10
ATOM     10  C   UNL A   1      32.976  23.258  23.859  1.00  0.00    -0.032 A 
ATOM     11  C   UNL A   1      34.211  23.011  24.464  1.00  0.00     0.005 A 
ATOM     12  C   UNL A   1      32.159  22.165  23.515  1.00  0.00     0.031 A 
ATOM     13  C   UNL A   1      34.641  21.687  24.719  1.00  0.00     0.011 A 
ATOM     14  C   UNL A   1      32.669  20.883  23.624  1.00  0.00     0.047 A 
ATOM     15  C   UNL A   1      33.866  20.593  24.262  1.00  0.00     0.007 A 
ATOM     16  N   UNL A   1      32.161  19.719  23.118  1.00  0.00    -0.355 N 
ATOM     17  C   UNL A   1      33.972  19.159  24.280  1.00  0.00     0.009 A 
ATOM     18  C   UNL A   1      32.957  18.661  23.455  1.00  0.00     0.047 A 
ATOM     19  H   UNL A   1      31.337  19.653  22.584  1.00  0.00     0.167 HD
ATOM     20  C   UNL A   1      34.840  18.228  24.884  1.00  0.00     0.031 A 
ATOM     21  C   UNL A   1      32.832  17.317  23.096  1.00  0.00     0.028 A 
ATOM     22  C   UNL A   1      34.671  16.864  24.603  1.00  0.00     0.041 A 
ATOM     23  C   UNL A   1      33.712  16.419  23.694  1.00  0.00     0.022 A 
ATOM     24  Cl  UNL A   1      35.654  15.701  25.409  1.00  0.00    -0.084 Cl
ENDBRANCH   8  10
ENDBRANCH   6   8
ENDBRANCH   5   6
ENDBRANCH   4   5
ENDBRANCH   3   4
ENDBRANCH   2   3
ENDBRANCH   1   2
BRANCH   1  25
ATOM     25  C   UNL A   1      31.793  30.845  26.562  1.00  0.00     0.261 C 
BRANCH  25  26
ATOM     26  O   UNL A   1      32.767  30.776  27.605  1.00  0.00    -0.460 OA
BRANCH  26  27
ATOM     27  C   UNL A   1      33.603  31.838  27.618  1.00  0.00     0.338 C 
ATOM     28  O   UNL A   1      33.300  33.017  27.469  1.00  0.00    -0.246 OA
BRANCH  27  29
ATOM     29  C   UNL A   1      34.948  31.411  28.023  1.00  0.00     0.060 A 
ATOM     30  C   UNL A   1      35.134  30.040  28.238  1.00  0.00     0.016 A 
ATOM     31  C   UNL A   1      35.986  32.320  28.239  1.00  0.00     0.016 A 
ATOM     32  C   UNL A   1      36.335  29.579  28.754  1.00  0.00     0.010 A 
ATOM     33  C   UNL A   1      37.196  31.854  28.758  1.00  0.00     0.010 A 
ATOM     34  C   UNL A   1      37.353  30.490  29.065  1.00  0.00    -0.014 A 
BRANCH  34  35
ATOM     35  C   UNL A   1      38.505  30.025  29.868  1.00  0.00     0.031 A 
ATOM     36  C   UNL A   1      38.685  30.568  31.258  1.00  0.00     0.074 A 
ATOM     37  C   UNL A   1      39.350  29.105  29.374  1.00  0.00     0.049 A 
ATOM     38  N   UNL A   1      39.611  30.298  32.138  1.00  0.00    -0.248 NA
ATOM     39  C   UNL A   1      37.686  31.550  31.719  1.00  0.00     0.031 C 
ATOM     40  C   UNL A   1      39.263  28.508  28.042  1.00  0.00     0.029 A 
ATOM     41  N   UNL A   1      40.461  28.527  29.933  1.00  0.00    -0.354 N 
ATOM     42  C   UNL A   1      39.326  31.091  33.243  1.00  0.00     0.074 A 
ATOM     43  C   UNL A   1      38.151  31.868  32.917  1.00  0.00     0.031 C 
ATOM     44  C   UNL A   1      40.295  27.665  27.876  1.00  0.00     0.029 A 
ATOM     45  C   UNL A   1      41.126  27.683  29.077  1.00  0.00     0.049 A 
ATOM     46  H   UNL A   1      40.753  28.700  30.857  1.00  0.00     0.167 HD
ATOM     47  C   UNL A   1      39.976  31.152  34.429  1.00  0.00     0.034 A 
ATOM     48  C   UNL A   1      42.288  27.021  29.241  1.00  0.00     0.034 A 
ATOM     49  C   UNL A   1      41.135  30.365  34.748  1.00  0.00     0.049 A 
ATOM     50  C   UNL A   1      43.004  27.123  30.561  1.00  0.00     0.074 A 
ATOM     51  C   UNL A   1      41.845  30.320  35.934  1.00  0.00     0.029 A 
ATOM     52  N   UNL A   1      41.761  29.492  33.871  1.00  0.00    -0.354 N 
ATOM     53  N   UNL A   1      42.664  27.794  31.637  1.00  0.00    -0.248 NA
ATOM     54  C   UNL A   1      44.247  26.351  30.706  1.00  0.00     0.031 C 
ATOM     55  C   UNL A   1      42.922  29.443  35.762  1.00  0.00     0.029 A 
ATOM     56  C   UNL A   1      42.859  28.913  34.483  1.00  0.00     0.049 A 
ATOM     57  H   UNL A   1      41.468  29.311  32.948  1.00  0.00     0.167 HD
ATOM     58  C   UNL A   1      43.627  27.496  32.594  1.00  0.00     0.074 A 
ATOM     59  C   UNL A   1      44.555  26.570  31.976  1.00  0.00     0.031 C 
ATOM     60  C   UNL A   1      43.743  27.957  33.864  1.00  0.00     0.034 A 
BRANCH  47  61
ATOM     61  C   UNL A   1      39.434  32.093  35.474  1.00  0.00     0.023 A 
ATOM     62  C   UNL A   1      38.473  31.635  36.399  1.00  0.00     0.012 A 
ATOM     63  C   UNL A   1      39.907  33.416  35.568  1.00  0.00     0.148 A 
ATOM     64  C   UNL A   1      37.967  32.488  37.379  1.00  0.00     0.002 A 
ATOM     65  C   UNL A   1      39.432  34.247  36.578  1.00  0.00     0.091 A 
ATOM     66  F   UNL A   1      40.803  33.841  34.666  1.00  0.00    -0.205 F 
ATOM     67  C   UNL A   1      38.453  33.789  37.474  1.00  0.00     0.022 A 
BRANCH  65  68
ATOM     68  S   UNL A   1      40.051  35.914  36.832  1.00  0.00     0.127 S 
ATOM     69  O   UNL A   1      41.482  35.672  37.018  1.00  0.00    -0.237 OA
ATOM     70  O   UNL A   1      39.703  36.566  35.570  1.00  0.00    -0.237 OA
ATOM     71  O   UNL A   1      39.350  36.430  37.998  1.00  0.00    -0.744 OA
ENDBRANCH  65  68
ENDBRANCH  47  61
BRANCH  48  72
ATOM     72  C   UNL A   1      42.828  26.187  28.132  1.00  0.00     0.023 A 
ATOM     73  C   UNL A   1      43.838  26.698  27.297  1.00  0.00     0.012 A 
ATOM     74  C   UNL A   1      42.361  24.874  27.922  1.00  0.00     0.148 A 
ATOM     75  C   UNL A   1      44.354  25.928  26.253  1.00  0.00     0.002 A 
ATOM     76  C   UNL A   1      42.919  24.093  26.917  1.00  0.00     0.091 A 
ATOM     77  F   UNL A   1      41.388  24.411  28.720  1.00  0.00    -0.205 F 
ATOM     78  C   UNL A   1      43.903  24.623  26.070  1.00  0.00     0.022 A 
BRANCH  76  79
ATOM     79  S   UNL A   1      42.494  22.362  26.698  1.00  0.00     0.127 S 
ATOM     80  O   UNL A   1      41.162  22.455  26.105  1.00  0.00    -0.237 OA
ATOM     81  O   UNL A   1      43.545  21.908  25.786  1.00  0.00    -0.237 OA
ATOM     82  O   UNL A   1      42.555  21.769  28.027  1.00  0.00    -0.744 OA
ENDBRANCH  76  79
ENDBRANCH  48  72
BRANCH  60  83
ATOM     83  C   UNL A   1      44.890  27.439  34.693  1.00  0.00     0.023 A 
ATOM     84  C   UNL A   1      46.110  28.141  34.724  1.00  0.00     0.012 A 
ATOM     85  C   UNL A   1      44.730  26.293  35.499  1.00  0.00     0.148 A 
ATOM     86  C   UNL A   1      47.166  27.693  35.517  1.00  0.00     0.002 A 
ATOM     87  C   UNL A   1      45.767  25.883  36.326  1.00  0.00     0.091 A 
ATOM     88  F   UNL A   1      43.566  25.629  35.442  1.00  0.00    -0.205 F 
ATOM     89  C   UNL A   1      46.990  26.572  36.327  1.00  0.00     0.022 A 
BRANCH  87  90
ATOM     90  S   UNL A   1      45.599  24.512  37.476  1.00  0.00     0.127 S 
ATOM     91  O   UNL A   1      45.398  23.385  36.567  1.00  0.00    -0.237 OA
ATOM     92  O   UNL A   1      46.892  24.522  38.161  1.00  0.00    -0.237 OA
ATOM     93  O   UNL A   1      44.462  24.839  38.326  1.00  0.00    -0.744 OA
ENDBRANCH  87  90
ENDBRANCH  60  83
ENDBRANCH  34  35
ENDBRANCH  27  29
ENDBRANCH  26  27
ENDBRANCH  25  26
ENDBRANCH   1  25
TORSDOF 18
ENDMDL
