MODEL 1
REMARK VINA RESULT:     -11.6      0.000      0.000
REMARK SMILES C[C@@H]1[C@@H](C(=O)OCCOCCOC(=O)c2ccc(-c3c4nc(c(-c5cccc(S(=O)(=O)[O-])c5F)c5ccc([nH]5)c(-c5cccc(S(=O)(=O)[O-])c5F)c5nc(c(-c6cccc(S(=O)(=O)[O-])c6F)c6ccc3[nH]6)C=C5)C=C4)cc2)CCN1c1ccc(C(F)(F)F)cc1C#N
REMARK SMILES IDX 10 1 9 2 8 3 7 4 6 5 4 6 5 7 3 8 1 9 2 10 80 11 78 12 79 13
REMARK SMILES IDX 81 14 82 15 90 16 83 17 89 18 84 19 91 20 92 21 85 22 86 23
REMARK SMILES IDX 87 24 88 25 11 26 12 27 13 28 14 29 15 30 16 31 77 32 17 33
REMARK SMILES IDX 76 34 18 35 19 36 20 37 70 38 21 39 75 40 69 41 71 42 22 43
REMARK SMILES IDX 74 44 68 45 67 46 23 48 55 49 35 50 54 51 36 52 39 53 53 54
REMARK SMILES IDX 72 55 37 56 38 57 52 59 73 60 40 61 24 62 25 63 33 64 26 65
REMARK SMILES IDX 28 66 34 67 27 68 29 69 30 70 31 71 32 72 56 73 57 74 65 75
REMARK SMILES IDX 58 76 60 77 66 78 59 79 61 80 62 81 63 82 64 83 41 84 42 85
REMARK SMILES IDX 50 86 43 87 45 88 51 89 44 90 46 91 47 92 48 93 49 94
REMARK H PARENT 71 47 39 58
REMARK Flexibility Score: inf
ROOT
ATOM      1  C   UNL A   1      35.908  19.959  25.048  1.00  0.00     0.202 C 
ENDROOT
BRANCH   1   2
ATOM      2  O   UNL A   1      35.127  18.851  24.613  1.00  0.00    -0.374 OA
BRANCH   2   3
ATOM      3  C   UNL A   1      33.785  18.713  25.071  1.00  0.00     0.202 C 
BRANCH   3   4
ATOM      4  C   UNL A   1      32.648  19.392  24.303  1.00  0.00     0.261 C 
BRANCH   4   5
ATOM      5  O   UNL A   1      31.891  20.281  25.130  1.00  0.00    -0.463 OA
BRANCH   5   6
ATOM      6  C   UNL A   1      32.380  21.550  25.160  1.00  0.00     0.311 C 
ATOM      7  O   UNL A   1      32.400  22.259  26.158  1.00  0.00    -0.252 OA
BRANCH   6   8
ATOM      8  C   UNL A   1      33.024  21.897  23.831  1.00  0.00     0.123 C 
ATOM      9  C   UNL A   1      34.962  23.303  23.026  1.00  0.00     0.032 C 
ATOM     10  C   UNL A   1      33.766  23.235  23.975  1.00  0.00     0.093 C 
ATOM     11  N   UNL A   1      32.740  24.235  23.604  1.00  0.00    -0.367 N 
ATOM     12  C   UNL A   1      32.001  22.164  22.739  1.00  0.00     0.039 C 
ATOM     13  C   UNL A   1      31.535  23.576  23.067  1.00  0.00     0.118 C 
BRANCH  11  14
ATOM     14  C   UNL A   1      32.581  25.349  24.425  1.00  0.00     0.055 A 
ATOM     15  C   UNL A   1      32.960  25.313  25.780  1.00  0.00     0.028 A 
ATOM     16  C   UNL A   1      32.034  26.551  23.942  1.00  0.00     0.076 A 
ATOM     17  C   UNL A   1      32.746  26.395  26.639  1.00  0.00     0.015 A 
ATOM     18  C   UNL A   1      31.825  27.642  24.805  1.00  0.00     0.034 A 
ATOM     19  C   UNL A   1      32.155  27.567  26.165  1.00  0.00     0.057 A 
BRANCH  16  20
ATOM     20  C   UNL A   1      31.631  26.702  22.569  1.00  0.00     0.101 C 
ATOM     21  N   UNL A   1      31.309  26.747  21.458  1.00  0.00    -0.192 NA
ENDBRANCH  16  20
BRANCH  19  22
ATOM     22  C   UNL A   1      31.858  28.704  27.108  1.00  0.00     0.416 C 
ATOM     23  F   UNL A   1      30.930  28.370  28.046  1.00  0.00    -0.166 F 
ATOM     24  F   UNL A   1      32.955  29.121  27.798  1.00  0.00    -0.166 F 
ATOM     25  F   UNL A   1      31.368  29.812  26.482  1.00  0.00    -0.166 F 
ENDBRANCH  19  22
ENDBRANCH  11  14
ENDBRANCH   6   8
ENDBRANCH   5   6
ENDBRANCH   4   5
ENDBRANCH   3   4
ENDBRANCH   2   3
ENDBRANCH   1   2
BRANCH   1  26
ATOM     26  C   UNL A   1      37.409  20.033  24.726  1.00  0.00     0.261 C 
BRANCH  26  27
ATOM     27  O   UNL A   1      38.068  21.200  25.234  1.00  0.00    -0.460 OA
BRANCH  27  28
ATOM     28  C   UNL A   1      39.149  20.929  26.012  1.00  0.00     0.338 C 
ATOM     29  O   UNL A   1      39.758  19.875  26.082  1.00  0.00    -0.246 OA
BRANCH  28  30
ATOM     30  C   UNL A   1      39.644  22.169  26.634  1.00  0.00     0.060 A 
ATOM     31  C   UNL A   1      39.104  23.383  26.188  1.00  0.00     0.016 A 
ATOM     32  C   UNL A   1      40.683  22.147  27.564  1.00  0.00     0.016 A 
ATOM     33  C   UNL A   1      39.632  24.586  26.639  1.00  0.00     0.010 A 
ATOM     34  C   UNL A   1      41.218  23.359  28.007  1.00  0.00     0.010 A 
ATOM     35  C   UNL A   1      40.722  24.582  27.518  1.00  0.00    -0.014 A 
BRANCH  35  36
ATOM     36  C   UNL A   1      41.425  25.852  27.813  1.00  0.00     0.031 A 
ATOM     37  C   UNL A   1      40.700  26.932  28.566  1.00  0.00     0.074 A 
ATOM     38  C   UNL A   1      42.700  26.031  27.424  1.00  0.00     0.049 A 
ATOM     39  N   UNL A   1      41.111  28.130  28.893  1.00  0.00    -0.248 NA
ATOM     40  C   UNL A   1      39.330  26.626  29.008  1.00  0.00     0.031 C 
ATOM     41  C   UNL A   1      43.508  25.048  26.703  1.00  0.00     0.029 A 
ATOM     42  N   UNL A   1      43.528  27.115  27.562  1.00  0.00    -0.354 N 
ATOM     43  C   UNL A   1      40.041  28.733  29.542  1.00  0.00     0.074 A 
ATOM     44  C   UNL A   1      38.958  27.774  29.555  1.00  0.00     0.031 C 
ATOM     45  C   UNL A   1      44.710  25.585  26.438  1.00  0.00     0.029 A 
ATOM     46  C   UNL A   1      44.742  26.958  26.936  1.00  0.00     0.049 A 
ATOM     47  H   UNL A   1      43.278  27.926  28.059  1.00  0.00     0.167 HD
ATOM     48  C   UNL A   1      39.970  29.970  30.086  1.00  0.00     0.034 A 
ATOM     49  C   UNL A   1      45.748  27.835  26.756  1.00  0.00     0.034 A 
ATOM     50  C   UNL A   1      41.055  30.915  30.080  1.00  0.00     0.049 A 
ATOM     51  C   UNL A   1      45.629  29.219  27.337  1.00  0.00     0.074 A 
ATOM     52  C   UNL A   1      41.099  32.177  30.646  1.00  0.00     0.029 A 
ATOM     53  N   UNL A   1      42.277  30.713  29.458  1.00  0.00    -0.354 N 
ATOM     54  N   UNL A   1      44.650  29.742  28.036  1.00  0.00    -0.248 NA
ATOM     55  C   UNL A   1      46.767  30.127  27.131  1.00  0.00     0.031 C 
ATOM     56  C   UNL A   1      42.329  32.758  30.324  1.00  0.00     0.029 A 
ATOM     57  C   UNL A   1      43.075  31.835  29.609  1.00  0.00     0.049 A 
ATOM     58  H   UNL A   1      42.540  29.893  28.981  1.00  0.00     0.167 HD
ATOM     59  C   UNL A   1      45.071  31.019  28.389  1.00  0.00     0.074 A 
ATOM     60  C   UNL A   1      46.402  31.184  27.841  1.00  0.00     0.031 C 
ATOM     61  C   UNL A   1      44.415  31.972  29.096  1.00  0.00     0.034 A 
BRANCH  48  62
ATOM     62  C   UNL A   1      38.674  30.379  30.736  1.00  0.00     0.023 A 
ATOM     63  C   UNL A   1      38.459  30.129  32.107  1.00  0.00     0.012 A 
ATOM     64  C   UNL A   1      37.689  31.066  29.998  1.00  0.00     0.148 A 
ATOM     65  C   UNL A   1      37.271  30.523  32.723  1.00  0.00     0.002 A 
ATOM     66  C   UNL A   1      36.530  31.500  30.630  1.00  0.00     0.091 A 
ATOM     67  F   UNL A   1      37.901  31.277  28.691  1.00  0.00    -0.205 F 
ATOM     68  C   UNL A   1      36.313  31.218  31.988  1.00  0.00     0.022 A 
BRANCH  66  69
ATOM     69  S   UNL A   1      35.275  32.473  29.793  1.00  0.00     0.127 S 
ATOM     70  O   UNL A   1      34.793  31.528  28.786  1.00  0.00    -0.237 OA
ATOM     71  O   UNL A   1      34.329  32.746  30.874  1.00  0.00    -0.237 OA
ATOM     72  O   UNL A   1      35.958  33.646  29.267  1.00  0.00    -0.744 OA
ENDBRANCH  66  69
ENDBRANCH  48  62
BRANCH  49  73
ATOM     73  C   UNL A   1      46.966  27.429  26.000  1.00  0.00     0.023 A 
ATOM     74  C   UNL A   1      47.991  26.718  26.652  1.00  0.00     0.012 A 
ATOM     75  C   UNL A   1      47.108  27.743  24.634  1.00  0.00     0.148 A 
ATOM     76  C   UNL A   1      49.153  26.360  25.968  1.00  0.00     0.002 A 
ATOM     77  C   UNL A   1      48.241  27.332  23.944  1.00  0.00     0.091 A 
ATOM     78  F   UNL A   1      46.126  28.429  24.034  1.00  0.00    -0.205 F 
ATOM     79  C   UNL A   1      49.275  26.659  24.613  1.00  0.00     0.022 A 
BRANCH  77  80
ATOM     80  S   UNL A   1      48.425  27.556  22.172  1.00  0.00     0.127 S 
ATOM     81  O   UNL A   1      49.600  28.420  22.100  1.00  0.00    -0.237 OA
ATOM     82  O   UNL A   1      48.640  26.182  21.718  1.00  0.00    -0.237 OA
ATOM     83  O   UNL A   1      47.176  28.151  21.717  1.00  0.00    -0.744 OA
ENDBRANCH  77  80
ENDBRANCH  49  73
BRANCH  61  84
ATOM     84  C   UNL A   1      45.142  33.263  29.376  1.00  0.00     0.023 A 
ATOM     85  C   UNL A   1      45.939  33.396  30.530  1.00  0.00     0.012 A 
ATOM     86  C   UNL A   1      45.083  34.326  28.451  1.00  0.00     0.148 A 
ATOM     87  C   UNL A   1      46.631  34.581  30.779  1.00  0.00     0.002 A 
ATOM     88  C   UNL A   1      45.820  35.480  28.678  1.00  0.00     0.091 A 
ATOM     89  F   UNL A   1      44.308  34.185  27.366  1.00  0.00    -0.205 F 
ATOM     90  C   UNL A   1      46.582  35.617  29.849  1.00  0.00     0.022 A 
BRANCH  88  91
ATOM     91  S   UNL A   1      45.899  36.825  27.489  1.00  0.00     0.127 S 
ATOM     92  O   UNL A   1      46.711  37.807  28.206  1.00  0.00    -0.237 OA
ATOM     93  O   UNL A   1      46.568  36.192  26.353  1.00  0.00    -0.237 OA
ATOM     94  O   UNL A   1      44.520  37.223  27.238  1.00  0.00    -0.744 OA
ENDBRANCH  88  91
ENDBRANCH  61  84
ENDBRANCH  35  36
ENDBRANCH  28  30
ENDBRANCH  27  28
ENDBRANCH  26  27
ENDBRANCH   1  26
TORSDOF 20
ENDMDL
MODEL 2
REMARK VINA RESULT:     -11.5      5.588     10.537
REMARK SMILES C[C@@H]1[C@@H](C(=O)OCCOCCOC(=O)c2ccc(-c3c4nc(c(-c5cccc(S(=O)(=O)[O-])c5F)c5ccc([nH]5)c(-c5cccc(S(=O)(=O)[O-])c5F)c5nc(c(-c6cccc(S(=O)(=O)[O-])c6F)c6ccc3[nH]6)C=C5)C=C4)cc2)CCN1c1ccc(C(F)(F)F)cc1C#N
REMARK SMILES IDX 10 1 9 2 8 3 7 4 6 5 4 6 5 7 3 8 1 9 2 10 80 11 78 12 79 13
REMARK SMILES IDX 81 14 82 15 90 16 83 17 89 18 84 19 91 20 92 21 85 22 86 23
REMARK SMILES IDX 87 24 88 25 11 26 12 27 13 28 14 29 15 30 16 31 77 32 17 33
REMARK SMILES IDX 76 34 18 35 19 36 20 37 70 38 21 39 75 40 69 41 71 42 22 43
REMARK SMILES IDX 74 44 68 45 67 46 23 48 55 49 35 50 54 51 36 52 39 53 53 54
REMARK SMILES IDX 72 55 37 56 38 57 52 59 73 60 40 61 24 62 25 63 33 64 26 65
REMARK SMILES IDX 28 66 34 67 27 68 29 69 30 70 31 71 32 72 56 73 57 74 65 75
REMARK SMILES IDX 58 76 60 77 66 78 59 79 61 80 62 81 63 82 64 83 41 84 42 85
REMARK SMILES IDX 50 86 43 87 45 88 51 89 44 90 46 91 47 92 48 93 49 94
REMARK H PARENT 71 47 39 58
REMARK Flexibility Score: inf
ROOT
ATOM      1  C   UNL A   1      32.101  28.956  25.249  1.00  0.00     0.202 C 
ENDROOT
BRANCH   1   2
ATOM      2  O   UNL A   1      31.816  28.601  23.900  1.00  0.00    -0.374 OA
BRANCH   2   3
ATOM      3  C   UNL A   1      30.820  27.620  23.626  1.00  0.00     0.202 C 
BRANCH   3   4
ATOM      4  C   UNL A   1      30.615  26.456  24.598  1.00  0.00     0.261 C 
BRANCH   4   5
ATOM      5  O   UNL A   1      30.489  25.201  23.922  1.00  0.00    -0.463 OA
BRANCH   5   6
ATOM      6  C   UNL A   1      31.059  24.161  24.589  1.00  0.00     0.311 C 
ATOM      7  O   UNL A   1      30.655  23.007  24.543  1.00  0.00    -0.252 OA
BRANCH   6   8
ATOM      8  C   UNL A   1      32.338  24.611  25.268  1.00  0.00     0.123 C 
ATOM      9  C   UNL A   1      34.817  24.514  24.793  1.00  0.00     0.032 C 
ATOM     10  C   UNL A   1      33.500  23.741  24.763  1.00  0.00     0.093 C 
ATOM     11  N   UNL A   1      33.526  22.615  25.724  1.00  0.00    -0.367 N 
ATOM     12  C   UNL A   1      32.323  24.361  26.768  1.00  0.00     0.039 C 
ATOM     13  C   UNL A   1      32.611  22.868  26.852  1.00  0.00     0.118 C 
BRANCH  11  14
ATOM     14  C   UNL A   1      33.619  21.321  25.217  1.00  0.00     0.055 A 
ATOM     15  C   UNL A   1      32.469  20.611  24.822  1.00  0.00     0.028 A 
ATOM     16  C   UNL A   1      34.856  20.667  25.084  1.00  0.00     0.076 A 
ATOM     17  C   UNL A   1      32.532  19.287  24.377  1.00  0.00     0.015 A 
ATOM     18  C   UNL A   1      34.920  19.337  24.630  1.00  0.00     0.034 A 
ATOM     19  C   UNL A   1      33.759  18.627  24.295  1.00  0.00     0.057 A 
BRANCH  16  20
ATOM     20  C   UNL A   1      36.094  21.307  25.441  1.00  0.00     0.101 C 
ATOM     21  N   UNL A   1      37.049  21.884  25.751  1.00  0.00    -0.192 NA
ENDBRANCH  16  20
BRANCH  19  22
ATOM     22  C   UNL A   1      33.816  17.178  23.886  1.00  0.00     0.416 C 
ATOM     23  F   UNL A   1      34.532  16.420  24.762  1.00  0.00    -0.166 F 
ATOM     24  F   UNL A   1      32.586  16.599  23.809  1.00  0.00    -0.166 F 
ATOM     25  F   UNL A   1      34.396  16.982  22.668  1.00  0.00    -0.166 F 
ENDBRANCH  19  22
ENDBRANCH  11  14
ENDBRANCH   6   8
ENDBRANCH   5   6
ENDBRANCH   4   5
ENDBRANCH   3   4
ENDBRANCH   2   3
ENDBRANCH   1   2
BRANCH   1  26
ATOM     26  C   UNL A   1      31.829  30.381  25.758  1.00  0.00     0.261 C 
BRANCH  26  27
ATOM     27  O   UNL A   1      32.246  30.618  27.109  1.00  0.00    -0.460 OA
BRANCH  27  28
ATOM     28  C   UNL A   1      32.987  31.745  27.268  1.00  0.00     0.338 C 
ATOM     29  O   UNL A   1      32.593  32.898  27.207  1.00  0.00    -0.246 OA
BRANCH  28  30
ATOM     30  C   UNL A   1      34.336  31.397  27.744  1.00  0.00     0.060 A 
ATOM     31  C   UNL A   1      34.602  30.049  28.023  1.00  0.00     0.016 A 
ATOM     32  C   UNL A   1      35.289  32.382  28.004  1.00  0.00     0.016 A 
ATOM     33  C   UNL A   1      35.809  29.684  28.605  1.00  0.00     0.010 A 
ATOM     34  C   UNL A   1      36.497  32.012  28.599  1.00  0.00     0.010 A 
ATOM     35  C   UNL A   1      36.747  30.669  28.938  1.00  0.00    -0.014 A 
BRANCH  35  36
ATOM     36  C   UNL A   1      37.923  30.307  29.762  1.00  0.00     0.031 A 
ATOM     37  C   UNL A   1      38.939  29.347  29.207  1.00  0.00     0.074 A 
ATOM     38  C   UNL A   1      38.088  30.839  30.986  1.00  0.00     0.049 A 
ATOM     39  N   UNL A   1      40.015  28.865  29.771  1.00  0.00    -0.248 NA
ATOM     40  C   UNL A   1      38.711  28.863  27.835  1.00  0.00     0.031 C 
ATOM     41  C   UNL A   1      37.178  31.793  31.620  1.00  0.00     0.029 A 
ATOM     42  N   UNL A   1      39.069  30.633  31.921  1.00  0.00    -0.354 N 
ATOM     43  C   UNL A   1      40.572  27.994  28.842  1.00  0.00     0.074 A 
ATOM     44  C   UNL A   1      39.709  28.005  27.681  1.00  0.00     0.031 C 
ATOM     45  C   UNL A   1      37.630  32.068  32.855  1.00  0.00     0.029 A 
ATOM     46  C   UNL A   1      38.837  31.285  33.109  1.00  0.00     0.049 A 
ATOM     47  H   UNL A   1      39.861  30.072  31.759  1.00  0.00     0.167 HD
ATOM     48  C   UNL A   1      41.703  27.259  28.945  1.00  0.00     0.034 A 
ATOM     49  C   UNL A   1      39.504  31.228  34.278  1.00  0.00     0.034 A 
ATOM     50  C   UNL A   1      42.563  27.260  30.099  1.00  0.00     0.049 A 
ATOM     51  C   UNL A   1      40.738  30.371  34.379  1.00  0.00     0.074 A 
ATOM     52  C   UNL A   1      43.757  26.587  30.282  1.00  0.00     0.029 A 
ATOM     53  N   UNL A   1      42.309  27.952  31.273  1.00  0.00    -0.354 N 
ATOM     54  N   UNL A   1      41.308  29.630  33.459  1.00  0.00    -0.248 NA
ATOM     55  C   UNL A   1      41.439  30.365  35.671  1.00  0.00     0.031 C 
ATOM     56  C   UNL A   1      44.200  26.830  31.585  1.00  0.00     0.029 A 
ATOM     57  C   UNL A   1      43.314  27.704  32.194  1.00  0.00     0.049 A 
ATOM     58  H   UNL A   1      41.531  28.533  31.430  1.00  0.00     0.167 HD
ATOM     59  C   UNL A   1      42.455  29.107  34.046  1.00  0.00     0.074 A 
ATOM     60  C   UNL A   1      42.507  29.630  35.396  1.00  0.00     0.031 C 
ATOM     61  C   UNL A   1      43.378  28.265  33.520  1.00  0.00     0.034 A 
BRANCH  48  62
ATOM     62  C   UNL A   1      42.081  26.384  27.778  1.00  0.00     0.023 A 
ATOM     63  C   UNL A   1      42.883  26.899  26.738  1.00  0.00     0.012 A 
ATOM     64  C   UNL A   1      41.689  25.031  27.740  1.00  0.00     0.148 A 
ATOM     65  C   UNL A   1      43.257  26.092  25.663  1.00  0.00     0.002 A 
ATOM     66  C   UNL A   1      42.107  24.221  26.692  1.00  0.00     0.091 A 
ATOM     67  F   UNL A   1      40.910  24.565  28.726  1.00  0.00    -0.205 F 
ATOM     68  C   UNL A   1      42.880  24.752  25.647  1.00  0.00     0.022 A 
BRANCH  66  69
ATOM     69  S   UNL A   1      41.744  22.464  26.621  1.00  0.00     0.127 S 
ATOM     70  O   UNL A   1      42.407  21.977  27.829  1.00  0.00    -0.237 OA
ATOM     71  O   UNL A   1      40.282  22.451  26.680  1.00  0.00    -0.237 OA
ATOM     72  O   UNL A   1      42.309  21.985  25.367  1.00  0.00    -0.744 OA
ENDBRANCH  66  69
ENDBRANCH  48  62
BRANCH  49  73
ATOM     73  C   UNL A   1      39.025  32.015  35.449  1.00  0.00     0.023 A 
ATOM     74  C   UNL A   1      39.242  33.405  35.494  1.00  0.00     0.012 A 
ATOM     75  C   UNL A   1      38.353  31.388  36.517  1.00  0.00     0.148 A 
ATOM     76  C   UNL A   1      38.832  34.153  36.599  1.00  0.00     0.002 A 
ATOM     77  C   UNL A   1      37.894  32.147  37.586  1.00  0.00     0.091 A 
ATOM     78  F   UNL A   1      38.165  30.063  36.459  1.00  0.00    -0.205 F 
ATOM     79  C   UNL A   1      38.151  33.526  37.640  1.00  0.00     0.022 A 
BRANCH  77  80
ATOM     80  S   UNL A   1      36.895  31.449  38.905  1.00  0.00     0.127 S 
ATOM     81  O   UNL A   1      37.776  31.598  40.059  1.00  0.00    -0.237 OA
ATOM     82  O   UNL A   1      35.731  32.336  38.898  1.00  0.00    -0.237 OA
ATOM     83  O   UNL A   1      36.609  30.079  38.502  1.00  0.00    -0.744 OA
ENDBRANCH  77  80
ENDBRANCH  49  73
BRANCH  61  84
ATOM     84  C   UNL A   1      44.562  27.897  34.377  1.00  0.00     0.023 A 
ATOM     85  C   UNL A   1      45.738  28.672  34.340  1.00  0.00     0.012 A 
ATOM     86  C   UNL A   1      44.479  26.812  35.274  1.00  0.00     0.148 A 
ATOM     87  C   UNL A   1      46.826  28.348  35.151  1.00  0.00     0.002 A 
ATOM     88  C   UNL A   1      45.545  26.531  36.118  1.00  0.00     0.091 A 
ATOM     89  F   UNL A   1      43.357  26.078  35.286  1.00  0.00    -0.205 F 
ATOM     90  C   UNL A   1      46.726  27.286  36.047  1.00  0.00     0.022 A 
BRANCH  88  91
ATOM     91  S   UNL A   1      45.470  25.248  37.374  1.00  0.00     0.127 S 
ATOM     92  O   UNL A   1      46.793  25.356  37.988  1.00  0.00    -0.237 OA
ATOM     93  O   UNL A   1      44.366  25.707  38.217  1.00  0.00    -0.237 OA
ATOM     94  O   UNL A   1      45.214  24.002  36.664  1.00  0.00    -0.744 OA
ENDBRANCH  88  91
ENDBRANCH  61  84
ENDBRANCH  35  36
ENDBRANCH  28  30
ENDBRANCH  27  28
ENDBRANCH  26  27
ENDBRANCH   1  26
TORSDOF 20
ENDMDL
MODEL 3
REMARK VINA RESULT:     -11.5      5.454     10.538
REMARK SMILES C[C@@H]1[C@@H](C(=O)OCCOCCOC(=O)c2ccc(-c3c4nc(c(-c5cccc(S(=O)(=O)[O-])c5F)c5ccc([nH]5)c(-c5cccc(S(=O)(=O)[O-])c5F)c5nc(c(-c6cccc(S(=O)(=O)[O-])c6F)c6ccc3[nH]6)C=C5)C=C4)cc2)CCN1c1ccc(C(F)(F)F)cc1C#N
REMARK SMILES IDX 10 1 9 2 8 3 7 4 6 5 4 6 5 7 3 8 1 9 2 10 80 11 78 12 79 13
REMARK SMILES IDX 81 14 82 15 90 16 83 17 89 18 84 19 91 20 92 21 85 22 86 23
REMARK SMILES IDX 87 24 88 25 11 26 12 27 13 28 14 29 15 30 16 31 77 32 17 33
REMARK SMILES IDX 76 34 18 35 19 36 20 37 70 38 21 39 75 40 69 41 71 42 22 43
REMARK SMILES IDX 74 44 68 45 67 46 23 48 55 49 35 50 54 51 36 52 39 53 53 54
REMARK SMILES IDX 72 55 37 56 38 57 52 59 73 60 40 61 24 62 25 63 33 64 26 65
REMARK SMILES IDX 28 66 34 67 27 68 29 69 30 70 31 71 32 72 56 73 57 74 65 75
REMARK SMILES IDX 58 76 60 77 66 78 59 79 61 80 62 81 63 82 64 83 41 84 42 85
REMARK SMILES IDX 50 86 43 87 45 88 51 89 44 90 46 91 47 92 48 93 49 94
REMARK H PARENT 71 47 39 58
REMARK Flexibility Score: inf
ROOT
ATOM      1  C   UNL A   1      31.742  30.880  26.664  1.00  0.00     0.202 C 
ENDROOT
BRANCH   1   2
ATOM      2  O   UNL A   1      32.827  30.338  25.918  1.00  0.00    -0.374 OA
BRANCH   2   3
ATOM      3  C   UNL A   1      32.563  29.573  24.746  1.00  0.00     0.202 C 
BRANCH   3   4
ATOM      4  C   UNL A   1      32.474  28.047  24.842  1.00  0.00     0.261 C 
BRANCH   4   5
ATOM      5  O   UNL A   1      31.144  27.598  25.121  1.00  0.00    -0.463 OA
BRANCH   5   6
ATOM      6  C   UNL A   1      31.050  26.826  26.237  1.00  0.00     0.311 C 
ATOM      7  O   UNL A   1      31.504  27.135  27.330  1.00  0.00    -0.252 OA
BRANCH   6   8
ATOM      8  C   UNL A   1      30.183  25.611  25.963  1.00  0.00     0.123 C 
ATOM      9  C   UNL A   1      30.004  23.239  26.811  1.00  0.00     0.032 C 
ATOM     10  C   UNL A   1      30.958  24.348  26.372  1.00  0.00     0.093 C 
ATOM     11  N   UNL A   1      31.671  23.971  25.131  1.00  0.00    -0.367 N 
ATOM     12  C   UNL A   1      29.912  25.409  24.481  1.00  0.00     0.039 C 
ATOM     13  C   UNL A   1      31.216  24.791  23.994  1.00  0.00     0.118 C 
BRANCH  11  14
ATOM     14  C   UNL A   1      33.024  23.650  25.223  1.00  0.00     0.055 A 
ATOM     15  C   UNL A   1      34.000  24.653  25.369  1.00  0.00     0.028 A 
ATOM     16  C   UNL A   1      33.473  22.319  25.169  1.00  0.00     0.076 A 
ATOM     17  C   UNL A   1      35.367  24.359  25.393  1.00  0.00     0.015 A 
ATOM     18  C   UNL A   1      34.847  22.022  25.200  1.00  0.00     0.034 A 
ATOM     19  C   UNL A   1      35.808  23.040  25.288  1.00  0.00     0.057 A 
BRANCH  16  20
ATOM     20  C   UNL A   1      32.558  21.215  25.040  1.00  0.00     0.101 C 
ATOM     21  N   UNL A   1      31.879  20.281  24.962  1.00  0.00    -0.192 NA
ENDBRANCH  16  20
BRANCH  19  22
ATOM     22  C   UNL A   1      37.282  22.732  25.239  1.00  0.00     0.416 C 
ATOM     23  F   UNL A   1      37.670  22.241  24.031  1.00  0.00    -0.166 F 
ATOM     24  F   UNL A   1      38.059  23.827  25.466  1.00  0.00    -0.166 F 
ATOM     25  F   UNL A   1      37.671  21.803  26.158  1.00  0.00    -0.166 F 
ENDBRANCH  19  22
ENDBRANCH  11  14
ENDBRANCH   6   8
ENDBRANCH   5   6
ENDBRANCH   4   5
ENDBRANCH   3   4
ENDBRANCH   2   3
ENDBRANCH   1   2
BRANCH   1  26
ATOM     26  C   UNL A   1      31.609  32.399  26.862  1.00  0.00     0.261 C 
BRANCH  26  27
ATOM     27  O   UNL A   1      32.836  33.126  26.711  1.00  0.00    -0.460 OA
BRANCH  27  28
ATOM     28  C   UNL A   1      33.293  33.679  27.865  1.00  0.00     0.338 C 
ATOM     29  O   UNL A   1      32.708  34.474  28.582  1.00  0.00    -0.246 OA
BRANCH  28  30
ATOM     30  C   UNL A   1      34.548  33.025  28.273  1.00  0.00     0.060 A 
ATOM     31  C   UNL A   1      34.456  31.788  28.926  1.00  0.00     0.016 A 
ATOM     32  C   UNL A   1      35.781  33.654  28.105  1.00  0.00     0.016 A 
ATOM     33  C   UNL A   1      35.595  31.194  29.455  1.00  0.00     0.010 A 
ATOM     34  C   UNL A   1      36.923  33.059  28.648  1.00  0.00     0.010 A 
ATOM     35  C   UNL A   1      36.829  31.848  29.357  1.00  0.00    -0.014 A 
BRANCH  35  36
ATOM     36  C   UNL A   1      37.990  31.329  30.118  1.00  0.00     0.031 A 
ATOM     37  C   UNL A   1      38.872  30.288  29.487  1.00  0.00     0.074 A 
ATOM     38  C   UNL A   1      38.259  31.793  31.351  1.00  0.00     0.049 A 
ATOM     39  N   UNL A   1      39.910  29.671  29.988  1.00  0.00    -0.248 NA
ATOM     40  C   UNL A   1      38.540  29.884  28.111  1.00  0.00     0.031 C 
ATOM     41  C   UNL A   1      37.485  32.814  32.056  1.00  0.00     0.029 A 
ATOM     42  N   UNL A   1      39.247  31.446  32.236  1.00  0.00    -0.354 N 
ATOM     43  C   UNL A   1      40.332  28.782  29.007  1.00  0.00     0.074 A 
ATOM     44  C   UNL A   1      39.431  28.930  27.885  1.00  0.00     0.031 C 
ATOM     45  C   UNL A   1      38.011  32.991  33.278  1.00  0.00     0.029 A 
ATOM     46  C   UNL A   1      39.135  32.073  33.454  1.00  0.00     0.049 A 
ATOM     47  H   UNL A   1      39.966  30.810  32.021  1.00  0.00     0.167 HD
ATOM     48  C   UNL A   1      41.380  27.925  29.036  1.00  0.00     0.034 A 
ATOM     49  C   UNL A   1      39.837  31.900  34.590  1.00  0.00     0.034 A 
ATOM     50  C   UNL A   1      42.279  27.790  30.151  1.00  0.00     0.049 A 
ATOM     51  C   UNL A   1      40.972  30.911  34.609  1.00  0.00     0.074 A 
ATOM     52  C   UNL A   1      43.398  26.985  30.259  1.00  0.00     0.029 A 
ATOM     53  N   UNL A   1      42.148  28.459  31.358  1.00  0.00    -0.354 N 
ATOM     54  N   UNL A   1      41.422  30.150  33.640  1.00  0.00    -0.248 NA
ATOM     55  C   UNL A   1      41.719  30.781  35.869  1.00  0.00     0.031 C 
ATOM     56  C   UNL A   1      43.916  27.129  31.550  1.00  0.00     0.029 A 
ATOM     57  C   UNL A   1      43.155  28.069  32.225  1.00  0.00     0.049 A 
ATOM     58  H   UNL A   1      41.444  29.115  31.568  1.00  0.00     0.167 HD
ATOM     59  C   UNL A   1      42.527  29.484  34.159  1.00  0.00     0.074 A 
ATOM     60  C   UNL A   1      42.689  29.946  35.523  1.00  0.00     0.031 C 
ATOM     61  C   UNL A   1      43.331  28.568  33.566  1.00  0.00     0.034 A 
BRANCH  48  62
ATOM     62  C   UNL A   1      41.615  27.061  27.824  1.00  0.00     0.023 A 
ATOM     63  C   UNL A   1      42.036  27.643  26.610  1.00  0.00     0.012 A 
ATOM     64  C   UNL A   1      41.472  25.661  27.904  1.00  0.00     0.148 A 
ATOM     65  C   UNL A   1      42.277  26.850  25.488  1.00  0.00     0.002 A 
ATOM     66  C   UNL A   1      41.763  24.874  26.798  1.00  0.00     0.091 A 
ATOM     67  F   UNL A   1      41.052  25.128  29.060  1.00  0.00    -0.205 F 
ATOM     68  C   UNL A   1      42.152  25.466  25.586  1.00  0.00     0.022 A 
BRANCH  66  69
ATOM     69  S   UNL A   1      41.713  23.080  26.845  1.00  0.00     0.127 S 
ATOM     70  O   UNL A   1      40.325  22.834  27.233  1.00  0.00    -0.237 OA
ATOM     71  O   UNL A   1      42.030  22.729  25.460  1.00  0.00    -0.237 OA
ATOM     72  O   UNL A   1      42.713  22.673  27.822  1.00  0.00    -0.744 OA
ENDBRANCH  66  69
ENDBRANCH  48  62
BRANCH  49  73
ATOM     73  C   UNL A   1      39.493  32.688  35.807  1.00  0.00     0.023 A 
ATOM     74  C   UNL A   1      40.039  33.972  35.987  1.00  0.00     0.012 A 
ATOM     75  C   UNL A   1      38.622  32.168  36.785  1.00  0.00     0.148 A 
ATOM     76  C   UNL A   1      39.756  34.711  37.137  1.00  0.00     0.002 A 
ATOM     77  C   UNL A   1      38.297  32.932  37.898  1.00  0.00     0.091 A 
ATOM     78  F   UNL A   1      38.121  30.939  36.600  1.00  0.00    -0.205 F 
ATOM     79  C   UNL A   1      38.879  34.194  38.087  1.00  0.00     0.022 A 
BRANCH  77  80
ATOM     80  S   UNL A   1      37.078  32.404  39.107  1.00  0.00     0.127 S 
ATOM     81  O   UNL A   1      37.393  33.262  40.245  1.00  0.00    -0.237 OA
ATOM     82  O   UNL A   1      35.823  32.721  38.422  1.00  0.00    -0.237 OA
ATOM     83  O   UNL A   1      37.309  30.980  39.307  1.00  0.00    -0.744 OA
ENDBRANCH  77  80
ENDBRANCH  49  73
BRANCH  61  84
ATOM     84  C   UNL A   1      44.501  28.042  34.359  1.00  0.00     0.023 A 
ATOM     85  C   UNL A   1      45.714  28.757  34.399  1.00  0.00     0.012 A 
ATOM     86  C   UNL A   1      44.369  26.863  35.121  1.00  0.00     0.148 A 
ATOM     87  C   UNL A   1      46.790  28.285  35.152  1.00  0.00     0.002 A 
ATOM     88  C   UNL A   1      45.424  26.430  35.912  1.00  0.00     0.091 A 
ATOM     89  F   UNL A   1      43.211  26.189  35.059  1.00  0.00    -0.205 F 
ATOM     90  C   UNL A   1      46.642  27.130  35.917  1.00  0.00     0.022 A 
BRANCH  88  91
ATOM     91  S   UNL A   1      45.292  25.012  37.007  1.00  0.00     0.127 S 
ATOM     92  O   UNL A   1      44.072  25.324  37.751  1.00  0.00    -0.237 OA
ATOM     93  O   UNL A   1      45.164  23.904  36.061  1.00  0.00    -0.237 OA
ATOM     94  O   UNL A   1      46.515  24.997  37.799  1.00  0.00    -0.744 OA
ENDBRANCH  88  91
ENDBRANCH  61  84
ENDBRANCH  35  36
ENDBRANCH  28  30
ENDBRANCH  27  28
ENDBRANCH  26  27
ENDBRANCH   1  26
TORSDOF 20
ENDMDL
