MODEL 1
REMARK VINA RESULT:     -11.0      0.000      0.000
REMARK SMILES O=C(OCCOCCOC(=O)c1cccnc1-c1ccccn1)c1ccc(-c2c3nc(c(-c4cccc(S(=O)(=O)[O-])c4F)c4ccc([nH]4)c(-c4cccc(S(=O)(=O)[O-])c4F)c4nc(c(-c5cccc(S(=O)(=O)[O-])c5F)c5ccc2[nH]5)C=C4)C=C3)cc1
REMARK SMILES IDX 5 1 4 2 3 3 2 4 1 5 24 6 25 7 86 8 26 9 85 10 27 11 28 12
REMARK SMILES IDX 29 13 79 14 30 15 84 16 78 17 80 18 31 19 83 20 77 21 76 22
REMARK SMILES IDX 32 24 64 25 44 26 63 27 45 28 48 29 62 30 81 31 46 32 47 33
REMARK SMILES IDX 61 35 82 36 49 37 33 38 34 39 42 40 35 41 37 42 43 43 36 44
REMARK SMILES IDX 38 45 39 46 40 47 41 48 65 49 66 50 74 51 67 52 69 53 75 54
REMARK SMILES IDX 68 55 70 56 71 57 72 58 73 59 50 60 51 61 59 62 52 63 54 64
REMARK SMILES IDX 60 65 53 66 55 67 56 68 57 69 58 70 6 71 7 72 8 73 9 74
REMARK SMILES IDX 10 75 11 76 12 77 13 78 17 79 14 80 16 81 15 82 18 83 19 84
REMARK SMILES IDX 23 85 20 86 22 87 21 88
REMARK H PARENT 80 23 48 34
REMARK Flexibility Score: inf
ROOT
ATOM      1  C   UNL A   1      35.240  20.354  25.281  1.00  0.00     0.202 C 
ENDROOT
BRANCH   1   2
ATOM      2  C   UNL A   1      36.728  20.107  25.027  1.00  0.00     0.261 C 
BRANCH   2   3
ATOM      3  O   UNL A   1      37.521  21.284  25.247  1.00  0.00    -0.460 OA
BRANCH   3   4
ATOM      4  C   UNL A   1      38.751  21.272  25.833  1.00  0.00     0.338 C 
ATOM      5  O   UNL A   1      39.405  20.237  25.874  1.00  0.00    -0.246 OA
BRANCH   4   6
ATOM      6  C   UNL A   1      39.307  22.518  26.428  1.00  0.00     0.060 A 
ATOM      7  C   UNL A   1      40.424  22.479  27.251  1.00  0.00     0.016 A 
ATOM      8  C   UNL A   1      38.791  23.766  26.091  1.00  0.00     0.016 A 
ATOM      9  C   UNL A   1      40.941  23.582  27.879  1.00  0.00     0.010 A 
ATOM     10  C   UNL A   1      39.429  24.922  26.565  1.00  0.00     0.010 A 
ATOM     11  C   UNL A   1      40.520  24.820  27.448  1.00  0.00    -0.014 A 
BRANCH  11  12
ATOM     12  C   UNL A   1      41.310  25.974  27.896  1.00  0.00     0.031 A 
ATOM     13  C   UNL A   1      40.652  26.983  28.766  1.00  0.00     0.074 A 
ATOM     14  C   UNL A   1      42.611  26.052  27.548  1.00  0.00     0.049 A 
ATOM     15  N   UNL A   1      41.084  28.157  29.119  1.00  0.00    -0.248 NA
ATOM     16  C   UNL A   1      39.327  26.628  29.304  1.00  0.00     0.031 C 
ATOM     17  C   UNL A   1      43.357  25.032  26.793  1.00  0.00     0.029 A 
ATOM     18  N   UNL A   1      43.543  27.031  27.770  1.00  0.00    -0.354 N 
ATOM     19  C   UNL A   1      40.044  28.727  29.834  1.00  0.00     0.074 A 
ATOM     20  C   UNL A   1      38.981  27.752  29.914  1.00  0.00     0.031 C 
ATOM     21  C   UNL A   1      44.620  25.443  26.613  1.00  0.00     0.029 A 
ATOM     22  C   UNL A   1      44.740  26.793  27.133  1.00  0.00     0.049 A 
ATOM     23  H   UNL A   1      43.374  27.823  28.330  1.00  0.00     0.167 HD
ATOM     24  C   UNL A   1      39.991  29.976  30.340  1.00  0.00     0.034 A 
ATOM     25  C   UNL A   1      45.783  27.615  26.919  1.00  0.00     0.034 A 
ATOM     26  C   UNL A   1      41.085  30.899  30.248  1.00  0.00     0.049 A 
ATOM     27  C   UNL A   1      45.671  29.013  27.459  1.00  0.00     0.074 A 
ATOM     28  C   UNL A   1      41.164  32.190  30.730  1.00  0.00     0.029 A 
ATOM     29  N   UNL A   1      42.289  30.626  29.610  1.00  0.00    -0.354 N 
ATOM     30  N   UNL A   1      44.702  29.544  28.167  1.00  0.00    -0.248 NA
ATOM     31  C   UNL A   1      46.783  29.927  27.175  1.00  0.00     0.031 C 
ATOM     32  C   UNL A   1      42.399  32.715  30.342  1.00  0.00     0.029 A 
ATOM     33  C   UNL A   1      43.109  31.736  29.660  1.00  0.00     0.049 A 
ATOM     34  H   UNL A   1      42.522  29.769  29.186  1.00  0.00     0.167 HD
ATOM     35  C   UNL A   1      45.093  30.848  28.430  1.00  0.00     0.074 A 
ATOM     36  C   UNL A   1      46.403  31.015  27.831  1.00  0.00     0.031 C 
ATOM     37  C   UNL A   1      44.428  31.831  29.087  1.00  0.00     0.034 A 
BRANCH  24  38
ATOM     38  C   UNL A   1      38.696  30.420  30.949  1.00  0.00     0.023 A 
ATOM     39  C   UNL A   1      38.438  30.222  32.319  1.00  0.00     0.012 A 
ATOM     40  C   UNL A   1      37.725  31.041  30.140  1.00  0.00     0.148 A 
ATOM     41  C   UNL A   1      37.217  30.614  32.869  1.00  0.00     0.002 A 
ATOM     42  C   UNL A   1      36.534  31.471  30.703  1.00  0.00     0.091 A 
ATOM     43  F   UNL A   1      37.981  31.181  28.831  1.00  0.00    -0.205 F 
ATOM     44  C   UNL A   1      36.271  31.247  32.064  1.00  0.00     0.022 A 
BRANCH  42  45
ATOM     45  S   UNL A   1      35.284  32.355  29.766  1.00  0.00     0.127 S 
ATOM     46  O   UNL A   1      34.278  32.622  30.794  1.00  0.00    -0.237 OA
ATOM     47  O   UNL A   1      36.023  33.534  29.314  1.00  0.00    -0.237 OA
ATOM     48  O   UNL A   1      34.858  31.454  28.705  1.00  0.00    -0.744 OA
ENDBRANCH  42  45
ENDBRANCH  24  38
BRANCH  25  49
ATOM     49  C   UNL A   1      46.964  27.174  26.118  1.00  0.00     0.023 A 
ATOM     50  C   UNL A   1      47.941  26.353  26.711  1.00  0.00     0.012 A 
ATOM     51  C   UNL A   1      47.131  27.569  24.774  1.00  0.00     0.148 A 
ATOM     52  C   UNL A   1      49.081  25.972  25.999  1.00  0.00     0.002 A 
ATOM     53  C   UNL A   1      48.237  27.138  24.051  1.00  0.00     0.091 A 
ATOM     54  F   UNL A   1      46.201  28.364  24.223  1.00  0.00    -0.205 F 
ATOM     55  C   UNL A   1      49.225  26.358  24.668  1.00  0.00     0.022 A 
BRANCH  53  56
ATOM     56  S   UNL A   1      48.441  27.486  22.300  1.00  0.00     0.127 S 
ATOM     57  O   UNL A   1      49.631  28.332  22.299  1.00  0.00    -0.237 OA
ATOM     58  O   UNL A   1      48.638  26.146  21.744  1.00  0.00    -0.237 OA
ATOM     59  O   UNL A   1      47.203  28.130  21.881  1.00  0.00    -0.744 OA
ENDBRANCH  53  56
ENDBRANCH  25  49
BRANCH  37  60
ATOM     60  C   UNL A   1      45.123  33.154  29.221  1.00  0.00     0.023 A 
ATOM     61  C   UNL A   1      45.912  33.419  30.355  1.00  0.00     0.012 A 
ATOM     62  C   UNL A   1      45.082  34.079  28.161  1.00  0.00     0.148 A 
ATOM     63  C   UNL A   1      46.641  34.602  30.441  1.00  0.00     0.002 A 
ATOM     64  C   UNL A   1      45.856  35.227  28.228  1.00  0.00     0.091 A 
ATOM     65  F   UNL A   1      44.306  33.804  27.103  1.00  0.00    -0.205 F 
ATOM     66  C   UNL A   1      46.627  35.497  29.372  1.00  0.00     0.022 A 
BRANCH  64  67
ATOM     67  S   UNL A   1      45.991  36.374  26.854  1.00  0.00     0.127 S 
ATOM     68  O   UNL A   1      44.694  37.047  26.900  1.00  0.00    -0.237 OA
ATOM     69  O   UNL A   1      47.126  37.204  27.259  1.00  0.00    -0.237 OA
ATOM     70  O   UNL A   1      46.225  35.560  25.669  1.00  0.00    -0.744 OA
ENDBRANCH  64  67
ENDBRANCH  37  60
ENDBRANCH  11  12
ENDBRANCH   4   6
ENDBRANCH   3   4
ENDBRANCH   2   3
ENDBRANCH   1   2
BRANCH   1  71
ATOM     71  O   UNL A   1      34.908  21.391  26.179  1.00  0.00    -0.374 OA
BRANCH  71  72
ATOM     72  C   UNL A   1      33.613  21.382  26.749  1.00  0.00     0.202 C 
BRANCH  72  73
ATOM     73  C   UNL A   1      33.489  22.667  27.556  1.00  0.00     0.261 C 
BRANCH  73  74
ATOM     74  O   UNL A   1      32.101  23.056  27.557  1.00  0.00    -0.460 OA
BRANCH  74  75
ATOM     75  C   UNL A   1      31.553  23.449  26.367  1.00  0.00     0.340 C 
ATOM     76  O   UNL A   1      30.886  22.774  25.608  1.00  0.00    -0.246 OA
BRANCH  75  77
ATOM     77  C   UNL A   1      31.916  24.874  26.190  1.00  0.00     0.088 A 
ATOM     78  C   UNL A   1      31.084  25.814  26.827  1.00  0.00     0.019 A 
ATOM     79  C   UNL A   1      32.948  25.349  25.369  1.00  0.00     0.103 A 
ATOM     80  C   UNL A   1      31.287  27.173  26.644  1.00  0.00     0.021 A 
ATOM     81  N   UNL A   1      33.139  26.696  25.190  1.00  0.00    -0.254 NA
ATOM     82  C   UNL A   1      32.329  27.561  25.834  1.00  0.00     0.112 A 
BRANCH  79  83
ATOM     83  C   UNL A   1      33.833  24.548  24.497  1.00  0.00     0.089 A 
ATOM     84  C   UNL A   1      35.210  24.471  24.766  1.00  0.00     0.031 A 
ATOM     85  N   UNL A   1      33.276  23.845  23.484  1.00  0.00    -0.255 NA
ATOM     86  C   UNL A   1      36.040  23.718  23.937  1.00  0.00     0.004 A 
ATOM     87  C   UNL A   1      34.103  23.102  22.707  1.00  0.00     0.112 A 
ATOM     88  C   UNL A   1      35.476  23.017  22.883  1.00  0.00     0.020 A 
ENDBRANCH  79  83
ENDBRANCH  75  77
ENDBRANCH  74  75
ENDBRANCH  73  74
ENDBRANCH  72  73
ENDBRANCH  71  72
ENDBRANCH   1  71
TORSDOF 18
ENDMDL
MODEL 2
REMARK VINA RESULT:     -10.9      1.683      2.613
REMARK SMILES O=C(OCCOCCOC(=O)c1cccnc1-c1ccccn1)c1ccc(-c2c3nc(c(-c4cccc(S(=O)(=O)[O-])c4F)c4ccc([nH]4)c(-c4cccc(S(=O)(=O)[O-])c4F)c4nc(c(-c5cccc(S(=O)(=O)[O-])c5F)c5ccc2[nH]5)C=C4)C=C3)cc1
REMARK SMILES IDX 5 1 4 2 3 3 2 4 1 5 24 6 25 7 86 8 26 9 85 10 27 11 28 12
REMARK SMILES IDX 29 13 79 14 30 15 84 16 78 17 80 18 31 19 83 20 77 21 76 22
REMARK SMILES IDX 32 24 64 25 44 26 63 27 45 28 48 29 62 30 81 31 46 32 47 33
REMARK SMILES IDX 61 35 82 36 49 37 33 38 34 39 42 40 35 41 37 42 43 43 36 44
REMARK SMILES IDX 38 45 39 46 40 47 41 48 65 49 66 50 74 51 67 52 69 53 75 54
REMARK SMILES IDX 68 55 70 56 71 57 72 58 73 59 50 60 51 61 59 62 52 63 54 64
REMARK SMILES IDX 60 65 53 66 55 67 56 68 57 69 58 70 6 71 7 72 8 73 9 74
REMARK SMILES IDX 10 75 11 76 12 77 13 78 17 79 14 80 16 81 15 82 18 83 19 84
REMARK SMILES IDX 23 85 20 86 22 87 21 88
REMARK H PARENT 80 23 48 34
REMARK Flexibility Score: inf
ROOT
ATOM      1  C   UNL A   1      35.395  21.436  25.903  1.00  0.00     0.202 C 
ENDROOT
BRANCH   1   2
ATOM      2  C   UNL A   1      36.464  20.639  25.156  1.00  0.00     0.261 C 
BRANCH   2   3
ATOM      3  O   UNL A   1      37.665  21.400  24.947  1.00  0.00    -0.460 OA
BRANCH   3   4
ATOM      4  C   UNL A   1      38.758  21.331  25.758  1.00  0.00     0.338 C 
ATOM      5  O   UNL A   1      39.301  20.254  25.972  1.00  0.00    -0.246 OA
BRANCH   4   6
ATOM      6  C   UNL A   1      39.298  22.566  26.389  1.00  0.00     0.060 A 
ATOM      7  C   UNL A   1      40.441  22.525  27.175  1.00  0.00     0.016 A 
ATOM      8  C   UNL A   1      38.737  23.812  26.122  1.00  0.00     0.016 A 
ATOM      9  C   UNL A   1      40.947  23.614  27.834  1.00  0.00     0.010 A 
ATOM     10  C   UNL A   1      39.358  24.964  26.626  1.00  0.00     0.010 A 
ATOM     11  C   UNL A   1      40.478  24.857  27.469  1.00  0.00    -0.014 A 
BRANCH  11  12
ATOM     12  C   UNL A   1      41.250  26.014  27.942  1.00  0.00     0.031 A 
ATOM     13  C   UNL A   1      40.562  27.021  28.789  1.00  0.00     0.074 A 
ATOM     14  C   UNL A   1      42.562  26.094  27.637  1.00  0.00     0.049 A 
ATOM     15  N   UNL A   1      40.979  28.197  29.155  1.00  0.00    -0.248 NA
ATOM     16  C   UNL A   1      39.220  26.664  29.283  1.00  0.00     0.031 C 
ATOM     17  C   UNL A   1      43.336  25.076  26.909  1.00  0.00     0.029 A 
ATOM     18  N   UNL A   1      43.484  27.076  27.890  1.00  0.00    -0.354 N 
ATOM     19  C   UNL A   1      39.914  28.765  29.834  1.00  0.00     0.074 A 
ATOM     20  C   UNL A   1      38.851  27.787  29.880  1.00  0.00     0.031 C 
ATOM     21  C   UNL A   1      44.603  25.489  26.771  1.00  0.00     0.029 A 
ATOM     22  C   UNL A   1      44.702  26.840  27.293  1.00  0.00     0.049 A 
ATOM     23  H   UNL A   1      43.294  27.868  28.443  1.00  0.00     0.167 HD
ATOM     24  C   UNL A   1      39.841  30.014  30.337  1.00  0.00     0.034 A 
ATOM     25  C   UNL A   1      45.750  27.665  27.114  1.00  0.00     0.034 A 
ATOM     26  C   UNL A   1      40.936  30.940  30.281  1.00  0.00     0.049 A 
ATOM     27  C   UNL A   1      45.616  29.063  27.649  1.00  0.00     0.074 A 
ATOM     28  C   UNL A   1      40.995  32.231  30.764  1.00  0.00     0.029 A 
ATOM     29  N   UNL A   1      42.160  30.670  29.684  1.00  0.00    -0.354 N 
ATOM     30  N   UNL A   1      44.623  29.592  28.323  1.00  0.00    -0.248 NA
ATOM     31  C   UNL A   1      46.735  29.979  27.401  1.00  0.00     0.031 C 
ATOM     32  C   UNL A   1      42.242  32.759  30.417  1.00  0.00     0.029 A 
ATOM     33  C   UNL A   1      42.976  31.781  29.760  1.00  0.00     0.049 A 
ATOM     34  H   UNL A   1      42.410  29.812  29.269  1.00  0.00     0.167 HD
ATOM     35  C   UNL A   1      45.002  30.897  28.598  1.00  0.00     0.074 A 
ATOM     36  C   UNL A   1      46.331  31.067  28.043  1.00  0.00     0.031 C 
ATOM     37  C   UNL A   1      44.313  31.878  29.231  1.00  0.00     0.034 A 
BRANCH  24  38
ATOM     38  C   UNL A   1      38.525  30.455  30.903  1.00  0.00     0.023 A 
ATOM     39  C   UNL A   1      38.202  30.212  32.251  1.00  0.00     0.012 A 
ATOM     40  C   UNL A   1      37.602  31.120  30.073  1.00  0.00     0.148 A 
ATOM     41  C   UNL A   1      36.962  30.603  32.759  1.00  0.00     0.002 A 
ATOM     42  C   UNL A   1      36.392  31.548  30.597  1.00  0.00     0.091 A 
ATOM     43  F   UNL A   1      37.920  31.303  28.784  1.00  0.00    -0.205 F 
ATOM     44  C   UNL A   1      36.063  31.278  31.936  1.00  0.00     0.022 A 
BRANCH  42  45
ATOM     45  S   UNL A   1      35.199  32.483  29.637  1.00  0.00     0.127 S 
ATOM     46  O   UNL A   1      34.174  32.773  30.640  1.00  0.00    -0.237 OA
ATOM     47  O   UNL A   1      35.989  33.641  29.220  1.00  0.00    -0.237 OA
ATOM     48  O   UNL A   1      34.772  31.609  28.554  1.00  0.00    -0.744 OA
ENDBRANCH  42  45
ENDBRANCH  24  38
BRANCH  25  49
ATOM     49  C   UNL A   1      46.957  27.226  26.353  1.00  0.00     0.023 A 
ATOM     50  C   UNL A   1      47.021  27.440  24.963  1.00  0.00     0.012 A 
ATOM     51  C   UNL A   1      48.042  26.589  26.994  1.00  0.00     0.148 A 
ATOM     52  C   UNL A   1      48.116  26.990  24.221  1.00  0.00     0.002 A 
ATOM     53  C   UNL A   1      49.155  26.197  26.259  1.00  0.00     0.091 A 
ATOM     54  F   UNL A   1      47.965  26.377  28.316  1.00  0.00    -0.205 F 
ATOM     55  C   UNL A   1      49.184  26.376  24.869  1.00  0.00     0.022 A 
BRANCH  53  56
ATOM     56  S   UNL A   1      50.626  25.511  27.030  1.00  0.00     0.127 S 
ATOM     57  O   UNL A   1      50.107  24.282  27.624  1.00  0.00    -0.237 OA
ATOM     58  O   UNL A   1      51.509  25.313  25.879  1.00  0.00    -0.237 OA
ATOM     59  O   UNL A   1      51.088  26.525  27.968  1.00  0.00    -0.744 OA
ENDBRANCH  53  56
ENDBRANCH  25  49
BRANCH  37  60
ATOM     60  C   UNL A   1      45.000  33.203  29.387  1.00  0.00     0.023 A 
ATOM     61  C   UNL A   1      45.959  33.380  30.401  1.00  0.00     0.012 A 
ATOM     62  C   UNL A   1      44.773  34.227  28.448  1.00  0.00     0.148 A 
ATOM     63  C   UNL A   1      46.674  34.572  30.489  1.00  0.00     0.002 A 
ATOM     64  C   UNL A   1      45.530  35.387  28.508  1.00  0.00     0.091 A 
ATOM     65  F   UNL A   1      43.839  34.033  27.505  1.00  0.00    -0.205 F 
ATOM     66  C   UNL A   1      46.472  35.567  29.534  1.00  0.00     0.022 A 
BRANCH  64  67
ATOM     67  S   UNL A   1      45.422  36.667  27.255  1.00  0.00     0.127 S 
ATOM     68  O   UNL A   1      45.885  37.842  27.990  1.00  0.00    -0.237 OA
ATOM     69  O   UNL A   1      46.350  36.177  26.236  1.00  0.00    -0.237 OA
ATOM     70  O   UNL A   1      44.027  36.709  26.836  1.00  0.00    -0.744 OA
ENDBRANCH  64  67
ENDBRANCH  37  60
ENDBRANCH  11  12
ENDBRANCH   4   6
ENDBRANCH   3   4
ENDBRANCH   2   3
ENDBRANCH   1   2
BRANCH   1  71
ATOM     71  O   UNL A   1      34.116  20.847  26.012  1.00  0.00    -0.374 OA
BRANCH  71  72
ATOM     72  C   UNL A   1      32.990  21.704  25.998  1.00  0.00     0.202 C 
BRANCH  72  73
ATOM     73  C   UNL A   1      33.422  22.991  26.686  1.00  0.00     0.261 C 
BRANCH  73  74
ATOM     74  O   UNL A   1      32.921  24.098  25.909  1.00  0.00    -0.460 OA
BRANCH  74  75
ATOM     75  C   UNL A   1      33.830  24.843  25.210  1.00  0.00     0.340 C 
ATOM     76  O   UNL A   1      35.008  24.997  25.470  1.00  0.00    -0.246 OA
BRANCH  75  77
ATOM     77  C   UNL A   1      33.102  25.416  24.055  1.00  0.00     0.088 A 
ATOM     78  C   UNL A   1      33.174  24.691  22.851  1.00  0.00     0.019 A 
ATOM     79  C   UNL A   1      32.444  26.654  24.048  1.00  0.00     0.103 A 
ATOM     80  C   UNL A   1      32.603  25.193  21.691  1.00  0.00     0.021 A 
ATOM     81  N   UNL A   1      31.885  27.145  22.894  1.00  0.00    -0.254 NA
ATOM     82  C   UNL A   1      31.962  26.409  21.767  1.00  0.00     0.112 A 
BRANCH  79  83
ATOM     83  C   UNL A   1      32.383  27.638  25.149  1.00  0.00     0.089 A 
ATOM     84  C   UNL A   1      31.676  27.339  26.326  1.00  0.00     0.031 A 
ATOM     85  N   UNL A   1      33.076  28.792  25.021  1.00  0.00    -0.255 NA
ATOM     86  C   UNL A   1      31.618  28.272  27.360  1.00  0.00     0.004 A 
ATOM     87  C   UNL A   1      33.022  29.674  26.051  1.00  0.00     0.112 A 
ATOM     88  C   UNL A   1      32.306  29.468  27.221  1.00  0.00     0.020 A 
ENDBRANCH  79  83
ENDBRANCH  75  77
ENDBRANCH  74  75
ENDBRANCH  73  74
ENDBRANCH  72  73
ENDBRANCH  71  72
ENDBRANCH   1  71
TORSDOF 18
ENDMDL
MODEL 3
REMARK VINA RESULT:     -10.9      5.376     10.121
REMARK SMILES O=C(OCCOCCOC(=O)c1cccnc1-c1ccccn1)c1ccc(-c2c3nc(c(-c4cccc(S(=O)(=O)[O-])c4F)c4ccc([nH]4)c(-c4cccc(S(=O)(=O)[O-])c4F)c4nc(c(-c5cccc(S(=O)(=O)[O-])c5F)c5ccc2[nH]5)C=C4)C=C3)cc1
REMARK SMILES IDX 5 1 4 2 3 3 2 4 1 5 24 6 25 7 86 8 26 9 85 10 27 11 28 12
REMARK SMILES IDX 29 13 79 14 30 15 84 16 78 17 80 18 31 19 83 20 77 21 76 22
REMARK SMILES IDX 32 24 64 25 44 26 63 27 45 28 48 29 62 30 81 31 46 32 47 33
REMARK SMILES IDX 61 35 82 36 49 37 33 38 34 39 42 40 35 41 37 42 43 43 36 44
REMARK SMILES IDX 38 45 39 46 40 47 41 48 65 49 66 50 74 51 67 52 69 53 75 54
REMARK SMILES IDX 68 55 70 56 71 57 72 58 73 59 50 60 51 61 59 62 52 63 54 64
REMARK SMILES IDX 60 65 53 66 55 67 56 68 57 69 58 70 6 71 7 72 8 73 9 74
REMARK SMILES IDX 10 75 11 76 12 77 13 78 17 79 14 80 16 81 15 82 18 83 19 84
REMARK SMILES IDX 23 85 20 86 22 87 21 88
REMARK H PARENT 80 23 48 34
REMARK Flexibility Score: inf
ROOT
ATOM      1  C   UNL A   1      31.505  28.195  24.544  1.00  0.00     0.202 C 
ENDROOT
BRANCH   1   2
ATOM      2  C   UNL A   1      32.315  29.471  24.771  1.00  0.00     0.261 C 
BRANCH   2   3
ATOM      3  O   UNL A   1      33.113  29.406  25.964  1.00  0.00    -0.460 OA
BRANCH   3   4
ATOM      4  C   UNL A   1      33.374  30.479  26.763  1.00  0.00     0.338 C 
ATOM      5  O   UNL A   1      32.612  31.438  26.775  1.00  0.00    -0.246 OA
BRANCH   4   6
ATOM      6  C   UNL A   1      34.587  30.490  27.625  1.00  0.00     0.060 A 
ATOM      7  C   UNL A   1      34.963  29.362  28.342  1.00  0.00     0.016 A 
ATOM      8  C   UNL A   1      35.437  31.591  27.653  1.00  0.00     0.016 A 
ATOM      9  C   UNL A   1      36.029  29.332  29.202  1.00  0.00     0.010 A 
ATOM     10  C   UNL A   1      36.640  31.510  28.370  1.00  0.00     0.010 A 
ATOM     11  C   UNL A   1      36.938  30.364  29.130  1.00  0.00    -0.014 A 
BRANCH  11  12
ATOM     12  C   UNL A   1      38.222  30.156  29.813  1.00  0.00     0.031 A 
ATOM     13  C   UNL A   1      39.235  29.289  29.160  1.00  0.00     0.074 A 
ATOM     14  C   UNL A   1      38.455  30.798  30.977  1.00  0.00     0.049 A 
ATOM     15  N   UNL A   1      40.341  28.817  29.655  1.00  0.00    -0.248 NA
ATOM     16  C   UNL A   1      38.966  28.892  27.767  1.00  0.00     0.031 C 
ATOM     17  C   UNL A   1      37.549  31.764  31.619  1.00  0.00     0.029 A 
ATOM     18  N   UNL A   1      39.518  30.735  31.839  1.00  0.00    -0.354 N 
ATOM     19  C   UNL A   1      40.850  27.982  28.674  1.00  0.00     0.074 A 
ATOM     20  C   UNL A   1      39.965  28.053  27.534  1.00  0.00     0.031 C 
ATOM     21  C   UNL A   1      38.090  32.193  32.767  1.00  0.00     0.029 A 
ATOM     22  C   UNL A   1      39.317  31.451  32.998  1.00  0.00     0.049 A 
ATOM     23  H   UNL A   1      40.341  30.231  31.648  1.00  0.00     0.167 HD
ATOM     24  C   UNL A   1      41.947  27.202  28.756  1.00  0.00     0.034 A 
ATOM     25  C   UNL A   1      40.007  31.437  34.153  1.00  0.00     0.034 A 
ATOM     26  C   UNL A   1      42.803  27.184  29.907  1.00  0.00     0.049 A 
ATOM     27  C   UNL A   1      41.198  30.523  34.224  1.00  0.00     0.074 A 
ATOM     28  C   UNL A   1      43.953  26.448  30.113  1.00  0.00     0.029 A 
ATOM     29  N   UNL A   1      42.583  27.928  31.059  1.00  0.00    -0.354 N 
ATOM     30  N   UNL A   1      41.703  29.758  33.285  1.00  0.00    -0.248 NA
ATOM     31  C   UNL A   1      41.914  30.463  35.503  1.00  0.00     0.031 C 
ATOM     32  C   UNL A   1      44.403  26.713  31.409  1.00  0.00     0.029 A 
ATOM     33  C   UNL A   1      43.561  27.649  31.994  1.00  0.00     0.049 A 
ATOM     34  H   UNL A   1      41.841  28.562  31.189  1.00  0.00     0.167 HD
ATOM     35  C   UNL A   1      42.807  29.139  33.850  1.00  0.00     0.074 A 
ATOM     36  C   UNL A   1      42.914  29.644  35.206  1.00  0.00     0.031 C 
ATOM     37  C   UNL A   1      43.647  28.221  33.314  1.00  0.00     0.034 A 
BRANCH  24  38
ATOM     38  C   UNL A   1      42.218  26.268  27.616  1.00  0.00     0.023 A 
ATOM     39  C   UNL A   1      43.019  26.669  26.530  1.00  0.00     0.012 A 
ATOM     40  C   UNL A   1      41.663  24.974  27.632  1.00  0.00     0.148 A 
ATOM     41  C   UNL A   1      43.240  25.801  25.460  1.00  0.00     0.002 A 
ATOM     42  C   UNL A   1      41.927  24.100  26.590  1.00  0.00     0.091 A 
ATOM     43  F   UNL A   1      40.873  24.632  28.660  1.00  0.00    -0.205 F 
ATOM     44  C   UNL A   1      42.704  24.515  25.496  1.00  0.00     0.022 A 
BRANCH  42  45
ATOM     45  S   UNL A   1      41.339  22.405  26.577  1.00  0.00     0.127 S 
ATOM     46  O   UNL A   1      41.986  21.876  25.376  1.00  0.00    -0.237 OA
ATOM     47  O   UNL A   1      41.875  21.889  27.836  1.00  0.00    -0.237 OA
ATOM     48  O   UNL A   1      39.886  22.478  26.512  1.00  0.00    -0.744 OA
ENDBRANCH  42  45
ENDBRANCH  24  38
BRANCH  25  49
ATOM     49  C   UNL A   1      39.559  32.238  35.331  1.00  0.00     0.023 A 
ATOM     50  C   UNL A   1      39.926  33.594  35.431  1.00  0.00     0.012 A 
ATOM     51  C   UNL A   1      38.780  31.666  36.359  1.00  0.00     0.148 A 
ATOM     52  C   UNL A   1      39.566  34.350  36.549  1.00  0.00     0.002 A 
ATOM     53  C   UNL A   1      38.373  32.440  37.440  1.00  0.00     0.091 A 
ATOM     54  F   UNL A   1      38.448  30.371  36.261  1.00  0.00    -0.205 F 
ATOM     55  C   UNL A   1      38.784  33.776  37.549  1.00  0.00     0.022 A 
BRANCH  53  56
ATOM     56  S   UNL A   1      37.265  31.816  38.710  1.00  0.00     0.127 S 
ATOM     57  O   UNL A   1      37.028  30.449  38.255  1.00  0.00    -0.237 OA
ATOM     58  O   UNL A   1      38.087  31.930  39.915  1.00  0.00    -0.237 OA
ATOM     59  O   UNL A   1      36.108  32.702  38.691  1.00  0.00    -0.744 OA
ENDBRANCH  53  56
ENDBRANCH  25  49
BRANCH  37  60
ATOM     60  C   UNL A   1      44.772  27.736  34.181  1.00  0.00     0.023 A 
ATOM     61  C   UNL A   1      45.938  28.511  34.315  1.00  0.00     0.012 A 
ATOM     62  C   UNL A   1      44.612  26.568  34.951  1.00  0.00     0.148 A 
ATOM     63  C   UNL A   1      46.943  28.119  35.195  1.00  0.00     0.002 A 
ATOM     64  C   UNL A   1      45.591  26.216  35.867  1.00  0.00     0.091 A 
ATOM     65  F   UNL A   1      43.496  25.843  34.786  1.00  0.00    -0.205 F 
ATOM     66  C   UNL A   1      46.762  26.983  35.983  1.00  0.00     0.022 A 
BRANCH  64  67
ATOM     67  S   UNL A   1      45.390  24.842  37.004  1.00  0.00     0.127 S 
ATOM     68  O   UNL A   1      45.417  23.698  36.094  1.00  0.00    -0.237 OA
ATOM     69  O   UNL A   1      46.573  24.974  37.855  1.00  0.00    -0.237 OA
ATOM     70  O   UNL A   1      44.122  25.061  37.686  1.00  0.00    -0.744 OA
ENDBRANCH  64  67
ENDBRANCH  37  60
ENDBRANCH  11  12
ENDBRANCH   4   6
ENDBRANCH   3   4
ENDBRANCH   2   3
ENDBRANCH   1   2
BRANCH   1  71
ATOM     71  O   UNL A   1      32.182  27.101  23.964  1.00  0.00    -0.374 OA
BRANCH  71  72
ATOM     72  C   UNL A   1      32.413  27.131  22.568  1.00  0.00     0.202 C 
BRANCH  72  73
ATOM     73  C   UNL A   1      33.609  26.226  22.310  1.00  0.00     0.261 C 
BRANCH  73  74
ATOM     74  O   UNL A   1      33.468  25.059  23.147  1.00  0.00    -0.460 OA
BRANCH  74  75
ATOM     75  C   UNL A   1      33.913  23.866  22.648  1.00  0.00     0.340 C 
ATOM     76  O   UNL A   1      33.651  23.380  21.565  1.00  0.00    -0.246 OA
BRANCH  75  77
ATOM     77  C   UNL A   1      34.798  23.284  23.683  1.00  0.00     0.088 A 
ATOM     78  C   UNL A   1      36.110  22.973  23.278  1.00  0.00     0.019 A 
ATOM     79  C   UNL A   1      34.403  22.935  24.982  1.00  0.00     0.103 A 
ATOM     80  C   UNL A   1      36.985  22.340  24.148  1.00  0.00     0.021 A 
ATOM     81  N   UNL A   1      35.274  22.304  25.834  1.00  0.00    -0.254 NA
ATOM     82  C   UNL A   1      36.527  22.041  25.411  1.00  0.00     0.112 A 
BRANCH  79  83
ATOM     83  C   UNL A   1      33.044  23.030  25.555  1.00  0.00     0.089 A 
ATOM     84  C   UNL A   1      32.680  24.144  26.330  1.00  0.00     0.031 A 
ATOM     85  N   UNL A   1      32.150  22.058  25.260  1.00  0.00    -0.255 NA
ATOM     86  C   UNL A   1      31.399  24.226  26.873  1.00  0.00     0.004 A 
ATOM     87  C   UNL A   1      30.903  22.173  25.781  1.00  0.00     0.112 A 
ATOM     88  C   UNL A   1      30.488  23.219  26.593  1.00  0.00     0.020 A 
ENDBRANCH  79  83
ENDBRANCH  75  77
ENDBRANCH  74  75
ENDBRANCH  73  74
ENDBRANCH  72  73
ENDBRANCH  71  72
ENDBRANCH   1  71
TORSDOF 18
ENDMDL
