MODEL 1
REMARK VINA RESULT:      -9.7      0.000      0.000
REMARK SMILES C#CCNC(=O)C[N@@H+](CC(=O)OCCOCCOC(=O)c1ccc(-c2c3nc(c(-c4cccc(S(=O)(=O)[O-])c4F)c4ccc([nH]4)c(-c4cccc(S(=O)(=O)[O-])c4F)c4nc(c(-c5cccc(S(=O)(=O)[O-])c5F)c5ccc2[nH]5)C=C4)C=C3)cc1)C(C)(C)C
REMARK SMILES IDX 14 1 13 2 12 3 10 4 11 5 9 6 8 7 7 9 5 10 4 11 6 13 3 14
REMARK SMILES IDX 2 15 1 16 84 17 85 18 86 19 87 20 15 21 16 22 17 23 18 24
REMARK SMILES IDX 19 25 20 26 21 27 22 28 83 29 23 30 82 31 24 32 25 33 26 34
REMARK SMILES IDX 76 35 27 36 81 37 75 38 77 39 28 40 80 41 74 42 73 43 29 45
REMARK SMILES IDX 61 46 41 47 60 48 42 49 45 50 59 51 78 52 43 53 44 54 58 56
REMARK SMILES IDX 79 57 46 58 30 59 31 60 39 61 32 62 34 63 40 64 33 65 35 66
REMARK SMILES IDX 36 67 37 68 38 69 62 70 63 71 71 72 64 73 66 74 72 75 65 76
REMARK SMILES IDX 67 77 68 78 69 79 70 80 47 81 48 82 56 83 49 84 51 85 57 86
REMARK SMILES IDX 50 87 52 88 53 89 54 90 55 91
REMARK H PARENT 8 8 4 12 77 44 45 55
REMARK Flexibility Score: inf
ROOT
ATOM      1  C   UNL A   1      31.785  27.541  25.045  1.00  0.00     0.202 C 
ENDROOT
BRANCH   1   2
ATOM      2  C   UNL A   1      30.588  27.015  24.248  1.00  0.00     0.261 C 
BRANCH   2   3
ATOM      3  O   UNL A   1      30.348  25.611  24.491  1.00  0.00    -0.459 OA
BRANCH   3   4
ATOM      4  C   UNL A   1      31.000  24.725  23.695  1.00  0.00     0.361 C 
ATOM      5  O   UNL A   1      31.257  24.917  22.510  1.00  0.00    -0.245 OA
BRANCH   4   6
ATOM      6  C   UNL A   1      31.278  23.390  24.383  1.00  0.00     0.387 C 
BRANCH   6   7
ATOM      7  N   UNL A   1      32.684  23.039  24.719  1.00  0.00    -0.314 N 
ATOM      8  H   UNL A   1      33.259  23.606  24.097  1.00  0.00     0.349 HD
BRANCH   7   9
ATOM      9  C   UNL A   1      32.962  21.618  24.380  1.00  0.00     0.364 C 
BRANCH   9  10
ATOM     10  C   UNL A   1      32.549  21.270  22.952  1.00  0.00     0.275 C 
ATOM     11  N   UNL A   1      32.091  20.009  22.693  1.00  0.00    -0.340 N 
ATOM     12  H   UNL A   1      31.738  19.838  21.790  1.00  0.00     0.164 HD
ATOM     13  O   UNL A   1      32.619  22.092  22.037  1.00  0.00    -0.268 OA
BRANCH  11  14
ATOM     14  C   UNL A   1      32.076  18.912  23.616  1.00  0.00     0.206 C 
BRANCH  14  15
ATOM     15  C   UNL A   1      33.102  17.833  23.310  1.00  0.00    -0.085 C 
ATOM     16  C   UNL A   1      33.982  16.907  23.048  1.00  0.00     0.006 C 
ENDBRANCH  14  15
ENDBRANCH  11  14
ENDBRANCH   9  10
ENDBRANCH   7   9
BRANCH   7  17
ATOM     17  C   UNL A   1      33.286  23.590  25.964  1.00  0.00     0.090 C 
ATOM     18  C   UNL A   1      32.202  24.009  26.944  1.00  0.00     0.078 C 
ATOM     19  C   UNL A   1      34.158  22.599  26.775  1.00  0.00     0.078 C 
ATOM     20  C   UNL A   1      34.240  24.769  25.660  1.00  0.00     0.078 C 
ENDBRANCH   7  17
ENDBRANCH   6   7
ENDBRANCH   4   6
ENDBRANCH   3   4
ENDBRANCH   2   3
ENDBRANCH   1   2
BRANCH   1  21
ATOM     21  O   UNL A   1      32.213  28.858  24.687  1.00  0.00    -0.374 OA
BRANCH  21  22
ATOM     22  C   UNL A   1      31.311  29.925  24.981  1.00  0.00     0.202 C 
BRANCH  22  23
ATOM     23  C   UNL A   1      31.574  30.612  26.335  1.00  0.00     0.261 C 
BRANCH  23  24
ATOM     24  O   UNL A   1      32.961  30.491  26.711  1.00  0.00    -0.460 OA
BRANCH  24  25
ATOM     25  C   UNL A   1      33.510  31.565  27.310  1.00  0.00     0.338 C 
ATOM     26  O   UNL A   1      32.917  32.557  27.714  1.00  0.00    -0.246 OA
BRANCH  25  27
ATOM     27  C   UNL A   1      34.927  31.289  27.625  1.00  0.00     0.060 A 
ATOM     28  C   UNL A   1      35.298  29.942  27.700  1.00  0.00     0.016 A 
ATOM     29  C   UNL A   1      35.854  32.290  27.930  1.00  0.00     0.016 A 
ATOM     30  C   UNL A   1      36.561  29.590  28.171  1.00  0.00     0.010 A 
ATOM     31  C   UNL A   1      37.130  31.930  28.401  1.00  0.00     0.010 A 
ATOM     32  C   UNL A   1      37.471  30.576  28.580  1.00  0.00    -0.014 A 
BRANCH  32  33
ATOM     33  C   UNL A   1      38.686  30.147  29.329  1.00  0.00     0.031 A 
ATOM     34  C   UNL A   1      38.902  30.637  30.740  1.00  0.00     0.074 A 
ATOM     35  C   UNL A   1      39.540  29.242  28.812  1.00  0.00     0.049 A 
ATOM     36  N   UNL A   1      39.796  30.259  31.620  1.00  0.00    -0.248 NA
ATOM     37  C   UNL A   1      37.985  31.679  31.230  1.00  0.00     0.031 C 
ATOM     38  C   UNL A   1      39.461  28.678  27.467  1.00  0.00     0.029 A 
ATOM     39  N   UNL A   1      40.640  28.633  29.368  1.00  0.00    -0.354 N 
ATOM     40  C   UNL A   1      39.557  31.019  32.760  1.00  0.00     0.074 A 
ATOM     41  C   UNL A   1      38.449  31.897  32.453  1.00  0.00     0.031 C 
ATOM     42  C   UNL A   1      40.473  27.810  27.298  1.00  0.00     0.029 A 
ATOM     43  C   UNL A   1      41.279  27.760  28.519  1.00  0.00     0.049 A 
ATOM     44  H   UNL A   1      40.944  28.806  30.289  1.00  0.00     0.167 HD
ATOM     45  C   UNL A   1      40.179  30.976  33.962  1.00  0.00     0.034 A 
ATOM     46  C   UNL A   1      42.382  27.004  28.699  1.00  0.00     0.034 A 
ATOM     47  C   UNL A   1      41.267  30.093  34.290  1.00  0.00     0.049 A 
ATOM     48  C   UNL A   1      43.074  26.995  30.040  1.00  0.00     0.074 A 
ATOM     49  C   UNL A   1      41.918  29.946  35.504  1.00  0.00     0.029 A 
ATOM     50  N   UNL A   1      41.877  29.220  33.404  1.00  0.00    -0.354 N 
ATOM     51  N   UNL A   1      42.736  27.606  31.149  1.00  0.00    -0.248 NA
ATOM     52  C   UNL A   1      44.280  26.160  30.162  1.00  0.00     0.031 C 
ATOM     53  C   UNL A   1      42.940  29.005  35.344  1.00  0.00     0.029 A 
ATOM     54  C   UNL A   1      42.909  28.547  34.037  1.00  0.00     0.049 A 
ATOM     55  H   UNL A   1      41.616  29.098  32.463  1.00  0.00     0.167 HD
ATOM     56  C   UNL A   1      43.666  27.205  32.106  1.00  0.00     0.074 A 
ATOM     57  C   UNL A   1      44.566  26.279  31.452  1.00  0.00     0.031 C 
ATOM     58  C   UNL A   1      43.772  27.585  33.403  1.00  0.00     0.034 A 
BRANCH  45  59
ATOM     59  C   UNL A   1      39.669  31.889  35.046  1.00  0.00     0.023 A 
ATOM     60  C   UNL A   1      38.693  31.417  35.946  1.00  0.00     0.012 A 
ATOM     61  C   UNL A   1      40.212  33.176  35.225  1.00  0.00     0.148 A 
ATOM     62  C   UNL A   1      38.243  32.222  36.992  1.00  0.00     0.002 A 
ATOM     63  C   UNL A   1      39.788  33.958  36.293  1.00  0.00     0.091 A 
ATOM     64  F   UNL A   1      41.126  33.612  34.347  1.00  0.00    -0.205 F 
ATOM     65  C   UNL A   1      38.799  33.487  37.172  1.00  0.00     0.022 A 
BRANCH  63  66
ATOM     66  S   UNL A   1      40.498  35.568  36.656  1.00  0.00     0.127 S 
ATOM     67  O   UNL A   1      39.606  36.457  35.914  1.00  0.00    -0.237 OA
ATOM     68  O   UNL A   1      40.363  35.646  38.110  1.00  0.00    -0.237 OA
ATOM     69  O   UNL A   1      41.873  35.518  36.176  1.00  0.00    -0.744 OA
ENDBRANCH  63  66
ENDBRANCH  45  59
BRANCH  46  70
ATOM     70  C   UNL A   1      42.891  26.152  27.585  1.00  0.00     0.023 A 
ATOM     71  C   UNL A   1      43.830  26.675  26.675  1.00  0.00     0.012 A 
ATOM     72  C   UNL A   1      42.446  24.826  27.426  1.00  0.00     0.148 A 
ATOM     73  C   UNL A   1      44.295  25.902  25.611  1.00  0.00     0.002 A 
ATOM     74  C   UNL A   1      42.955  24.042  26.398  1.00  0.00     0.091 A 
ATOM     75  F   UNL A   1      41.531  24.355  28.286  1.00  0.00    -0.205 F 
ATOM     76  C   UNL A   1      43.866  24.583  25.478  1.00  0.00     0.022 A 
BRANCH  74  77
ATOM     77  S   UNL A   1      42.558  22.298  26.236  1.00  0.00     0.127 S 
ATOM     78  O   UNL A   1      42.884  21.791  27.565  1.00  0.00    -0.237 OA
ATOM     79  O   UNL A   1      41.128  22.341  25.925  1.00  0.00    -0.237 OA
ATOM     80  O   UNL A   1      43.390  21.807  25.146  1.00  0.00    -0.744 OA
ENDBRANCH  74  77
ENDBRANCH  46  70
BRANCH  58  81
ATOM     81  C   UNL A   1      44.887  26.989  34.227  1.00  0.00     0.023 A 
ATOM     82  C   UNL A   1      46.169  27.573  34.191  1.00  0.00     0.012 A 
ATOM     83  C   UNL A   1      44.648  25.906  35.096  1.00  0.00     0.148 A 
ATOM     84  C   UNL A   1      47.203  27.069  34.982  1.00  0.00     0.002 A 
ATOM     85  C   UNL A   1      45.670  25.438  35.916  1.00  0.00     0.091 A 
ATOM     86  F   UNL A   1      43.427  25.352  35.108  1.00  0.00    -0.205 F 
ATOM     87  C   UNL A   1      46.950  26.011  35.851  1.00  0.00     0.022 A 
BRANCH  85  88
ATOM     88  S   UNL A   1      45.416  24.139  37.132  1.00  0.00     0.127 S 
ATOM     89  O   UNL A   1      46.684  24.160  37.860  1.00  0.00    -0.237 OA
ATOM     90  O   UNL A   1      44.270  24.642  37.889  1.00  0.00    -0.237 OA
ATOM     91  O   UNL A   1      45.151  22.925  36.372  1.00  0.00    -0.744 OA
ENDBRANCH  85  88
ENDBRANCH  58  81
ENDBRANCH  32  33
ENDBRANCH  25  27
ENDBRANCH  24  25
ENDBRANCH  23  24
ENDBRANCH  22  23
ENDBRANCH  21  22
ENDBRANCH   1  21
TORSDOF 23
ENDMDL
MODEL 2
REMARK VINA RESULT:      -9.7      1.433      8.141
REMARK SMILES C#CCNC(=O)C[N@@H+](CC(=O)OCCOCCOC(=O)c1ccc(-c2c3nc(c(-c4cccc(S(=O)(=O)[O-])c4F)c4ccc([nH]4)c(-c4cccc(S(=O)(=O)[O-])c4F)c4nc(c(-c5cccc(S(=O)(=O)[O-])c5F)c5ccc2[nH]5)C=C4)C=C3)cc1)C(C)(C)C
REMARK SMILES IDX 14 1 13 2 12 3 10 4 11 5 9 6 8 7 7 9 5 10 4 11 6 13 3 14
REMARK SMILES IDX 2 15 1 16 84 17 85 18 86 19 87 20 15 21 16 22 17 23 18 24
REMARK SMILES IDX 19 25 20 26 21 27 22 28 83 29 23 30 82 31 24 32 25 33 26 34
REMARK SMILES IDX 76 35 27 36 81 37 75 38 77 39 28 40 80 41 74 42 73 43 29 45
REMARK SMILES IDX 61 46 41 47 60 48 42 49 45 50 59 51 78 52 43 53 44 54 58 56
REMARK SMILES IDX 79 57 46 58 30 59 31 60 39 61 32 62 34 63 40 64 33 65 35 66
REMARK SMILES IDX 36 67 37 68 38 69 62 70 63 71 71 72 64 73 66 74 72 75 65 76
REMARK SMILES IDX 67 77 68 78 69 79 70 80 47 81 48 82 56 83 49 84 51 85 57 86
REMARK SMILES IDX 50 87 52 88 53 89 54 90 55 91
REMARK H PARENT 8 8 4 12 77 44 45 55
REMARK Flexibility Score: inf
ROOT
ATOM      1  C   UNL A   1      32.675  27.942  25.981  1.00  0.00     0.202 C 
ENDROOT
BRANCH   1   2
ATOM      2  C   UNL A   1      32.088  26.619  25.483  1.00  0.00     0.261 C 
BRANCH   2   3
ATOM      3  O   UNL A   1      31.403  25.900  26.532  1.00  0.00    -0.459 OA
BRANCH   3   4
ATOM      4  C   UNL A   1      31.610  24.559  26.602  1.00  0.00     0.361 C 
ATOM      5  O   UNL A   1      30.954  23.793  27.302  1.00  0.00    -0.245 OA
BRANCH   4   6
ATOM      6  C   UNL A   1      32.837  24.099  25.818  1.00  0.00     0.387 C 
BRANCH   6   7
ATOM      7  N   UNL A   1      32.725  22.885  24.965  1.00  0.00    -0.314 N 
ATOM      8  H   UNL A   1      31.834  22.460  25.217  1.00  0.00     0.349 HD
BRANCH   7   9
ATOM      9  C   UNL A   1      33.783  21.901  25.318  1.00  0.00     0.364 C 
BRANCH   9  10
ATOM     10  C   UNL A   1      34.343  22.128  26.719  1.00  0.00     0.275 C 
ATOM     11  N   UNL A   1      35.538  22.779  26.847  1.00  0.00    -0.340 N 
ATOM     12  H   UNL A   1      35.831  23.001  27.760  1.00  0.00     0.164 HD
ATOM     13  O   UNL A   1      33.749  21.742  27.727  1.00  0.00    -0.268 OA
BRANCH  11  14
ATOM     14  C   UNL A   1      36.405  23.168  25.773  1.00  0.00     0.206 C 
BRANCH  14  15
ATOM     15  C   UNL A   1      37.661  23.895  26.226  1.00  0.00    -0.085 C 
ATOM     16  C   UNL A   1      38.739  24.518  26.614  1.00  0.00     0.006 C 
ENDBRANCH  14  15
ENDBRANCH  11  14
ENDBRANCH   9  10
ENDBRANCH   7   9
BRANCH   7  17
ATOM     17  C   UNL A   1      32.373  23.046  23.528  1.00  0.00     0.090 C 
ATOM     18  C   UNL A   1      32.222  21.690  22.857  1.00  0.00     0.078 C 
ATOM     19  C   UNL A   1      31.021  23.751  23.251  1.00  0.00     0.078 C 
ATOM     20  C   UNL A   1      33.412  23.916  22.782  1.00  0.00     0.078 C 
ENDBRANCH   7  17
ENDBRANCH   6   7
ENDBRANCH   4   6
ENDBRANCH   3   4
ENDBRANCH   2   3
ENDBRANCH   1   2
BRANCH   1  21
ATOM     21  O   UNL A   1      32.514  29.046  25.085  1.00  0.00    -0.374 OA
BRANCH  21  22
ATOM     22  C   UNL A   1      31.286  29.768  25.176  1.00  0.00     0.202 C 
BRANCH  22  23
ATOM     23  C   UNL A   1      31.358  31.011  26.084  1.00  0.00     0.261 C 
BRANCH  23  24
ATOM     24  O   UNL A   1      32.444  30.898  27.025  1.00  0.00    -0.460 OA
BRANCH  24  25
ATOM     25  C   UNL A   1      33.166  32.015  27.238  1.00  0.00     0.338 C 
ATOM     26  O   UNL A   1      32.744  33.165  27.244  1.00  0.00    -0.246 OA
BRANCH  25  27
ATOM     27  C   UNL A   1      34.523  31.651  27.694  1.00  0.00     0.060 A 
ATOM     28  C   UNL A   1      34.797  30.284  27.806  1.00  0.00     0.016 A 
ATOM     29  C   UNL A   1      35.476  32.594  28.092  1.00  0.00     0.016 A 
ATOM     30  C   UNL A   1      35.982  29.855  28.403  1.00  0.00     0.010 A 
ATOM     31  C   UNL A   1      36.673  32.156  28.689  1.00  0.00     0.010 A 
ATOM     32  C   UNL A   1      36.907  30.784  28.901  1.00  0.00    -0.014 A 
BRANCH  32  33
ATOM     33  C   UNL A   1      38.009  30.283  29.770  1.00  0.00     0.031 A 
ATOM     34  C   UNL A   1      39.027  29.324  29.203  1.00  0.00     0.074 A 
ATOM     35  C   UNL A   1      38.180  30.755  31.021  1.00  0.00     0.049 A 
ATOM     36  N   UNL A   1      40.147  28.898  29.731  1.00  0.00    -0.248 NA
ATOM     37  C   UNL A   1      38.754  28.781  27.862  1.00  0.00     0.031 C 
ATOM     38  C   UNL A   1      37.283  31.684  31.703  1.00  0.00     0.029 A 
ATOM     39  N   UNL A   1      39.179  30.518  31.936  1.00  0.00    -0.354 N 
ATOM     40  C   UNL A   1      40.708  28.036  28.795  1.00  0.00     0.074 A 
ATOM     41  C   UNL A   1      39.793  27.978  27.676  1.00  0.00     0.031 C 
ATOM     42  C   UNL A   1      37.767  31.935  32.932  1.00  0.00     0.029 A 
ATOM     43  C   UNL A   1      39.005  31.179  33.129  1.00  0.00     0.049 A 
ATOM     44  H   UNL A   1      39.947  29.929  31.755  1.00  0.00     0.167 HD
ATOM     45  C   UNL A   1      41.888  27.370  28.844  1.00  0.00     0.034 A 
ATOM     46  C   UNL A   1      39.752  31.180  34.253  1.00  0.00     0.034 A 
ATOM     47  C   UNL A   1      42.819  27.434  29.939  1.00  0.00     0.049 A 
ATOM     48  C   UNL A   1      41.048  30.409  34.291  1.00  0.00     0.074 A 
ATOM     49  C   UNL A   1      44.063  26.836  30.044  1.00  0.00     0.029 A 
ATOM     50  N   UNL A   1      42.607  28.121  31.123  1.00  0.00    -0.354 N 
ATOM     51  N   UNL A   1      41.633  29.726  33.338  1.00  0.00    -0.248 NA
ATOM     52  C   UNL A   1      41.807  30.442  35.553  1.00  0.00     0.031 C 
ATOM     53  C   UNL A   1      44.592  27.137  31.303  1.00  0.00     0.029 A 
ATOM     54  C   UNL A   1      43.687  27.944  31.973  1.00  0.00     0.049 A 
ATOM     55  H   UNL A   1      41.807  28.655  31.331  1.00  0.00     0.167 HD
ATOM     56  C   UNL A   1      42.838  29.276  33.873  1.00  0.00     0.074 A 
ATOM     57  C   UNL A   1      42.913  29.786  35.225  1.00  0.00     0.031 C 
ATOM     58  C   UNL A   1      43.787  28.496  33.298  1.00  0.00     0.034 A 
BRANCH  45  59
ATOM     59  C   UNL A   1      42.270  26.538  27.649  1.00  0.00     0.023 A 
ATOM     60  C   UNL A   1      42.865  27.159  26.533  1.00  0.00     0.012 A 
ATOM     61  C   UNL A   1      42.118  25.138  27.662  1.00  0.00     0.148 A 
ATOM     62  C   UNL A   1      43.279  26.404  25.436  1.00  0.00     0.002 A 
ATOM     63  C   UNL A   1      42.569  24.387  26.583  1.00  0.00     0.091 A 
ATOM     64  F   UNL A   1      41.533  24.568  28.725  1.00  0.00    -0.205 F 
ATOM     65  C   UNL A   1      43.142  25.019  25.467  1.00  0.00     0.022 A 
BRANCH  63  66
ATOM     66  S   UNL A   1      42.508  22.592  26.559  1.00  0.00     0.127 S 
ATOM     67  O   UNL A   1      43.556  22.274  25.590  1.00  0.00    -0.237 OA
ATOM     68  O   UNL A   1      42.836  22.252  27.944  1.00  0.00    -0.237 OA
ATOM     69  O   UNL A   1      41.154  22.241  26.153  1.00  0.00    -0.744 OA
ENDBRANCH  63  66
ENDBRANCH  45  59
BRANCH  46  70
ATOM     70  C   UNL A   1      39.315  31.975  35.437  1.00  0.00     0.023 A 
ATOM     71  C   UNL A   1      38.401  31.421  36.354  1.00  0.00     0.012 A 
ATOM     72  C   UNL A   1      39.804  33.276  35.657  1.00  0.00     0.148 A 
ATOM     73  C   UNL A   1      37.958  32.160  37.451  1.00  0.00     0.002 A 
ATOM     74  C   UNL A   1      39.405  33.987  36.782  1.00  0.00     0.091 A 
ATOM     75  F   UNL A   1      40.653  33.797  34.759  1.00  0.00    -0.205 F 
ATOM     76  C   UNL A   1      38.468  33.438  37.672  1.00  0.00     0.022 A 
BRANCH  74  77
ATOM     77  S   UNL A   1      40.112  35.581  37.211  1.00  0.00     0.127 S 
ATOM     78  O   UNL A   1      39.579  35.795  38.552  1.00  0.00    -0.237 OA
ATOM     79  O   UNL A   1      41.547  35.301  37.154  1.00  0.00    -0.237 OA
ATOM     80  O   UNL A   1      39.645  36.505  36.186  1.00  0.00    -0.744 OA
ENDBRANCH  74  77
ENDBRANCH  46  70
BRANCH  58  81
ATOM     81  C   UNL A   1      45.011  28.154  34.112  1.00  0.00     0.023 A 
ATOM     82  C   UNL A   1      46.122  29.020  34.099  1.00  0.00     0.012 A 
ATOM     83  C   UNL A   1      45.031  27.021  34.950  1.00  0.00     0.148 A 
ATOM     84  C   UNL A   1      47.246  28.749  34.882  1.00  0.00     0.002 A 
ATOM     85  C   UNL A   1      46.135  26.781  35.763  1.00  0.00     0.091 A 
ATOM     86  F   UNL A   1      43.973  26.198  34.940  1.00  0.00    -0.205 F 
ATOM     87  C   UNL A   1      47.246  27.637  35.721  1.00  0.00     0.022 A 
BRANCH  85  88
ATOM     88  S   UNL A   1      46.190  25.425  36.942  1.00  0.00     0.127 S 
ATOM     89  O   UNL A   1      45.144  25.810  37.887  1.00  0.00    -0.237 OA
ATOM     90  O   UNL A   1      45.862  24.271  36.106  1.00  0.00    -0.237 OA
ATOM     91  O   UNL A   1      47.545  25.416  37.478  1.00  0.00    -0.744 OA
ENDBRANCH  85  88
ENDBRANCH  58  81
ENDBRANCH  32  33
ENDBRANCH  25  27
ENDBRANCH  24  25
ENDBRANCH  23  24
ENDBRANCH  22  23
ENDBRANCH  21  22
ENDBRANCH   1  21
TORSDOF 23
ENDMDL
MODEL 3
REMARK VINA RESULT:      -9.6      1.544      2.952
REMARK SMILES C#CCNC(=O)C[N@@H+](CC(=O)OCCOCCOC(=O)c1ccc(-c2c3nc(c(-c4cccc(S(=O)(=O)[O-])c4F)c4ccc([nH]4)c(-c4cccc(S(=O)(=O)[O-])c4F)c4nc(c(-c5cccc(S(=O)(=O)[O-])c5F)c5ccc2[nH]5)C=C4)C=C3)cc1)C(C)(C)C
REMARK SMILES IDX 14 1 13 2 12 3 10 4 11 5 9 6 8 7 7 9 5 10 4 11 6 13 3 14
REMARK SMILES IDX 2 15 1 16 84 17 85 18 86 19 87 20 15 21 16 22 17 23 18 24
REMARK SMILES IDX 19 25 20 26 21 27 22 28 83 29 23 30 82 31 24 32 25 33 26 34
REMARK SMILES IDX 76 35 27 36 81 37 75 38 77 39 28 40 80 41 74 42 73 43 29 45
REMARK SMILES IDX 61 46 41 47 60 48 42 49 45 50 59 51 78 52 43 53 44 54 58 56
REMARK SMILES IDX 79 57 46 58 30 59 31 60 39 61 32 62 34 63 40 64 33 65 35 66
REMARK SMILES IDX 36 67 37 68 38 69 62 70 63 71 71 72 64 73 66 74 72 75 65 76
REMARK SMILES IDX 67 77 68 78 69 79 70 80 47 81 48 82 56 83 49 84 51 85 57 86
REMARK SMILES IDX 50 87 52 88 53 89 54 90 55 91
REMARK H PARENT 8 8 4 12 77 44 45 55
REMARK Flexibility Score: inf
ROOT
ATOM      1  C   UNL A   1      33.128  29.147  27.316  1.00  0.00     0.202 C 
ENDROOT
BRANCH   1   2
ATOM      2  C   UNL A   1      33.713  28.179  26.285  1.00  0.00     0.261 C 
BRANCH   2   3
ATOM      3  O   UNL A   1      33.227  26.831  26.470  1.00  0.00    -0.459 OA
BRANCH   3   4
ATOM      4  C   UNL A   1      32.512  26.285  25.453  1.00  0.00     0.361 C 
ATOM      5  O   UNL A   1      31.290  26.172  25.448  1.00  0.00    -0.245 OA
BRANCH   4   6
ATOM      6  C   UNL A   1      33.390  25.695  24.350  1.00  0.00     0.387 C 
BRANCH   6   7
ATOM      7  N   UNL A   1      32.879  24.532  23.576  1.00  0.00    -0.314 N 
ATOM      8  H   UNL A   1      33.657  24.236  22.988  1.00  0.00     0.349 HD
BRANCH   7   9
ATOM      9  C   UNL A   1      31.787  24.954  22.660  1.00  0.00     0.364 C 
BRANCH   9  10
ATOM     10  C   UNL A   1      32.249  26.001  21.650  1.00  0.00     0.275 C 
ATOM     11  N   UNL A   1      31.652  27.229  21.662  1.00  0.00    -0.340 N 
ATOM     12  H   UNL A   1      32.032  27.918  21.070  1.00  0.00     0.164 HD
ATOM     13  O   UNL A   1      33.140  25.765  20.832  1.00  0.00    -0.268 OA
BRANCH  11  14
ATOM     14  C   UNL A   1      30.521  27.609  22.457  1.00  0.00     0.206 C 
BRANCH  14  15
ATOM     15  C   UNL A   1      30.056  29.037  22.228  1.00  0.00    -0.085 C 
ATOM     16  C   UNL A   1      29.656  30.263  22.031  1.00  0.00     0.006 C 
ENDBRANCH  14  15
ENDBRANCH  11  14
ENDBRANCH   9  10
ENDBRANCH   7   9
BRANCH   7  17
ATOM     17  C   UNL A   1      32.746  23.216  24.259  1.00  0.00     0.090 C 
ATOM     18  C   UNL A   1      33.614  23.168  25.507  1.00  0.00     0.078 C 
ATOM     19  C   UNL A   1      31.327  22.877  24.780  1.00  0.00     0.078 C 
ATOM     20  C   UNL A   1      33.087  22.044  23.307  1.00  0.00     0.078 C 
ENDBRANCH   7  17
ENDBRANCH   6   7
ENDBRANCH   4   6
ENDBRANCH   3   4
ENDBRANCH   2   3
ENDBRANCH   1   2
BRANCH   1  21
ATOM     21  O   UNL A   1      31.805  29.608  27.026  1.00  0.00    -0.374 OA
BRANCH  21  22
ATOM     22  C   UNL A   1      31.682  30.955  26.570  1.00  0.00     0.202 C 
BRANCH  22  23
ATOM     23  C   UNL A   1      32.906  31.836  26.890  1.00  0.00     0.261 C 
BRANCH  23  24
ATOM     24  O   UNL A   1      32.497  33.168  27.261  1.00  0.00    -0.460 OA
BRANCH  24  25
ATOM     25  C   UNL A   1      33.246  33.782  28.197  1.00  0.00     0.338 C 
ATOM     26  O   UNL A   1      32.888  34.690  28.937  1.00  0.00    -0.246 OA
BRANCH  25  27
ATOM     27  C   UNL A   1      34.517  33.051  28.375  1.00  0.00     0.060 A 
ATOM     28  C   UNL A   1      34.466  31.892  29.157  1.00  0.00     0.016 A 
ATOM     29  C   UNL A   1      35.742  33.512  27.882  1.00  0.00     0.016 A 
ATOM     30  C   UNL A   1      35.644  31.246  29.529  1.00  0.00     0.010 A 
ATOM     31  C   UNL A   1      36.928  32.854  28.256  1.00  0.00     0.010 A 
ATOM     32  C   UNL A   1      36.890  31.751  29.130  1.00  0.00    -0.014 A 
BRANCH  32  33
ATOM     33  C   UNL A   1      38.114  31.197  29.777  1.00  0.00     0.031 A 
ATOM     34  C   UNL A   1      38.456  31.599  31.190  1.00  0.00     0.074 A 
ATOM     35  C   UNL A   1      38.862  30.259  29.164  1.00  0.00     0.049 A 
ATOM     36  N   UNL A   1      39.373  31.114  31.990  1.00  0.00    -0.248 NA
ATOM     37  C   UNL A   1      37.655  32.681  31.786  1.00  0.00     0.031 C 
ATOM     38  C   UNL A   1      38.655  29.770  27.803  1.00  0.00     0.029 A 
ATOM     39  N   UNL A   1      39.945  29.544  29.617  1.00  0.00    -0.354 N 
ATOM     40  C   UNL A   1      39.265  31.832  33.176  1.00  0.00     0.074 A 
ATOM     41  C   UNL A   1      38.211  32.803  32.984  1.00  0.00     0.031 C 
ATOM     42  C   UNL A   1      39.585  28.839  27.528  1.00  0.00     0.029 A 
ATOM     43  C   UNL A   1      40.460  28.669  28.688  1.00  0.00     0.049 A 
ATOM     44  H   UNL A   1      40.320  29.648  30.522  1.00  0.00     0.167 HD
ATOM     45  C   UNL A   1      39.958  31.684  34.331  1.00  0.00     0.034 A 
ATOM     46  C   UNL A   1      41.511  27.827  28.760  1.00  0.00     0.034 A 
ATOM     47  C   UNL A   1      40.993  30.708  34.546  1.00  0.00     0.049 A 
ATOM     48  C   UNL A   1      42.284  27.700  30.050  1.00  0.00     0.074 A 
ATOM     49  C   UNL A   1      41.707  30.454  35.705  1.00  0.00     0.029 A 
ATOM     50  N   UNL A   1      41.477  29.838  33.583  1.00  0.00    -0.354 N 
ATOM     51  N   UNL A   1      42.065  28.278  31.205  1.00  0.00    -0.248 NA
ATOM     52  C   UNL A   1      43.429  26.774  30.054  1.00  0.00     0.031 C 
ATOM     53  C   UNL A   1      42.642  29.449  35.435  1.00  0.00     0.029 A 
ATOM     54  C   UNL A   1      42.493  29.061  34.114  1.00  0.00     0.049 A 
ATOM     55  H   UNL A   1      41.149  29.782  32.657  1.00  0.00     0.167 HD
ATOM     56  C   UNL A   1      43.020  27.763  32.079  1.00  0.00     0.074 A 
ATOM     57  C   UNL A   1      43.804  26.807  31.326  1.00  0.00     0.031 C 
ATOM     58  C   UNL A   1      43.237  28.070  33.382  1.00  0.00     0.034 A 
BRANCH  45  59
ATOM     59  C   UNL A   1      39.589  32.577  35.487  1.00  0.00     0.023 A 
ATOM     60  C   UNL A   1      38.686  32.110  36.462  1.00  0.00     0.012 A 
ATOM     61  C   UNL A   1      40.195  33.837  35.651  1.00  0.00     0.148 A 
ATOM     62  C   UNL A   1      38.370  32.894  37.571  1.00  0.00     0.002 A 
ATOM     63  C   UNL A   1      39.906  34.597  36.779  1.00  0.00     0.091 A 
ATOM     64  F   UNL A   1      41.038  34.271  34.702  1.00  0.00    -0.205 F 
ATOM     65  C   UNL A   1      38.988  34.132  37.734  1.00  0.00     0.022 A 
BRANCH  63  66
ATOM     66  S   UNL A   1      40.709  36.168  37.119  1.00  0.00     0.127 S 
ATOM     67  O   UNL A   1      40.291  36.968  35.969  1.00  0.00    -0.237 OA
ATOM     68  O   UNL A   1      40.096  36.560  38.388  1.00  0.00    -0.237 OA
ATOM     69  O   UNL A   1      42.135  35.882  37.197  1.00  0.00    -0.744 OA
ENDBRANCH  63  66
ENDBRANCH  45  59
BRANCH  46  70
ATOM     70  C   UNL A   1      41.881  26.996  27.578  1.00  0.00     0.023 A 
ATOM     71  C   UNL A   1      42.534  27.590  26.480  1.00  0.00     0.012 A 
ATOM     72  C   UNL A   1      41.589  25.619  27.539  1.00  0.00     0.148 A 
ATOM     73  C   UNL A   1      42.861  26.834  25.354  1.00  0.00     0.002 A 
ATOM     74  C   UNL A   1      41.969  24.859  26.440  1.00  0.00     0.091 A 
ATOM     75  F   UNL A   1      40.943  25.077  28.582  1.00  0.00    -0.205 F 
ATOM     76  C   UNL A   1      42.589  25.468  25.338  1.00  0.00     0.022 A 
BRANCH  74  77
ATOM     77  S   UNL A   1      41.775  23.074  26.395  1.00  0.00     0.127 S 
ATOM     78  O   UNL A   1      42.389  22.738  25.114  1.00  0.00    -0.237 OA
ATOM     79  O   UNL A   1      42.538  22.658  27.573  1.00  0.00    -0.237 OA
ATOM     80  O   UNL A   1      40.343  22.833  26.497  1.00  0.00    -0.744 OA
ENDBRANCH  74  77
ENDBRANCH  46  70
BRANCH  58  81
ATOM     81  C   UNL A   1      44.354  27.354  34.102  1.00  0.00     0.023 A 
ATOM     82  C   UNL A   1      45.653  27.898  34.089  1.00  0.00     0.012 A 
ATOM     83  C   UNL A   1      44.102  26.191  34.856  1.00  0.00     0.148 A 
ATOM     84  C   UNL A   1      46.691  27.279  34.789  1.00  0.00     0.002 A 
ATOM     85  C   UNL A   1      45.130  25.604  35.588  1.00  0.00     0.091 A 
ATOM     86  F   UNL A   1      42.863  25.676  34.845  1.00  0.00    -0.205 F 
ATOM     87  C   UNL A   1      46.426  26.141  35.546  1.00  0.00     0.022 A 
BRANCH  85  88
ATOM     88  S   UNL A   1      44.865  24.189  36.664  1.00  0.00     0.127 S 
ATOM     89  O   UNL A   1      46.232  23.859  37.064  1.00  0.00    -0.237 OA
ATOM     90  O   UNL A   1      44.039  24.758  37.729  1.00  0.00    -0.237 OA
ATOM     91  O   UNL A   1      44.192  23.186  35.849  1.00  0.00    -0.744 OA
ENDBRANCH  85  88
ENDBRANCH  58  81
ENDBRANCH  32  33
ENDBRANCH  25  27
ENDBRANCH  24  25
ENDBRANCH  23  24
ENDBRANCH  22  23
ENDBRANCH  21  22
ENDBRANCH   1  21
TORSDOF 23
ENDMDL
