MODEL 1
REMARK VINA RESULT:     -11.7      0.000      0.000
REMARK SMILES Cc1ccc2c(c1C)O[C@@H](C(=O)OCCOCCOC(=O)c1ccc(-c3c4nc(c(-c5cccc(S(=O)(=O)[O-])c5F)c5ccc([nH]5)c(-c5cccc(S(=O)(=O)[O-])c5F)c5nc(c(-c6cccc(S(=O)(=O)[O-])c6F)c6ccc3[nH]6)C=C5)C=C4)cc1)CC2=O
REMARK SMILES IDX 17 1 16 2 15 3 14 4 13 5 11 6 12 7 10 8 1 9 2 10 3 11 7 12
REMARK SMILES IDX 4 13 6 14 8 15 5 16 9 17 86 18 85 19 87 20 18 21 19 22 20 23
REMARK SMILES IDX 21 24 22 25 23 26 84 27 24 28 83 29 25 30 26 31 27 32 77 33
REMARK SMILES IDX 28 34 82 35 76 36 78 37 29 38 81 39 75 40 74 41 30 43 62 44
REMARK SMILES IDX 42 45 61 46 43 47 46 48 60 49 79 50 44 51 45 52 59 54 80 55
REMARK SMILES IDX 47 56 31 57 32 58 40 59 33 60 35 61 41 62 34 63 36 64 37 65
REMARK SMILES IDX 38 66 39 67 63 68 64 69 72 70 65 71 67 72 73 73 66 74 68 75
REMARK SMILES IDX 69 76 70 77 71 78 48 79 49 80 57 81 50 82 52 83 58 84 51 85
REMARK SMILES IDX 53 86 54 87 55 88 56 89
REMARK H PARENT 78 42 46 53
REMARK Flexibility Score: inf
ROOT
ATOM      1  C   UNL A   1      35.348  20.739  25.303  1.00  0.00     0.202 C 
ENDROOT
BRANCH   1   2
ATOM      2  O   UNL A   1      35.193  21.663  26.379  1.00  0.00    -0.374 OA
BRANCH   2   3
ATOM      3  C   UNL A   1      34.023  21.530  27.186  1.00  0.00     0.202 C 
BRANCH   3   4
ATOM      4  C   UNL A   1      32.692  21.850  26.502  1.00  0.00     0.261 C 
BRANCH   4   5
ATOM      5  O   UNL A   1      32.793  23.002  25.644  1.00  0.00    -0.460 OA
BRANCH   5   6
ATOM      6  C   UNL A   1      32.685  24.215  26.248  1.00  0.00     0.347 C 
ATOM      7  O   UNL A   1      31.779  24.544  27.006  1.00  0.00    -0.248 OA
BRANCH   6   8
ATOM      8  C   UNL A   1      33.821  25.170  25.853  1.00  0.00     0.290 C 
ATOM      9  C   UNL A   1      30.079  29.483  23.745  1.00  0.00     0.045 C 
ATOM     10  C   UNL A   1      31.088  28.367  23.689  1.00  0.00    -0.044 A 
ATOM     11  C   UNL A   1      31.337  27.753  22.448  1.00  0.00     0.005 A 
ATOM     12  C   UNL A   1      31.802  27.945  24.830  1.00  0.00    -0.005 A 
ATOM     13  C   UNL A   1      32.260  26.714  22.332  1.00  0.00     0.016 A 
ATOM     14  C   UNL A   1      32.725  26.892  24.702  1.00  0.00     0.134 A 
ATOM     15  C   UNL A   1      31.569  28.542  26.194  1.00  0.00     0.049 C 
ATOM     16  C   UNL A   1      32.949  26.286  23.463  1.00  0.00     0.060 A 
ATOM     17  O   UNL A   1      33.404  26.527  25.838  1.00  0.00    -0.477 OA
ATOM     18  C   UNL A   1      33.938  25.195  23.364  1.00  0.00     0.170 C 
ATOM     19  C   UNL A   1      34.635  24.793  24.630  1.00  0.00     0.138 C 
ATOM     20  O   UNL A   1      34.221  24.678  22.288  1.00  0.00    -0.294 OA
ENDBRANCH   6   8
ENDBRANCH   5   6
ENDBRANCH   4   5
ENDBRANCH   3   4
ENDBRANCH   2   3
ENDBRANCH   1   2
BRANCH   1  21
ATOM     21  C   UNL A   1      36.777  20.275  24.992  1.00  0.00     0.261 C 
BRANCH  21  22
ATOM     22  O   UNL A   1      37.729  21.349  25.081  1.00  0.00    -0.460 OA
BRANCH  22  23
ATOM     23  C   UNL A   1      38.837  21.073  25.806  1.00  0.00     0.338 C 
ATOM     24  O   UNL A   1      39.488  20.034  25.789  1.00  0.00    -0.246 OA
BRANCH  23  25
ATOM     25  C   UNL A   1      39.304  22.274  26.515  1.00  0.00     0.060 A 
ATOM     26  C   UNL A   1      38.744  23.504  26.143  1.00  0.00     0.016 A 
ATOM     27  C   UNL A   1      40.360  22.218  27.426  1.00  0.00     0.016 A 
ATOM     28  C   UNL A   1      39.276  24.691  26.640  1.00  0.00     0.010 A 
ATOM     29  C   UNL A   1      40.910  23.412  27.903  1.00  0.00     0.010 A 
ATOM     30  C   UNL A   1      40.398  24.651  27.478  1.00  0.00    -0.014 A 
BRANCH  30  31
ATOM     31  C   UNL A   1      41.140  25.903  27.752  1.00  0.00     0.031 A 
ATOM     32  C   UNL A   1      40.448  26.999  28.517  1.00  0.00     0.074 A 
ATOM     33  C   UNL A   1      42.413  26.057  27.351  1.00  0.00     0.049 A 
ATOM     34  N   UNL A   1      40.894  28.181  28.851  1.00  0.00    -0.248 NA
ATOM     35  C   UNL A   1      39.075  26.723  28.978  1.00  0.00     0.031 C 
ATOM     36  C   UNL A   1      43.203  25.054  26.638  1.00  0.00     0.029 A 
ATOM     37  N   UNL A   1      43.262  27.128  27.479  1.00  0.00    -0.354 N 
ATOM     38  C   UNL A   1      39.858  28.794  29.544  1.00  0.00     0.074 A 
ATOM     39  C   UNL A   1      38.758  27.857  29.586  1.00  0.00     0.031 C 
ATOM     40  C   UNL A   1      44.418  25.567  26.373  1.00  0.00     0.029 A 
ATOM     41  C   UNL A   1      44.481  26.939  26.877  1.00  0.00     0.049 A 
ATOM     42  H   UNL A   1      43.019  27.954  27.959  1.00  0.00     0.167 HD
ATOM     43  C   UNL A   1      39.830  30.022  30.110  1.00  0.00     0.034 A 
ATOM     44  C   UNL A   1      45.524  27.783  26.736  1.00  0.00     0.034 A 
ATOM     45  C   UNL A   1      40.925  30.951  30.086  1.00  0.00     0.049 A 
ATOM     46  C   UNL A   1      45.441  29.170  27.317  1.00  0.00     0.074 A 
ATOM     47  C   UNL A   1      40.991  32.211  30.651  1.00  0.00     0.029 A 
ATOM     48  N   UNL A   1      42.138  30.725  29.456  1.00  0.00    -0.354 N 
ATOM     49  N   UNL A   1      44.485  29.706  28.035  1.00  0.00    -0.248 NA
ATOM     50  C   UNL A   1      46.587  30.063  27.082  1.00  0.00     0.031 C 
ATOM     51  C   UNL A   1      42.245  32.754  30.356  1.00  0.00     0.029 A 
ATOM     52  C   UNL A   1      42.959  31.827  29.612  1.00  0.00     0.049 A 
ATOM     53  H   UNL A   1      42.379  29.903  28.972  1.00  0.00     0.167 HD
ATOM     54  C   UNL A   1      44.920  30.987  28.355  1.00  0.00     0.074 A 
ATOM     55  C   UNL A   1      46.233  31.145  27.766  1.00  0.00     0.031 C 
ATOM     56  C   UNL A   1      44.282  31.952  29.062  1.00  0.00     0.034 A 
BRANCH  43  57
ATOM     57  C   UNL A   1      38.590  30.429  30.852  1.00  0.00     0.023 A 
ATOM     58  C   UNL A   1      38.508  30.179  32.236  1.00  0.00     0.012 A 
ATOM     59  C   UNL A   1      37.563  31.146  30.209  1.00  0.00     0.148 A 
ATOM     60  C   UNL A   1      37.417  30.637  32.972  1.00  0.00     0.002 A 
ATOM     61  C   UNL A   1      36.491  31.622  30.955  1.00  0.00     0.091 A 
ATOM     62  F   UNL A   1      37.663  31.357  28.889  1.00  0.00    -0.205 F 
ATOM     63  C   UNL A   1      36.416  31.366  32.334  1.00  0.00     0.022 A 
BRANCH  61  64
ATOM     64  S   UNL A   1      35.173  32.612  30.244  1.00  0.00     0.127 S 
ATOM     65  O   UNL A   1      34.261  32.748  31.380  1.00  0.00    -0.237 OA
ATOM     66  O   UNL A   1      35.878  33.839  29.878  1.00  0.00    -0.237 OA
ATOM     67  O   UNL A   1      34.648  31.845  29.123  1.00  0.00    -0.744 OA
ENDBRANCH  61  64
ENDBRANCH  43  57
BRANCH  44  68
ATOM     68  C   UNL A   1      46.753  27.325  26.034  1.00  0.00     0.023 A 
ATOM     69  C   UNL A   1      46.902  27.592  24.660  1.00  0.00     0.012 A 
ATOM     70  C   UNL A   1      47.785  26.661  26.725  1.00  0.00     0.148 A 
ATOM     71  C   UNL A   1      48.055  27.195  23.982  1.00  0.00     0.002 A 
ATOM     72  C   UNL A   1      48.948  26.306  26.054  1.00  0.00     0.091 A 
ATOM     73  F   UNL A   1      47.613  26.410  28.031  1.00  0.00    -0.205 F 
ATOM     74  C   UNL A   1      49.080  26.560  24.680  1.00  0.00     0.022 A 
BRANCH  72  75
ATOM     75  S   UNL A   1      50.367  25.586  26.886  1.00  0.00     0.127 S 
ATOM     76  O   UNL A   1      51.295  25.383  25.776  1.00  0.00    -0.237 OA
ATOM     77  O   UNL A   1      50.739  26.653  27.816  1.00  0.00    -0.237 OA
ATOM     78  O   UNL A   1      49.879  24.372  27.525  1.00  0.00    -0.744 OA
ENDBRANCH  72  75
ENDBRANCH  44  68
BRANCH  56  79
ATOM     79  C   UNL A   1      44.976  33.271  29.254  1.00  0.00     0.023 A 
ATOM     80  C   UNL A   1      45.835  33.441  30.357  1.00  0.00     0.012 A 
ATOM     81  C   UNL A   1      44.886  34.283  28.278  1.00  0.00     0.148 A 
ATOM     82  C   UNL A   1      46.591  34.604  30.490  1.00  0.00     0.002 A 
ATOM     83  C   UNL A   1      45.668  35.425  28.400  1.00  0.00     0.091 A 
ATOM     84  F   UNL A   1      44.056  34.098  27.242  1.00  0.00    -0.205 F 
ATOM     85  C   UNL A   1      46.518  35.589  29.507  1.00  0.00     0.022 A 
BRANCH  83  86
ATOM     86  S   UNL A   1      45.702  36.715  27.150  1.00  0.00     0.127 S 
ATOM     87  O   UNL A   1      46.631  37.678  27.741  1.00  0.00    -0.237 OA
ATOM     88  O   UNL A   1      46.223  36.002  25.984  1.00  0.00    -0.237 OA
ATOM     89  O   UNL A   1      44.328  37.183  27.013  1.00  0.00    -0.744 OA
ENDBRANCH  83  86
ENDBRANCH  56  79
ENDBRANCH  30  31
ENDBRANCH  23  25
ENDBRANCH  22  23
ENDBRANCH  21  22
ENDBRANCH   1  21
TORSDOF 17
ENDMDL
MODEL 2
REMARK VINA RESULT:     -11.5      1.548      2.235
REMARK SMILES Cc1ccc2c(c1C)O[C@@H](C(=O)OCCOCCOC(=O)c1ccc(-c3c4nc(c(-c5cccc(S(=O)(=O)[O-])c5F)c5ccc([nH]5)c(-c5cccc(S(=O)(=O)[O-])c5F)c5nc(c(-c6cccc(S(=O)(=O)[O-])c6F)c6ccc3[nH]6)C=C5)C=C4)cc1)CC2=O
REMARK SMILES IDX 17 1 16 2 15 3 14 4 13 5 11 6 12 7 10 8 1 9 2 10 3 11 7 12
REMARK SMILES IDX 4 13 6 14 8 15 5 16 9 17 86 18 85 19 87 20 18 21 19 22 20 23
REMARK SMILES IDX 21 24 22 25 23 26 84 27 24 28 83 29 25 30 26 31 27 32 77 33
REMARK SMILES IDX 28 34 82 35 76 36 78 37 29 38 81 39 75 40 74 41 30 43 62 44
REMARK SMILES IDX 42 45 61 46 43 47 46 48 60 49 79 50 44 51 45 52 59 54 80 55
REMARK SMILES IDX 47 56 31 57 32 58 40 59 33 60 35 61 41 62 34 63 36 64 37 65
REMARK SMILES IDX 38 66 39 67 63 68 64 69 72 70 65 71 67 72 73 73 66 74 68 75
REMARK SMILES IDX 69 76 70 77 71 78 48 79 49 80 57 81 50 82 52 83 58 84 51 85
REMARK SMILES IDX 53 86 54 87 55 88 56 89
REMARK H PARENT 78 42 46 53
REMARK Flexibility Score: inf
ROOT
ATOM      1  C   UNL A   1      35.964  20.281  24.991  1.00  0.00     0.202 C 
ENDROOT
BRANCH   1   2
ATOM      2  O   UNL A   1      35.631  21.625  24.644  1.00  0.00    -0.374 OA
BRANCH   2   3
ATOM      3  C   UNL A   1      34.259  21.904  24.371  1.00  0.00     0.202 C 
BRANCH   3   4
ATOM      4  C   UNL A   1      33.986  23.040  23.383  1.00  0.00     0.261 C 
BRANCH   4   5
ATOM      5  O   UNL A   1      33.350  24.165  24.019  1.00  0.00    -0.460 OA
BRANCH   5   6
ATOM      6  C   UNL A   1      32.671  25.013  23.203  1.00  0.00     0.347 C 
ATOM      7  O   UNL A   1      33.169  25.649  22.280  1.00  0.00    -0.248 OA
BRANCH   6   8
ATOM      8  C   UNL A   1      31.187  25.127  23.579  1.00  0.00     0.290 C 
ATOM      9  C   UNL A   1      31.731  30.727  25.903  1.00  0.00     0.045 C 
ATOM     10  C   UNL A   1      31.548  29.232  25.901  1.00  0.00    -0.044 A 
ATOM     11  C   UNL A   1      31.679  28.542  27.120  1.00  0.00     0.005 A 
ATOM     12  C   UNL A   1      31.224  28.519  24.728  1.00  0.00    -0.005 A 
ATOM     13  C   UNL A   1      31.520  27.158  27.183  1.00  0.00     0.016 A 
ATOM     14  C   UNL A   1      31.074  27.122  24.803  1.00  0.00     0.134 A 
ATOM     15  C   UNL A   1      31.092  29.190  23.385  1.00  0.00     0.049 C 
ATOM     16  C   UNL A   1      31.220  26.453  26.020  1.00  0.00     0.060 A 
ATOM     17  O   UNL A   1      30.746  26.476  23.637  1.00  0.00    -0.477 OA
ATOM     18  C   UNL A   1      31.038  24.990  26.063  1.00  0.00     0.170 C 
ATOM     19  C   UNL A   1      30.719  24.307  24.766  1.00  0.00     0.138 C 
ATOM     20  O   UNL A   1      31.088  24.365  27.119  1.00  0.00    -0.294 OA
ENDBRANCH   6   8
ENDBRANCH   5   6
ENDBRANCH   4   5
ENDBRANCH   3   4
ENDBRANCH   2   3
ENDBRANCH   1   2
BRANCH   1  21
ATOM     21  C   UNL A   1      37.454  19.915  24.983  1.00  0.00     0.261 C 
BRANCH  21  22
ATOM     22  O   UNL A   1      38.297  21.061  25.190  1.00  0.00    -0.460 OA
BRANCH  22  23
ATOM     23  C   UNL A   1      39.360  20.850  25.999  1.00  0.00     0.338 C 
ATOM     24  O   UNL A   1      40.039  19.832  26.074  1.00  0.00    -0.246 OA
BRANCH  23  25
ATOM     25  C   UNL A   1      39.744  22.096  26.681  1.00  0.00     0.060 A 
ATOM     26  C   UNL A   1      39.163  23.288  26.230  1.00  0.00     0.016 A 
ATOM     27  C   UNL A   1      40.750  22.115  27.649  1.00  0.00     0.016 A 
ATOM     28  C   UNL A   1      39.625  24.513  26.706  1.00  0.00     0.010 A 
ATOM     29  C   UNL A   1      41.231  23.347  28.106  1.00  0.00     0.010 A 
ATOM     30  C   UNL A   1      40.700  24.548  27.603  1.00  0.00    -0.014 A 
BRANCH  30  31
ATOM     31  C   UNL A   1      41.381  25.837  27.864  1.00  0.00     0.031 A 
ATOM     32  C   UNL A   1      40.630  26.913  28.600  1.00  0.00     0.074 A 
ATOM     33  C   UNL A   1      42.652  26.041  27.478  1.00  0.00     0.049 A 
ATOM     34  N   UNL A   1      41.018  28.120  28.919  1.00  0.00    -0.248 NA
ATOM     35  C   UNL A   1      39.264  26.584  29.047  1.00  0.00     0.031 C 
ATOM     36  C   UNL A   1      43.495  25.062  26.794  1.00  0.00     0.029 A 
ATOM     37  N   UNL A   1      43.449  27.151  27.599  1.00  0.00    -0.354 N 
ATOM     38  C   UNL A   1      39.945  28.697  29.587  1.00  0.00     0.074 A 
ATOM     39  C   UNL A   1      38.888  27.713  29.631  1.00  0.00     0.031 C 
ATOM     40  C   UNL A   1      44.690  25.625  26.537  1.00  0.00     0.029 A 
ATOM     41  C   UNL A   1      44.685  27.007  27.017  1.00  0.00     0.049 A 
ATOM     42  H   UNL A   1      43.163  27.973  28.059  1.00  0.00     0.167 HD
ATOM     43  C   UNL A   1      39.855  29.933  30.130  1.00  0.00     0.034 A 
ATOM     44  C   UNL A   1      45.690  27.894  26.874  1.00  0.00     0.034 A 
ATOM     45  C   UNL A   1      40.907  30.910  30.103  1.00  0.00     0.049 A 
ATOM     46  C   UNL A   1      45.538  29.285  27.429  1.00  0.00     0.074 A 
ATOM     47  C   UNL A   1      40.908  32.181  30.647  1.00  0.00     0.029 A 
ATOM     48  N   UNL A   1      42.137  30.727  29.495  1.00  0.00    -0.354 N 
ATOM     49  N   UNL A   1      44.548  29.790  28.124  1.00  0.00    -0.248 NA
ATOM     50  C   UNL A   1      46.645  30.225  27.193  1.00  0.00     0.031 C 
ATOM     51  C   UNL A   1      42.141  32.775  30.359  1.00  0.00     0.029 A 
ATOM     52  C   UNL A   1      42.905  31.868  29.642  1.00  0.00     0.049 A 
ATOM     53  H   UNL A   1      42.422  29.909  29.029  1.00  0.00     0.167 HD
ATOM     54  C   UNL A   1      44.921  31.096  28.427  1.00  0.00     0.074 A 
ATOM     55  C   UNL A   1      46.234  31.302  27.853  1.00  0.00     0.031 C 
ATOM     56  C   UNL A   1      44.230  32.043  29.108  1.00  0.00     0.034 A 
BRANCH  43  57
ATOM     57  C   UNL A   1      38.586  30.297  30.847  1.00  0.00     0.023 A 
ATOM     58  C   UNL A   1      38.438  29.934  32.200  1.00  0.00     0.012 A 
ATOM     59  C   UNL A   1      37.598  31.081  30.222  1.00  0.00     0.148 A 
ATOM     60  C   UNL A   1      37.321  30.346  32.923  1.00  0.00     0.002 A 
ATOM     61  C   UNL A   1      36.499  31.509  30.956  1.00  0.00     0.091 A 
ATOM     62  F   UNL A   1      37.761  31.398  28.930  1.00  0.00    -0.205 F 
ATOM     63  C   UNL A   1      36.358  31.141  32.305  1.00  0.00     0.022 A 
BRANCH  61  64
ATOM     64  S   UNL A   1      35.227  32.576  30.272  1.00  0.00     0.127 S 
ATOM     65  O   UNL A   1      34.665  31.727  29.221  1.00  0.00    -0.237 OA
ATOM     66  O   UNL A   1      34.350  32.781  31.424  1.00  0.00    -0.237 OA
ATOM     67  O   UNL A   1      35.910  33.770  29.797  1.00  0.00    -0.744 OA
ENDBRANCH  61  64
ENDBRANCH  43  57
BRANCH  44  68
ATOM     68  C   UNL A   1      46.948  27.479  26.198  1.00  0.00     0.023 A 
ATOM     69  C   UNL A   1      47.919  26.767  26.926  1.00  0.00     0.012 A 
ATOM     70  C   UNL A   1      47.171  27.753  24.834  1.00  0.00     0.148 A 
ATOM     71  C   UNL A   1      49.097  26.343  26.311  1.00  0.00     0.002 A 
ATOM     72  C   UNL A   1      48.327  27.292  24.217  1.00  0.00     0.091 A 
ATOM     73  F   UNL A   1      46.235  28.443  24.166  1.00  0.00    -0.205 F 
ATOM     74  C   UNL A   1      49.298  26.599  24.956  1.00  0.00     0.022 A 
BRANCH  72  75
ATOM     75  S   UNL A   1      48.624  27.474  22.455  1.00  0.00     0.127 S 
ATOM     76  O   UNL A   1      47.488  28.295  22.043  1.00  0.00    -0.237 OA
ATOM     77  O   UNL A   1      49.918  28.156  22.441  1.00  0.00    -0.237 OA
ATOM     78  O   UNL A   1      48.649  26.122  21.915  1.00  0.00    -0.744 OA
ENDBRANCH  72  75
ENDBRANCH  44  68
BRANCH  56  79
ATOM     79  C   UNL A   1      44.861  33.395  29.285  1.00  0.00     0.023 A 
ATOM     80  C   UNL A   1      45.692  33.624  30.398  1.00  0.00     0.012 A 
ATOM     81  C   UNL A   1      44.743  34.383  28.288  1.00  0.00     0.148 A 
ATOM     82  C   UNL A   1      46.394  34.822  30.521  1.00  0.00     0.002 A 
ATOM     83  C   UNL A   1      45.471  35.562  28.401  1.00  0.00     0.091 A 
ATOM     84  F   UNL A   1      43.940  34.142  27.243  1.00  0.00    -0.205 F 
ATOM     85  C   UNL A   1      46.294  35.784  29.518  1.00  0.00     0.022 A 
BRANCH  83  86
ATOM     86  S   UNL A   1      45.470  36.828  27.126  1.00  0.00     0.127 S 
ATOM     87  O   UNL A   1      46.325  37.853  27.724  1.00  0.00    -0.237 OA
ATOM     88  O   UNL A   1      46.065  36.124  25.990  1.00  0.00    -0.237 OA
ATOM     89  O   UNL A   1      44.077  37.214  26.941  1.00  0.00    -0.744 OA
ENDBRANCH  83  86
ENDBRANCH  56  79
ENDBRANCH  30  31
ENDBRANCH  23  25
ENDBRANCH  22  23
ENDBRANCH  21  22
ENDBRANCH   1  21
TORSDOF 17
ENDMDL
MODEL 3
REMARK VINA RESULT:     -11.3      0.661      7.885
REMARK SMILES Cc1ccc2c(c1C)O[C@@H](C(=O)OCCOCCOC(=O)c1ccc(-c3c4nc(c(-c5cccc(S(=O)(=O)[O-])c5F)c5ccc([nH]5)c(-c5cccc(S(=O)(=O)[O-])c5F)c5nc(c(-c6cccc(S(=O)(=O)[O-])c6F)c6ccc3[nH]6)C=C5)C=C4)cc1)CC2=O
REMARK SMILES IDX 17 1 16 2 15 3 14 4 13 5 11 6 12 7 10 8 1 9 2 10 3 11 7 12
REMARK SMILES IDX 4 13 6 14 8 15 5 16 9 17 86 18 85 19 87 20 18 21 19 22 20 23
REMARK SMILES IDX 21 24 22 25 23 26 84 27 24 28 83 29 25 30 26 31 27 32 77 33
REMARK SMILES IDX 28 34 82 35 76 36 78 37 29 38 81 39 75 40 74 41 30 43 62 44
REMARK SMILES IDX 42 45 61 46 43 47 46 48 60 49 79 50 44 51 45 52 59 54 80 55
REMARK SMILES IDX 47 56 31 57 32 58 40 59 33 60 35 61 41 62 34 63 36 64 37 65
REMARK SMILES IDX 38 66 39 67 63 68 64 69 72 70 65 71 67 72 73 73 66 74 68 75
REMARK SMILES IDX 69 76 70 77 71 78 48 79 49 80 57 81 50 82 52 83 58 84 51 85
REMARK SMILES IDX 53 86 54 87 55 88 56 89
REMARK H PARENT 78 42 46 53
REMARK Flexibility Score: inf
ROOT
ATOM      1  C   UNL A   1      35.973  20.564  25.173  1.00  0.00     0.202 C 
ENDROOT
BRANCH   1   2
ATOM      2  O   UNL A   1      34.956  19.603  24.896  1.00  0.00    -0.374 OA
BRANCH   2   3
ATOM      3  C   UNL A   1      33.616  20.084  24.797  1.00  0.00     0.202 C 
BRANCH   3   4
ATOM      4  C   UNL A   1      33.143  21.001  25.927  1.00  0.00     0.261 C 
BRANCH   4   5
ATOM      5  O   UNL A   1      32.725  22.288  25.435  1.00  0.00    -0.460 OA
BRANCH   5   6
ATOM      6  C   UNL A   1      32.651  23.288  26.353  1.00  0.00     0.347 C 
ATOM      7  O   UNL A   1      31.822  23.354  27.254  1.00  0.00    -0.248 OA
BRANCH   6   8
ATOM      8  C   UNL A   1      33.714  24.372  26.125  1.00  0.00     0.290 C 
ATOM      9  C   UNL A   1      29.974  28.036  23.021  1.00  0.00     0.045 C 
ATOM     10  C   UNL A   1      31.105  27.068  23.244  1.00  0.00    -0.044 A 
ATOM     11  C   UNL A   1      31.679  26.441  22.123  1.00  0.00     0.005 A 
ATOM     12  C   UNL A   1      31.616  26.798  24.531  1.00  0.00    -0.005 A 
ATOM     13  C   UNL A   1      32.730  25.536  22.266  1.00  0.00     0.016 A 
ATOM     14  C   UNL A   1      32.671  25.876  24.663  1.00  0.00     0.134 A 
ATOM     15  C   UNL A   1      31.034  27.414  25.777  1.00  0.00     0.049 C 
ATOM     16  C   UNL A   1      33.220  25.255  23.538  1.00  0.00     0.060 A 
ATOM     17  O   UNL A   1      33.141  25.657  25.933  1.00  0.00    -0.477 OA
ATOM     18  C   UNL A   1      34.336  24.307  23.713  1.00  0.00     0.170 C 
ATOM     19  C   UNL A   1      34.803  24.060  25.118  1.00  0.00     0.138 C 
ATOM     20  O   UNL A   1      34.898  23.788  22.753  1.00  0.00    -0.294 OA
ENDBRANCH   6   8
ENDBRANCH   5   6
ENDBRANCH   4   5
ENDBRANCH   3   4
ENDBRANCH   2   3
ENDBRANCH   1   2
BRANCH   1  21
ATOM     21  C   UNL A   1      37.425  20.104  24.993  1.00  0.00     0.261 C 
BRANCH  21  22
ATOM     22  O   UNL A   1      38.359  21.190  25.125  1.00  0.00    -0.460 OA
BRANCH  22  23
ATOM     23  C   UNL A   1      39.349  20.987  26.023  1.00  0.00     0.338 C 
ATOM     24  O   UNL A   1      40.013  19.966  26.170  1.00  0.00    -0.246 OA
BRANCH  23  25
ATOM     25  C   UNL A   1      39.684  22.241  26.715  1.00  0.00     0.060 A 
ATOM     26  C   UNL A   1      38.961  23.388  26.363  1.00  0.00     0.016 A 
ATOM     27  C   UNL A   1      40.768  22.323  27.590  1.00  0.00     0.016 A 
ATOM     28  C   UNL A   1      39.355  24.636  26.842  1.00  0.00     0.010 A 
ATOM     29  C   UNL A   1      41.179  23.580  28.048  1.00  0.00     0.010 A 
ATOM     30  C   UNL A   1      40.500  24.742  27.640  1.00  0.00    -0.014 A 
BRANCH  30  31
ATOM     31  C   UNL A   1      41.086  26.079  27.889  1.00  0.00     0.031 A 
ATOM     32  C   UNL A   1      42.486  26.353  27.409  1.00  0.00     0.074 A 
ATOM     33  C   UNL A   1      40.383  27.041  28.509  1.00  0.00     0.049 A 
ATOM     34  N   UNL A   1      43.205  27.438  27.534  1.00  0.00    -0.248 NA
ATOM     35  C   UNL A   1      43.163  25.265  26.680  1.00  0.00     0.031 C 
ATOM     36  C   UNL A   1      39.007  26.910  28.984  1.00  0.00     0.029 A 
ATOM     37  N   UNL A   1      40.740  28.321  28.853  1.00  0.00    -0.354 N 
ATOM     38  C   UNL A   1      44.418  27.160  26.917  1.00  0.00     0.074 A 
ATOM     39  C   UNL A   1      44.344  25.807  26.416  1.00  0.00     0.031 C 
ATOM     40  C   UNL A   1      38.641  28.060  29.579  1.00  0.00     0.029 A 
ATOM     41  C   UNL A   1      39.765  28.996  29.545  1.00  0.00     0.049 A 
ATOM     42  H   UNL A   1      41.612  28.717  28.626  1.00  0.00     0.167 HD
ATOM     43  C   UNL A   1      45.493  27.967  26.767  1.00  0.00     0.034 A 
ATOM     44  C   UNL A   1      39.784  30.225  30.102  1.00  0.00     0.034 A 
ATOM     45  C   UNL A   1      45.567  29.318  27.249  1.00  0.00     0.049 A 
ATOM     46  C   UNL A   1      41.018  31.078  29.979  1.00  0.00     0.074 A 
ATOM     47  C   UNL A   1      46.611  30.216  27.123  1.00  0.00     0.029 A 
ATOM     48  N   UNL A   1      44.562  29.960  27.954  1.00  0.00    -0.354 N 
ATOM     49  N   UNL A   1      42.128  30.831  29.327  1.00  0.00    -0.248 NA
ATOM     50  C   UNL A   1      40.998  32.385  30.655  1.00  0.00     0.031 C 
ATOM     51  C   UNL A   1      46.241  31.403  27.762  1.00  0.00     0.029 A 
ATOM     52  C   UNL A   1      44.965  31.243  28.278  1.00  0.00     0.049 A 
ATOM     53  H   UNL A   1      43.693  29.563  28.188  1.00  0.00     0.167 HD
ATOM     54  C   UNL A   1      42.928  31.955  29.495  1.00  0.00     0.074 A 
ATOM     55  C   UNL A   1      42.173  32.893  30.297  1.00  0.00     0.031 C 
ATOM     56  C   UNL A   1      44.183  32.183  29.036  1.00  0.00     0.034 A 
BRANCH  43  57
ATOM     57  C   UNL A   1      46.675  27.435  26.009  1.00  0.00     0.023 A 
ATOM     58  C   UNL A   1      46.760  27.668  24.623  1.00  0.00     0.012 A 
ATOM     59  C   UNL A   1      47.741  26.803  26.678  1.00  0.00     0.148 A 
ATOM     60  C   UNL A   1      47.891  27.279  23.909  1.00  0.00     0.002 A 
ATOM     61  C   UNL A   1      48.877  26.441  25.964  1.00  0.00     0.091 A 
ATOM     62  F   UNL A   1      47.625  26.583  27.995  1.00  0.00    -0.205 F 
ATOM     63  C   UNL A   1      48.952  26.675  24.581  1.00  0.00     0.022 A 
BRANCH  61  64
ATOM     64  S   UNL A   1      50.319  25.703  26.738  1.00  0.00     0.127 S 
ATOM     65  O   UNL A   1      50.645  26.697  27.761  1.00  0.00    -0.237 OA
ATOM     66  O   UNL A   1      49.778  24.448  27.257  1.00  0.00    -0.237 OA
ATOM     67  O   UNL A   1      51.314  25.557  25.685  1.00  0.00    -0.744 OA
ENDBRANCH  61  64
ENDBRANCH  43  57
BRANCH  44  68
ATOM     68  C   UNL A   1      38.575  30.733  30.805  1.00  0.00     0.023 A 
ATOM     69  C   UNL A   1      38.492  30.616  32.205  1.00  0.00     0.012 A 
ATOM     70  C   UNL A   1      37.530  31.362  30.100  1.00  0.00     0.148 A 
ATOM     71  C   UNL A   1      37.382  31.107  32.892  1.00  0.00     0.002 A 
ATOM     72  C   UNL A   1      36.447  31.885  30.795  1.00  0.00     0.091 A 
ATOM     73  F   UNL A   1      37.629  31.450  28.766  1.00  0.00    -0.205 F 
ATOM     74  C   UNL A   1      36.364  31.747  32.189  1.00  0.00     0.022 A 
BRANCH  72  75
ATOM     75  S   UNL A   1      35.142  32.823  29.992  1.00  0.00     0.127 S 
ATOM     76  O   UNL A   1      34.262  33.133  31.117  1.00  0.00    -0.237 OA
ATOM     77  O   UNL A   1      35.884  33.963  29.455  1.00  0.00    -0.237 OA
ATOM     78  O   UNL A   1      34.580  31.938  28.982  1.00  0.00    -0.744 OA
ENDBRANCH  72  75
ENDBRANCH  44  68
BRANCH  56  79
ATOM     79  C   UNL A   1      44.838  33.493  29.376  1.00  0.00     0.023 A 
ATOM     80  C   UNL A   1      45.655  33.576  30.519  1.00  0.00     0.012 A 
ATOM     81  C   UNL A   1      44.756  34.590  28.496  1.00  0.00     0.148 A 
ATOM     82  C   UNL A   1      46.378  34.738  30.787  1.00  0.00     0.002 A 
ATOM     83  C   UNL A   1      45.505  35.733  28.752  1.00  0.00     0.091 A 
ATOM     84  F   UNL A   1      43.966  34.486  27.418  1.00  0.00    -0.205 F 
ATOM     85  C   UNL A   1      46.314  35.809  29.898  1.00  0.00     0.022 A 
BRANCH  83  86
ATOM     86  S   UNL A   1      45.550  37.135  27.629  1.00  0.00     0.127 S 
ATOM     87  O   UNL A   1      45.865  36.487  26.356  1.00  0.00    -0.237 OA
ATOM     88  O   UNL A   1      44.185  37.654  27.729  1.00  0.00    -0.237 OA
ATOM     89  O   UNL A   1      46.580  38.030  28.140  1.00  0.00    -0.744 OA
ENDBRANCH  83  86
ENDBRANCH  56  79
ENDBRANCH  30  31
ENDBRANCH  23  25
ENDBRANCH  22  23
ENDBRANCH  21  22
ENDBRANCH   1  21
TORSDOF 17
ENDMDL
