MODEL 1
REMARK VINA RESULT:     -10.5      0.000      0.000
REMARK SMILES N#Cc1nccn1-c1ccc(F)cc1C(=O)OCCOCCOC(=O)c1ccc(-c2c3nc(c(-c4cccc(S(=O)(=O)[O-])c4F)c4ccc([nH]4)c(-c4cccc(S(=O)(=O)[O-])c4F)c4nc(c(-c5cccc(S(=O)(=O)[O-])c5F)c5ccc2[nH]5)C=C4)C=C3)cc1
REMARK SMILES IDX 21 1 20 2 19 3 18 4 17 5 15 6 16 7 14 8 8 9 9 10 10 11 13 12
REMARK SMILES IDX 11 13 12 14 7 15 3 16 4 17 5 18 6 19 2 20 1 21 22 22 23 23
REMARK SMILES IDX 24 24 25 25 26 26 27 27 88 28 28 29 87 30 29 31 30 32 31 33
REMARK SMILES IDX 81 34 32 35 86 36 80 37 82 38 33 39 85 40 79 41 78 42 34 44
REMARK SMILES IDX 66 45 46 46 65 47 47 48 50 49 64 50 83 51 48 52 49 53 63 55
REMARK SMILES IDX 84 56 51 57 35 58 36 59 44 60 37 61 39 62 45 63 38 64 40 65
REMARK SMILES IDX 41 66 42 67 43 68 67 69 68 70 76 71 69 72 71 73 77 74 70 75
REMARK SMILES IDX 72 76 73 77 74 78 75 79 52 80 53 81 61 82 54 83 56 84 62 85
REMARK SMILES IDX 55 86 57 87 58 88 59 89 60 90
REMARK H PARENT 82 43 50 54
REMARK Flexibility Score: inf
ROOT
ATOM      1  C   UNL A   1      33.613  31.593  27.644  1.00  0.00     0.202 C 
ENDROOT
BRANCH   1   2
ATOM      2  O   UNL A   1      33.103  30.449  26.966  1.00  0.00    -0.374 OA
BRANCH   2   3
ATOM      3  C   UNL A   1      33.510  29.141  27.367  1.00  0.00     0.202 C 
BRANCH   3   4
ATOM      4  C   UNL A   1      32.446  28.047  27.428  1.00  0.00     0.261 C 
BRANCH   4   5
ATOM      5  O   UNL A   1      32.638  27.051  26.411  1.00  0.00    -0.460 OA
BRANCH   5   6
ATOM      6  C   UNL A   1      32.862  27.530  25.167  1.00  0.00     0.340 C 
ATOM      7  O   UNL A   1      33.943  27.657  24.613  1.00  0.00    -0.246 OA
BRANCH   6   8
ATOM      8  C   UNL A   1      31.584  27.751  24.450  1.00  0.00     0.087 A 
ATOM      9  C   UNL A   1      30.789  26.764  23.835  1.00  0.00     0.062 A 
ATOM     10  C   UNL A   1      29.588  27.146  23.203  1.00  0.00     0.030 A 
ATOM     11  C   UNL A   1      29.215  28.491  23.136  1.00  0.00     0.041 A 
ATOM     12  C   UNL A   1      31.208  29.103  24.347  1.00  0.00     0.057 A 
ATOM     13  C   UNL A   1      30.040  29.458  23.687  1.00  0.00     0.124 A 
ATOM     14  F   UNL A   1      29.707  30.751  23.585  1.00  0.00    -0.207 F 
BRANCH   9  15
ATOM     15  N   UNL A   1      31.159  25.392  23.803  1.00  0.00    -0.291 N 
ATOM     16  C   UNL A   1      31.988  24.765  22.881  1.00  0.00     0.217 A 
ATOM     17  N   UNL A   1      32.187  23.500  23.199  1.00  0.00    -0.227 NA
ATOM     18  C   UNL A   1      31.457  23.278  24.329  1.00  0.00     0.132 A 
ATOM     19  C   UNL A   1      30.786  24.415  24.705  1.00  0.00     0.114 A 
BRANCH  16  20
ATOM     20  C   UNL A   1      32.659  25.422  21.802  1.00  0.00     0.139 C 
ATOM     21  N   UNL A   1      33.133  25.908  20.866  1.00  0.00    -0.189 NA
ENDBRANCH  16  20
ENDBRANCH   9  15
ENDBRANCH   6   8
ENDBRANCH   5   6
ENDBRANCH   4   5
ENDBRANCH   3   4
ENDBRANCH   2   3
ENDBRANCH   1   2
BRANCH   1  22
ATOM     22  C   UNL A   1      32.782  32.867  27.674  1.00  0.00     0.261 C 
BRANCH  22  23
ATOM     23  O   UNL A   1      33.551  34.020  27.971  1.00  0.00    -0.460 OA
BRANCH  23  24
ATOM     24  C   UNL A   1      33.528  34.340  29.287  1.00  0.00     0.338 C 
ATOM     25  O   UNL A   1      32.579  34.771  29.923  1.00  0.00    -0.246 OA
BRANCH  24  26
ATOM     26  C   UNL A   1      34.890  34.280  29.812  1.00  0.00     0.060 A 
ATOM     27  C   UNL A   1      35.904  34.680  28.940  1.00  0.00     0.016 A 
ATOM     28  C   UNL A   1      35.131  33.460  30.921  1.00  0.00     0.016 A 
ATOM     29  C   UNL A   1      37.106  34.020  29.022  1.00  0.00     0.010 A 
ATOM     30  C   UNL A   1      36.323  32.797  30.992  1.00  0.00     0.010 A 
ATOM     31  C   UNL A   1      37.251  33.006  29.979  1.00  0.00    -0.014 A 
BRANCH  31  32
ATOM     32  C   UNL A   1      38.509  32.302  30.062  1.00  0.00     0.031 A 
ATOM     33  C   UNL A   1      38.341  30.953  29.472  1.00  0.00     0.074 A 
ATOM     34  C   UNL A   1      39.643  32.877  30.512  1.00  0.00     0.049 A 
ATOM     35  N   UNL A   1      38.184  29.848  30.124  1.00  0.00    -0.248 NA
ATOM     36  C   UNL A   1      37.969  30.857  28.047  1.00  0.00     0.031 C 
ATOM     37  C   UNL A   1      39.879  34.278  30.870  1.00  0.00     0.029 A 
ATOM     38  N   UNL A   1      40.881  32.336  30.655  1.00  0.00    -0.354 N 
ATOM     39  C   UNL A   1      38.033  28.886  29.132  1.00  0.00     0.074 A 
ATOM     40  C   UNL A   1      37.571  29.586  27.972  1.00  0.00     0.031 C 
ATOM     41  C   UNL A   1      41.214  34.512  30.917  1.00  0.00     0.029 A 
ATOM     42  C   UNL A   1      41.924  33.260  30.718  1.00  0.00     0.049 A 
ATOM     43  H   UNL A   1      41.031  31.364  30.709  1.00  0.00     0.167 HD
ATOM     44  C   UNL A   1      38.710  27.710  29.235  1.00  0.00     0.034 A 
ATOM     45  C   UNL A   1      43.253  33.002  30.552  1.00  0.00     0.034 A 
ATOM     46  C   UNL A   1      39.115  27.488  30.607  1.00  0.00     0.049 A 
ATOM     47  C   UNL A   1      43.431  31.543  30.753  1.00  0.00     0.074 A 
ATOM     48  C   UNL A   1      38.454  27.424  31.818  1.00  0.00     0.029 A 
ATOM     49  N   UNL A   1      40.430  27.758  30.901  1.00  0.00    -0.354 N 
ATOM     50  N   UNL A   1      43.238  30.956  31.900  1.00  0.00    -0.248 NA
ATOM     51  C   UNL A   1      43.318  30.695  29.577  1.00  0.00     0.031 C 
ATOM     52  C   UNL A   1      39.305  28.100  32.740  1.00  0.00     0.029 A 
ATOM     53  C   UNL A   1      40.488  28.441  32.084  1.00  0.00     0.049 A 
ATOM     54  H   UNL A   1      41.204  27.502  30.349  1.00  0.00     0.167 HD
ATOM     55  C   UNL A   1      42.501  29.827  31.575  1.00  0.00     0.074 A 
ATOM     56  C   UNL A   1      42.653  29.674  30.125  1.00  0.00     0.031 C 
ATOM     57  C   UNL A   1      41.576  29.326  32.442  1.00  0.00     0.034 A 
BRANCH  44  58
ATOM     58  C   UNL A   1      39.421  27.032  28.073  1.00  0.00     0.023 A 
ATOM     59  C   UNL A   1      39.139  25.660  27.886  1.00  0.00     0.012 A 
ATOM     60  C   UNL A   1      40.519  27.552  27.340  1.00  0.00     0.148 A 
ATOM     61  C   UNL A   1      39.948  24.842  27.091  1.00  0.00     0.002 A 
ATOM     62  C   UNL A   1      41.277  26.752  26.495  1.00  0.00     0.091 A 
ATOM     63  F   UNL A   1      40.930  28.804  27.518  1.00  0.00    -0.205 F 
ATOM     64  C   UNL A   1      41.018  25.387  26.395  1.00  0.00     0.022 A 
BRANCH  62  65
ATOM     65  S   UNL A   1      42.648  27.419  25.537  1.00  0.00     0.127 S 
ATOM     66  O   UNL A   1      42.995  26.281  24.691  1.00  0.00    -0.237 OA
ATOM     67  O   UNL A   1      42.004  28.534  24.845  1.00  0.00    -0.237 OA
ATOM     68  O   UNL A   1      43.662  27.821  26.505  1.00  0.00    -0.744 OA
ENDBRANCH  62  65
ENDBRANCH  44  58
BRANCH  45  69
ATOM     69  C   UNL A   1      44.328  33.802  29.893  1.00  0.00     0.023 A 
ATOM     70  C   UNL A   1      45.530  34.072  30.590  1.00  0.00     0.012 A 
ATOM     71  C   UNL A   1      44.322  34.008  28.498  1.00  0.00     0.148 A 
ATOM     72  C   UNL A   1      46.690  34.483  29.915  1.00  0.00     0.002 A 
ATOM     73  C   UNL A   1      45.479  34.407  27.830  1.00  0.00     0.091 A 
ATOM     74  F   UNL A   1      43.210  33.724  27.812  1.00  0.00    -0.205 F 
ATOM     75  C   UNL A   1      46.669  34.635  28.533  1.00  0.00     0.022 A 
BRANCH  73  76
ATOM     76  S   UNL A   1      45.547  34.561  26.039  1.00  0.00     0.127 S 
ATOM     77  O   UNL A   1      44.191  35.015  25.724  1.00  0.00    -0.237 OA
ATOM     78  O   UNL A   1      46.587  35.572  25.862  1.00  0.00    -0.237 OA
ATOM     79  O   UNL A   1      45.867  33.233  25.536  1.00  0.00    -0.744 OA
ENDBRANCH  73  76
ENDBRANCH  45  69
BRANCH  57  80
ATOM     80  C   UNL A   1      41.544  29.864  33.852  1.00  0.00     0.023 A 
ATOM     81  C   UNL A   1      42.462  29.481  34.854  1.00  0.00     0.012 A 
ATOM     82  C   UNL A   1      40.697  30.958  34.088  1.00  0.00     0.148 A 
ATOM     83  C   UNL A   1      42.530  30.183  36.063  1.00  0.00     0.002 A 
ATOM     84  C   UNL A   1      40.808  31.687  35.262  1.00  0.00     0.091 A 
ATOM     85  F   UNL A   1      39.828  31.298  33.124  1.00  0.00    -0.205 F 
ATOM     86  C   UNL A   1      41.718  31.299  36.259  1.00  0.00     0.022 A 
BRANCH  84  87
ATOM     87  S   UNL A   1      39.903  33.217  35.491  1.00  0.00     0.127 S 
ATOM     88  O   UNL A   1      38.516  32.761  35.433  1.00  0.00    -0.237 OA
ATOM     89  O   UNL A   1      40.352  33.650  36.816  1.00  0.00    -0.237 OA
ATOM     90  O   UNL A   1      40.317  34.098  34.406  1.00  0.00    -0.744 OA
ENDBRANCH  84  87
ENDBRANCH  57  80
ENDBRANCH  31  32
ENDBRANCH  24  26
ENDBRANCH  23  24
ENDBRANCH  22  23
ENDBRANCH   1  22
TORSDOF 19
ENDMDL
MODEL 2
REMARK VINA RESULT:     -10.4      4.517      9.495
REMARK SMILES N#Cc1nccn1-c1ccc(F)cc1C(=O)OCCOCCOC(=O)c1ccc(-c2c3nc(c(-c4cccc(S(=O)(=O)[O-])c4F)c4ccc([nH]4)c(-c4cccc(S(=O)(=O)[O-])c4F)c4nc(c(-c5cccc(S(=O)(=O)[O-])c5F)c5ccc2[nH]5)C=C4)C=C3)cc1
REMARK SMILES IDX 21 1 20 2 19 3 18 4 17 5 15 6 16 7 14 8 8 9 9 10 10 11 13 12
REMARK SMILES IDX 11 13 12 14 7 15 3 16 4 17 5 18 6 19 2 20 1 21 22 22 23 23
REMARK SMILES IDX 24 24 25 25 26 26 27 27 88 28 28 29 87 30 29 31 30 32 31 33
REMARK SMILES IDX 81 34 32 35 86 36 80 37 82 38 33 39 85 40 79 41 78 42 34 44
REMARK SMILES IDX 66 45 46 46 65 47 47 48 50 49 64 50 83 51 48 52 49 53 63 55
REMARK SMILES IDX 84 56 51 57 35 58 36 59 44 60 37 61 39 62 45 63 38 64 40 65
REMARK SMILES IDX 41 66 42 67 43 68 67 69 68 70 76 71 69 72 71 73 77 74 70 75
REMARK SMILES IDX 72 76 73 77 74 78 75 79 52 80 53 81 61 82 54 83 56 84 62 85
REMARK SMILES IDX 55 86 57 87 58 88 59 89 60 90
REMARK H PARENT 82 43 50 54
REMARK Flexibility Score: inf
ROOT
ATOM      1  C   UNL A   1      38.590  19.442  24.847  1.00  0.00     0.202 C 
ENDROOT
BRANCH   1   2
ATOM      2  O   UNL A   1      37.334  20.101  24.982  1.00  0.00    -0.374 OA
BRANCH   2   3
ATOM      3  C   UNL A   1      37.248  21.516  24.814  1.00  0.00     0.202 C 
BRANCH   3   4
ATOM      4  C   UNL A   1      36.333  22.294  25.755  1.00  0.00     0.261 C 
BRANCH   4   5
ATOM      5  O   UNL A   1      35.455  21.428  26.491  1.00  0.00    -0.460 OA
BRANCH   5   6
ATOM      6  C   UNL A   1      34.186  21.871  26.631  1.00  0.00     0.340 C 
ATOM      7  O   UNL A   1      33.693  22.383  27.623  1.00  0.00    -0.246 OA
BRANCH   6   8
ATOM      8  C   UNL A   1      33.463  21.811  25.339  1.00  0.00     0.087 A 
ATOM      9  C   UNL A   1      32.969  22.907  24.604  1.00  0.00     0.062 A 
ATOM     10  C   UNL A   1      32.312  22.672  23.379  1.00  0.00     0.030 A 
ATOM     11  C   UNL A   1      32.101  21.369  22.923  1.00  0.00     0.041 A 
ATOM     12  C   UNL A   1      33.216  20.505  24.877  1.00  0.00     0.057 A 
ATOM     13  C   UNL A   1      32.534  20.298  23.687  1.00  0.00     0.124 A 
ATOM     14  F   UNL A   1      32.294  19.047  23.274  1.00  0.00    -0.207 F 
BRANCH   9  15
ATOM     15  N   UNL A   1      33.084  24.249  25.060  1.00  0.00    -0.291 N 
ATOM     16  C   UNL A   1      32.230  24.919  25.927  1.00  0.00     0.217 A 
ATOM     17  N   UNL A   1      32.683  26.127  26.205  1.00  0.00    -0.227 NA
ATOM     18  C   UNL A   1      33.835  26.270  25.490  1.00  0.00     0.132 A 
ATOM     19  C   UNL A   1      34.089  25.143  24.749  1.00  0.00     0.114 A 
BRANCH  16  20
ATOM     20  C   UNL A   1      31.082  24.344  26.557  1.00  0.00     0.139 C 
ATOM     21  N   UNL A   1      30.100  23.906  26.982  1.00  0.00    -0.189 NA
ENDBRANCH  16  20
ENDBRANCH   9  15
ENDBRANCH   6   8
ENDBRANCH   5   6
ENDBRANCH   4   5
ENDBRANCH   3   4
ENDBRANCH   2   3
ENDBRANCH   1   2
BRANCH   1  22
ATOM     22  C   UNL A   1      39.636  19.610  25.938  1.00  0.00     0.261 C 
BRANCH  22  23
ATOM     23  O   UNL A   1      40.847  18.931  25.651  1.00  0.00    -0.460 OA
BRANCH  23  24
ATOM     24  C   UNL A   1      41.943  19.679  25.922  1.00  0.00     0.338 C 
ATOM     25  O   UNL A   1      43.100  19.293  25.984  1.00  0.00    -0.246 OA
BRANCH  24  26
ATOM     26  C   UNL A   1      41.516  21.013  26.335  1.00  0.00     0.060 A 
ATOM     27  C   UNL A   1      42.099  22.084  25.658  1.00  0.00     0.016 A 
ATOM     28  C   UNL A   1      40.926  21.152  27.597  1.00  0.00     0.016 A 
ATOM     29  C   UNL A   1      42.344  23.230  26.375  1.00  0.00     0.010 A 
ATOM     30  C   UNL A   1      41.181  22.288  28.312  1.00  0.00     0.010 A 
ATOM     31  C   UNL A   1      41.980  23.264  27.728  1.00  0.00    -0.014 A 
BRANCH  31  32
ATOM     32  C   UNL A   1      42.245  24.462  28.490  1.00  0.00     0.031 A 
ATOM     33  C   UNL A   1      41.156  25.436  28.240  1.00  0.00     0.074 A 
ATOM     34  C   UNL A   1      43.273  24.570  29.356  1.00  0.00     0.049 A 
ATOM     35  N   UNL A   1      41.210  26.456  27.448  1.00  0.00    -0.248 NA
ATOM     36  C   UNL A   1      39.782  25.059  28.626  1.00  0.00     0.031 C 
ATOM     37  C   UNL A   1      44.213  23.534  29.793  1.00  0.00     0.029 A 
ATOM     38  N   UNL A   1      43.643  25.629  30.121  1.00  0.00    -0.354 N 
ATOM     39  C   UNL A   1      39.942  27.020  27.533  1.00  0.00     0.074 A 
ATOM     40  C   UNL A   1      39.071  25.966  27.955  1.00  0.00     0.031 C 
ATOM     41  C   UNL A   1      44.844  23.946  30.921  1.00  0.00     0.029 A 
ATOM     42  C   UNL A   1      44.450  25.313  31.214  1.00  0.00     0.049 A 
ATOM     43  H   UNL A   1      43.363  26.551  29.919  1.00  0.00     0.167 HD
ATOM     44  C   UNL A   1      39.819  28.368  27.671  1.00  0.00     0.034 A 
ATOM     45  C   UNL A   1      44.706  26.106  32.294  1.00  0.00     0.034 A 
ATOM     46  C   UNL A   1      41.036  29.025  27.240  1.00  0.00     0.049 A 
ATOM     47  C   UNL A   1      44.367  27.493  31.893  1.00  0.00     0.074 A 
ATOM     48  C   UNL A   1      41.780  29.028  26.077  1.00  0.00     0.029 A 
ATOM     49  N   UNL A   1      41.881  29.446  28.239  1.00  0.00    -0.354 N 
ATOM     50  N   UNL A   1      45.029  28.150  30.981  1.00  0.00    -0.248 NA
ATOM     51  C   UNL A   1      43.004  27.938  32.135  1.00  0.00     0.031 C 
ATOM     52  C   UNL A   1      43.139  29.016  26.508  1.00  0.00     0.029 A 
ATOM     53  C   UNL A   1      43.165  29.122  27.899  1.00  0.00     0.049 A 
ATOM     54  H   UNL A   1      41.606  29.907  29.064  1.00  0.00     0.167 HD
ATOM     55  C   UNL A   1      44.035  28.729  30.205  1.00  0.00     0.074 A 
ATOM     56  C   UNL A   1      42.814  28.634  31.010  1.00  0.00     0.031 C 
ATOM     57  C   UNL A   1      44.221  28.921  28.867  1.00  0.00     0.034 A 
BRANCH  44  58
ATOM     58  C   UNL A   1      38.843  29.042  28.623  1.00  0.00     0.023 A 
ATOM     59  C   UNL A   1      38.050  30.075  28.075  1.00  0.00     0.012 A 
ATOM     60  C   UNL A   1      38.835  28.930  30.037  1.00  0.00     0.148 A 
ATOM     61  C   UNL A   1      37.365  30.988  28.883  1.00  0.00     0.002 A 
ATOM     62  C   UNL A   1      38.097  29.795  30.835  1.00  0.00     0.091 A 
ATOM     63  F   UNL A   1      39.623  28.057  30.660  1.00  0.00    -0.205 F 
ATOM     64  C   UNL A   1      37.388  30.849  30.264  1.00  0.00     0.022 A 
BRANCH  62  65
ATOM     65  S   UNL A   1      38.058  29.630  32.628  1.00  0.00     0.127 S 
ATOM     66  O   UNL A   1      37.485  28.297  32.788  1.00  0.00    -0.237 OA
ATOM     67  O   UNL A   1      39.478  29.739  32.960  1.00  0.00    -0.237 OA
ATOM     68  O   UNL A   1      37.243  30.735  33.119  1.00  0.00    -0.744 OA
ENDBRANCH  62  65
ENDBRANCH  44  58
BRANCH  45  69
ATOM     69  C   UNL A   1      44.870  25.765  33.739  1.00  0.00     0.023 A 
ATOM     70  C   UNL A   1      46.167  25.669  34.296  1.00  0.00     0.012 A 
ATOM     71  C   UNL A   1      43.782  25.865  34.631  1.00  0.00     0.148 A 
ATOM     72  C   UNL A   1      46.373  25.721  35.683  1.00  0.00     0.002 A 
ATOM     73  C   UNL A   1      43.992  25.925  36.008  1.00  0.00     0.091 A 
ATOM     74  F   UNL A   1      42.549  25.994  34.129  1.00  0.00    -0.205 F 
ATOM     75  C   UNL A   1      45.287  25.865  36.539  1.00  0.00     0.022 A 
BRANCH  73  76
ATOM     76  S   UNL A   1      42.644  26.176  37.173  1.00  0.00     0.127 S 
ATOM     77  O   UNL A   1      41.841  24.969  36.969  1.00  0.00    -0.237 OA
ATOM     78  O   UNL A   1      43.354  26.231  38.449  1.00  0.00    -0.237 OA
ATOM     79  O   UNL A   1      41.988  27.410  36.763  1.00  0.00    -0.744 OA
ENDBRANCH  73  76
ENDBRANCH  45  69
BRANCH  57  80
ATOM     80  C   UNL A   1      45.604  28.727  28.297  1.00  0.00     0.023 A 
ATOM     81  C   UNL A   1      46.655  29.654  28.469  1.00  0.00     0.012 A 
ATOM     82  C   UNL A   1      45.894  27.460  27.769  1.00  0.00     0.148 A 
ATOM     83  C   UNL A   1      47.968  29.314  28.122  1.00  0.00     0.002 A 
ATOM     84  C   UNL A   1      47.204  27.106  27.483  1.00  0.00     0.091 A 
ATOM     85  F   UNL A   1      44.878  26.599  27.607  1.00  0.00    -0.205 F 
ATOM     86  C   UNL A   1      48.246  28.032  27.649  1.00  0.00     0.022 A 
BRANCH  84  87
ATOM     87  S   UNL A   1      47.630  25.426  27.026  1.00  0.00     0.127 S 
ATOM     88  O   UNL A   1      46.951  25.278  25.741  1.00  0.00    -0.237 OA
ATOM     89  O   UNL A   1      49.091  25.485  26.945  1.00  0.00    -0.237 OA
ATOM     90  O   UNL A   1      47.128  24.575  28.099  1.00  0.00    -0.744 OA
ENDBRANCH  84  87
ENDBRANCH  57  80
ENDBRANCH  31  32
ENDBRANCH  24  26
ENDBRANCH  23  24
ENDBRANCH  22  23
ENDBRANCH   1  22
TORSDOF 19
ENDMDL
MODEL 3
REMARK VINA RESULT:     -10.3      4.056      8.938
REMARK SMILES N#Cc1nccn1-c1ccc(F)cc1C(=O)OCCOCCOC(=O)c1ccc(-c2c3nc(c(-c4cccc(S(=O)(=O)[O-])c4F)c4ccc([nH]4)c(-c4cccc(S(=O)(=O)[O-])c4F)c4nc(c(-c5cccc(S(=O)(=O)[O-])c5F)c5ccc2[nH]5)C=C4)C=C3)cc1
REMARK SMILES IDX 21 1 20 2 19 3 18 4 17 5 15 6 16 7 14 8 8 9 9 10 10 11 13 12
REMARK SMILES IDX 11 13 12 14 7 15 3 16 4 17 5 18 6 19 2 20 1 21 22 22 23 23
REMARK SMILES IDX 24 24 25 25 26 26 27 27 88 28 28 29 87 30 29 31 30 32 31 33
REMARK SMILES IDX 81 34 32 35 86 36 80 37 82 38 33 39 85 40 79 41 78 42 34 44
REMARK SMILES IDX 66 45 46 46 65 47 47 48 50 49 64 50 83 51 48 52 49 53 63 55
REMARK SMILES IDX 84 56 51 57 35 58 36 59 44 60 37 61 39 62 45 63 38 64 40 65
REMARK SMILES IDX 41 66 42 67 43 68 67 69 68 70 76 71 69 72 71 73 77 74 70 75
REMARK SMILES IDX 72 76 73 77 74 78 75 79 52 80 53 81 61 82 54 83 56 84 62 85
REMARK SMILES IDX 55 86 57 87 58 88 59 89 60 90
REMARK H PARENT 82 43 50 54
REMARK Flexibility Score: inf
ROOT
ATOM      1  C   UNL A   1      37.915  21.048  24.958  1.00  0.00     0.202 C 
ENDROOT
BRANCH   1   2
ATOM      2  O   UNL A   1      37.446  21.879  26.015  1.00  0.00    -0.374 OA
BRANCH   2   3
ATOM      3  C   UNL A   1      37.494  23.300  25.882  1.00  0.00     0.202 C 
BRANCH   3   4
ATOM      4  C   UNL A   1      36.331  23.992  25.176  1.00  0.00     0.261 C 
BRANCH   4   5
ATOM      5  O   UNL A   1      35.139  23.191  25.191  1.00  0.00    -0.460 OA
BRANCH   5   6
ATOM      6  C   UNL A   1      34.349  23.349  26.276  1.00  0.00     0.340 C 
ATOM      7  O   UNL A   1      34.651  23.138  27.440  1.00  0.00    -0.246 OA
BRANCH   6   8
ATOM      8  C   UNL A   1      33.064  23.986  25.903  1.00  0.00     0.087 A 
ATOM      9  C   UNL A   1      32.052  23.421  25.104  1.00  0.00     0.062 A 
ATOM     10  C   UNL A   1      30.879  24.164  24.855  1.00  0.00     0.030 A 
ATOM     11  C   UNL A   1      30.742  25.464  25.346  1.00  0.00     0.041 A 
ATOM     12  C   UNL A   1      32.921  25.308  26.365  1.00  0.00     0.057 A 
ATOM     13  C   UNL A   1      31.773  26.032  26.076  1.00  0.00     0.124 A 
ATOM     14  F   UNL A   1      31.663  27.294  26.510  1.00  0.00    -0.207 F 
BRANCH   9  15
ATOM     15  N   UNL A   1      32.172  22.134  24.511  1.00  0.00    -0.291 N 
ATOM     16  C   UNL A   1      32.598  21.838  23.223  1.00  0.00     0.217 A 
ATOM     17  N   UNL A   1      32.672  20.533  23.032  1.00  0.00    -0.227 NA
ATOM     18  C   UNL A   1      32.258  19.960  24.198  1.00  0.00     0.132 A 
ATOM     19  C   UNL A   1      31.912  20.921  25.115  1.00  0.00     0.114 A 
BRANCH  16  20
ATOM     20  C   UNL A   1      33.040  22.801  22.262  1.00  0.00     0.139 C 
ATOM     21  N   UNL A   1      33.425  23.639  21.565  1.00  0.00    -0.189 NA
ENDBRANCH  16  20
ENDBRANCH   9  15
ENDBRANCH   6   8
ENDBRANCH   5   6
ENDBRANCH   4   5
ENDBRANCH   3   4
ENDBRANCH   2   3
ENDBRANCH   1   2
BRANCH   1  22
ATOM     22  C   UNL A   1      38.991  20.013  25.251  1.00  0.00     0.261 C 
BRANCH  22  23
ATOM     23  O   UNL A   1      39.895  20.428  26.261  1.00  0.00    -0.460 OA
BRANCH  23  24
ATOM     24  C   UNL A   1      41.186  20.158  25.951  1.00  0.00     0.338 C 
ATOM     25  O   UNL A   1      41.614  19.169  25.377  1.00  0.00    -0.246 OA
BRANCH  24  26
ATOM     26  C   UNL A   1      42.043  21.154  26.589  1.00  0.00     0.060 A 
ATOM     27  C   UNL A   1      42.097  21.117  27.983  1.00  0.00     0.016 A 
ATOM     28  C   UNL A   1      42.386  22.294  25.853  1.00  0.00     0.016 A 
ATOM     29  C   UNL A   1      42.220  22.314  28.645  1.00  0.00     0.010 A 
ATOM     30  C   UNL A   1      42.496  23.485  26.513  1.00  0.00     0.010 A 
ATOM     31  C   UNL A   1      42.301  23.492  27.889  1.00  0.00    -0.014 A 
BRANCH  31  32
ATOM     32  C   UNL A   1      42.420  24.755  28.580  1.00  0.00     0.031 A 
ATOM     33  C   UNL A   1      41.226  25.578  28.278  1.00  0.00     0.074 A 
ATOM     34  C   UNL A   1      43.425  25.032  29.435  1.00  0.00     0.049 A 
ATOM     35  N   UNL A   1      41.162  26.550  27.428  1.00  0.00    -0.248 NA
ATOM     36  C   UNL A   1      39.904  25.065  28.689  1.00  0.00     0.031 C 
ATOM     37  C   UNL A   1      44.479  24.141  29.929  1.00  0.00     0.029 A 
ATOM     38  N   UNL A   1      43.666  26.170  30.137  1.00  0.00    -0.354 N 
ATOM     39  C   UNL A   1      39.836  26.965  27.484  1.00  0.00     0.074 A 
ATOM     40  C   UNL A   1      39.093  25.842  27.969  1.00  0.00     0.031 C 
ATOM     41  C   UNL A   1      45.053  24.689  31.029  1.00  0.00     0.029 A 
ATOM     42  C   UNL A   1      44.500  26.015  31.244  1.00  0.00     0.049 A 
ATOM     43  H   UNL A   1      43.280  27.040  29.882  1.00  0.00     0.167 HD
ATOM     44  C   UNL A   1      39.555  28.295  27.544  1.00  0.00     0.034 A 
ATOM     45  C   UNL A   1      44.657  26.893  32.276  1.00  0.00     0.034 A 
ATOM     46  C   UNL A   1      40.688  29.064  27.073  1.00  0.00     0.049 A 
ATOM     47  C   UNL A   1      44.159  28.206  31.796  1.00  0.00     0.074 A 
ATOM     48  C   UNL A   1      41.431  29.088  25.909  1.00  0.00     0.029 A 
ATOM     49  N   UNL A   1      41.474  29.639  28.043  1.00  0.00    -0.354 N 
ATOM     50  N   UNL A   1      44.742  28.882  30.846  1.00  0.00    -0.248 NA
ATOM     51  C   UNL A   1      42.752  28.501  32.016  1.00  0.00     0.031 C 
ATOM     52  C   UNL A   1      42.781  29.260  26.335  1.00  0.00     0.029 A 
ATOM     53  C   UNL A   1      42.788  29.449  27.718  1.00  0.00     0.049 A 
ATOM     54  H   UNL A   1      41.144  30.111  28.841  1.00  0.00     0.167 HD
ATOM     55  C   UNL A   1      43.691  29.294  30.040  1.00  0.00     0.074 A 
ATOM     56  C   UNL A   1      42.486  29.103  30.854  1.00  0.00     0.031 C 
ATOM     57  C   UNL A   1      43.857  29.429  28.693  1.00  0.00     0.034 A 
BRANCH  44  58
ATOM     58  C   UNL A   1      38.503  28.903  28.460  1.00  0.00     0.023 A 
ATOM     59  C   UNL A   1      37.571  29.770  27.847  1.00  0.00     0.012 A 
ATOM     60  C   UNL A   1      38.523  28.906  29.878  1.00  0.00     0.148 A 
ATOM     61  C   UNL A   1      36.773  30.643  28.593  1.00  0.00     0.002 A 
ATOM     62  C   UNL A   1      37.679  29.723  30.619  1.00  0.00     0.091 A 
ATOM     63  F   UNL A   1      39.429  28.203  30.552  1.00  0.00    -0.205 F 
ATOM     64  C   UNL A   1      36.826  30.620  29.980  1.00  0.00     0.022 A 
BRANCH  62  65
ATOM     65  S   UNL A   1      37.678  29.700  32.419  1.00  0.00     0.127 S 
ATOM     66  O   UNL A   1      36.694  30.735  32.725  1.00  0.00    -0.237 OA
ATOM     67  O   UNL A   1      37.244  28.331  32.693  1.00  0.00    -0.237 OA
ATOM     68  O   UNL A   1      39.047  29.986  32.829  1.00  0.00    -0.744 OA
ENDBRANCH  62  65
ENDBRANCH  44  58
BRANCH  45  69
ATOM     69  C   UNL A   1      44.855  26.658  33.737  1.00  0.00     0.023 A 
ATOM     70  C   UNL A   1      46.051  27.081  34.362  1.00  0.00     0.012 A 
ATOM     71  C   UNL A   1      43.762  26.335  34.569  1.00  0.00     0.148 A 
ATOM     72  C   UNL A   1      46.139  27.223  35.756  1.00  0.00     0.002 A 
ATOM     73  C   UNL A   1      43.850  26.486  35.953  1.00  0.00     0.091 A 
ATOM     74  F   UNL A   1      42.608  25.968  34.001  1.00  0.00    -0.205 F 
ATOM     75  C   UNL A   1      45.033  26.941  36.550  1.00  0.00     0.022 A 
BRANCH  73  76
ATOM     76  S   UNL A   1      42.444  26.204  37.038  1.00  0.00     0.127 S 
ATOM     77  O   UNL A   1      43.027  26.457  38.358  1.00  0.00    -0.237 OA
ATOM     78  O   UNL A   1      41.501  27.221  36.581  1.00  0.00    -0.237 OA
ATOM     79  O   UNL A   1      42.039  24.823  36.816  1.00  0.00    -0.744 OA
ENDBRANCH  73  76
ENDBRANCH  45  69
BRANCH  57  80
ATOM     80  C   UNL A   1      45.256  29.367  28.131  1.00  0.00     0.023 A 
ATOM     81  C   UNL A   1      46.168  30.443  28.189  1.00  0.00     0.012 A 
ATOM     82  C   UNL A   1      45.720  28.102  27.740  1.00  0.00     0.148 A 
ATOM     83  C   UNL A   1      47.517  30.251  27.866  1.00  0.00     0.002 A 
ATOM     84  C   UNL A   1      47.067  27.902  27.478  1.00  0.00     0.091 A 
ATOM     85  F   UNL A   1      44.833  27.097  27.684  1.00  0.00    -0.205 F 
ATOM     86  C   UNL A   1      47.971  28.975  27.531  1.00  0.00     0.022 A 
BRANCH  84  87
ATOM     87  S   UNL A   1      47.722  26.257  27.201  1.00  0.00     0.127 S 
ATOM     88  O   UNL A   1      49.148  26.524  27.023  1.00  0.00    -0.237 OA
ATOM     89  O   UNL A   1      47.377  25.569  28.447  1.00  0.00    -0.237 OA
ATOM     90  O   UNL A   1      47.032  25.740  26.025  1.00  0.00    -0.744 OA
ENDBRANCH  84  87
ENDBRANCH  57  80
ENDBRANCH  31  32
ENDBRANCH  24  26
ENDBRANCH  23  24
ENDBRANCH  22  23
ENDBRANCH   1  22
TORSDOF 19
ENDMDL
