MODEL 1
REMARK VINA RESULT:     -10.6      0.000      0.000
REMARK SMILES Cc1cc(OCC(=O)OCCOCCOC(=O)c2ccc(-c3c4nc(c(-c5cccc(S(=O)(=O)[O-])c5F)c5ccc([nH]5)c(-c5cccc(S(=O)(=O)[O-])c5F)c5nc(c(-c6cccc(S(=O)(=O)[O-])c6F)c6ccc3[nH]6)C=C5)C=C4)cc2)ccc1NC(=O)c1ccc(N2C(=O)[C@@H]3[C@H](C2=O)[C@H]2C=C[C@@H]3C2)cc1
REMARK SMILES IDX 11 1 10 2 9 3 7 4 8 5 6 6 5 7 4 8 1 9 2 10 3 11 83 12 82 13
REMARK SMILES IDX 81 14 84 15 85 16 86 18 87 19 88 20 104 21 89 22 103 23
REMARK SMILES IDX 90 24 91 25 92 26 96 27 93 28 94 29 95 30 97 31 101 32 98 33
REMARK SMILES IDX 100 34 102 35 99 36 12 37 13 38 14 39 15 40 16 41 17 42
REMARK SMILES IDX 18 43 19 44 80 45 20 46 79 47 21 48 22 49 23 50 73 51 24 52
REMARK SMILES IDX 78 53 72 54 74 55 25 56 77 57 71 58 70 59 26 61 58 62 38 63
REMARK SMILES IDX 57 64 39 65 42 66 56 67 75 68 40 69 41 70 55 72 76 73 43 74
REMARK SMILES IDX 27 75 28 76 36 77 29 78 31 79 37 80 30 81 32 82 33 83 34 84
REMARK SMILES IDX 35 85 59 86 60 87 68 88 61 89 63 90 69 91 62 92 64 93 65 94
REMARK SMILES IDX 66 95 67 96 44 97 45 98 53 99 46 100 48 101 54 102 47 103
REMARK SMILES IDX 49 104 50 105 51 106 52 107
REMARK H PARENT 84 17 74 60 42 71
REMARK Flexibility Score: inf
ROOT
ATOM      1  C   UNL A   1      35.370  32.865  27.956  1.00  0.00     0.202 C 
ENDROOT
BRANCH   1   2
ATOM      2  C   UNL A   1      34.356  31.801  28.350  1.00  0.00     0.261 C 
BRANCH   2   3
ATOM      3  O   UNL A   1      34.041  30.927  27.252  1.00  0.00    -0.461 OA
BRANCH   3   4
ATOM      4  C   UNL A   1      32.708  30.816  26.965  1.00  0.00     0.344 C 
ATOM      5  O   UNL A   1      31.907  31.728  26.813  1.00  0.00    -0.248 OA
BRANCH   4   6
ATOM      6  C   UNL A   1      32.289  29.354  26.935  1.00  0.00     0.351 C 
BRANCH   6   7
ATOM      7  O   UNL A   1      31.390  28.957  25.909  1.00  0.00    -0.482 OA
BRANCH   7   8
ATOM      8  C   UNL A   1      31.663  27.751  25.325  1.00  0.00     0.120 A 
ATOM      9  C   UNL A   1      31.745  24.252  26.736  1.00  0.00     0.047 C 
ATOM     10  C   UNL A   1      31.787  25.339  25.694  1.00  0.00    -0.024 A 
ATOM     11  C   UNL A   1      31.523  26.645  26.157  1.00  0.00     0.052 A 
ATOM     12  C   UNL A   1      32.192  25.148  24.352  1.00  0.00     0.044 A 
ATOM     13  C   UNL A   1      32.309  26.269  23.520  1.00  0.00     0.030 A 
ATOM     14  C   UNL A   1      32.044  27.562  24.001  1.00  0.00     0.048 A 
BRANCH  12  15
ATOM     15  N   UNL A   1      32.354  23.836  23.849  1.00  0.00    -0.322 N 
ATOM     16  C   UNL A   1      33.447  23.258  23.235  1.00  0.00     0.255 C 
ATOM     17  H   UNL A   1      31.571  23.248  23.952  1.00  0.00     0.170 HD
ATOM     18  O   UNL A   1      33.315  22.641  22.179  1.00  0.00    -0.269 OA
BRANCH  16  19
ATOM     19  C   UNL A   1      34.733  23.131  23.964  1.00  0.00     0.040 A 
ATOM     20  C   UNL A   1      35.954  23.371  23.343  1.00  0.00     0.016 A 
ATOM     21  C   UNL A   1      34.744  22.531  25.220  1.00  0.00     0.016 A 
ATOM     22  C   UNL A   1      37.166  23.144  24.035  1.00  0.00     0.027 A 
ATOM     23  C   UNL A   1      35.961  22.269  25.884  1.00  0.00     0.027 A 
ATOM     24  C   UNL A   1      37.205  22.630  25.345  1.00  0.00     0.052 A 
BRANCH  24  25
ATOM     25  N   UNL A   1      38.432  22.520  26.105  1.00  0.00    -0.250 N 
ATOM     26  C   UNL A   1      39.213  21.374  26.162  1.00  0.00     0.238 C 
ATOM     27  C   UNL A   1      38.995  23.541  26.850  1.00  0.00     0.238 C 
ATOM     28  O   UNL A   1      39.053  20.314  25.590  1.00  0.00    -0.274 OA
ATOM     29  C   UNL A   1      40.391  21.606  27.081  1.00  0.00     0.099 C 
ATOM     30  C   UNL A   1      40.311  23.098  27.430  1.00  0.00     0.099 C 
ATOM     31  O   UNL A   1      38.523  24.636  27.131  1.00  0.00    -0.274 OA
ATOM     32  C   UNL A   1      41.760  21.480  26.378  1.00  0.00     0.025 C 
ATOM     33  C   UNL A   1      41.594  23.677  26.791  1.00  0.00     0.025 C 
ATOM     34  C   UNL A   1      42.838  21.828  27.384  1.00  0.00    -0.027 C 
ATOM     35  C   UNL A   1      41.809  22.778  25.570  1.00  0.00     0.017 C 
ATOM     36  C   UNL A   1      42.750  23.148  27.619  1.00  0.00    -0.027 C 
ENDBRANCH  24  25
ENDBRANCH  16  19
ENDBRANCH  12  15
ENDBRANCH   7   8
ENDBRANCH   6   7
ENDBRANCH   4   6
ENDBRANCH   3   4
ENDBRANCH   2   3
ENDBRANCH   1   2
BRANCH   1  37
ATOM     37  O   UNL A   1      34.948  34.117  28.474  1.00  0.00    -0.374 OA
BRANCH  37  38
ATOM     38  C   UNL A   1      33.899  34.042  29.421  1.00  0.00     0.202 C 
BRANCH  38  39
ATOM     39  C   UNL A   1      34.288  34.605  30.784  1.00  0.00     0.261 C 
BRANCH  39  40
ATOM     40  O   UNL A   1      35.505  34.034  31.303  1.00  0.00    -0.460 OA
BRANCH  40  41
ATOM     41  C   UNL A   1      35.494  32.816  31.902  1.00  0.00     0.338 C 
ATOM     42  O   UNL A   1      34.507  32.363  32.457  1.00  0.00    -0.246 OA
BRANCH  41  43
ATOM     43  C   UNL A   1      36.714  32.029  31.619  1.00  0.00     0.060 A 
ATOM     44  C   UNL A   1      37.144  31.074  32.540  1.00  0.00     0.016 A 
ATOM     45  C   UNL A   1      37.481  32.303  30.483  1.00  0.00     0.016 A 
ATOM     46  C   UNL A   1      38.421  30.524  32.419  1.00  0.00     0.010 A 
ATOM     47  C   UNL A   1      38.773  31.810  30.398  1.00  0.00     0.010 A 
ATOM     48  C   UNL A   1      39.265  30.956  31.392  1.00  0.00    -0.014 A 
BRANCH  48  49
ATOM     49  C   UNL A   1      40.707  30.725  31.390  1.00  0.00     0.031 A 
ATOM     50  C   UNL A   1      41.322  29.498  30.843  1.00  0.00     0.074 A 
ATOM     51  C   UNL A   1      41.532  31.705  31.818  1.00  0.00     0.049 A 
ATOM     52  N   UNL A   1      42.450  29.030  31.271  1.00  0.00    -0.248 NA
ATOM     53  C   UNL A   1      40.707  28.682  29.806  1.00  0.00     0.031 C 
ATOM     54  C   UNL A   1      42.954  31.841  31.529  1.00  0.00     0.029 A 
ATOM     55  N   UNL A   1      41.265  32.717  32.737  1.00  0.00    -0.354 N 
ATOM     56  C   UNL A   1      42.830  28.026  30.412  1.00  0.00     0.074 A 
ATOM     57  C   UNL A   1      41.679  27.794  29.565  1.00  0.00     0.031 C 
ATOM     58  C   UNL A   1      43.488  32.716  32.392  1.00  0.00     0.029 A 
ATOM     59  C   UNL A   1      42.461  33.085  33.351  1.00  0.00     0.049 A 
ATOM     60  H   UNL A   1      40.380  33.107  32.922  1.00  0.00     0.167 HD
ATOM     61  C   UNL A   1      44.124  27.596  30.383  1.00  0.00     0.034 A 
ATOM     62  C   UNL A   1      42.620  33.249  34.690  1.00  0.00     0.034 A 
ATOM     63  C   UNL A   1      44.982  28.378  31.284  1.00  0.00     0.049 A 
ATOM     64  C   UNL A   1      43.652  32.294  35.239  1.00  0.00     0.074 A 
ATOM     65  C   UNL A   1      45.813  29.466  31.062  1.00  0.00     0.029 A 
ATOM     66  N   UNL A   1      44.858  28.259  32.664  1.00  0.00    -0.354 N 
ATOM     67  N   UNL A   1      44.317  31.457  34.493  1.00  0.00    -0.248 NA
ATOM     68  C   UNL A   1      43.995  32.153  36.652  1.00  0.00     0.031 C 
ATOM     69  C   UNL A   1      46.138  30.041  32.317  1.00  0.00     0.029 A 
ATOM     70  C   UNL A   1      45.522  29.297  33.308  1.00  0.00     0.049 A 
ATOM     71  H   UNL A   1      44.366  27.540  33.121  1.00  0.00     0.167 HD
ATOM     72  C   UNL A   1      44.981  30.561  35.279  1.00  0.00     0.074 A 
ATOM     73  C   UNL A   1      44.837  31.102  36.620  1.00  0.00     0.031 C 
ATOM     74  C   UNL A   1      45.508  29.409  34.764  1.00  0.00     0.034 A 
BRANCH  61  75
ATOM     75  C   UNL A   1      44.659  26.728  29.260  1.00  0.00     0.023 A 
ATOM     76  C   UNL A   1      45.139  25.439  29.580  1.00  0.00     0.012 A 
ATOM     77  C   UNL A   1      44.777  27.123  27.909  1.00  0.00     0.148 A 
ATOM     78  C   UNL A   1      45.811  24.638  28.650  1.00  0.00     0.002 A 
ATOM     79  C   UNL A   1      45.517  26.361  27.000  1.00  0.00     0.091 A 
ATOM     80  F   UNL A   1      44.127  28.218  27.486  1.00  0.00    -0.205 F 
ATOM     81  C   UNL A   1      46.040  25.118  27.369  1.00  0.00     0.022 A 
BRANCH  79  82
ATOM     82  S   UNL A   1      45.968  26.993  25.374  1.00  0.00     0.127 S 
ATOM     83  O   UNL A   1      46.218  25.764  24.615  1.00  0.00    -0.237 OA
ATOM     84  O   UNL A   1      44.770  27.722  24.970  1.00  0.00    -0.237 OA
ATOM     85  O   UNL A   1      47.164  27.799  25.593  1.00  0.00    -0.744 OA
ENDBRANCH  79  82
ENDBRANCH  61  75
BRANCH  62  86
ATOM     86  C   UNL A   1      41.412  33.796  35.365  1.00  0.00     0.023 A 
ATOM     87  C   UNL A   1      40.992  35.075  34.923  1.00  0.00     0.012 A 
ATOM     88  C   UNL A   1      40.495  32.988  36.058  1.00  0.00     0.148 A 
ATOM     89  C   UNL A   1      39.668  35.494  35.064  1.00  0.00     0.002 A 
ATOM     90  C   UNL A   1      39.169  33.411  36.187  1.00  0.00     0.091 A 
ATOM     91  F   UNL A   1      40.898  31.783  36.481  1.00  0.00    -0.205 F 
ATOM     92  C   UNL A   1      38.750  34.647  35.667  1.00  0.00     0.022 A 
BRANCH  90  93
ATOM     93  S   UNL A   1      37.898  32.337  36.869  1.00  0.00     0.127 S 
ATOM     94  O   UNL A   1      38.420  32.074  38.205  1.00  0.00    -0.237 OA
ATOM     95  O   UNL A   1      36.714  33.193  36.825  1.00  0.00    -0.237 OA
ATOM     96  O   UNL A   1      37.847  31.205  35.954  1.00  0.00    -0.744 OA
ENDBRANCH  90  93
ENDBRANCH  62  86
BRANCH  74  97
ATOM     97  C   UNL A   1      46.033  28.266  35.597  1.00  0.00     0.023 A 
ATOM     98  C   UNL A   1      47.381  28.192  35.994  1.00  0.00     0.012 A 
ATOM     99  C   UNL A   1      45.139  27.320  36.156  1.00  0.00     0.148 A 
ATOM    100  C   UNL A   1      47.835  27.202  36.871  1.00  0.00     0.002 A 
ATOM    101  C   UNL A   1      45.576  26.404  37.108  1.00  0.00     0.091 A 
ATOM    102  F   UNL A   1      43.859  27.297  35.756  1.00  0.00    -0.205 F 
ATOM    103  C   UNL A   1      46.927  26.324  37.449  1.00  0.00     0.022 A 
BRANCH 101 104
ATOM    104  S   UNL A   1      44.385  25.424  38.033  1.00  0.00     0.127 S 
ATOM    105  O   UNL A   1      43.741  24.645  36.979  1.00  0.00    -0.237 OA
ATOM    106  O   UNL A   1      45.240  24.643  38.929  1.00  0.00    -0.237 OA
ATOM    107  O   UNL A   1      43.554  26.409  38.713  1.00  0.00    -0.744 OA
ENDBRANCH 101 104
ENDBRANCH  74  97
ENDBRANCH  48  49
ENDBRANCH  41  43
ENDBRANCH  40  41
ENDBRANCH  39  40
ENDBRANCH  38  39
ENDBRANCH  37  38
ENDBRANCH   1  37
TORSDOF 22
ENDMDL
MODEL 2
REMARK VINA RESULT:     -10.4      1.845      2.263
REMARK SMILES Cc1cc(OCC(=O)OCCOCCOC(=O)c2ccc(-c3c4nc(c(-c5cccc(S(=O)(=O)[O-])c5F)c5ccc([nH]5)c(-c5cccc(S(=O)(=O)[O-])c5F)c5nc(c(-c6cccc(S(=O)(=O)[O-])c6F)c6ccc3[nH]6)C=C5)C=C4)cc2)ccc1NC(=O)c1ccc(N2C(=O)[C@@H]3[C@H](C2=O)[C@H]2C=C[C@@H]3C2)cc1
REMARK SMILES IDX 11 1 10 2 9 3 7 4 8 5 6 6 5 7 4 8 1 9 2 10 3 11 83 12 82 13
REMARK SMILES IDX 81 14 84 15 85 16 86 18 87 19 88 20 104 21 89 22 103 23
REMARK SMILES IDX 90 24 91 25 92 26 96 27 93 28 94 29 95 30 97 31 101 32 98 33
REMARK SMILES IDX 100 34 102 35 99 36 12 37 13 38 14 39 15 40 16 41 17 42
REMARK SMILES IDX 18 43 19 44 80 45 20 46 79 47 21 48 22 49 23 50 73 51 24 52
REMARK SMILES IDX 78 53 72 54 74 55 25 56 77 57 71 58 70 59 26 61 58 62 38 63
REMARK SMILES IDX 57 64 39 65 42 66 56 67 75 68 40 69 41 70 55 72 76 73 43 74
REMARK SMILES IDX 27 75 28 76 36 77 29 78 31 79 37 80 30 81 32 82 33 83 34 84
REMARK SMILES IDX 35 85 59 86 60 87 68 88 61 89 63 90 69 91 62 92 64 93 65 94
REMARK SMILES IDX 66 95 67 96 44 97 45 98 53 99 46 100 48 101 54 102 47 103
REMARK SMILES IDX 49 104 50 105 51 106 52 107
REMARK H PARENT 84 17 74 60 42 71
REMARK Flexibility Score: inf
ROOT
ATOM      1  C   UNL A   1      35.278  32.369  27.570  1.00  0.00     0.202 C 
ENDROOT
BRANCH   1   2
ATOM      2  C   UNL A   1      34.150  31.410  27.916  1.00  0.00     0.261 C 
BRANCH   2   3
ATOM      3  O   UNL A   1      33.704  30.669  26.767  1.00  0.00    -0.461 OA
BRANCH   3   4
ATOM      4  C   UNL A   1      32.346  30.556  26.642  1.00  0.00     0.344 C 
ATOM      5  O   UNL A   1      31.523  31.460  26.686  1.00  0.00    -0.248 OA
BRANCH   4   6
ATOM      6  C   UNL A   1      31.941  29.095  26.518  1.00  0.00     0.351 C 
BRANCH   6   7
ATOM      7  O   UNL A   1      31.133  28.737  25.406  1.00  0.00    -0.482 OA
BRANCH   7   8
ATOM      8  C   UNL A   1      31.437  27.538  24.823  1.00  0.00     0.120 A 
ATOM      9  C   UNL A   1      31.424  24.021  26.189  1.00  0.00     0.047 C 
ATOM     10  C   UNL A   1      31.531  25.121  25.167  1.00  0.00    -0.024 A 
ATOM     11  C   UNL A   1      31.244  26.422  25.630  1.00  0.00     0.052 A 
ATOM     12  C   UNL A   1      32.015  24.946  23.848  1.00  0.00     0.044 A 
ATOM     13  C   UNL A   1      32.184  26.078  23.040  1.00  0.00     0.030 A 
ATOM     14  C   UNL A   1      31.896  27.366  23.521  1.00  0.00     0.048 A 
BRANCH  12  15
ATOM     15  N   UNL A   1      32.203  23.640  23.338  1.00  0.00    -0.322 N 
ATOM     16  C   UNL A   1      33.327  23.068  22.777  1.00  0.00     0.255 C 
ATOM     17  H   UNL A   1      31.415  23.052  23.391  1.00  0.00     0.170 HD
ATOM     18  O   UNL A   1      33.251  22.465  21.708  1.00  0.00    -0.269 OA
BRANCH  16  19
ATOM     19  C   UNL A   1      34.571  22.930  23.574  1.00  0.00     0.040 A 
ATOM     20  C   UNL A   1      35.821  23.216  23.034  1.00  0.00     0.016 A 
ATOM     21  C   UNL A   1      34.521  22.276  24.801  1.00  0.00     0.016 A 
ATOM     22  C   UNL A   1      36.995  22.977  23.785  1.00  0.00     0.027 A 
ATOM     23  C   UNL A   1      35.703  22.004  25.522  1.00  0.00     0.027 A 
ATOM     24  C   UNL A   1      36.969  22.408  25.073  1.00  0.00     0.052 A 
BRANCH  24  25
ATOM     25  N   UNL A   1      38.152  22.284  25.897  1.00  0.00    -0.250 N 
ATOM     26  C   UNL A   1      38.936  21.141  25.967  1.00  0.00     0.238 C 
ATOM     27  C   UNL A   1      38.667  23.288  26.698  1.00  0.00     0.238 C 
ATOM     28  O   UNL A   1      38.815  20.095  25.361  1.00  0.00    -0.274 OA
ATOM     29  C   UNL A   1      40.060  21.355  26.956  1.00  0.00     0.099 C 
ATOM     30  C   UNL A   1      39.951  22.836  27.339  1.00  0.00     0.099 C 
ATOM     31  O   UNL A   1      38.173  24.374  26.979  1.00  0.00    -0.274 OA
ATOM     32  C   UNL A   1      41.466  21.253  26.328  1.00  0.00     0.025 C 
ATOM     33  C   UNL A   1      41.264  23.438  26.787  1.00  0.00     0.025 C 
ATOM     34  C   UNL A   1      42.484  21.580  27.401  1.00  0.00    -0.027 C 
ATOM     35  C   UNL A   1      41.552  22.572  25.557  1.00  0.00     0.017 C 
ATOM     36  C   UNL A   1      42.376  22.893  27.665  1.00  0.00    -0.027 C 
ENDBRANCH  24  25
ENDBRANCH  16  19
ENDBRANCH  12  15
ENDBRANCH   7   8
ENDBRANCH   6   7
ENDBRANCH   4   6
ENDBRANCH   3   4
ENDBRANCH   2   3
ENDBRANCH   1   2
BRANCH   1  37
ATOM     37  O   UNL A   1      34.791  33.700  27.647  1.00  0.00    -0.374 OA
BRANCH  37  38
ATOM     38  C   UNL A   1      33.683  33.875  28.509  1.00  0.00     0.202 C 
BRANCH  38  39
ATOM     39  C   UNL A   1      34.036  34.640  29.781  1.00  0.00     0.261 C 
BRANCH  39  40
ATOM     40  O   UNL A   1      35.287  34.220  30.361  1.00  0.00    -0.460 OA
BRANCH  40  41
ATOM     41  C   UNL A   1      35.373  33.050  31.043  1.00  0.00     0.338 C 
ATOM     42  O   UNL A   1      34.489  32.652  31.782  1.00  0.00    -0.246 OA
BRANCH  41  43
ATOM     43  C   UNL A   1      36.530  32.229  30.626  1.00  0.00     0.060 A 
ATOM     44  C   UNL A   1      36.705  30.959  31.176  1.00  0.00     0.016 A 
ATOM     45  C   UNL A   1      37.491  32.756  29.758  1.00  0.00     0.016 A 
ATOM     46  C   UNL A   1      37.919  30.292  31.000  1.00  0.00     0.010 A 
ATOM     47  C   UNL A   1      38.720  32.127  29.640  1.00  0.00     0.010 A 
ATOM     48  C   UNL A   1      38.955  30.915  30.300  1.00  0.00    -0.014 A 
BRANCH  48  49
ATOM     49  C   UNL A   1      40.346  30.475  30.369  1.00  0.00     0.031 A 
ATOM     50  C   UNL A   1      40.911  29.457  29.461  1.00  0.00     0.074 A 
ATOM     51  C   UNL A   1      41.186  31.084  31.234  1.00  0.00     0.049 A 
ATOM     52  N   UNL A   1      41.899  28.692  29.796  1.00  0.00    -0.248 NA
ATOM     53  C   UNL A   1      40.394  29.191  28.126  1.00  0.00     0.031 C 
ATOM     54  C   UNL A   1      42.643  31.089  31.181  1.00  0.00     0.029 A 
ATOM     55  N   UNL A   1      40.879  31.712  32.438  1.00  0.00    -0.354 N 
ATOM     56  C   UNL A   1      42.310  28.030  28.662  1.00  0.00     0.074 A 
ATOM     57  C   UNL A   1      41.294  28.313  27.669  1.00  0.00     0.031 C 
ATOM     58  C   UNL A   1      43.116  31.487  32.370  1.00  0.00     0.029 A 
ATOM     59  C   UNL A   1      41.990  31.633  33.276  1.00  0.00     0.049 A 
ATOM     60  H   UNL A   1      40.020  32.142  32.660  1.00  0.00     0.167 HD
ATOM     61  C   UNL A   1      43.539  27.442  28.614  1.00  0.00     0.034 A 
ATOM     62  C   UNL A   1      41.943  31.262  34.582  1.00  0.00     0.034 A 
ATOM     63  C   UNL A   1      44.314  27.689  29.837  1.00  0.00     0.049 A 
ATOM     64  C   UNL A   1      42.767  30.022  34.828  1.00  0.00     0.074 A 
ATOM     65  C   UNL A   1      45.278  28.635  30.150  1.00  0.00     0.029 A 
ATOM     66  N   UNL A   1      43.953  27.089  31.039  1.00  0.00    -0.354 N 
ATOM     67  N   UNL A   1      43.455  29.426  33.895  1.00  0.00    -0.248 NA
ATOM     68  C   UNL A   1      42.857  29.316  36.104  1.00  0.00     0.031 C 
ATOM     69  C   UNL A   1      45.450  28.646  31.558  1.00  0.00     0.029 A 
ATOM     70  C   UNL A   1      44.607  27.696  32.106  1.00  0.00     0.049 A 
ATOM     71  H   UNL A   1      43.322  26.340  31.123  1.00  0.00     0.167 HD
ATOM     72  C   UNL A   1      43.884  28.210  34.340  1.00  0.00     0.074 A 
ATOM     73  C   UNL A   1      43.579  28.233  35.760  1.00  0.00     0.031 C 
ATOM     74  C   UNL A   1      44.366  27.262  33.480  1.00  0.00     0.034 A 
BRANCH  61  75
ATOM     75  C   UNL A   1      44.157  26.978  27.309  1.00  0.00     0.023 A 
ATOM     76  C   UNL A   1      43.825  25.692  26.829  1.00  0.00     0.012 A 
ATOM     77  C   UNL A   1      45.100  27.705  26.549  1.00  0.00     0.148 A 
ATOM     78  C   UNL A   1      44.475  25.108  25.737  1.00  0.00     0.002 A 
ATOM     79  C   UNL A   1      45.808  27.095  25.508  1.00  0.00     0.091 A 
ATOM     80  F   UNL A   1      45.278  29.011  26.799  1.00  0.00    -0.205 F 
ATOM     81  C   UNL A   1      45.501  25.793  25.103  1.00  0.00     0.022 A 
BRANCH  79  82
ATOM     82  S   UNL A   1      47.240  27.878  24.746  1.00  0.00     0.127 S 
ATOM     83  O   UNL A   1      47.608  26.917  23.701  1.00  0.00    -0.237 OA
ATOM     84  O   UNL A   1      46.690  29.135  24.247  1.00  0.00    -0.237 OA
ATOM     85  O   UNL A   1      48.230  27.990  25.811  1.00  0.00    -0.744 OA
ENDBRANCH  79  82
ENDBRANCH  61  75
BRANCH  62  86
ATOM     86  C   UNL A   1      40.704  31.705  35.277  1.00  0.00     0.023 A 
ATOM     87  C   UNL A   1      39.541  30.947  34.995  1.00  0.00     0.012 A 
ATOM     88  C   UNL A   1      40.724  32.504  36.432  1.00  0.00     0.148 A 
ATOM     89  C   UNL A   1      38.472  30.895  35.891  1.00  0.00     0.002 A 
ATOM     90  C   UNL A   1      39.653  32.440  37.329  1.00  0.00     0.091 A 
ATOM     91  F   UNL A   1      41.821  33.226  36.692  1.00  0.00    -0.205 F 
ATOM     92  C   UNL A   1      38.544  31.617  37.074  1.00  0.00     0.022 A 
BRANCH  90  93
ATOM     93  S   UNL A   1      39.708  33.267  38.925  1.00  0.00     0.127 S 
ATOM     94  O   UNL A   1      40.160  34.602  38.550  1.00  0.00    -0.237 OA
ATOM     95  O   UNL A   1      38.315  33.186  39.363  1.00  0.00    -0.237 OA
ATOM     96  O   UNL A   1      40.629  32.466  39.720  1.00  0.00    -0.744 OA
ENDBRANCH  90  93
ENDBRANCH  62  86
BRANCH  74  97
ATOM     97  C   UNL A   1      44.626  25.824  33.856  1.00  0.00     0.023 A 
ATOM     98  C   UNL A   1      43.795  24.778  33.414  1.00  0.00     0.012 A 
ATOM     99  C   UNL A   1      45.823  25.465  34.522  1.00  0.00     0.148 A 
ATOM    100  C   UNL A   1      44.112  23.438  33.656  1.00  0.00     0.002 A 
ATOM    101  C   UNL A   1      46.184  24.130  34.668  1.00  0.00     0.091 A 
ATOM    102  F   UNL A   1      46.615  26.423  35.029  1.00  0.00    -0.205 F 
ATOM    103  C   UNL A   1      45.320  23.112  34.260  1.00  0.00     0.022 A 
BRANCH 101 104
ATOM    104  S   UNL A   1      47.836  23.695  35.230  1.00  0.00     0.127 S 
ATOM    105  O   UNL A   1      47.876  24.293  36.561  1.00  0.00    -0.237 OA
ATOM    106  O   UNL A   1      47.803  22.231  35.222  1.00  0.00    -0.237 OA
ATOM    107  O   UNL A   1      48.724  24.275  34.231  1.00  0.00    -0.744 OA
ENDBRANCH 101 104
ENDBRANCH  74  97
ENDBRANCH  48  49
ENDBRANCH  41  43
ENDBRANCH  40  41
ENDBRANCH  39  40
ENDBRANCH  38  39
ENDBRANCH  37  38
ENDBRANCH   1  37
TORSDOF 22
ENDMDL
MODEL 3
REMARK VINA RESULT:     -10.3      4.188      9.494
REMARK SMILES Cc1cc(OCC(=O)OCCOCCOC(=O)c2ccc(-c3c4nc(c(-c5cccc(S(=O)(=O)[O-])c5F)c5ccc([nH]5)c(-c5cccc(S(=O)(=O)[O-])c5F)c5nc(c(-c6cccc(S(=O)(=O)[O-])c6F)c6ccc3[nH]6)C=C5)C=C4)cc2)ccc1NC(=O)c1ccc(N2C(=O)[C@@H]3[C@H](C2=O)[C@H]2C=C[C@@H]3C2)cc1
REMARK SMILES IDX 11 1 10 2 9 3 7 4 8 5 6 6 5 7 4 8 1 9 2 10 3 11 83 12 82 13
REMARK SMILES IDX 81 14 84 15 85 16 86 18 87 19 88 20 104 21 89 22 103 23
REMARK SMILES IDX 90 24 91 25 92 26 96 27 93 28 94 29 95 30 97 31 101 32 98 33
REMARK SMILES IDX 100 34 102 35 99 36 12 37 13 38 14 39 15 40 16 41 17 42
REMARK SMILES IDX 18 43 19 44 80 45 20 46 79 47 21 48 22 49 23 50 73 51 24 52
REMARK SMILES IDX 78 53 72 54 74 55 25 56 77 57 71 58 70 59 26 61 58 62 38 63
REMARK SMILES IDX 57 64 39 65 42 66 56 67 75 68 40 69 41 70 55 72 76 73 43 74
REMARK SMILES IDX 27 75 28 76 36 77 29 78 31 79 37 80 30 81 32 82 33 83 34 84
REMARK SMILES IDX 35 85 59 86 60 87 68 88 61 89 63 90 69 91 62 92 64 93 65 94
REMARK SMILES IDX 66 95 67 96 44 97 45 98 53 99 46 100 48 101 54 102 47 103
REMARK SMILES IDX 49 104 50 105 51 106 52 107
REMARK H PARENT 84 17 74 60 42 71
REMARK Flexibility Score: inf
ROOT
ATOM      1  C   UNL A   1      33.345  28.446  26.716  1.00  0.00     0.202 C 
ENDROOT
BRANCH   1   2
ATOM      2  C   UNL A   1      33.548  28.172  25.234  1.00  0.00     0.261 C 
BRANCH   2   3
ATOM      3  O   UNL A   1      32.302  28.155  24.515  1.00  0.00    -0.461 OA
BRANCH   3   4
ATOM      4  C   UNL A   1      32.111  27.065  23.712  1.00  0.00     0.344 C 
ATOM      5  O   UNL A   1      31.196  26.883  22.920  1.00  0.00    -0.248 OA
BRANCH   4   6
ATOM      6  C   UNL A   1      33.171  26.008  23.984  1.00  0.00     0.351 C 
BRANCH   6   7
ATOM      7  O   UNL A   1      32.729  24.766  24.511  1.00  0.00    -0.482 OA
BRANCH   7   8
ATOM      8  C   UNL A   1      33.720  23.921  24.931  1.00  0.00     0.120 A 
ATOM      9  C   UNL A   1      36.798  22.615  23.181  1.00  0.00     0.047 C 
ATOM     10  C   UNL A   1      35.832  22.863  24.311  1.00  0.00    -0.024 A 
ATOM     11  C   UNL A   1      34.751  23.720  24.020  1.00  0.00     0.052 A 
ATOM     12  C   UNL A   1      35.875  22.201  25.561  1.00  0.00     0.044 A 
ATOM     13  C   UNL A   1      34.840  22.431  26.477  1.00  0.00     0.030 A 
ATOM     14  C   UNL A   1      33.770  23.286  26.167  1.00  0.00     0.048 A 
BRANCH  12  15
ATOM     15  N   UNL A   1      37.007  21.426  25.905  1.00  0.00    -0.322 N 
ATOM     16  C   UNL A   1      38.348  21.732  25.799  1.00  0.00     0.255 C 
ATOM     17  H   UNL A   1      36.808  20.535  26.275  1.00  0.00     0.170 HD
ATOM     18  O   UNL A   1      39.129  20.938  25.275  1.00  0.00    -0.269 OA
BRANCH  16  19
ATOM     19  C   UNL A   1      38.915  22.879  26.550  1.00  0.00     0.040 A 
ATOM     20  C   UNL A   1      38.435  24.174  26.381  1.00  0.00     0.016 A 
ATOM     21  C   UNL A   1      40.101  22.706  27.257  1.00  0.00     0.016 A 
ATOM     22  C   UNL A   1      39.062  25.260  27.034  1.00  0.00     0.027 A 
ATOM     23  C   UNL A   1      40.742  23.805  27.869  1.00  0.00     0.027 A 
ATOM     24  C   UNL A   1      40.207  25.101  27.838  1.00  0.00     0.052 A 
BRANCH  24  25
ATOM     25  N   UNL A   1      40.774  26.184  28.614  1.00  0.00    -0.250 N 
ATOM     26  C   UNL A   1      42.094  26.603  28.519  1.00  0.00     0.238 C 
ATOM     27  C   UNL A   1      40.074  26.953  29.527  1.00  0.00     0.238 C 
ATOM     28  O   UNL A   1      42.972  26.195  27.786  1.00  0.00    -0.274 OA
ATOM     29  C   UNL A   1      42.343  27.724  29.503  1.00  0.00     0.099 C 
ATOM     30  C   UNL A   1      40.956  28.041  30.076  1.00  0.00     0.099 C 
ATOM     31  O   UNL A   1      38.938  26.790  29.956  1.00  0.00    -0.274 OA
ATOM     32  C   UNL A   1      42.764  29.051  28.837  1.00  0.00     0.025 C 
ATOM     33  C   UNL A   1      40.693  29.481  29.578  1.00  0.00     0.025 C 
ATOM     34  C   UNL A   1      42.887  30.102  29.921  1.00  0.00    -0.027 C 
ATOM     35  C   UNL A   1      41.438  29.527  28.241  1.00  0.00     0.017 C 
ATOM     36  C   UNL A   1      41.644  30.373  30.354  1.00  0.00    -0.027 C 
ENDBRANCH  24  25
ENDBRANCH  16  19
ENDBRANCH  12  15
ENDBRANCH   7   8
ENDBRANCH   6   7
ENDBRANCH   4   6
ENDBRANCH   3   4
ENDBRANCH   2   3
ENDBRANCH   1   2
BRANCH   1  37
ATOM     37  O   UNL A   1      33.979  29.671  27.049  1.00  0.00    -0.374 OA
BRANCH  37  38
ATOM     38  C   UNL A   1      35.198  29.534  27.754  1.00  0.00     0.202 C 
BRANCH  38  39
ATOM     39  C   UNL A   1      36.070  30.784  27.682  1.00  0.00     0.261 C 
BRANCH  39  40
ATOM     40  O   UNL A   1      35.334  31.998  27.930  1.00  0.00    -0.460 OA
BRANCH  40  41
ATOM     41  C   UNL A   1      35.310  32.548  29.171  1.00  0.00     0.338 C 
ATOM     42  O   UNL A   1      34.280  32.695  29.807  1.00  0.00    -0.246 OA
BRANCH  41  43
ATOM     43  C   UNL A   1      36.663  32.738  29.737  1.00  0.00     0.060 A 
ATOM     44  C   UNL A   1      37.244  31.713  30.485  1.00  0.00     0.016 A 
ATOM     45  C   UNL A   1      37.316  33.966  29.605  1.00  0.00     0.016 A 
ATOM     46  C   UNL A   1      38.388  31.974  31.242  1.00  0.00     0.010 A 
ATOM     47  C   UNL A   1      38.410  34.247  30.408  1.00  0.00     0.010 A 
ATOM     48  C   UNL A   1      38.921  33.266  31.266  1.00  0.00    -0.014 A 
BRANCH  48  49
ATOM     49  C   UNL A   1      39.867  33.724  32.280  1.00  0.00     0.031 A 
ATOM     50  C   UNL A   1      39.441  34.272  33.584  1.00  0.00     0.074 A 
ATOM     51  C   UNL A   1      41.190  33.558  32.069  1.00  0.00     0.049 A 
ATOM     52  N   UNL A   1      40.148  35.128  34.248  1.00  0.00    -0.248 NA
ATOM     53  C   UNL A   1      38.179  33.934  34.227  1.00  0.00     0.031 C 
ATOM     54  C   UNL A   1      42.245  33.563  33.075  1.00  0.00     0.029 A 
ATOM     55  N   UNL A   1      41.868  33.494  30.854  1.00  0.00    -0.354 N 
ATOM     56  C   UNL A   1      39.579  35.254  35.493  1.00  0.00     0.074 A 
ATOM     57  C   UNL A   1      38.314  34.554  35.405  1.00  0.00     0.031 C 
ATOM     58  C   UNL A   1      43.426  33.718  32.461  1.00  0.00     0.029 A 
ATOM     59  C   UNL A   1      43.173  33.947  31.049  1.00  0.00     0.049 A 
ATOM     60  H   UNL A   1      41.490  33.181  30.000  1.00  0.00     0.167 HD
ATOM     61  C   UNL A   1      40.290  35.793  36.524  1.00  0.00     0.034 A 
ATOM     62  C   UNL A   1      43.807  34.836  30.242  1.00  0.00     0.034 A 
ATOM     63  C   UNL A   1      41.670  36.106  36.135  1.00  0.00     0.049 A 
ATOM     64  C   UNL A   1      44.197  36.081  31.001  1.00  0.00     0.074 A 
ATOM     65  C   UNL A   1      42.858  35.404  36.279  1.00  0.00     0.029 A 
ATOM     66  N   UNL A   1      41.942  37.151  35.259  1.00  0.00    -0.354 N 
ATOM     67  N   UNL A   1      43.974  36.239  32.275  1.00  0.00    -0.248 NA
ATOM     68  C   UNL A   1      44.817  37.264  30.407  1.00  0.00     0.031 C 
ATOM     69  C   UNL A   1      43.830  35.995  35.433  1.00  0.00     0.029 A 
ATOM     70  C   UNL A   1      43.247  37.070  34.786  1.00  0.00     0.049 A 
ATOM     71  H   UNL A   1      41.298  37.852  35.007  1.00  0.00     0.167 HD
ATOM     72  C   UNL A   1      44.197  37.538  32.628  1.00  0.00     0.074 A 
ATOM     73  C   UNL A   1      44.825  38.114  31.451  1.00  0.00     0.031 C 
ATOM     74  C   UNL A   1      43.759  38.041  33.822  1.00  0.00     0.034 A 
BRANCH  61  75
ATOM     75  C   UNL A   1      39.831  35.672  37.966  1.00  0.00     0.023 A 
ATOM     76  C   UNL A   1      39.574  36.857  38.689  1.00  0.00     0.012 A 
ATOM     77  C   UNL A   1      39.696  34.461  38.680  1.00  0.00     0.148 A 
ATOM     78  C   UNL A   1      39.321  36.856  40.065  1.00  0.00     0.002 A 
ATOM     79  C   UNL A   1      39.524  34.461  40.068  1.00  0.00     0.091 A 
ATOM     80  F   UNL A   1      39.682  33.301  38.007  1.00  0.00    -0.205 F 
ATOM     81  C   UNL A   1      39.341  35.659  40.765  1.00  0.00     0.022 A 
BRANCH  79  82
ATOM     82  S   UNL A   1      39.684  32.956  41.046  1.00  0.00     0.127 S 
ATOM     83  O   UNL A   1      39.803  33.477  42.411  1.00  0.00    -0.237 OA
ATOM     84  O   UNL A   1      38.432  32.260  40.769  1.00  0.00    -0.237 OA
ATOM     85  O   UNL A   1      40.898  32.309  40.560  1.00  0.00    -0.744 OA
ENDBRANCH  79  82
ENDBRANCH  61  75
BRANCH  62  86
ATOM     86  C   UNL A   1      43.433  34.703  28.808  1.00  0.00     0.023 A 
ATOM     87  C   UNL A   1      42.381  35.546  28.371  1.00  0.00     0.012 A 
ATOM     88  C   UNL A   1      44.288  34.139  27.847  1.00  0.00     0.148 A 
ATOM     89  C   UNL A   1      42.250  35.909  27.030  1.00  0.00     0.002 A 
ATOM     90  C   UNL A   1      44.157  34.515  26.507  1.00  0.00     0.091 A 
ATOM     91  F   UNL A   1      45.277  33.337  28.263  1.00  0.00    -0.205 F 
ATOM     92  C   UNL A   1      43.160  35.418  26.104  1.00  0.00     0.022 A 
BRANCH  90  93
ATOM     93  S   UNL A   1      45.348  34.002  25.262  1.00  0.00     0.127 S 
ATOM     94  O   UNL A   1      45.608  32.621  25.654  1.00  0.00    -0.237 OA
ATOM     95  O   UNL A   1      44.587  34.160  24.023  1.00  0.00    -0.237 OA
ATOM     96  O   UNL A   1      46.453  34.940  25.405  1.00  0.00    -0.744 OA
ENDBRANCH  90  93
ENDBRANCH  62  86
BRANCH  74  97
ATOM     97  C   UNL A   1      43.748  39.508  34.176  1.00  0.00     0.023 A 
ATOM     98  C   UNL A   1      42.874  40.417  33.552  1.00  0.00     0.012 A 
ATOM     99  C   UNL A   1      44.499  39.982  35.278  1.00  0.00     0.148 A 
ATOM    100  C   UNL A   1      42.776  41.746  33.972  1.00  0.00     0.002 A 
ATOM    101  C   UNL A   1      44.322  41.276  35.757  1.00  0.00     0.091 A 
ATOM    102  F   UNL A   1      45.402  39.180  35.863  1.00  0.00    -0.205 F 
ATOM    103  C   UNL A   1      43.480  42.170  35.092  1.00  0.00     0.022 A 
BRANCH 101 104
ATOM    104  S   UNL A   1      45.040  41.765  37.332  1.00  0.00     0.127 S 
ATOM    105  O   UNL A   1      44.492  40.765  38.244  1.00  0.00    -0.237 OA
ATOM    106  O   UNL A   1      46.477  41.637  37.083  1.00  0.00    -0.237 OA
ATOM    107  O   UNL A   1      44.589  43.137  37.526  1.00  0.00    -0.744 OA
ENDBRANCH 101 104
ENDBRANCH  74  97
ENDBRANCH  48  49
ENDBRANCH  41  43
ENDBRANCH  40  41
ENDBRANCH  39  40
ENDBRANCH  38  39
ENDBRANCH  37  38
ENDBRANCH   1  37
TORSDOF 22
ENDMDL
