MODEL 1
REMARK VINA RESULT:     -12.1      0.000      0.000
REMARK SMILES O=C(OCCOCCOC(=O)c1ccc2c(c1O)C(=O)c1ccccc1C2=O)c1ccc(-c2c3nc(c(-c4cccc(S(=O)(=O)[O-])c4F)c4ccc([nH]4)c(-c4cccc(S(=O)(=O)[O-])c4F)c4nc(c(-c5cccc(S(=O)(=O)[O-])c5F)c5ccc2[nH]5)C=C4)C=C3)cc1
REMARK SMILES IDX 5 1 4 2 3 3 2 4 1 5 29 6 30 7 91 8 31 9 90 10 32 11 33 12
REMARK SMILES IDX 34 13 84 14 35 15 89 16 83 17 85 18 36 19 88 20 82 21 81 22
REMARK SMILES IDX 37 24 69 25 49 26 68 27 50 28 53 29 67 30 86 31 51 32 52 33
REMARK SMILES IDX 66 35 87 36 54 37 38 38 39 39 47 40 40 41 42 42 48 43 41 44
REMARK SMILES IDX 43 45 44 46 45 47 46 48 70 49 71 50 79 51 72 52 74 53 80 54
REMARK SMILES IDX 73 55 75 56 76 57 77 58 78 59 55 60 56 61 64 62 57 63 59 64
REMARK SMILES IDX 65 65 58 66 60 67 61 68 62 69 63 70 6 71 7 72 8 73 9 74
REMARK SMILES IDX 10 75 11 76 12 77 13 78 17 79 14 80 16 81 15 82 19 83 27 84
REMARK SMILES IDX 20 85 21 86 26 87 28 88 22 89 25 90 23 91 24 92 18 93
REMARK H PARENT 85 23 53 34 18 94
REMARK Flexibility Score: inf
ROOT
ATOM      1  C   UNL A   1      31.799  28.984  24.184  1.00  0.00     0.202 C 
ENDROOT
BRANCH   1   2
ATOM      2  C   UNL A   1      31.678  29.956  25.359  1.00  0.00     0.261 C 
BRANCH   2   3
ATOM      3  O   UNL A   1      32.976  30.439  25.740  1.00  0.00    -0.460 OA
BRANCH   3   4
ATOM      4  C   UNL A   1      33.307  31.150  26.845  1.00  0.00     0.338 C 
ATOM      5  O   UNL A   1      32.613  32.117  27.150  1.00  0.00    -0.246 OA
BRANCH   4   6
ATOM      6  C   UNL A   1      34.492  30.831  27.698  1.00  0.00     0.060 A 
ATOM      7  C   UNL A   1      34.733  29.582  28.273  1.00  0.00     0.016 A 
ATOM      8  C   UNL A   1      35.479  31.820  27.837  1.00  0.00     0.016 A 
ATOM      9  C   UNL A   1      35.878  29.318  28.999  1.00  0.00     0.010 A 
ATOM     10  C   UNL A   1      36.663  31.552  28.531  1.00  0.00     0.010 A 
ATOM     11  C   UNL A   1      36.858  30.294  29.113  1.00  0.00    -0.014 A 
BRANCH  11  12
ATOM     12  C   UNL A   1      38.048  29.951  29.902  1.00  0.00     0.031 A 
ATOM     13  C   UNL A   1      39.080  29.070  29.282  1.00  0.00     0.074 A 
ATOM     14  C   UNL A   1      38.231  30.546  31.095  1.00  0.00     0.049 A 
ATOM     15  N   UNL A   1      40.192  28.626  29.794  1.00  0.00    -0.248 NA
ATOM     16  C   UNL A   1      38.841  28.645  27.890  1.00  0.00     0.031 C 
ATOM     17  C   UNL A   1      37.310  31.512  31.705  1.00  0.00     0.029 A 
ATOM     18  N   UNL A   1      39.252  30.446  31.999  1.00  0.00    -0.354 N 
ATOM     19  C   UNL A   1      40.756  27.819  28.816  1.00  0.00     0.074 A 
ATOM     20  C   UNL A   1      39.885  27.863  27.663  1.00  0.00     0.031 C 
ATOM     21  C   UNL A   1      37.808  31.911  32.886  1.00  0.00     0.029 A 
ATOM     22  C   UNL A   1      39.039  31.176  33.146  1.00  0.00     0.049 A 
ATOM     23  H   UNL A   1      40.059  29.905  31.845  1.00  0.00     0.167 HD
ATOM     24  C   UNL A   1      41.894  27.098  28.894  1.00  0.00     0.034 A 
ATOM     25  C   UNL A   1      39.742  31.198  34.293  1.00  0.00     0.034 A 
ATOM     26  C   UNL A   1      42.737  27.091  30.055  1.00  0.00     0.049 A 
ATOM     27  C   UNL A   1      40.973  30.335  34.367  1.00  0.00     0.074 A 
ATOM     28  C   UNL A   1      43.902  26.381  30.270  1.00  0.00     0.029 A 
ATOM     29  N   UNL A   1      42.491  27.826  31.206  1.00  0.00    -0.354 N 
ATOM     30  N   UNL A   1      41.515  29.593  33.429  1.00  0.00    -0.248 NA
ATOM     31  C   UNL A   1      41.694  30.315  35.644  1.00  0.00     0.031 C 
ATOM     32  C   UNL A   1      44.341  26.660  31.568  1.00  0.00     0.029 A 
ATOM     33  C   UNL A   1      43.472  27.574  32.146  1.00  0.00     0.049 A 
ATOM     34  H   UNL A   1      41.730  28.436  31.335  1.00  0.00     0.167 HD
ATOM     35  C   UNL A   1      42.653  29.035  33.995  1.00  0.00     0.074 A 
ATOM     36  C   UNL A   1      42.738  29.553  35.347  1.00  0.00     0.031 C 
ATOM     37  C   UNL A   1      43.538  28.157  33.463  1.00  0.00     0.034 A 
BRANCH  24  38
ATOM     38  C   UNL A   1      42.245  26.223  27.725  1.00  0.00     0.023 A 
ATOM     39  C   UNL A   1      43.016  26.727  26.659  1.00  0.00     0.012 A 
ATOM     40  C   UNL A   1      41.814  24.882  27.698  1.00  0.00     0.148 A 
ATOM     41  C   UNL A   1      43.335  25.914  25.572  1.00  0.00     0.002 A 
ATOM     42  C   UNL A   1      42.170  24.067  26.632  1.00  0.00     0.091 A 
ATOM     43  F   UNL A   1      41.056  24.437  28.709  1.00  0.00    -0.205 F 
ATOM     44  C   UNL A   1      42.920  24.583  25.563  1.00  0.00     0.022 A 
BRANCH  42  45
ATOM     45  S   UNL A   1      41.735  22.327  26.556  1.00  0.00     0.127 S 
ATOM     46  O   UNL A   1      42.298  21.826  27.809  1.00  0.00    -0.237 OA
ATOM     47  O   UNL A   1      40.274  22.383  26.521  1.00  0.00    -0.237 OA
ATOM     48  O   UNL A   1      42.359  21.805  25.348  1.00  0.00    -0.744 OA
ENDBRANCH  42  45
ENDBRANCH  24  38
BRANCH  25  49
ATOM     49  C   UNL A   1      39.285  32.010  35.458  1.00  0.00     0.023 A 
ATOM     50  C   UNL A   1      38.362  31.471  36.375  1.00  0.00     0.012 A 
ATOM     51  C   UNL A   1      39.749  33.327  35.654  1.00  0.00     0.148 A 
ATOM     52  C   UNL A   1      37.877  32.241  37.434  1.00  0.00     0.002 A 
ATOM     53  C   UNL A   1      39.309  34.067  36.746  1.00  0.00     0.091 A 
ATOM     54  F   UNL A   1      40.610  33.840  34.763  1.00  0.00    -0.205 F 
ATOM     55  C   UNL A   1      38.357  33.535  37.627  1.00  0.00     0.022 A 
BRANCH  53  56
ATOM     56  S   UNL A   1      39.978  35.689  37.131  1.00  0.00     0.127 S 
ATOM     57  O   UNL A   1      39.279  36.015  38.370  1.00  0.00    -0.237 OA
ATOM     58  O   UNL A   1      41.405  35.403  37.286  1.00  0.00    -0.237 OA
ATOM     59  O   UNL A   1      39.661  36.523  35.979  1.00  0.00    -0.744 OA
ENDBRANCH  53  56
ENDBRANCH  25  49
BRANCH  37  60
ATOM     60  C   UNL A   1      44.689  27.736  34.332  1.00  0.00     0.023 A 
ATOM     61  C   UNL A   1      45.856  28.522  34.381  1.00  0.00     0.012 A 
ATOM     62  C   UNL A   1      44.570  26.606  35.163  1.00  0.00     0.148 A 
ATOM     63  C   UNL A   1      46.904  28.172  35.227  1.00  0.00     0.002 A 
ATOM     64  C   UNL A   1      45.595  26.298  36.046  1.00  0.00     0.091 A 
ATOM     65  F   UNL A   1      43.456  25.865  35.082  1.00  0.00    -0.205 F 
ATOM     66  C   UNL A   1      46.768  27.071  36.070  1.00  0.00     0.022 A 
BRANCH  64  67
ATOM     67  S   UNL A   1      45.457  24.969  37.244  1.00  0.00     0.127 S 
ATOM     68  O   UNL A   1      44.289  25.386  38.018  1.00  0.00    -0.237 OA
ATOM     69  O   UNL A   1      45.239  23.803  36.388  1.00  0.00    -0.237 OA
ATOM     70  O   UNL A   1      46.717  24.954  37.976  1.00  0.00    -0.744 OA
ENDBRANCH  64  67
ENDBRANCH  37  60
ENDBRANCH  11  12
ENDBRANCH   4   6
ENDBRANCH   3   4
ENDBRANCH   2   3
ENDBRANCH   1   2
BRANCH   1  71
ATOM     71  O   UNL A   1      32.965  29.145  23.381  1.00  0.00    -0.374 OA
BRANCH  71  72
ATOM     72  C   UNL A   1      33.846  28.021  23.275  1.00  0.00     0.202 C 
BRANCH  72  73
ATOM     73  C   UNL A   1      33.593  27.333  21.929  1.00  0.00     0.261 C 
BRANCH  73  74
ATOM     74  O   UNL A   1      33.852  25.931  22.108  1.00  0.00    -0.460 OA
BRANCH  74  75
ATOM     75  C   UNL A   1      32.849  25.251  22.725  1.00  0.00     0.342 C 
ATOM     76  O   UNL A   1      31.652  25.459  22.650  1.00  0.00    -0.246 OA
BRANCH  75  77
ATOM     77  C   UNL A   1      33.444  24.056  23.366  1.00  0.00     0.102 A 
ATOM     78  C   UNL A   1      34.844  24.025  23.496  1.00  0.00     0.020 A 
ATOM     79  C   UNL A   1      32.671  22.988  23.839  1.00  0.00     0.142 A 
ATOM     80  C   UNL A   1      35.474  22.918  24.062  1.00  0.00     0.014 A 
ATOM     81  C   UNL A   1      33.306  21.865  24.372  1.00  0.00     0.076 A 
ATOM     82  C   UNL A   1      34.704  21.823  24.459  1.00  0.00     0.037 A 
ATOM     83  C   UNL A   1      32.541  20.671  24.793  1.00  0.00     0.198 C 
ATOM     84  C   UNL A   1      35.377  20.570  24.866  1.00  0.00     0.194 C 
ATOM     85  O   UNL A   1      31.402  20.717  25.235  1.00  0.00    -0.288 OA
ATOM     86  C   UNL A   1      33.217  19.373  24.670  1.00  0.00     0.034 A 
ATOM     87  C   UNL A   1      34.607  19.317  24.740  1.00  0.00     0.034 A 
ATOM     88  O   UNL A   1      36.550  20.562  25.211  1.00  0.00    -0.289 OA
ATOM     89  C   UNL A   1      32.465  18.217  24.456  1.00  0.00     0.013 A 
ATOM     90  C   UNL A   1      35.260  18.089  24.621  1.00  0.00     0.013 A 
ATOM     91  C   UNL A   1      33.119  16.997  24.301  1.00  0.00     0.001 A 
ATOM     92  C   UNL A   1      34.512  16.931  24.392  1.00  0.00     0.001 A 
BRANCH  79  93
ATOM     93  O   UNL A   1      31.306  22.982  23.727  1.00  0.00    -0.506 OA
ATOM     94  H   UNL A   1      30.851  22.174  23.600  1.00  0.00     0.293 HD
ENDBRANCH  79  93
ENDBRANCH  75  77
ENDBRANCH  74  75
ENDBRANCH  73  74
ENDBRANCH  72  73
ENDBRANCH  71  72
ENDBRANCH   1  71
TORSDOF 18
ENDMDL
MODEL 2
REMARK VINA RESULT:     -11.8      1.412      7.642
REMARK SMILES O=C(OCCOCCOC(=O)c1ccc2c(c1O)C(=O)c1ccccc1C2=O)c1ccc(-c2c3nc(c(-c4cccc(S(=O)(=O)[O-])c4F)c4ccc([nH]4)c(-c4cccc(S(=O)(=O)[O-])c4F)c4nc(c(-c5cccc(S(=O)(=O)[O-])c5F)c5ccc2[nH]5)C=C4)C=C3)cc1
REMARK SMILES IDX 5 1 4 2 3 3 2 4 1 5 29 6 30 7 91 8 31 9 90 10 32 11 33 12
REMARK SMILES IDX 34 13 84 14 35 15 89 16 83 17 85 18 36 19 88 20 82 21 81 22
REMARK SMILES IDX 37 24 69 25 49 26 68 27 50 28 53 29 67 30 86 31 51 32 52 33
REMARK SMILES IDX 66 35 87 36 54 37 38 38 39 39 47 40 40 41 42 42 48 43 41 44
REMARK SMILES IDX 43 45 44 46 45 47 46 48 70 49 71 50 79 51 72 52 74 53 80 54
REMARK SMILES IDX 73 55 75 56 76 57 77 58 78 59 55 60 56 61 64 62 57 63 59 64
REMARK SMILES IDX 65 65 58 66 60 67 61 68 62 69 63 70 6 71 7 72 8 73 9 74
REMARK SMILES IDX 10 75 11 76 12 77 13 78 17 79 14 80 16 81 15 82 19 83 27 84
REMARK SMILES IDX 20 85 21 86 26 87 28 88 22 89 25 90 23 91 24 92 18 93
REMARK H PARENT 85 23 53 34 18 94
REMARK Flexibility Score: inf
ROOT
ATOM      1  C   UNL A   1      31.367  29.246  24.693  1.00  0.00     0.202 C 
ENDROOT
BRANCH   1   2
ATOM      2  C   UNL A   1      31.763  29.717  26.093  1.00  0.00     0.261 C 
BRANCH   2   3
ATOM      3  O   UNL A   1      32.727  30.779  26.006  1.00  0.00    -0.460 OA
BRANCH   3   4
ATOM      4  C   UNL A   1      33.285  31.481  27.022  1.00  0.00     0.338 C 
ATOM      5  O   UNL A   1      32.724  32.505  27.405  1.00  0.00    -0.246 OA
BRANCH   4   6
ATOM      6  C   UNL A   1      34.565  31.083  27.684  1.00  0.00     0.060 A 
ATOM      7  C   UNL A   1      35.575  31.977  28.043  1.00  0.00     0.016 A 
ATOM      8  C   UNL A   1      34.708  29.740  28.067  1.00  0.00     0.016 A 
ATOM      9  C   UNL A   1      36.711  31.568  28.715  1.00  0.00     0.010 A 
ATOM     10  C   UNL A   1      35.832  29.321  28.787  1.00  0.00     0.010 A 
ATOM     11  C   UNL A   1      36.834  30.243  29.109  1.00  0.00    -0.014 A 
BRANCH  11  12
ATOM     12  C   UNL A   1      38.067  29.873  29.814  1.00  0.00     0.031 A 
ATOM     13  C   UNL A   1      38.269  30.378  31.204  1.00  0.00     0.074 A 
ATOM     14  C   UNL A   1      38.904  28.989  29.241  1.00  0.00     0.049 A 
ATOM     15  N   UNL A   1      39.281  30.195  32.004  1.00  0.00    -0.248 NA
ATOM     16  C   UNL A   1      37.176  31.182  31.783  1.00  0.00     0.031 C 
ATOM     17  C   UNL A   1      38.702  28.366  27.928  1.00  0.00     0.029 A 
ATOM     18  N   UNL A   1      40.078  28.446  29.687  1.00  0.00    -0.354 N 
ATOM     19  C   UNL A   1      38.979  30.910  33.153  1.00  0.00     0.074 A 
ATOM     20  C   UNL A   1      37.674  31.501  32.968  1.00  0.00     0.031 C 
ATOM     21  C   UNL A   1      39.722  27.530  27.674  1.00  0.00     0.029 A 
ATOM     22  C   UNL A   1      40.679  27.616  28.769  1.00  0.00     0.049 A 
ATOM     23  H   UNL A   1      40.455  28.632  30.577  1.00  0.00     0.167 HD
ATOM     24  C   UNL A   1      39.744  31.064  34.255  1.00  0.00     0.034 A 
ATOM     25  C   UNL A   1      41.893  27.036  28.800  1.00  0.00     0.034 A 
ATOM     26  C   UNL A   1      41.033  30.450  34.405  1.00  0.00     0.049 A 
ATOM     27  C   UNL A   1      42.744  27.278  30.018  1.00  0.00     0.074 A 
ATOM     28  C   UNL A   1      41.918  30.550  35.460  1.00  0.00     0.029 A 
ATOM     29  N   UNL A   1      41.623  29.627  33.455  1.00  0.00    -0.354 N 
ATOM     30  N   UNL A   1      42.444  27.936  31.115  1.00  0.00    -0.248 NA
ATOM     31  C   UNL A   1      44.090  26.698  30.013  1.00  0.00     0.031 C 
ATOM     32  C   UNL A   1      43.062  29.817  35.131  1.00  0.00     0.029 A 
ATOM     33  C   UNL A   1      42.872  29.226  33.890  1.00  0.00     0.049 A 
ATOM     34  H   UNL A   1      41.214  29.368  32.599  1.00  0.00     0.167 HD
ATOM     35  C   UNL A   1      43.555  27.830  31.939  1.00  0.00     0.074 A 
ATOM     36  C   UNL A   1      44.521  27.016  31.226  1.00  0.00     0.031 C 
ATOM     37  C   UNL A   1      43.776  28.371  33.162  1.00  0.00     0.034 A 
BRANCH  24  38
ATOM     38  C   UNL A   1      39.233  31.971  35.336  1.00  0.00     0.023 A 
ATOM     39  C   UNL A   1      39.446  33.362  35.266  1.00  0.00     0.012 A 
ATOM     40  C   UNL A   1      38.520  31.432  36.426  1.00  0.00     0.148 A 
ATOM     41  C   UNL A   1      38.976  34.201  36.276  1.00  0.00     0.002 A 
ATOM     42  C   UNL A   1      38.019  32.278  37.406  1.00  0.00     0.091 A 
ATOM     43  F   UNL A   1      38.359  30.103  36.485  1.00  0.00    -0.205 F 
ATOM     44  C   UNL A   1      38.255  33.660  37.339  1.00  0.00     0.022 A 
BRANCH  42  45
ATOM     45  S   UNL A   1      37.030  31.686  38.783  1.00  0.00     0.127 S 
ATOM     46  O   UNL A   1      37.926  31.926  39.913  1.00  0.00    -0.237 OA
ATOM     47  O   UNL A   1      35.869  32.574  38.724  1.00  0.00    -0.237 OA
ATOM     48  O   UNL A   1      36.747  30.285  38.507  1.00  0.00    -0.744 OA
ENDBRANCH  42  45
ENDBRANCH  24  38
BRANCH  25  49
ATOM     49  C   UNL A   1      42.388  26.228  27.648  1.00  0.00     0.023 A 
ATOM     50  C   UNL A   1      43.248  26.809  26.697  1.00  0.00     0.012 A 
ATOM     51  C   UNL A   1      41.995  24.884  27.479  1.00  0.00     0.148 A 
ATOM     52  C   UNL A   1      43.670  26.085  25.580  1.00  0.00     0.002 A 
ATOM     53  C   UNL A   1      42.467  24.150  26.398  1.00  0.00     0.091 A 
ATOM     54  F   UNL A   1      41.157  24.347  28.378  1.00  0.00    -0.205 F 
ATOM     55  C   UNL A   1      43.288  24.753  25.434  1.00  0.00     0.022 A 
BRANCH  53  56
ATOM     56  S   UNL A   1      42.123  22.396  26.213  1.00  0.00     0.127 S 
ATOM     57  O   UNL A   1      42.795  22.090  24.953  1.00  0.00    -0.237 OA
ATOM     58  O   UNL A   1      42.761  21.831  27.403  1.00  0.00    -0.237 OA
ATOM     59  O   UNL A   1      40.671  22.283  26.207  1.00  0.00    -0.744 OA
ENDBRANCH  53  56
ENDBRANCH  25  49
BRANCH  37  60
ATOM     60  C   UNL A   1      45.093  28.067  33.816  1.00  0.00     0.023 A 
ATOM     61  C   UNL A   1      46.163  28.974  33.694  1.00  0.00     0.012 A 
ATOM     62  C   UNL A   1      45.235  26.922  34.623  1.00  0.00     0.148 A 
ATOM     63  C   UNL A   1      47.370  28.729  34.344  1.00  0.00     0.002 A 
ATOM     64  C   UNL A   1      46.419  26.716  35.314  1.00  0.00     0.091 A 
ATOM     65  F   UNL A   1      44.206  26.065  34.705  1.00  0.00    -0.205 F 
ATOM     66  C   UNL A   1      47.493  27.610  35.166  1.00  0.00     0.022 A 
BRANCH  64  67
ATOM     67  S   UNL A   1      46.624  25.366  36.479  1.00  0.00     0.127 S 
ATOM     68  O   UNL A   1      45.558  25.640  37.442  1.00  0.00    -0.237 OA
ATOM     69  O   UNL A   1      46.399  24.193  35.635  1.00  0.00    -0.237 OA
ATOM     70  O   UNL A   1      47.980  25.485  36.999  1.00  0.00    -0.744 OA
ENDBRANCH  64  67
ENDBRANCH  37  60
ENDBRANCH  11  12
ENDBRANCH   4   6
ENDBRANCH   3   4
ENDBRANCH   2   3
ENDBRANCH   1   2
BRANCH   1  71
ATOM     71  O   UNL A   1      31.264  27.834  24.533  1.00  0.00    -0.374 OA
BRANCH  71  72
ATOM     72  C   UNL A   1      30.316  27.352  23.574  1.00  0.00     0.202 C 
BRANCH  72  73
ATOM     73  C   UNL A   1      31.037  26.386  22.627  1.00  0.00     0.261 C 
BRANCH  73  74
ATOM     74  O   UNL A   1      32.090  25.758  23.375  1.00  0.00    -0.460 OA
BRANCH  74  75
ATOM     75  C   UNL A   1      33.105  25.271  22.612  1.00  0.00     0.342 C 
ATOM     76  O   UNL A   1      33.621  25.792  21.640  1.00  0.00    -0.246 OA
BRANCH  75  77
ATOM     77  C   UNL A   1      33.636  24.064  23.285  1.00  0.00     0.102 A 
ATOM     78  C   UNL A   1      35.020  24.020  23.528  1.00  0.00     0.020 A 
ATOM     79  C   UNL A   1      32.818  22.998  23.681  1.00  0.00     0.142 A 
ATOM     80  C   UNL A   1      35.594  22.901  24.131  1.00  0.00     0.014 A 
ATOM     81  C   UNL A   1      33.400  21.863  24.252  1.00  0.00     0.076 A 
ATOM     82  C   UNL A   1      34.785  21.809  24.451  1.00  0.00     0.037 A 
ATOM     83  C   UNL A   1      32.593  20.672  24.596  1.00  0.00     0.198 C 
ATOM     84  C   UNL A   1      35.413  20.546  24.898  1.00  0.00     0.194 C 
ATOM     85  O   UNL A   1      31.422  20.723  24.943  1.00  0.00    -0.288 OA
ATOM     86  C   UNL A   1      33.267  19.370  24.513  1.00  0.00     0.034 A 
ATOM     87  C   UNL A   1      34.646  19.301  24.695  1.00  0.00     0.034 A 
ATOM     88  O   UNL A   1      36.554  20.524  25.338  1.00  0.00    -0.289 OA
ATOM     89  C   UNL A   1      32.526  18.223  24.225  1.00  0.00     0.013 A 
ATOM     90  C   UNL A   1      35.298  18.069  24.616  1.00  0.00     0.013 A 
ATOM     91  C   UNL A   1      33.181  16.998  24.110  1.00  0.00     0.001 A 
ATOM     92  C   UNL A   1      34.561  16.920  24.314  1.00  0.00     0.001 A 
BRANCH  79  93
ATOM     93  O   UNL A   1      31.468  23.005  23.459  1.00  0.00    -0.506 OA
ATOM     94  H   UNL A   1      30.917  22.392  23.903  1.00  0.00     0.293 HD
ENDBRANCH  79  93
ENDBRANCH  75  77
ENDBRANCH  74  75
ENDBRANCH  73  74
ENDBRANCH  72  73
ENDBRANCH  71  72
ENDBRANCH   1  71
TORSDOF 18
ENDMDL
MODEL 3
REMARK VINA RESULT:     -11.8      5.225     10.471
REMARK SMILES O=C(OCCOCCOC(=O)c1ccc2c(c1O)C(=O)c1ccccc1C2=O)c1ccc(-c2c3nc(c(-c4cccc(S(=O)(=O)[O-])c4F)c4ccc([nH]4)c(-c4cccc(S(=O)(=O)[O-])c4F)c4nc(c(-c5cccc(S(=O)(=O)[O-])c5F)c5ccc2[nH]5)C=C4)C=C3)cc1
REMARK SMILES IDX 5 1 4 2 3 3 2 4 1 5 29 6 30 7 91 8 31 9 90 10 32 11 33 12
REMARK SMILES IDX 34 13 84 14 35 15 89 16 83 17 85 18 36 19 88 20 82 21 81 22
REMARK SMILES IDX 37 24 69 25 49 26 68 27 50 28 53 29 67 30 86 31 51 32 52 33
REMARK SMILES IDX 66 35 87 36 54 37 38 38 39 39 47 40 40 41 42 42 48 43 41 44
REMARK SMILES IDX 43 45 44 46 45 47 46 48 70 49 71 50 79 51 72 52 74 53 80 54
REMARK SMILES IDX 73 55 75 56 76 57 77 58 78 59 55 60 56 61 64 62 57 63 59 64
REMARK SMILES IDX 65 65 58 66 60 67 61 68 62 69 63 70 6 71 7 72 8 73 9 74
REMARK SMILES IDX 10 75 11 76 12 77 13 78 17 79 14 80 16 81 15 82 19 83 27 84
REMARK SMILES IDX 20 85 21 86 26 87 28 88 22 89 25 90 23 91 24 92 18 93
REMARK H PARENT 85 23 53 34 18 94
REMARK Flexibility Score: inf
ROOT
ATOM      1  C   UNL A   1      35.527  22.418  24.359  1.00  0.00     0.202 C 
ENDROOT
BRANCH   1   2
ATOM      2  C   UNL A   1      36.239  22.079  25.669  1.00  0.00     0.261 C 
BRANCH   2   3
ATOM      3  O   UNL A   1      37.231  21.062  25.446  1.00  0.00    -0.460 OA
BRANCH   3   4
ATOM      4  C   UNL A   1      38.525  21.061  25.847  1.00  0.00     0.338 C 
ATOM      5  O   UNL A   1      39.105  19.983  25.955  1.00  0.00    -0.246 OA
BRANCH   4   6
ATOM      6  C   UNL A   1      39.276  22.307  26.188  1.00  0.00     0.060 A 
ATOM      7  C   UNL A   1      38.963  23.574  25.693  1.00  0.00     0.016 A 
ATOM      8  C   UNL A   1      40.291  22.211  27.154  1.00  0.00     0.016 A 
ATOM      9  C   UNL A   1      39.647  24.706  26.092  1.00  0.00     0.010 A 
ATOM     10  C   UNL A   1      40.961  23.354  27.599  1.00  0.00     0.010 A 
ATOM     11  C   UNL A   1      40.634  24.605  27.062  1.00  0.00    -0.014 A 
BRANCH  11  12
ATOM     12  C   UNL A   1      41.326  25.844  27.437  1.00  0.00     0.031 A 
ATOM     13  C   UNL A   1      40.602  26.830  28.294  1.00  0.00     0.074 A 
ATOM     14  C   UNL A   1      42.623  25.989  27.112  1.00  0.00     0.049 A 
ATOM     15  N   UNL A   1      41.006  27.989  28.729  1.00  0.00    -0.248 NA
ATOM     16  C   UNL A   1      39.248  26.452  28.740  1.00  0.00     0.031 C 
ATOM     17  C   UNL A   1      43.422  25.004  26.373  1.00  0.00     0.029 A 
ATOM     18  N   UNL A   1      43.504  27.002  27.370  1.00  0.00    -0.354 N 
ATOM     19  C   UNL A   1      39.938  28.509  29.445  1.00  0.00     0.074 A 
ATOM     20  C   UNL A   1      38.879  27.526  29.421  1.00  0.00     0.031 C 
ATOM     21  C   UNL A   1      44.675  25.466  26.235  1.00  0.00     0.029 A 
ATOM     22  C   UNL A   1      44.744  26.804  26.807  1.00  0.00     0.049 A 
ATOM     23  H   UNL A   1      43.274  27.795  27.906  1.00  0.00     0.167 HD
ATOM     24  C   UNL A   1      39.858  29.713  30.051  1.00  0.00     0.034 A 
ATOM     25  C   UNL A   1      45.795  27.642  26.726  1.00  0.00     0.034 A 
ATOM     26  C   UNL A   1      40.938  30.657  30.061  1.00  0.00     0.049 A 
ATOM     27  C   UNL A   1      45.648  28.998  27.360  1.00  0.00     0.074 A 
ATOM     28  C   UNL A   1      40.973  31.921  30.615  1.00  0.00     0.029 A 
ATOM     29  N   UNL A   1      42.175  30.438  29.471  1.00  0.00    -0.354 N 
ATOM     30  N   UNL A   1      44.644  29.477  28.059  1.00  0.00    -0.248 NA
ATOM     31  C   UNL A   1      46.773  29.927  27.208  1.00  0.00     0.031 C 
ATOM     32  C   UNL A   1      42.221  32.482  30.328  1.00  0.00     0.029 A 
ATOM     33  C   UNL A   1      42.979  31.551  29.631  1.00  0.00     0.049 A 
ATOM     34  H   UNL A   1      42.442  29.612  29.007  1.00  0.00     0.167 HD
ATOM     35  C   UNL A   1      45.024  30.754  28.447  1.00  0.00     0.074 A 
ATOM     36  C   UNL A   1      46.365  30.959  27.934  1.00  0.00     0.031 C 
ATOM     37  C   UNL A   1      44.328  31.686  29.144  1.00  0.00     0.034 A 
BRANCH  24  38
ATOM     38  C   UNL A   1      38.549  30.086  30.686  1.00  0.00     0.023 A 
ATOM     39  C   UNL A   1      38.240  29.659  31.992  1.00  0.00     0.012 A 
ATOM     40  C   UNL A   1      37.627  30.883  29.978  1.00  0.00     0.148 A 
ATOM     41  C   UNL A   1      37.020  30.002  32.577  1.00  0.00     0.002 A 
ATOM     42  C   UNL A   1      36.434  31.254  30.582  1.00  0.00     0.091 A 
ATOM     43  F   UNL A   1      37.933  31.249  28.726  1.00  0.00    -0.205 F 
ATOM     44  C   UNL A   1      36.123  30.806  31.876  1.00  0.00     0.022 A 
BRANCH  42  45
ATOM     45  S   UNL A   1      35.240  32.334  29.786  1.00  0.00     0.127 S 
ATOM     46  O   UNL A   1      34.351  32.662  30.899  1.00  0.00    -0.237 OA
ATOM     47  O   UNL A   1      36.087  33.438  29.334  1.00  0.00    -0.237 OA
ATOM     48  O   UNL A   1      34.631  31.550  28.721  1.00  0.00    -0.744 OA
ENDBRANCH  42  45
ENDBRANCH  24  38
BRANCH  25  49
ATOM     49  C   UNL A   1      47.033  27.251  25.991  1.00  0.00     0.023 A 
ATOM     50  C   UNL A   1      48.050  26.537  26.654  1.00  0.00     0.012 A 
ATOM     51  C   UNL A   1      47.218  27.602  24.638  1.00  0.00     0.148 A 
ATOM     52  C   UNL A   1      49.241  26.218  25.998  1.00  0.00     0.002 A 
ATOM     53  C   UNL A   1      48.381  27.229  23.973  1.00  0.00     0.091 A 
ATOM     54  F   UNL A   1      46.255  28.303  24.023  1.00  0.00    -0.205 F 
ATOM     55  C   UNL A   1      49.404  26.555  24.656  1.00  0.00     0.022 A 
BRANCH  53  56
ATOM     56  S   UNL A   1      48.607  27.513  22.214  1.00  0.00     0.127 S 
ATOM     57  O   UNL A   1      47.416  28.289  21.881  1.00  0.00    -0.237 OA
ATOM     58  O   UNL A   1      49.861  28.268  22.184  1.00  0.00    -0.237 OA
ATOM     59  O   UNL A   1      48.696  26.189  21.615  1.00  0.00    -0.744 OA
ENDBRANCH  53  56
ENDBRANCH  25  49
BRANCH  37  60
ATOM     60  C   UNL A   1      45.020  32.990  29.419  1.00  0.00     0.023 A 
ATOM     61  C   UNL A   1      45.820  33.131  30.569  1.00  0.00     0.012 A 
ATOM     62  C   UNL A   1      44.942  34.043  28.488  1.00  0.00     0.148 A 
ATOM     63  C   UNL A   1      46.513  34.316  30.803  1.00  0.00     0.002 A 
ATOM     64  C   UNL A   1      45.680  35.197  28.699  1.00  0.00     0.091 A 
ATOM     65  F   UNL A   1      44.156  33.889  27.412  1.00  0.00    -0.205 F 
ATOM     66  C   UNL A   1      46.455  35.342  29.862  1.00  0.00     0.022 A 
BRANCH  64  67
ATOM     67  S   UNL A   1      45.755  36.520  27.487  1.00  0.00     0.127 S 
ATOM     68  O   UNL A   1      44.371  36.993  27.478  1.00  0.00    -0.237 OA
ATOM     69  O   UNL A   1      46.713  37.442  28.095  1.00  0.00    -0.237 OA
ATOM     70  O   UNL A   1      46.211  35.904  26.247  1.00  0.00    -0.744 OA
ENDBRANCH  64  67
ENDBRANCH  37  60
ENDBRANCH  11  12
ENDBRANCH   4   6
ENDBRANCH   3   4
ENDBRANCH   2   3
ENDBRANCH   1   2
BRANCH   1  71
ATOM     71  O   UNL A   1      34.209  21.892  24.230  1.00  0.00    -0.374 OA
BRANCH  71  72
ATOM     72  C   UNL A   1      33.467  21.684  25.437  1.00  0.00     0.202 C 
BRANCH  72  73
ATOM     73  C   UNL A   1      32.066  22.278  25.250  1.00  0.00     0.261 C 
BRANCH  73  74
ATOM     74  O   UNL A   1      32.209  23.708  25.204  1.00  0.00    -0.460 OA
BRANCH  74  75
ATOM     75  C   UNL A   1      31.543  24.368  26.188  1.00  0.00     0.342 C 
ATOM     76  O   UNL A   1      31.206  23.939  27.276  1.00  0.00    -0.246 OA
BRANCH  75  77
ATOM     77  C   UNL A   1      31.464  25.794  25.799  1.00  0.00     0.102 A 
ATOM     78  C   UNL A   1      31.848  26.746  26.760  1.00  0.00     0.020 A 
ATOM     79  C   UNL A   1      31.035  26.210  24.532  1.00  0.00     0.142 A 
ATOM     80  C   UNL A   1      31.771  28.108  26.474  1.00  0.00     0.014 A 
ATOM     81  C   UNL A   1      30.924  27.575  24.259  1.00  0.00     0.076 A 
ATOM     82  C   UNL A   1      31.268  28.517  25.237  1.00  0.00     0.037 A 
ATOM     83  C   UNL A   1      30.383  28.064  22.973  1.00  0.00     0.198 C 
ATOM     84  C   UNL A   1      30.990  29.952  25.004  1.00  0.00     0.194 C 
ATOM     85  O   UNL A   1      30.508  27.467  21.913  1.00  0.00    -0.288 OA
ATOM     86  C   UNL A   1      29.666  29.347  23.000  1.00  0.00     0.034 A 
ATOM     87  C   UNL A   1      29.987  30.287  23.974  1.00  0.00     0.034 A 
ATOM     88  O   UNL A   1      31.506  30.820  25.694  1.00  0.00    -0.289 OA
ATOM     89  C   UNL A   1      28.655  29.596  22.071  1.00  0.00     0.013 A 
ATOM     90  C   UNL A   1      29.310  31.508  24.012  1.00  0.00     0.013 A 
ATOM     91  C   UNL A   1      27.955  30.799  22.130  1.00  0.00     0.001 A 
ATOM     92  C   UNL A   1      28.287  31.756  23.092  1.00  0.00     0.001 A 
BRANCH  79  93
ATOM     93  O   UNL A   1      30.651  25.313  23.572  1.00  0.00    -0.506 OA
ATOM     94  H   UNL A   1      30.916  25.437  22.682  1.00  0.00     0.293 HD
ENDBRANCH  79  93
ENDBRANCH  75  77
ENDBRANCH  74  75
ENDBRANCH  73  74
ENDBRANCH  72  73
ENDBRANCH  71  72
ENDBRANCH   1  71
TORSDOF 18
ENDMDL
