MODEL 1
REMARK VINA RESULT:      -9.5      0.000      0.000
REMARK SMILES C[C@H](CCO)S[C@H]1CC[C@]([NH2+]C2CC2)(C(=O)OCCOCCOC(=O)c2ccc(-c3c4nc(c(-c5cccc(S(=O)(=O)[O-])c5F)c5ccc([nH]5)c(-c5cccc(S(=O)(=O)[O-])c5F)c5nc(c(-c6cccc(S(=O)(=O)[O-])c6F)c6ccc3[nH]6)C=C5)C=C4)cc2)C1
REMARK SMILES IDX 19 1 18 2 17 3 15 4 16 5 10 6 7 7 8 8 89 9 9 10 6 11 2 12
REMARK SMILES IDX 1 13 3 14 4 15 5 16 11 18 12 21 13 22 14 23 20 24 21 25
REMARK SMILES IDX 22 26 23 27 24 28 25 29 26 30 27 31 88 32 28 33 87 34 29 35
REMARK SMILES IDX 30 36 31 37 81 38 32 39 86 40 80 41 82 42 33 43 85 44 79 45
REMARK SMILES IDX 78 46 34 48 66 49 46 50 65 51 47 52 50 53 64 54 83 55 48 56
REMARK SMILES IDX 49 57 63 59 84 60 51 61 35 62 36 63 44 64 37 65 39 66 45 67
REMARK SMILES IDX 38 68 40 69 41 70 42 71 43 72 67 73 68 74 76 75 69 76 71 77
REMARK SMILES IDX 77 78 70 79 72 80 73 81 74 82 75 83 52 84 53 85 61 86 54 87
REMARK SMILES IDX 56 88 62 89 55 90 57 91 58 92 59 93 60 94
REMARK H PARENT 5 17 11 19 11 20 82 47 50 58
REMARK Flexibility Score: inf
ROOT
ATOM      1  C   UNL A   1      31.788  28.474  25.687  1.00  0.00     0.202 C 
ENDROOT
BRANCH   1   2
ATOM      2  C   UNL A   1      31.113  27.106  25.549  1.00  0.00     0.261 C 
BRANCH   2   3
ATOM      3  O   UNL A   1      31.573  26.193  26.560  1.00  0.00    -0.459 OA
BRANCH   3   4
ATOM      4  C   UNL A   1      31.160  24.908  26.401  1.00  0.00     0.368 C 
ATOM      5  O   UNL A   1      30.021  24.518  26.653  1.00  0.00    -0.245 OA
BRANCH   4   6
ATOM      6  C   UNL A   1      32.266  23.965  25.815  1.00  0.00     0.195 C 
ATOM      7  C   UNL A   1      33.259  21.839  26.650  1.00  0.00     0.054 C 
ATOM      8  C   UNL A   1      34.238  22.983  26.959  1.00  0.00     0.022 C 
ATOM      9  C   UNL A   1      31.951  22.589  26.416  1.00  0.00     0.095 C 
ATOM     10  C   UNL A   1      33.716  24.247  26.259  1.00  0.00     0.082 C 
BRANCH   7  11
ATOM     11  S   UNL A   1      33.924  20.809  25.286  1.00  0.00    -0.155 SA
BRANCH  11  12
ATOM     12  C   UNL A   1      32.491  19.775  24.727  1.00  0.00     0.046 C 
ATOM     13  C   UNL A   1      32.749  18.390  25.335  1.00  0.00     0.019 C 
BRANCH  12  14
ATOM     14  C   UNL A   1      32.311  19.721  23.207  1.00  0.00     0.042 C 
BRANCH  14  15
ATOM     15  C   UNL A   1      31.974  21.025  22.495  1.00  0.00     0.157 C 
BRANCH  15  16
ATOM     16  O   UNL A   1      31.461  20.795  21.195  1.00  0.00    -0.396 OA
ATOM     17  H   UNL A   1      31.293  19.846  21.077  1.00  0.00     0.210 HD
ENDBRANCH  15  16
ENDBRANCH  14  15
ENDBRANCH  12  14
ENDBRANCH  11  12
ENDBRANCH   7  11
BRANCH   6  18
ATOM     18  N   UNL A   1      32.088  24.090  24.344  1.00  0.00    -0.330 N 
ATOM     19  H   UNL A   1      31.235  24.630  24.202  1.00  0.00     0.347 HD
ATOM     20  H   UNL A   1      32.109  23.118  24.038  1.00  0.00     0.347 HD
BRANCH  18  21
ATOM     21  C   UNL A   1      33.105  24.702  23.504  1.00  0.00     0.183 C 
ATOM     22  C   UNL A   1      34.035  23.798  22.742  1.00  0.00     0.071 C 
ATOM     23  C   UNL A   1      32.970  24.548  22.010  1.00  0.00     0.071 C 
ENDBRANCH  18  21
ENDBRANCH   6  18
ENDBRANCH   4   6
ENDBRANCH   3   4
ENDBRANCH   2   3
ENDBRANCH   1   2
BRANCH   1  24
ATOM     24  O   UNL A   1      31.252  29.355  26.676  1.00  0.00    -0.374 OA
BRANCH  24  25
ATOM     25  C   UNL A   1      31.576  30.741  26.587  1.00  0.00     0.202 C 
BRANCH  25  26
ATOM     26  C   UNL A   1      33.060  31.118  26.675  1.00  0.00     0.261 C 
BRANCH  26  27
ATOM     27  O   UNL A   1      33.751  30.386  27.704  1.00  0.00    -0.460 OA
BRANCH  27  28
ATOM     28  C   UNL A   1      34.720  31.093  28.332  1.00  0.00     0.338 C 
ATOM     29  O   UNL A   1      34.592  32.169  28.904  1.00  0.00    -0.246 OA
BRANCH  28  30
ATOM     30  C   UNL A   1      35.966  30.311  28.419  1.00  0.00     0.060 A 
ATOM     31  C   UNL A   1      36.180  29.591  29.601  1.00  0.00     0.016 A 
ATOM     32  C   UNL A   1      36.952  30.367  27.432  1.00  0.00     0.016 A 
ATOM     33  C   UNL A   1      37.411  28.985  29.833  1.00  0.00     0.010 A 
ATOM     34  C   UNL A   1      38.193  29.757  27.670  1.00  0.00     0.010 A 
ATOM     35  C   UNL A   1      38.444  29.108  28.893  1.00  0.00    -0.014 A 
BRANCH  35  36
ATOM     36  C   UNL A   1      39.808  28.677  29.288  1.00  0.00     0.031 A 
ATOM     37  C   UNL A   1      40.523  29.399  30.398  1.00  0.00     0.074 A 
ATOM     38  C   UNL A   1      40.380  27.601  28.718  1.00  0.00     0.049 A 
ATOM     39  N   UNL A   1      41.644  29.089  30.999  1.00  0.00    -0.248 NA
ATOM     40  C   UNL A   1      39.894  30.632  30.898  1.00  0.00     0.031 C 
ATOM     41  C   UNL A   1      39.813  26.834  27.612  1.00  0.00     0.029 A 
ATOM     42  N   UNL A   1      41.571  26.976  28.990  1.00  0.00    -0.354 N 
ATOM     43  C   UNL A   1      41.861  30.089  31.938  1.00  0.00     0.074 A 
ATOM     44  C   UNL A   1      40.771  31.032  31.809  1.00  0.00     0.031 C 
ATOM     45  C   UNL A   1      40.667  25.848  27.286  1.00  0.00     0.029 A 
ATOM     46  C   UNL A   1      41.836  25.914  28.161  1.00  0.00     0.049 A 
ATOM     47  H   UNL A   1      42.178  27.263  29.711  1.00  0.00     0.167 HD
ATOM     48  C   UNL A   1      42.859  30.202  32.847  1.00  0.00     0.034 A 
ATOM     49  C   UNL A   1      42.899  25.085  28.114  1.00  0.00     0.034 A 
ATOM     50  C   UNL A   1      43.933  29.257  32.996  1.00  0.00     0.049 A 
ATOM     51  C   UNL A   1      43.986  25.212  29.148  1.00  0.00     0.074 A 
ATOM     52  C   UNL A   1      44.948  29.246  33.935  1.00  0.00     0.029 A 
ATOM     53  N   UNL A   1      44.143  28.162  32.170  1.00  0.00    -0.354 N 
ATOM     54  N   UNL A   1      44.083  26.059  30.144  1.00  0.00    -0.248 NA
ATOM     55  C   UNL A   1      45.085  24.237  29.082  1.00  0.00     0.031 C 
ATOM     56  C   UNL A   1      45.786  28.156  33.666  1.00  0.00     0.029 A 
ATOM     57  C   UNL A   1      45.281  27.479  32.568  1.00  0.00     0.049 A 
ATOM     58  H   UNL A   1      43.568  27.908  31.414  1.00  0.00     0.167 HD
ATOM     59  C   UNL A   1      45.240  25.709  30.834  1.00  0.00     0.074 A 
ATOM     60  C   UNL A   1      45.791  24.551  30.160  1.00  0.00     0.031 C 
ATOM     61  C   UNL A   1      45.804  26.305  31.914  1.00  0.00     0.034 A 
BRANCH  48  62
ATOM     62  C   UNL A   1      42.807  31.378  33.786  1.00  0.00     0.023 A 
ATOM     63  C   UNL A   1      43.401  32.598  33.401  1.00  0.00     0.012 A 
ATOM     64  C   UNL A   1      42.149  31.290  35.027  1.00  0.00     0.148 A 
ATOM     65  C   UNL A   1      43.369  33.703  34.252  1.00  0.00     0.002 A 
ATOM     66  C   UNL A   1      42.088  32.407  35.853  1.00  0.00     0.091 A 
ATOM     67  F   UNL A   1      41.616  30.115  35.389  1.00  0.00    -0.205 F 
ATOM     68  C   UNL A   1      42.706  33.610  35.473  1.00  0.00     0.022 A 
BRANCH  66  69
ATOM     69  S   UNL A   1      41.194  32.396  37.411  1.00  0.00     0.127 S 
ATOM     70  O   UNL A   1      42.025  31.508  38.222  1.00  0.00    -0.237 OA
ATOM     71  O   UNL A   1      41.238  33.804  37.809  1.00  0.00    -0.237 OA
ATOM     72  O   UNL A   1      39.860  31.903  37.095  1.00  0.00    -0.744 OA
ENDBRANCH  66  69
ENDBRANCH  48  62
BRANCH  49  73
ATOM     73  C   UNL A   1      42.949  24.025  27.070  1.00  0.00     0.023 A 
ATOM     74  C   UNL A   1      43.728  24.213  25.914  1.00  0.00     0.012 A 
ATOM     75  C   UNL A   1      42.265  22.807  27.250  1.00  0.00     0.148 A 
ATOM     76  C   UNL A   1      43.812  23.212  24.945  1.00  0.00     0.002 A 
ATOM     77  C   UNL A   1      42.400  21.792  26.310  1.00  0.00     0.091 A 
ATOM     78  F   UNL A   1      41.512  22.658  28.349  1.00  0.00    -0.205 F 
ATOM     79  C   UNL A   1      43.161  21.998  25.149  1.00  0.00     0.022 A 
BRANCH  77  80
ATOM     80  S   UNL A   1      41.712  20.153  26.566  1.00  0.00     0.127 S 
ATOM     81  O   UNL A   1      40.279  20.429  26.582  1.00  0.00    -0.237 OA
ATOM     82  O   UNL A   1      42.189  19.439  25.381  1.00  0.00    -0.237 OA
ATOM     83  O   UNL A   1      42.282  19.679  27.820  1.00  0.00    -0.744 OA
ENDBRANCH  77  80
ENDBRANCH  49  73
BRANCH  61  84
ATOM     84  C   UNL A   1      47.091  25.719  32.440  1.00  0.00     0.023 A 
ATOM     85  C   UNL A   1      48.322  26.191  31.944  1.00  0.00     0.012 A 
ATOM     86  C   UNL A   1      47.087  24.745  33.458  1.00  0.00     0.148 A 
ATOM     87  C   UNL A   1      49.527  25.678  32.424  1.00  0.00     0.002 A 
ATOM     88  C   UNL A   1      48.293  24.269  33.964  1.00  0.00     0.091 A 
ATOM     89  F   UNL A   1      45.908  24.288  33.906  1.00  0.00    -0.205 F 
ATOM     90  C   UNL A   1      49.513  24.725  33.440  1.00  0.00     0.022 A 
BRANCH  88  91
ATOM     91  S   UNL A   1      48.357  23.108  35.334  1.00  0.00     0.127 S 
ATOM     92  O   UNL A   1      47.150  22.315  35.112  1.00  0.00    -0.237 OA
ATOM     93  O   UNL A   1      49.610  22.393  35.087  1.00  0.00    -0.237 OA
ATOM     94  O   UNL A   1      48.364  23.927  36.539  1.00  0.00    -0.744 OA
ENDBRANCH  88  91
ENDBRANCH  61  84
ENDBRANCH  35  36
ENDBRANCH  28  30
ENDBRANCH  27  28
ENDBRANCH  26  27
ENDBRANCH  25  26
ENDBRANCH  24  25
ENDBRANCH   1  24
TORSDOF 24
ENDMDL
MODEL 2
REMARK VINA RESULT:      -9.1      2.551      2.876
REMARK SMILES C[C@H](CCO)S[C@H]1CC[C@]([NH2+]C2CC2)(C(=O)OCCOCCOC(=O)c2ccc(-c3c4nc(c(-c5cccc(S(=O)(=O)[O-])c5F)c5ccc([nH]5)c(-c5cccc(S(=O)(=O)[O-])c5F)c5nc(c(-c6cccc(S(=O)(=O)[O-])c6F)c6ccc3[nH]6)C=C5)C=C4)cc2)C1
REMARK SMILES IDX 19 1 18 2 17 3 15 4 16 5 10 6 7 7 8 8 89 9 9 10 6 11 2 12
REMARK SMILES IDX 1 13 3 14 4 15 5 16 11 18 12 21 13 22 14 23 20 24 21 25
REMARK SMILES IDX 22 26 23 27 24 28 25 29 26 30 27 31 88 32 28 33 87 34 29 35
REMARK SMILES IDX 30 36 31 37 81 38 32 39 86 40 80 41 82 42 33 43 85 44 79 45
REMARK SMILES IDX 78 46 34 48 66 49 46 50 65 51 47 52 50 53 64 54 83 55 48 56
REMARK SMILES IDX 49 57 63 59 84 60 51 61 35 62 36 63 44 64 37 65 39 66 45 67
REMARK SMILES IDX 38 68 40 69 41 70 42 71 43 72 67 73 68 74 76 75 69 76 71 77
REMARK SMILES IDX 77 78 70 79 72 80 73 81 74 82 75 83 52 84 53 85 61 86 54 87
REMARK SMILES IDX 56 88 62 89 55 90 57 91 58 92 59 93 60 94
REMARK H PARENT 5 17 11 19 11 20 82 47 50 58
REMARK Flexibility Score: inf
ROOT
ATOM      1  C   UNL A   1      31.909  28.500  25.623  1.00  0.00     0.202 C 
ENDROOT
BRANCH   1   2
ATOM      2  C   UNL A   1      31.230  27.127  25.651  1.00  0.00     0.261 C 
BRANCH   2   3
ATOM      3  O   UNL A   1      31.951  26.206  26.487  1.00  0.00    -0.459 OA
BRANCH   3   4
ATOM      4  C   UNL A   1      31.511  24.921  26.437  1.00  0.00     0.368 C 
ATOM      5  O   UNL A   1      30.396  24.564  26.811  1.00  0.00    -0.245 OA
BRANCH   4   6
ATOM      6  C   UNL A   1      32.549  23.931  25.805  1.00  0.00     0.195 C 
ATOM      7  C   UNL A   1      33.553  21.811  26.641  1.00  0.00     0.054 C 
ATOM      8  C   UNL A   1      34.578  22.940  26.835  1.00  0.00     0.022 C 
ATOM      9  C   UNL A   1      32.248  22.585  26.477  1.00  0.00     0.095 C 
ATOM     10  C   UNL A   1      34.034  24.192  26.129  1.00  0.00     0.082 C 
BRANCH   7  11
ATOM     11  S   UNL A   1      34.091  20.718  25.270  1.00  0.00    -0.155 SA
BRANCH  11  12
ATOM     12  C   UNL A   1      32.590  19.719  24.840  1.00  0.00     0.046 C 
ATOM     13  C   UNL A   1      32.738  18.424  25.648  1.00  0.00     0.019 C 
BRANCH  12  14
ATOM     14  C   UNL A   1      32.419  19.456  23.341  1.00  0.00     0.042 C 
BRANCH  14  15
ATOM     15  C   UNL A   1      32.639  18.030  22.851  1.00  0.00     0.157 C 
BRANCH  15  16
ATOM     16  O   UNL A   1      31.736  17.686  21.816  1.00  0.00    -0.396 OA
ATOM     17  H   UNL A   1      31.212  16.915  22.086  1.00  0.00     0.210 HD
ENDBRANCH  15  16
ENDBRANCH  14  15
ENDBRANCH  12  14
ENDBRANCH  11  12
ENDBRANCH   7  11
BRANCH   6  18
ATOM     18  N   UNL A   1      32.264  24.009  24.348  1.00  0.00    -0.330 N 
ATOM     19  H   UNL A   1      31.630  24.798  24.220  1.00  0.00     0.347 HD
ATOM     20  H   UNL A   1      31.925  23.070  24.141  1.00  0.00     0.347 HD
BRANCH  18  21
ATOM     21  C   UNL A   1      33.329  24.178  23.372  1.00  0.00     0.183 C 
ATOM     22  C   UNL A   1      33.490  23.126  22.308  1.00  0.00     0.071 C 
ATOM     23  C   UNL A   1      32.937  24.466  21.944  1.00  0.00     0.071 C 
ENDBRANCH  18  21
ENDBRANCH   6  18
ENDBRANCH   4   6
ENDBRANCH   3   4
ENDBRANCH   2   3
ENDBRANCH   1   2
BRANCH   1  24
ATOM     24  O   UNL A   1      31.552  29.410  26.666  1.00  0.00    -0.374 OA
BRANCH  24  25
ATOM     25  C   UNL A   1      32.509  30.396  27.053  1.00  0.00     0.202 C 
BRANCH  25  26
ATOM     26  C   UNL A   1      33.990  30.017  26.926  1.00  0.00     0.261 C 
BRANCH  26  27
ATOM     27  O   UNL A   1      34.558  29.594  28.179  1.00  0.00    -0.460 OA
BRANCH  27  28
ATOM     28  C   UNL A   1      35.548  30.395  28.638  1.00  0.00     0.338 C 
ATOM     29  O   UNL A   1      35.418  31.439  29.264  1.00  0.00    -0.246 OA
BRANCH  28  30
ATOM     30  C   UNL A   1      36.864  29.757  28.456  1.00  0.00     0.060 A 
ATOM     31  C   UNL A   1      37.365  29.020  29.536  1.00  0.00     0.016 A 
ATOM     32  C   UNL A   1      37.641  29.962  27.314  1.00  0.00     0.016 A 
ATOM     33  C   UNL A   1      38.674  28.550  29.509  1.00  0.00     0.010 A 
ATOM     34  C   UNL A   1      38.961  29.489  27.291  1.00  0.00     0.010 A 
ATOM     35  C   UNL A   1      39.499  28.826  28.410  1.00  0.00    -0.014 A 
BRANCH  35  36
ATOM     36  C   UNL A   1      40.950  28.537  28.530  1.00  0.00     0.031 A 
ATOM     37  C   UNL A   1      41.819  29.437  29.367  1.00  0.00     0.074 A 
ATOM     38  C   UNL A   1      41.481  27.439  27.962  1.00  0.00     0.049 A 
ATOM     39  N   UNL A   1      43.067  29.278  29.729  1.00  0.00    -0.248 NA
ATOM     40  C   UNL A   1      41.203  30.678  29.862  1.00  0.00     0.031 C 
ATOM     41  C   UNL A   1      40.760  26.505  27.100  1.00  0.00     0.029 A 
ATOM     42  N   UNL A   1      42.755  26.933  28.023  1.00  0.00    -0.354 N 
ATOM     43  C   UNL A   1      43.390  30.398  30.483  1.00  0.00     0.074 A 
ATOM     44  C   UNL A   1      42.216  31.244  30.504  1.00  0.00     0.031 C 
ATOM     45  C   UNL A   1      41.610  25.545  26.697  1.00  0.00     0.029 A 
ATOM     46  C   UNL A   1      42.930  25.795  27.273  1.00  0.00     0.049 A 
ATOM     47  H   UNL A   1      43.474  27.345  28.554  1.00  0.00     0.167 HD
ATOM     48  C   UNL A   1      44.547  30.688  31.125  1.00  0.00     0.034 A 
ATOM     49  C   UNL A   1      44.029  25.039  27.076  1.00  0.00     0.034 A 
ATOM     50  C   UNL A   1      45.709  29.841  31.127  1.00  0.00     0.049 A 
ATOM     51  C   UNL A   1      45.298  25.364  27.818  1.00  0.00     0.074 A 
ATOM     52  C   UNL A   1      46.901  30.014  31.809  1.00  0.00     0.029 A 
ATOM     53  N   UNL A   1      45.834  28.669  30.396  1.00  0.00    -0.354 N 
ATOM     54  N   UNL A   1      45.530  26.333  28.671  1.00  0.00    -0.248 NA
ATOM     55  C   UNL A   1      46.440  24.463  27.609  1.00  0.00     0.031 C 
ATOM     56  C   UNL A   1      47.756  28.957  31.474  1.00  0.00     0.029 A 
ATOM     57  C   UNL A   1      47.089  28.116  30.596  1.00  0.00     0.049 A 
ATOM     58  H   UNL A   1      45.135  28.286  29.820  1.00  0.00     0.167 HD
ATOM     59  C   UNL A   1      46.836  26.147  29.114  1.00  0.00     0.074 A 
ATOM     60  C   UNL A   1      47.332  24.953  28.460  1.00  0.00     0.031 C 
ATOM     61  C   UNL A   1      47.564  26.908  29.970  1.00  0.00     0.034 A 
BRANCH  48  62
ATOM     62  C   UNL A   1      44.592  31.965  31.921  1.00  0.00     0.023 A 
ATOM     63  C   UNL A   1      44.200  31.952  33.276  1.00  0.00     0.012 A 
ATOM     64  C   UNL A   1      45.048  33.166  31.345  1.00  0.00     0.148 A 
ATOM     65  C   UNL A   1      44.231  33.122  34.036  1.00  0.00     0.002 A 
ATOM     66  C   UNL A   1      45.112  34.319  32.120  1.00  0.00     0.091 A 
ATOM     67  F   UNL A   1      45.388  33.167  30.048  1.00  0.00    -0.205 F 
ATOM     68  C   UNL A   1      44.694  34.302  33.460  1.00  0.00     0.022 A 
BRANCH  66  69
ATOM     69  S   UNL A   1      45.762  35.866  31.478  1.00  0.00     0.127 S 
ATOM     70  O   UNL A   1      47.103  35.469  31.052  1.00  0.00    -0.237 OA
ATOM     71  O   UNL A   1      44.838  36.166  30.383  1.00  0.00    -0.237 OA
ATOM     72  O   UNL A   1      45.702  36.808  32.589  1.00  0.00    -0.744 OA
ENDBRANCH  66  69
ENDBRANCH  48  62
BRANCH  49  73
ATOM     73  C   UNL A   1      43.948  23.864  26.165  1.00  0.00     0.023 A 
ATOM     74  C   UNL A   1      44.707  23.837  24.982  1.00  0.00     0.012 A 
ATOM     75  C   UNL A   1      43.157  22.747  26.503  1.00  0.00     0.148 A 
ATOM     76  C   UNL A   1      44.669  22.725  24.138  1.00  0.00     0.002 A 
ATOM     77  C   UNL A   1      43.169  21.621  25.689  1.00  0.00     0.091 A 
ATOM     78  F   UNL A   1      42.426  22.803  27.624  1.00  0.00    -0.205 F 
ATOM     79  C   UNL A   1      43.912  21.613  24.499  1.00  0.00     0.022 A 
BRANCH  77  80
ATOM     80  S   UNL A   1      42.337  20.098  26.151  1.00  0.00     0.127 S 
ATOM     81  O   UNL A   1      40.932  20.490  26.078  1.00  0.00    -0.237 OA
ATOM     82  O   UNL A   1      42.777  19.183  25.098  1.00  0.00    -0.237 OA
ATOM     83  O   UNL A   1      42.835  19.766  27.479  1.00  0.00    -0.744 OA
ENDBRANCH  77  80
ENDBRANCH  49  73
BRANCH  61  84
ATOM     84  C   UNL A   1      48.982  26.477  30.250  1.00  0.00     0.023 A 
ATOM     85  C   UNL A   1      50.029  26.970  29.446  1.00  0.00     0.012 A 
ATOM     86  C   UNL A   1      49.287  25.633  31.336  1.00  0.00     0.148 A 
ATOM     87  C   UNL A   1      51.351  26.600  29.693  1.00  0.00     0.002 A 
ATOM     88  C   UNL A   1      50.613  25.304  31.604  1.00  0.00     0.091 A 
ATOM     89  F   UNL A   1      48.280  25.154  32.081  1.00  0.00    -0.205 F 
ATOM     90  C   UNL A   1      51.644  25.777  30.778  1.00  0.00     0.022 A 
BRANCH  88  91
ATOM     91  S   UNL A   1      51.077  24.322  33.036  1.00  0.00     0.127 S 
ATOM     92  O   UNL A   1      50.477  25.084  34.129  1.00  0.00    -0.237 OA
ATOM     93  O   UNL A   1      50.430  23.037  32.764  1.00  0.00    -0.237 OA
ATOM     94  O   UNL A   1      52.533  24.273  33.020  1.00  0.00    -0.744 OA
ENDBRANCH  88  91
ENDBRANCH  61  84
ENDBRANCH  35  36
ENDBRANCH  28  30
ENDBRANCH  27  28
ENDBRANCH  26  27
ENDBRANCH  25  26
ENDBRANCH  24  25
ENDBRANCH   1  24
TORSDOF 24
ENDMDL
MODEL 3
REMARK VINA RESULT:      -8.8      2.755      8.338
REMARK SMILES C[C@H](CCO)S[C@H]1CC[C@]([NH2+]C2CC2)(C(=O)OCCOCCOC(=O)c2ccc(-c3c4nc(c(-c5cccc(S(=O)(=O)[O-])c5F)c5ccc([nH]5)c(-c5cccc(S(=O)(=O)[O-])c5F)c5nc(c(-c6cccc(S(=O)(=O)[O-])c6F)c6ccc3[nH]6)C=C5)C=C4)cc2)C1
REMARK SMILES IDX 19 1 18 2 17 3 15 4 16 5 10 6 7 7 8 8 89 9 9 10 6 11 2 12
REMARK SMILES IDX 1 13 3 14 4 15 5 16 11 18 12 21 13 22 14 23 20 24 21 25
REMARK SMILES IDX 22 26 23 27 24 28 25 29 26 30 27 31 88 32 28 33 87 34 29 35
REMARK SMILES IDX 30 36 31 37 81 38 32 39 86 40 80 41 82 42 33 43 85 44 79 45
REMARK SMILES IDX 78 46 34 48 66 49 46 50 65 51 47 52 50 53 64 54 83 55 48 56
REMARK SMILES IDX 49 57 63 59 84 60 51 61 35 62 36 63 44 64 37 65 39 66 45 67
REMARK SMILES IDX 38 68 40 69 41 70 42 71 43 72 67 73 68 74 76 75 69 76 71 77
REMARK SMILES IDX 77 78 70 79 72 80 73 81 74 82 75 83 52 84 53 85 61 86 54 87
REMARK SMILES IDX 56 88 62 89 55 90 57 91 58 92 59 93 60 94
REMARK H PARENT 5 17 11 19 11 20 82 47 50 58
REMARK Flexibility Score: inf
ROOT
ATOM      1  C   UNL A   1      31.631  29.556  26.229  1.00  0.00     0.202 C 
ENDROOT
BRANCH   1   2
ATOM      2  C   UNL A   1      32.945  28.929  25.756  1.00  0.00     0.261 C 
BRANCH   2   3
ATOM      3  O   UNL A   1      32.993  28.836  24.322  1.00  0.00    -0.459 OA
BRANCH   3   4
ATOM      4  C   UNL A   1      31.833  28.442  23.734  1.00  0.00     0.368 C 
ATOM      5  O   UNL A   1      30.896  29.200  23.492  1.00  0.00    -0.245 OA
BRANCH   4   6
ATOM      6  C   UNL A   1      31.816  26.924  23.343  1.00  0.00     0.195 C 
ATOM      7  C   UNL A   1      33.633  25.348  22.699  1.00  0.00     0.054 C 
ATOM      8  C   UNL A   1      32.912  25.802  21.420  1.00  0.00     0.022 C 
ATOM      9  C   UNL A   1      33.221  26.424  23.700  1.00  0.00     0.095 C 
ATOM     10  C   UNL A   1      31.670  26.602  21.842  1.00  0.00     0.082 C 
BRANCH   7  11
ATOM     11  S   UNL A   1      33.195  23.606  23.070  1.00  0.00    -0.155 SA
BRANCH  11  12
ATOM     12  C   UNL A   1      34.227  23.158  24.542  1.00  0.00     0.046 C 
ATOM     13  C   UNL A   1      35.595  22.780  23.960  1.00  0.00     0.019 C 
BRANCH  12  14
ATOM     14  C   UNL A   1      33.634  22.043  25.409  1.00  0.00     0.042 C 
BRANCH  14  15
ATOM     15  C   UNL A   1      32.658  21.082  24.743  1.00  0.00     0.157 C 
BRANCH  15  16
ATOM     16  O   UNL A   1      31.404  21.067  25.402  1.00  0.00    -0.396 OA
ATOM     17  H   UNL A   1      30.847  20.369  25.022  1.00  0.00     0.210 HD
ENDBRANCH  15  16
ENDBRANCH  14  15
ENDBRANCH  12  14
ENDBRANCH  11  12
ENDBRANCH   7  11
BRANCH   6  18
ATOM     18  N   UNL A   1      30.701  26.367  24.154  1.00  0.00    -0.330 N 
ATOM     19  H   UNL A   1      30.009  26.018  23.492  1.00  0.00     0.347 HD
ATOM     20  H   UNL A   1      30.452  27.154  24.753  1.00  0.00     0.347 HD
BRANCH  18  21
ATOM     21  C   UNL A   1      30.920  25.301  25.118  1.00  0.00     0.183 C 
ATOM     22  C   UNL A   1      31.595  25.646  26.418  1.00  0.00     0.071 C 
ATOM     23  C   UNL A   1      30.132  25.340  26.404  1.00  0.00     0.071 C 
ENDBRANCH  18  21
ENDBRANCH   6  18
ENDBRANCH   4   6
ENDBRANCH   3   4
ENDBRANCH   2   3
ENDBRANCH   1   2
BRANCH   1  24
ATOM     24  O   UNL A   1      31.523  30.977  26.116  1.00  0.00    -0.374 OA
BRANCH  24  25
ATOM     25  C   UNL A   1      32.370  31.782  26.935  1.00  0.00     0.202 C 
BRANCH  25  26
ATOM     26  C   UNL A   1      32.081  33.288  26.968  1.00  0.00     0.261 C 
BRANCH  26  27
ATOM     27  O   UNL A   1      32.292  33.859  28.272  1.00  0.00    -0.460 OA
BRANCH  27  28
ATOM     28  C   UNL A   1      33.450  34.549  28.395  1.00  0.00     0.338 C 
ATOM     29  O   UNL A   1      33.584  35.767  28.388  1.00  0.00    -0.246 OA
BRANCH  28  30
ATOM     30  C   UNL A   1      34.563  33.647  28.738  1.00  0.00     0.060 A 
ATOM     31  C   UNL A   1      34.258  32.540  29.539  1.00  0.00     0.016 A 
ATOM     32  C   UNL A   1      35.886  33.929  28.391  1.00  0.00     0.016 A 
ATOM     33  C   UNL A   1      35.281  31.753  30.058  1.00  0.00     0.010 A 
ATOM     34  C   UNL A   1      36.916  33.136  28.917  1.00  0.00     0.010 A 
ATOM     35  C   UNL A   1      36.620  32.076  29.794  1.00  0.00    -0.014 A 
BRANCH  35  36
ATOM     36  C   UNL A   1      37.676  31.378  30.569  1.00  0.00     0.031 A 
ATOM     37  C   UNL A   1      38.485  30.293  29.910  1.00  0.00     0.074 A 
ATOM     38  C   UNL A   1      37.969  31.757  31.826  1.00  0.00     0.049 A 
ATOM     39  N   UNL A   1      39.549  29.671  30.352  1.00  0.00    -0.248 NA
ATOM     40  C   UNL A   1      38.039  29.850  28.579  1.00  0.00     0.031 C 
ATOM     41  C   UNL A   1      37.243  32.767  32.591  1.00  0.00     0.029 A 
ATOM     42  N   UNL A   1      38.953  31.325  32.680  1.00  0.00    -0.354 N 
ATOM     43  C   UNL A   1      39.894  28.759  29.364  1.00  0.00     0.074 A 
ATOM     44  C   UNL A   1      38.911  28.887  28.310  1.00  0.00     0.031 C 
ATOM     45  C   UNL A   1      37.797  32.866  33.812  1.00  0.00     0.029 A 
ATOM     46  C   UNL A   1      38.916  31.930  33.912  1.00  0.00     0.049 A 
ATOM     47  H   UNL A   1      39.622  30.646  32.431  1.00  0.00     0.167 HD
ATOM     48  C   UNL A   1      40.949  27.910  29.318  1.00  0.00     0.034 A 
ATOM     49  C   UNL A   1      39.696  31.753  34.997  1.00  0.00     0.034 A 
ATOM     50  C   UNL A   1      41.942  27.793  30.352  1.00  0.00     0.049 A 
ATOM     51  C   UNL A   1      40.878  30.822  34.919  1.00  0.00     0.074 A 
ATOM     52  C   UNL A   1      43.087  27.016  30.363  1.00  0.00     0.029 A 
ATOM     53  N   UNL A   1      41.901  28.460  31.567  1.00  0.00    -0.354 N 
ATOM     54  N   UNL A   1      41.292  30.099  33.907  1.00  0.00    -0.248 NA
ATOM     55  C   UNL A   1      41.726  30.722  36.115  1.00  0.00     0.031 C 
ATOM     56  C   UNL A   1      43.728  27.196  31.596  1.00  0.00     0.029 A 
ATOM     57  C   UNL A   1      42.990  28.099  32.344  1.00  0.00     0.049 A 
ATOM     58  H   UNL A   1      41.201  29.096  31.838  1.00  0.00     0.167 HD
ATOM     59  C   UNL A   1      42.459  29.473  34.336  1.00  0.00     0.074 A 
ATOM     60  C   UNL A   1      42.702  29.931  35.689  1.00  0.00     0.031 C 
ATOM     61  C   UNL A   1      43.246  28.586  33.677  1.00  0.00     0.034 A 
BRANCH  48  62
ATOM     62  C   UNL A   1      41.103  27.067  28.081  1.00  0.00     0.023 A 
ATOM     63  C   UNL A   1      41.713  27.620  26.936  1.00  0.00     0.012 A 
ATOM     64  C   UNL A   1      40.676  25.725  28.057  1.00  0.00     0.148 A 
ATOM     65  C   UNL A   1      41.866  26.862  25.775  1.00  0.00     0.002 A 
ATOM     66  C   UNL A   1      40.867  24.964  26.908  1.00  0.00     0.091 A 
ATOM     67  F   UNL A   1      40.071  25.224  29.143  1.00  0.00    -0.205 F 
ATOM     68  C   UNL A   1      41.452  25.532  25.765  1.00  0.00     0.022 A 
BRANCH  66  69
ATOM     69  S   UNL A   1      40.427  23.224  26.831  1.00  0.00     0.127 S 
ATOM     70  O   UNL A   1      39.001  23.294  26.511  1.00  0.00    -0.237 OA
ATOM     71  O   UNL A   1      41.272  22.734  25.742  1.00  0.00    -0.237 OA
ATOM     72  O   UNL A   1      40.756  22.677  28.140  1.00  0.00    -0.744 OA
ENDBRANCH  66  69
ENDBRANCH  48  62
BRANCH  49  73
ATOM     73  C   UNL A   1      39.403  32.523  36.237  1.00  0.00     0.023 A 
ATOM     74  C   UNL A   1      39.904  33.829  36.388  1.00  0.00     0.012 A 
ATOM     75  C   UNL A   1      38.580  31.979  37.242  1.00  0.00     0.148 A 
ATOM     76  C   UNL A   1      39.605  34.575  37.530  1.00  0.00     0.002 A 
ATOM     77  C   UNL A   1      38.239  32.748  38.348  1.00  0.00     0.091 A 
ATOM     78  F   UNL A   1      38.131  30.726  37.086  1.00  0.00    -0.205 F 
ATOM     79  C   UNL A   1      38.762  34.041  38.501  1.00  0.00     0.022 A 
BRANCH  77  80
ATOM     80  S   UNL A   1      37.048  32.191  39.572  1.00  0.00     0.127 S 
ATOM     81  O   UNL A   1      37.808  31.168  40.284  1.00  0.00    -0.237 OA
ATOM     82  O   UNL A   1      36.801  33.416  40.332  1.00  0.00    -0.237 OA
ATOM     83  O   UNL A   1      35.899  31.715  38.813  1.00  0.00    -0.744 OA
ENDBRANCH  77  80
ENDBRANCH  49  73
BRANCH  61  84
ATOM     84  C   UNL A   1      44.448  28.043  34.408  1.00  0.00     0.023 A 
ATOM     85  C   UNL A   1      45.674  28.734  34.336  1.00  0.00     0.012 A 
ATOM     86  C   UNL A   1      44.355  26.887  35.207  1.00  0.00     0.148 A 
ATOM     87  C   UNL A   1      46.797  28.263  35.016  1.00  0.00     0.002 A 
ATOM     88  C   UNL A   1      45.468  26.447  35.919  1.00  0.00     0.091 A 
ATOM     89  F   UNL A   1      43.188  26.227  35.251  1.00  0.00    -0.205 F 
ATOM     90  C   UNL A   1      46.692  27.127  35.815  1.00  0.00     0.022 A 
BRANCH  88  91
ATOM     91  S   UNL A   1      45.387  25.045  37.039  1.00  0.00     0.127 S 
ATOM     92  O   UNL A   1      44.377  25.486  37.998  1.00  0.00    -0.237 OA
ATOM     93  O   UNL A   1      44.955  23.958  36.158  1.00  0.00    -0.237 OA
ATOM     94  O   UNL A   1      46.736  24.886  37.565  1.00  0.00    -0.744 OA
ENDBRANCH  88  91
ENDBRANCH  61  84
ENDBRANCH  35  36
ENDBRANCH  28  30
ENDBRANCH  27  28
ENDBRANCH  26  27
ENDBRANCH  25  26
ENDBRANCH  24  25
ENDBRANCH   1  24
TORSDOF 24
ENDMDL
