MODEL 1
REMARK VINA RESULT:     -12.6      0.000      0.000
REMARK SMILES Cc1c(C(=O)OCCOCCOC(=O)c2ccc(-c3c4nc(c(-c5cccc(S(=O)(=O)[O-])c5F)c5ccc([nH]5)c(-c5cccc(S(=O)(=O)[O-])c5F)c5nc(c(-c6cccc(S(=O)(=O)[O-])c6F)c6ccc3[nH]6)C=C5)C=C4)cc2)cccc1-n1c(C)cc(/C=C2/C(=O)NC(=S)N=C2O)c1C
REMARK SMILES IDX 9 1 8 2 7 3 6 4 4 5 5 6 3 7 1 8 2 9 81 10 78 11 80 12 79 13
REMARK SMILES IDX 82 14 83 15 97 16 84 17 85 18 86 19 98 20 87 21 88 22 89 23
REMARK SMILES IDX 95 24 90 25 91 26 94 27 92 28 93 30 96 31 10 33 11 34 12 35
REMARK SMILES IDX 13 36 14 37 15 38 16 39 77 40 17 41 76 42 18 43 19 44 20 45
REMARK SMILES IDX 70 46 21 47 75 48 69 49 71 50 22 51 74 52 68 53 67 54 23 56
REMARK SMILES IDX 55 57 35 58 54 59 36 60 39 61 53 62 72 63 37 64 38 65 52 67
REMARK SMILES IDX 73 68 40 69 24 70 25 71 33 72 26 73 28 74 34 75 27 76 29 77
REMARK SMILES IDX 30 78 31 79 32 80 56 81 57 82 65 83 58 84 60 85 66 86 59 87
REMARK SMILES IDX 61 88 62 89 63 90 64 91 41 92 42 93 50 94 43 95 45 96 51 97
REMARK SMILES IDX 44 98 46 99 47 100 48 101 49 102
REMARK H PARENT 91 29 96 32 71 55 39 66
REMARK Flexibility Score: inf
ROOT
ATOM      1  O   UNL A   1      37.132  21.294  24.395  1.00  0.00    -0.374 OA
ENDROOT
BRANCH   1   2
ATOM      2  C   UNL A   1      36.251  20.378  24.996  1.00  0.00     0.202 C 
BRANCH   2   3
ATOM      3  C   UNL A   1      34.903  20.975  24.784  1.00  0.00     0.261 C 
BRANCH   3   4
ATOM      4  O   UNL A   1      34.071  20.848  25.970  1.00  0.00    -0.460 OA
BRANCH   4   5
ATOM      5  C   UNL A   1      33.707  21.775  26.886  1.00  0.00     0.338 C 
ATOM      6  O   UNL A   1      33.434  21.657  28.052  1.00  0.00    -0.246 OA
BRANCH   5   7
ATOM      7  C   UNL A   1      33.769  23.103  26.210  1.00  0.00     0.065 A 
ATOM      8  C   UNL A   1      31.452  22.840  25.117  1.00  0.00     0.047 C 
ATOM      9  C   UNL A   1      32.718  23.618  25.427  1.00  0.00    -0.012 A 
ATOM     10  C   UNL A   1      32.929  24.866  24.830  1.00  0.00     0.049 A 
ATOM     11  C   UNL A   1      35.000  23.794  26.291  1.00  0.00     0.016 A 
ATOM     12  C   UNL A   1      34.156  25.537  24.868  1.00  0.00     0.027 A 
ATOM     13  C   UNL A   1      35.201  24.990  25.600  1.00  0.00     0.003 A 
BRANCH  10  14
ATOM     14  N   UNL A   1      31.918  25.378  24.005  1.00  0.00    -0.318 N 
ATOM     15  C   UNL A   1      31.905  25.306  22.621  1.00  0.00     0.020 A 
ATOM     16  C   UNL A   1      31.081  26.414  24.408  1.00  0.00     0.027 A 
ATOM     17  C   UNL A   1      32.951  24.603  21.817  1.00  0.00     0.065 C 
ATOM     18  C   UNL A   1      30.798  26.021  22.208  1.00  0.00     0.031 A 
ATOM     19  C   UNL A   1      30.220  26.645  23.352  1.00  0.00    -0.003 A 
ATOM     20  C   UNL A   1      31.285  27.087  25.733  1.00  0.00     0.065 C 
BRANCH  19  21
ATOM     21  C   UNL A   1      29.082  27.497  23.288  1.00  0.00     0.029 C 
ATOM     22  C   UNL A   1      28.943  28.764  22.854  1.00  0.00     0.102 C 
ATOM     23  C   UNL A   1      27.564  29.305  22.893  1.00  0.00     0.262 C 
ATOM     24  C   UNL A   1      29.917  29.695  22.281  1.00  0.00     0.226 C 
ATOM     25  O   UNL A   1      26.647  28.829  23.551  1.00  0.00    -0.269 OA
ATOM     26  N   UNL A   1      27.380  30.404  22.098  1.00  0.00    -0.297 N 
ATOM     27  N   UNL A   1      29.660  30.739  21.580  1.00  0.00    -0.184 NA
ATOM     28  C   UNL A   1      28.346  31.070  21.387  1.00  0.00     0.203 C 
ATOM     29  H   UNL A   1      26.461  30.752  22.030  1.00  0.00     0.172 HD
ATOM     30  S   UNL A   1      27.849  32.314  20.379  1.00  0.00    -0.038 S 
BRANCH  24  31
ATOM     31  O   UNL A   1      31.201  29.485  22.573  1.00  0.00    -0.493 OA
ATOM     32  H   UNL A   1      31.751  29.029  21.967  1.00  0.00     0.295 HD
ENDBRANCH  24  31
ENDBRANCH  19  21
ENDBRANCH  10  14
ENDBRANCH   5   7
ENDBRANCH   4   5
ENDBRANCH   3   4
ENDBRANCH   2   3
ENDBRANCH   1   2
BRANCH   1  33
ATOM     33  C   UNL A   1      37.959  22.046  25.237  1.00  0.00     0.202 C 
BRANCH  33  34
ATOM     34  C   UNL A   1      38.774  21.113  26.121  1.00  0.00     0.261 C 
BRANCH  34  35
ATOM     35  O   UNL A   1      40.183  21.368  25.906  1.00  0.00    -0.460 OA
BRANCH  35  36
ATOM     36  C   UNL A   1      41.012  20.968  26.920  1.00  0.00     0.338 C 
ATOM     37  O   UNL A   1      40.842  19.945  27.565  1.00  0.00    -0.246 OA
BRANCH  36  38
ATOM     38  C   UNL A   1      41.977  22.059  27.284  1.00  0.00     0.060 A 
ATOM     39  C   UNL A   1      42.257  22.338  28.635  1.00  0.00     0.016 A 
ATOM     40  C   UNL A   1      42.318  22.998  26.314  1.00  0.00     0.016 A 
ATOM     41  C   UNL A   1      42.682  23.622  29.028  1.00  0.00     0.010 A 
ATOM     42  C   UNL A   1      42.632  24.284  26.720  1.00  0.00     0.010 A 
ATOM     43  C   UNL A   1      42.745  24.633  28.081  1.00  0.00    -0.014 A 
BRANCH  43  44
ATOM     44  C   UNL A   1      42.956  26.067  28.341  1.00  0.00     0.031 A 
ATOM     45  C   UNL A   1      41.737  26.900  28.408  1.00  0.00     0.074 A 
ATOM     46  C   UNL A   1      44.113  26.629  28.784  1.00  0.00     0.049 A 
ATOM     47  N   UNL A   1      41.748  28.184  28.490  1.00  0.00    -0.248 NA
ATOM     48  C   UNL A   1      40.391  26.336  28.354  1.00  0.00     0.031 C 
ATOM     49  C   UNL A   1      44.218  27.703  29.783  1.00  0.00     0.029 A 
ATOM     50  N   UNL A   1      45.451  26.326  28.534  1.00  0.00    -0.354 N 
ATOM     51  C   UNL A   1      40.480  28.568  28.846  1.00  0.00     0.074 A 
ATOM     52  C   UNL A   1      39.650  27.406  28.639  1.00  0.00     0.031 C 
ATOM     53  C   UNL A   1      45.500  28.072  29.930  1.00  0.00     0.029 A 
ATOM     54  C   UNL A   1      46.270  27.397  28.909  1.00  0.00     0.049 A 
ATOM     55  H   UNL A   1      45.774  25.479  28.149  1.00  0.00     0.167 HD
ATOM     56  C   UNL A   1      40.305  29.765  29.466  1.00  0.00     0.034 A 
ATOM     57  C   UNL A   1      47.223  27.913  28.084  1.00  0.00     0.034 A 
ATOM     58  C   UNL A   1      41.599  30.458  29.671  1.00  0.00     0.049 A 
ATOM     59  C   UNL A   1      46.900  29.351  27.774  1.00  0.00     0.074 A 
ATOM     60  C   UNL A   1      42.424  30.644  30.772  1.00  0.00     0.029 A 
ATOM     61  N   UNL A   1      42.381  30.801  28.570  1.00  0.00    -0.354 N 
ATOM     62  N   UNL A   1      45.946  30.014  28.367  1.00  0.00    -0.248 NA
ATOM     63  C   UNL A   1      47.547  30.138  26.736  1.00  0.00     0.031 C 
ATOM     64  C   UNL A   1      43.675  31.165  30.322  1.00  0.00     0.029 A 
ATOM     65  C   UNL A   1      43.615  31.320  28.948  1.00  0.00     0.049 A 
ATOM     66  H   UNL A   1      42.093  30.689  27.635  1.00  0.00     0.167 HD
ATOM     67  C   UNL A   1      45.660  31.149  27.669  1.00  0.00     0.074 A 
ATOM     68  C   UNL A   1      46.746  31.218  26.695  1.00  0.00     0.031 C 
ATOM     69  C   UNL A   1      44.519  31.867  27.926  1.00  0.00     0.034 A 
BRANCH  56  70
ATOM     70  C   UNL A   1      39.013  30.120  30.183  1.00  0.00     0.023 A 
ATOM     71  C   UNL A   1      38.551  29.228  31.171  1.00  0.00     0.012 A 
ATOM     72  C   UNL A   1      38.186  31.245  29.930  1.00  0.00     0.148 A 
ATOM     73  C   UNL A   1      37.305  29.371  31.791  1.00  0.00     0.002 A 
ATOM     74  C   UNL A   1      36.903  31.342  30.482  1.00  0.00     0.091 A 
ATOM     75  F   UNL A   1      38.662  32.279  29.224  1.00  0.00    -0.205 F 
ATOM     76  C   UNL A   1      36.462  30.404  31.414  1.00  0.00     0.022 A 
BRANCH  74  77
ATOM     77  S   UNL A   1      35.713  32.588  29.945  1.00  0.00     0.127 S 
ATOM     78  O   UNL A   1      34.546  32.287  30.778  1.00  0.00    -0.237 OA
ATOM     79  O   UNL A   1      36.386  33.840  30.280  1.00  0.00    -0.237 OA
ATOM     80  O   UNL A   1      35.496  32.339  28.525  1.00  0.00    -0.744 OA
ENDBRANCH  74  77
ENDBRANCH  56  70
BRANCH  57  81
ATOM     81  C   UNL A   1      47.792  26.882  27.157  1.00  0.00     0.023 A 
ATOM     82  C   UNL A   1      47.109  26.669  25.934  1.00  0.00     0.012 A 
ATOM     83  C   UNL A   1      49.157  26.549  27.234  1.00  0.00     0.148 A 
ATOM     84  C   UNL A   1      47.801  26.279  24.781  1.00  0.00     0.002 A 
ATOM     85  C   UNL A   1      49.849  26.221  26.070  1.00  0.00     0.091 A 
ATOM     86  F   UNL A   1      49.771  26.653  28.419  1.00  0.00    -0.205 F 
ATOM     87  C   UNL A   1      49.180  26.111  24.840  1.00  0.00     0.022 A 
BRANCH  85  88
ATOM     88  S   UNL A   1      51.645  26.138  26.037  1.00  0.00     0.127 S 
ATOM     89  O   UNL A   1      51.897  24.912  26.786  1.00  0.00    -0.237 OA
ATOM     90  O   UNL A   1      51.922  26.048  24.601  1.00  0.00    -0.237 OA
ATOM     91  O   UNL A   1      52.101  27.372  26.656  1.00  0.00    -0.744 OA
ENDBRANCH  85  88
ENDBRANCH  57  81
BRANCH  69  92
ATOM     92  C   UNL A   1      44.119  33.137  27.195  1.00  0.00     0.023 A 
ATOM     93  C   UNL A   1      43.947  33.166  25.800  1.00  0.00     0.012 A 
ATOM     94  C   UNL A   1      43.965  34.380  27.865  1.00  0.00     0.148 A 
ATOM     95  C   UNL A   1      43.471  34.297  25.133  1.00  0.00     0.002 A 
ATOM     96  C   UNL A   1      43.521  35.515  27.201  1.00  0.00     0.091 A 
ATOM     97  F   UNL A   1      44.305  34.502  29.149  1.00  0.00    -0.205 F 
ATOM     98  C   UNL A   1      43.229  35.466  25.838  1.00  0.00     0.022 A 
BRANCH  96  99
ATOM     99  S   UNL A   1      43.334  37.100  28.028  1.00  0.00     0.127 S 
ATOM    100  O   UNL A   1      42.831  37.935  26.936  1.00  0.00    -0.237 OA
ATOM    101  O   UNL A   1      42.345  36.781  29.058  1.00  0.00    -0.237 OA
ATOM    102  O   UNL A   1      44.649  37.465  28.530  1.00  0.00    -0.744 OA
ENDBRANCH  96  99
ENDBRANCH  69  92
ENDBRANCH  43  44
ENDBRANCH  36  38
ENDBRANCH  35  36
ENDBRANCH  34  35
ENDBRANCH  33  34
ENDBRANCH   1  33
TORSDOF 20
ENDMDL
MODEL 2
REMARK VINA RESULT:     -12.4      2.153      3.369
REMARK SMILES Cc1c(C(=O)OCCOCCOC(=O)c2ccc(-c3c4nc(c(-c5cccc(S(=O)(=O)[O-])c5F)c5ccc([nH]5)c(-c5cccc(S(=O)(=O)[O-])c5F)c5nc(c(-c6cccc(S(=O)(=O)[O-])c6F)c6ccc3[nH]6)C=C5)C=C4)cc2)cccc1-n1c(C)cc(/C=C2/C(=O)NC(=S)N=C2O)c1C
REMARK SMILES IDX 9 1 8 2 7 3 6 4 4 5 5 6 3 7 1 8 2 9 81 10 78 11 80 12 79 13
REMARK SMILES IDX 82 14 83 15 97 16 84 17 85 18 86 19 98 20 87 21 88 22 89 23
REMARK SMILES IDX 95 24 90 25 91 26 94 27 92 28 93 30 96 31 10 33 11 34 12 35
REMARK SMILES IDX 13 36 14 37 15 38 16 39 77 40 17 41 76 42 18 43 19 44 20 45
REMARK SMILES IDX 70 46 21 47 75 48 69 49 71 50 22 51 74 52 68 53 67 54 23 56
REMARK SMILES IDX 55 57 35 58 54 59 36 60 39 61 53 62 72 63 37 64 38 65 52 67
REMARK SMILES IDX 73 68 40 69 24 70 25 71 33 72 26 73 28 74 34 75 27 76 29 77
REMARK SMILES IDX 30 78 31 79 32 80 56 81 57 82 65 83 58 84 60 85 66 86 59 87
REMARK SMILES IDX 61 88 62 89 63 90 64 91 41 92 42 93 50 94 43 95 45 96 51 97
REMARK SMILES IDX 44 98 46 99 47 100 48 101 49 102
REMARK H PARENT 91 29 96 32 71 55 39 66
REMARK Flexibility Score: inf
ROOT
ATOM      1  O   UNL A   1      42.232  19.262  25.217  1.00  0.00    -0.374 OA
ENDROOT
BRANCH   1   2
ATOM      2  C   UNL A   1      41.491  20.081  26.087  1.00  0.00     0.202 C 
BRANCH   2   3
ATOM      3  C   UNL A   1      40.145  19.446  26.127  1.00  0.00     0.261 C 
BRANCH   3   4
ATOM      4  O   UNL A   1      39.151  20.261  25.446  1.00  0.00    -0.460 OA
BRANCH   4   5
ATOM      5  C   UNL A   1      38.680  21.495  25.742  1.00  0.00     0.338 C 
ATOM      6  O   UNL A   1      39.252  22.475  26.143  1.00  0.00    -0.246 OA
BRANCH   5   7
ATOM      7  C   UNL A   1      37.229  21.501  25.396  1.00  0.00     0.065 A 
ATOM      8  C   UNL A   1      36.908  23.963  26.083  1.00  0.00     0.047 C 
ATOM      9  C   UNL A   1      36.416  22.645  25.513  1.00  0.00    -0.012 A 
ATOM     10  C   UNL A   1      35.065  22.495  25.178  1.00  0.00     0.049 A 
ATOM     11  C   UNL A   1      36.659  20.256  25.048  1.00  0.00     0.016 A 
ATOM     12  C   UNL A   1      34.483  21.260  24.875  1.00  0.00     0.027 A 
ATOM     13  C   UNL A   1      35.288  20.130  24.817  1.00  0.00     0.003 A 
BRANCH  10  14
ATOM     14  N   UNL A   1      34.223  23.605  25.333  1.00  0.00    -0.318 N 
ATOM     15  C   UNL A   1      33.326  23.788  26.373  1.00  0.00     0.020 A 
ATOM     16  C   UNL A   1      33.831  24.397  24.258  1.00  0.00     0.027 A 
ATOM     17  C   UNL A   1      33.184  22.841  27.521  1.00  0.00     0.065 C 
ATOM     18  C   UNL A   1      32.630  24.945  26.084  1.00  0.00     0.031 A 
ATOM     19  C   UNL A   1      33.020  25.384  24.785  1.00  0.00    -0.003 A 
ATOM     20  C   UNL A   1      34.237  24.040  22.859  1.00  0.00     0.065 C 
BRANCH  19  21
ATOM     21  C   UNL A   1      32.467  26.531  24.148  1.00  0.00     0.029 C 
ATOM     22  C   UNL A   1      31.220  26.794  23.717  1.00  0.00     0.102 C 
ATOM     23  C   UNL A   1      31.013  28.146  23.144  1.00  0.00     0.262 C 
ATOM     24  C   UNL A   1      29.996  25.992  23.771  1.00  0.00     0.226 C 
ATOM     25  O   UNL A   1      31.911  28.885  22.762  1.00  0.00    -0.269 OA
ATOM     26  N   UNL A   1      29.699  28.526  23.090  1.00  0.00    -0.297 N 
ATOM     27  N   UNL A   1      28.792  26.422  23.662  1.00  0.00    -0.184 NA
ATOM     28  C   UNL A   1      28.610  27.755  23.410  1.00  0.00     0.203 C 
ATOM     29  H   UNL A   1      29.518  29.446  22.791  1.00  0.00     0.172 HD
ATOM     30  S   UNL A   1      27.105  28.491  23.386  1.00  0.00    -0.038 S 
BRANCH  24  31
ATOM     31  O   UNL A   1      30.141  24.671  23.870  1.00  0.00    -0.493 OA
ATOM     32  H   UNL A   1      29.889  24.229  24.656  1.00  0.00     0.295 HD
ENDBRANCH  24  31
ENDBRANCH  19  21
ENDBRANCH  10  14
ENDBRANCH   5   7
ENDBRANCH   4   5
ENDBRANCH   3   4
ENDBRANCH   2   3
ENDBRANCH   1   2
BRANCH   1  33
ATOM     33  C   UNL A   1      43.357  18.613  25.740  1.00  0.00     0.202 C 
BRANCH  33  34
ATOM     34  C   UNL A   1      44.476  18.616  24.708  1.00  0.00     0.261 C 
BRANCH  34  35
ATOM     35  O   UNL A   1      44.568  19.934  24.113  1.00  0.00    -0.460 OA
BRANCH  35  36
ATOM     36  C   UNL A   1      45.389  20.814  24.765  1.00  0.00     0.338 C 
ATOM     37  O   UNL A   1      46.574  20.603  24.974  1.00  0.00    -0.246 OA
BRANCH  36  38
ATOM     38  C   UNL A   1      44.594  21.923  25.391  1.00  0.00     0.060 A 
ATOM     39  C   UNL A   1      43.925  22.861  24.582  1.00  0.00     0.016 A 
ATOM     40  C   UNL A   1      44.801  22.215  26.736  1.00  0.00     0.016 A 
ATOM     41  C   UNL A   1      43.653  24.156  25.063  1.00  0.00     0.010 A 
ATOM     42  C   UNL A   1      44.627  23.521  27.164  1.00  0.00     0.010 A 
ATOM     43  C   UNL A   1      44.122  24.526  26.315  1.00  0.00    -0.014 A 
BRANCH  43  44
ATOM     44  C   UNL A   1      44.122  25.883  26.886  1.00  0.00     0.031 A 
ATOM     45  C   UNL A   1      42.809  26.558  26.950  1.00  0.00     0.074 A 
ATOM     46  C   UNL A   1      45.142  26.446  27.588  1.00  0.00     0.049 A 
ATOM     47  N   UNL A   1      42.651  27.789  27.291  1.00  0.00    -0.248 NA
ATOM     48  C   UNL A   1      41.559  25.891  26.599  1.00  0.00     0.031 C 
ATOM     49  C   UNL A   1      44.998  27.283  28.788  1.00  0.00     0.029 A 
ATOM     50  N   UNL A   1      46.527  26.336  27.469  1.00  0.00    -0.354 N 
ATOM     51  C   UNL A   1      41.312  27.961  27.540  1.00  0.00     0.074 A 
ATOM     52  C   UNL A   1      40.663  26.797  26.990  1.00  0.00     0.031 C 
ATOM     53  C   UNL A   1      46.199  27.736  29.182  1.00  0.00     0.029 A 
ATOM     54  C   UNL A   1      47.159  27.376  28.162  1.00  0.00     0.049 A 
ATOM     55  H   UNL A   1      46.995  25.629  26.969  1.00  0.00     0.167 HD
ATOM     56  C   UNL A   1      40.921  28.973  28.358  1.00  0.00     0.034 A 
ATOM     57  C   UNL A   1      48.127  28.148  27.598  1.00  0.00     0.034 A 
ATOM     58  C   UNL A   1      42.086  29.728  28.876  1.00  0.00     0.049 A 
ATOM     59  C   UNL A   1      47.665  29.581  27.543  1.00  0.00     0.074 A 
ATOM     60  C   UNL A   1      42.750  29.752  30.094  1.00  0.00     0.029 A 
ATOM     61  N   UNL A   1      42.940  30.376  27.985  1.00  0.00    -0.354 N 
ATOM     62  N   UNL A   1      46.575  30.003  28.120  1.00  0.00    -0.248 NA
ATOM     63  C   UNL A   1      48.324  30.633  26.785  1.00  0.00     0.031 C 
ATOM     64  C   UNL A   1      43.970  30.477  29.935  1.00  0.00     0.029 A 
ATOM     65  C   UNL A   1      44.049  30.919  28.626  1.00  0.00     0.049 A 
ATOM     66  H   UNL A   1      42.777  30.441  27.016  1.00  0.00     0.167 HD
ATOM     67  C   UNL A   1      46.232  31.229  27.633  1.00  0.00     0.074 A 
ATOM     68  C   UNL A   1      47.404  31.613  26.853  1.00  0.00     0.031 C 
ATOM     69  C   UNL A   1      44.988  31.760  27.871  1.00  0.00     0.034 A 
BRANCH  56  70
ATOM     70  C   UNL A   1      39.521  29.036  28.947  1.00  0.00     0.023 A 
ATOM     71  C   UNL A   1      38.446  29.204  28.052  1.00  0.00     0.012 A 
ATOM     72  C   UNL A   1      39.179  28.989  30.323  1.00  0.00     0.148 A 
ATOM     73  C   UNL A   1      37.133  29.423  28.485  1.00  0.00     0.002 A 
ATOM     74  C   UNL A   1      37.885  29.296  30.761  1.00  0.00     0.091 A 
ATOM     75  F   UNL A   1      40.076  28.560  31.220  1.00  0.00    -0.205 F 
ATOM     76  C   UNL A   1      36.860  29.513  29.840  1.00  0.00     0.022 A 
BRANCH  74  77
ATOM     77  S   UNL A   1      37.490  29.548  32.503  1.00  0.00     0.127 S 
ATOM     78  O   UNL A   1      36.176  30.195  32.437  1.00  0.00    -0.237 OA
ATOM     79  O   UNL A   1      37.465  28.186  33.027  1.00  0.00    -0.237 OA
ATOM     80  O   UNL A   1      38.541  30.415  33.024  1.00  0.00    -0.744 OA
ENDBRANCH  74  77
ENDBRANCH  56  70
BRANCH  57  81
ATOM     81  C   UNL A   1      48.922  27.403  26.569  1.00  0.00     0.023 A 
ATOM     82  C   UNL A   1      48.562  27.597  25.211  1.00  0.00     0.012 A 
ATOM     83  C   UNL A   1      50.232  26.984  26.866  1.00  0.00     0.148 A 
ATOM     84  C   UNL A   1      49.521  27.523  24.195  1.00  0.00     0.002 A 
ATOM     85  C   UNL A   1      51.193  26.971  25.856  1.00  0.00     0.091 A 
ATOM     86  F   UNL A   1      50.536  26.700  28.138  1.00  0.00    -0.205 F 
ATOM     87  C   UNL A   1      50.847  27.265  24.527  1.00  0.00     0.022 A 
BRANCH  85  88
ATOM     88  S   UNL A   1      52.944  26.798  26.229  1.00  0.00     0.127 S 
ATOM     89  O   UNL A   1      53.147  27.873  27.194  1.00  0.00    -0.237 OA
ATOM     90  O   UNL A   1      53.005  25.447  26.793  1.00  0.00    -0.237 OA
ATOM     91  O   UNL A   1      53.627  26.944  24.954  1.00  0.00    -0.744 OA
ENDBRANCH  85  88
ENDBRANCH  57  81
BRANCH  69  92
ATOM     92  C   UNL A   1      44.519  33.112  27.363  1.00  0.00     0.023 A 
ATOM     93  C   UNL A   1      44.225  33.333  26.006  1.00  0.00     0.012 A 
ATOM     94  C   UNL A   1      44.419  34.247  28.212  1.00  0.00     0.148 A 
ATOM     95  C   UNL A   1      43.687  34.539  25.549  1.00  0.00     0.002 A 
ATOM     96  C   UNL A   1      43.912  35.455  27.756  1.00  0.00     0.091 A 
ATOM     97  F   UNL A   1      44.870  34.193  29.466  1.00  0.00    -0.205 F 
ATOM     98  C   UNL A   1      43.503  35.593  26.430  1.00  0.00     0.022 A 
BRANCH  96  99
ATOM     99  S   UNL A   1      43.791  36.905  28.811  1.00  0.00     0.127 S 
ATOM    100  O   UNL A   1      43.090  37.842  27.932  1.00  0.00    -0.237 OA
ATOM    101  O   UNL A   1      42.990  36.396  29.923  1.00  0.00    -0.237 OA
ATOM    102  O   UNL A   1      45.153  37.283  29.157  1.00  0.00    -0.744 OA
ENDBRANCH  96  99
ENDBRANCH  69  92
ENDBRANCH  43  44
ENDBRANCH  36  38
ENDBRANCH  35  36
ENDBRANCH  34  35
ENDBRANCH  33  34
ENDBRANCH   1  33
TORSDOF 20
ENDMDL
MODEL 3
REMARK VINA RESULT:     -11.6      4.987     11.138
REMARK SMILES Cc1c(C(=O)OCCOCCOC(=O)c2ccc(-c3c4nc(c(-c5cccc(S(=O)(=O)[O-])c5F)c5ccc([nH]5)c(-c5cccc(S(=O)(=O)[O-])c5F)c5nc(c(-c6cccc(S(=O)(=O)[O-])c6F)c6ccc3[nH]6)C=C5)C=C4)cc2)cccc1-n1c(C)cc(/C=C2/C(=O)NC(=S)N=C2O)c1C
REMARK SMILES IDX 9 1 8 2 7 3 6 4 4 5 5 6 3 7 1 8 2 9 81 10 78 11 80 12 79 13
REMARK SMILES IDX 82 14 83 15 97 16 84 17 85 18 86 19 98 20 87 21 88 22 89 23
REMARK SMILES IDX 95 24 90 25 91 26 94 27 92 28 93 30 96 31 10 33 11 34 12 35
REMARK SMILES IDX 13 36 14 37 15 38 16 39 77 40 17 41 76 42 18 43 19 44 20 45
REMARK SMILES IDX 70 46 21 47 75 48 69 49 71 50 22 51 74 52 68 53 67 54 23 56
REMARK SMILES IDX 55 57 35 58 54 59 36 60 39 61 53 62 72 63 37 64 38 65 52 67
REMARK SMILES IDX 73 68 40 69 24 70 25 71 33 72 26 73 28 74 34 75 27 76 29 77
REMARK SMILES IDX 30 78 31 79 32 80 56 81 57 82 65 83 58 84 60 85 66 86 59 87
REMARK SMILES IDX 61 88 62 89 63 90 64 91 41 92 42 93 50 94 43 95 45 96 51 97
REMARK SMILES IDX 44 98 46 99 47 100 48 101 49 102
REMARK H PARENT 91 29 96 32 71 55 39 66
REMARK Flexibility Score: inf
ROOT
ATOM      1  O   UNL A   1      33.208  29.927  27.297  1.00  0.00    -0.374 OA
ENDROOT
BRANCH   1   2
ATOM      2  C   UNL A   1      33.014  28.538  27.193  1.00  0.00     0.202 C 
BRANCH   2   3
ATOM      3  C   UNL A   1      31.534  28.377  27.164  1.00  0.00     0.261 C 
BRANCH   3   4
ATOM      4  O   UNL A   1      31.150  27.054  26.698  1.00  0.00    -0.460 OA
BRANCH   4   5
ATOM      5  C   UNL A   1      30.999  26.580  25.439  1.00  0.00     0.338 C 
ATOM      6  O   UNL A   1      30.508  27.088  24.466  1.00  0.00    -0.246 OA
BRANCH   5   7
ATOM      7  C   UNL A   1      31.658  25.243  25.396  1.00  0.00     0.065 A 
ATOM      8  C   UNL A   1      34.018  26.232  25.105  1.00  0.00     0.047 C 
ATOM      9  C   UNL A   1      33.052  25.075  25.283  1.00  0.00    -0.012 A 
ATOM     10  C   UNL A   1      33.528  23.760  25.228  1.00  0.00     0.049 A 
ATOM     11  C   UNL A   1      30.802  24.119  25.356  1.00  0.00     0.016 A 
ATOM     12  C   UNL A   1      32.688  22.644  25.144  1.00  0.00     0.027 A 
ATOM     13  C   UNL A   1      31.313  22.829  25.202  1.00  0.00     0.003 A 
BRANCH  10  14
ATOM     14  N   UNL A   1      34.906  23.566  25.065  1.00  0.00    -0.318 N 
ATOM     15  C   UNL A   1      35.536  23.286  23.863  1.00  0.00     0.020 A 
ATOM     16  C   UNL A   1      35.728  23.153  26.109  1.00  0.00     0.027 A 
ATOM     17  C   UNL A   1      34.825  23.219  22.550  1.00  0.00     0.065 C 
ATOM     18  C   UNL A   1      36.865  23.065  24.166  1.00  0.00     0.031 A 
ATOM     19  C   UNL A   1      37.004  23.076  25.584  1.00  0.00    -0.003 A 
ATOM     20  C   UNL A   1      35.146  22.818  27.450  1.00  0.00     0.065 C 
BRANCH  19  21
ATOM     21  C   UNL A   1      38.239  22.839  26.252  1.00  0.00     0.029 C 
ATOM     22  C   UNL A   1      39.020  21.744  26.314  1.00  0.00     0.102 C 
ATOM     23  C   UNL A   1      40.281  21.901  27.076  1.00  0.00     0.262 C 
ATOM     24  C   UNL A   1      38.872  20.422  25.700  1.00  0.00     0.226 C 
ATOM     25  O   UNL A   1      40.504  22.801  27.876  1.00  0.00    -0.269 OA
ATOM     26  N   UNL A   1      41.218  20.943  26.796  1.00  0.00    -0.297 N 
ATOM     27  N   UNL A   1      39.800  19.555  25.515  1.00  0.00    -0.184 NA
ATOM     28  C   UNL A   1      41.051  19.848  25.986  1.00  0.00     0.203 C 
ATOM     29  H   UNL A   1      42.100  21.051  27.219  1.00  0.00     0.172 HD
ATOM     30  S   UNL A   1      42.392  18.886  25.695  1.00  0.00    -0.038 S 
BRANCH  24  31
ATOM     31  O   UNL A   1      37.640  20.046  25.361  1.00  0.00    -0.493 OA
ATOM     32  H   UNL A   1      37.493  19.586  24.558  1.00  0.00     0.295 HD
ENDBRANCH  24  31
ENDBRANCH  19  21
ENDBRANCH  10  14
ENDBRANCH   5   7
ENDBRANCH   4   5
ENDBRANCH   3   4
ENDBRANCH   2   3
ENDBRANCH   1   2
BRANCH   1  33
ATOM     33  C   UNL A   1      32.160  30.759  26.884  1.00  0.00     0.202 C 
BRANCH  33  34
ATOM     34  C   UNL A   1      32.537  32.214  27.125  1.00  0.00     0.261 C 
BRANCH  34  35
ATOM     35  O   UNL A   1      33.527  32.278  28.180  1.00  0.00    -0.460 OA
BRANCH  35  36
ATOM     36  C   UNL A   1      33.945  33.539  28.514  1.00  0.00     0.338 C 
ATOM     37  O   UNL A   1      33.436  34.557  28.071  1.00  0.00    -0.246 OA
BRANCH  36  38
ATOM     38  C   UNL A   1      35.238  33.489  29.275  1.00  0.00     0.060 A 
ATOM     39  C   UNL A   1      36.449  33.826  28.640  1.00  0.00     0.016 A 
ATOM     40  C   UNL A   1      35.277  32.793  30.479  1.00  0.00     0.016 A 
ATOM     41  C   UNL A   1      37.669  33.294  29.097  1.00  0.00     0.010 A 
ATOM     42  C   UNL A   1      36.465  32.190  30.857  1.00  0.00     0.010 A 
ATOM     43  C   UNL A   1      37.660  32.370  30.132  1.00  0.00    -0.014 A 
BRANCH  43  44
ATOM     44  C   UNL A   1      38.798  31.557  30.592  1.00  0.00     0.031 A 
ATOM     45  C   UNL A   1      39.013  30.281  29.879  1.00  0.00     0.074 A 
ATOM     46  C   UNL A   1      39.800  31.988  31.406  1.00  0.00     0.049 A 
ATOM     47  N   UNL A   1      39.871  29.393  30.240  1.00  0.00    -0.248 NA
ATOM     48  C   UNL A   1      38.241  29.894  28.702  1.00  0.00     0.031 C 
ATOM     49  C   UNL A   1      41.225  31.659  31.259  1.00  0.00     0.029 A 
ATOM     50  N   UNL A   1      39.811  32.880  32.478  1.00  0.00    -0.354 N 
ATOM     51  C   UNL A   1      40.007  28.524  29.187  1.00  0.00     0.074 A 
ATOM     52  C   UNL A   1      38.901  28.806  28.307  1.00  0.00     0.031 C 
ATOM     53  C   UNL A   1      41.927  32.186  32.274  1.00  0.00     0.029 A 
ATOM     54  C   UNL A   1      40.983  32.722  33.228  1.00  0.00     0.049 A 
ATOM     55  H   UNL A   1      39.098  33.528  32.679  1.00  0.00     0.167 HD
ATOM     56  C   UNL A   1      41.152  27.799  29.077  1.00  0.00     0.034 A 
ATOM     57  C   UNL A   1      40.970  32.579  34.582  1.00  0.00     0.034 A 
ATOM     58  C   UNL A   1      42.100  28.122  30.169  1.00  0.00     0.049 A 
ATOM     59  C   UNL A   1      41.540  31.237  34.955  1.00  0.00     0.074 A 
ATOM     60  C   UNL A   1      43.257  28.886  30.241  1.00  0.00     0.029 A 
ATOM     61  N   UNL A   1      41.730  27.899  31.494  1.00  0.00    -0.354 N 
ATOM     62  N   UNL A   1      42.112  30.439  34.098  1.00  0.00    -0.248 NA
ATOM     63  C   UNL A   1      41.453  30.641  36.280  1.00  0.00     0.031 C 
ATOM     64  C   UNL A   1      43.606  29.056  31.615  1.00  0.00     0.029 A 
ATOM     65  C   UNL A   1      42.680  28.380  32.390  1.00  0.00     0.049 A 
ATOM     66  H   UNL A   1      40.894  27.454  31.764  1.00  0.00     0.167 HD
ATOM     67  C   UNL A   1      42.222  29.186  34.622  1.00  0.00     0.074 A 
ATOM     68  C   UNL A   1      41.862  29.384  36.024  1.00  0.00     0.031 C 
ATOM     69  C   UNL A   1      42.528  28.110  33.826  1.00  0.00     0.034 A 
BRANCH  56  70
ATOM     70  C   UNL A   1      41.527  27.076  27.794  1.00  0.00     0.023 A 
ATOM     71  C   UNL A   1      40.516  26.343  27.141  1.00  0.00     0.012 A 
ATOM     72  C   UNL A   1      42.813  27.023  27.197  1.00  0.00     0.148 A 
ATOM     73  C   UNL A   1      40.776  25.521  26.038  1.00  0.00     0.002 A 
ATOM     74  C   UNL A   1      43.093  26.135  26.152  1.00  0.00     0.091 A 
ATOM     75  F   UNL A   1      43.760  27.894  27.572  1.00  0.00    -0.205 F 
ATOM     76  C   UNL A   1      42.073  25.383  25.571  1.00  0.00     0.022 A 
BRANCH  74  77
ATOM     77  S   UNL A   1      44.775  25.817  25.581  1.00  0.00     0.127 S 
ATOM     78  O   UNL A   1      44.576  24.747  24.599  1.00  0.00    -0.237 OA
ATOM     79  O   UNL A   1      45.165  27.100  25.002  1.00  0.00    -0.237 OA
ATOM     80  O   UNL A   1      45.520  25.395  26.761  1.00  0.00    -0.744 OA
ENDBRANCH  74  77
ENDBRANCH  56  70
BRANCH  57  81
ATOM     81  C   UNL A   1      39.816  33.293  35.219  1.00  0.00     0.023 A 
ATOM     82  C   UNL A   1      38.591  32.585  35.310  1.00  0.00     0.012 A 
ATOM     83  C   UNL A   1      40.056  34.343  36.124  1.00  0.00     0.148 A 
ATOM     84  C   UNL A   1      37.702  32.817  36.365  1.00  0.00     0.002 A 
ATOM     85  C   UNL A   1      39.196  34.526  37.206  1.00  0.00     0.091 A 
ATOM     86  F   UNL A   1      41.166  35.076  35.968  1.00  0.00    -0.205 F 
ATOM     87  C   UNL A   1      38.035  33.749  37.343  1.00  0.00     0.022 A 
BRANCH  85  88
ATOM     88  S   UNL A   1      39.633  35.599  38.581  1.00  0.00     0.127 S 
ATOM     89  O   UNL A   1      38.831  35.033  39.661  1.00  0.00    -0.237 OA
ATOM     90  O   UNL A   1      41.075  35.370  38.704  1.00  0.00    -0.237 OA
ATOM     91  O   UNL A   1      39.275  36.942  38.154  1.00  0.00    -0.744 OA
ENDBRANCH  85  88
ENDBRANCH  57  81
BRANCH  69  92
ATOM     92  C   UNL A   1      42.664  26.682  34.325  1.00  0.00     0.023 A 
ATOM     93  C   UNL A   1      41.798  26.150  35.295  1.00  0.00     0.012 A 
ATOM     94  C   UNL A   1      43.715  25.827  33.895  1.00  0.00     0.148 A 
ATOM     95  C   UNL A   1      41.843  24.807  35.676  1.00  0.00     0.002 A 
ATOM     96  C   UNL A   1      43.781  24.500  34.294  1.00  0.00     0.091 A 
ATOM     97  F   UNL A   1      44.704  26.301  33.136  1.00  0.00    -0.205 F 
ATOM     98  C   UNL A   1      42.819  23.972  35.153  1.00  0.00     0.022 A 
BRANCH  96  99
ATOM     99  S   UNL A   1      45.109  23.406  33.772  1.00  0.00     0.127 S 
ATOM    100  O   UNL A   1      44.933  23.415  32.319  1.00  0.00    -0.237 OA
ATOM    101  O   UNL A   1      46.290  24.126  34.248  1.00  0.00    -0.237 OA
ATOM    102  O   UNL A   1      44.870  22.124  34.416  1.00  0.00    -0.744 OA
ENDBRANCH  96  99
ENDBRANCH  69  92
ENDBRANCH  43  44
ENDBRANCH  36  38
ENDBRANCH  35  36
ENDBRANCH  34  35
ENDBRANCH  33  34
ENDBRANCH   1  33
TORSDOF 20
ENDMDL
