MODEL 1
REMARK VINA RESULT:     -11.6      0.000      0.000
REMARK SMILES Cc1cc(F)cc(N[C@H](C(=O)OCCOCCOC(=O)c2ccc(-c3c4nc(c(-c5cccc(S(=O)(=O)[O-])c5F)c5ccc([nH]5)c(-c5cccc(S(=O)(=O)[O-])c5F)c5nc(c(-c6cccc(S(=O)(=O)[O-])c6F)c6ccc3[nH]6)C=C5)C=C4)cc2)c2cc(C)cc(C)c2)c1
REMARK SMILES IDX 16 1 15 2 14 3 13 4 12 5 10 6 11 7 9 8 8 9 7 11 1 12 2 13
REMARK SMILES IDX 3 14 92 15 4 16 5 17 6 18 84 19 85 20 91 21 86 22 89 23
REMARK SMILES IDX 87 24 88 25 90 26 17 27 18 28 19 29 20 30 21 31 22 32 83 33
REMARK SMILES IDX 23 34 82 35 24 36 25 37 26 38 76 39 27 40 81 41 75 42 77 43
REMARK SMILES IDX 28 44 80 45 74 46 73 47 29 49 61 50 41 51 60 52 42 53 45 54
REMARK SMILES IDX 59 55 78 56 43 57 44 58 58 60 79 61 46 62 30 63 31 64 39 65
REMARK SMILES IDX 32 66 34 67 40 68 33 69 35 70 36 71 37 72 38 73 62 74 63 75
REMARK SMILES IDX 71 76 64 77 66 78 72 79 65 80 67 81 68 82 69 83 70 84 47 85
REMARK SMILES IDX 48 86 56 87 49 88 51 89 57 90 50 91 52 92 53 93 54 94 55 95
REMARK H PARENT 8 10 77 48 45 59
REMARK Flexibility Score: inf
ROOT
ATOM      1  C   UNL A   1      37.996  19.623  24.861  1.00  0.00     0.202 C 
ENDROOT
BRANCH   1   2
ATOM      2  O   UNL A   1      37.085  20.619  25.331  1.00  0.00    -0.374 OA
BRANCH   2   3
ATOM      3  C   UNL A   1      37.295  21.962  24.905  1.00  0.00     0.202 C 
BRANCH   3   4
ATOM      4  C   UNL A   1      37.249  23.072  25.958  1.00  0.00     0.261 C 
BRANCH   4   5
ATOM      5  O   UNL A   1      36.286  24.090  25.681  1.00  0.00    -0.461 OA
BRANCH   5   6
ATOM      6  C   UNL A   1      34.999  23.701  25.920  1.00  0.00     0.333 C 
ATOM      7  O   UNL A   1      34.648  23.128  26.949  1.00  0.00    -0.249 OA
BRANCH   6   8
ATOM      8  C   UNL A   1      34.020  24.160  24.821  1.00  0.00     0.221 C 
BRANCH   8   9
ATOM      9  N   UNL A   1      32.766  23.372  24.721  1.00  0.00    -0.369 N 
ATOM     10  H   UNL A   1      31.979  23.796  25.134  1.00  0.00     0.161 HD
BRANCH   9  11
ATOM     11  C   UNL A   1      32.526  22.138  24.143  1.00  0.00     0.038 A 
ATOM     12  C   UNL A   1      32.632  18.440  25.213  1.00  0.00     0.044 C 
ATOM     13  C   UNL A   1      32.509  19.678  24.373  1.00  0.00    -0.046 A 
ATOM     14  C   UNL A   1      32.221  19.540  23.014  1.00  0.00     0.042 A 
ATOM     15  C   UNL A   1      32.692  20.969  24.913  1.00  0.00     0.029 A 
ATOM     16  C   UNL A   1      32.057  20.676  22.249  1.00  0.00     0.125 A 
ATOM     17  F   UNL A   1      31.774  20.568  20.944  1.00  0.00    -0.207 F 
ATOM     18  C   UNL A   1      32.175  21.944  22.812  1.00  0.00     0.065 A 
ENDBRANCH   9  11
ENDBRANCH   8   9
BRANCH   8  19
ATOM     19  C   UNL A   1      33.788  25.669  24.839  1.00  0.00    -0.014 A 
ATOM     20  C   UNL A   1      33.703  26.385  23.636  1.00  0.00     0.010 A 
ATOM     21  C   UNL A   1      33.651  26.386  26.034  1.00  0.00     0.010 A 
ATOM     22  C   UNL A   1      33.679  27.774  23.594  1.00  0.00    -0.051 A 
ATOM     23  C   UNL A   1      33.472  27.780  26.011  1.00  0.00    -0.051 A 
ATOM     24  C   UNL A   1      33.928  28.452  22.281  1.00  0.00     0.044 C 
ATOM     25  C   UNL A   1      33.553  28.471  24.791  1.00  0.00     0.006 A 
ATOM     26  C   UNL A   1      33.232  28.552  27.274  1.00  0.00     0.044 C 
ENDBRANCH   8  19
ENDBRANCH   6   8
ENDBRANCH   5   6
ENDBRANCH   4   5
ENDBRANCH   3   4
ENDBRANCH   2   3
ENDBRANCH   1   2
BRANCH   1  27
ATOM     27  C   UNL A   1      39.197  19.304  25.758  1.00  0.00     0.261 C 
BRANCH  27  28
ATOM     28  O   UNL A   1      40.162  20.371  25.743  1.00  0.00    -0.460 OA
BRANCH  28  29
ATOM     29  C   UNL A   1      40.964  20.438  26.830  1.00  0.00     0.338 C 
ATOM     30  O   UNL A   1      41.649  19.534  27.300  1.00  0.00    -0.246 OA
BRANCH  29  31
ATOM     31  C   UNL A   1      41.089  21.838  27.269  1.00  0.00     0.060 A 
ATOM     32  C   UNL A   1      40.506  22.828  26.466  1.00  0.00     0.016 A 
ATOM     33  C   UNL A   1      41.807  22.181  28.415  1.00  0.00     0.016 A 
ATOM     34  C   UNL A   1      40.680  24.172  26.779  1.00  0.00     0.010 A 
ATOM     35  C   UNL A   1      41.995  23.532  28.719  1.00  0.00     0.010 A 
ATOM     36  C   UNL A   1      41.465  24.531  27.881  1.00  0.00    -0.014 A 
BRANCH  36  37
ATOM     37  C   UNL A   1      41.868  25.943  28.064  1.00  0.00     0.031 A 
ATOM     38  C   UNL A   1      43.254  26.354  27.653  1.00  0.00     0.074 A 
ATOM     39  C   UNL A   1      41.018  26.837  28.597  1.00  0.00     0.049 A 
ATOM     40  N   UNL A   1      43.842  27.514  27.774  1.00  0.00    -0.248 NA
ATOM     41  C   UNL A   1      44.090  25.317  27.024  1.00  0.00     0.031 C 
ATOM     42  C   UNL A   1      39.648  26.553  29.019  1.00  0.00     0.029 A 
ATOM     43  N   UNL A   1      41.198  28.164  28.898  1.00  0.00    -0.354 N 
ATOM     44  C   UNL A   1      45.125  27.342  27.266  1.00  0.00     0.074 A 
ATOM     45  C   UNL A   1      45.232  25.963  26.844  1.00  0.00     0.031 C 
ATOM     46  C   UNL A   1      39.122  27.664  29.561  1.00  0.00     0.029 A 
ATOM     47  C   UNL A   1      40.126  28.726  29.548  1.00  0.00     0.049 A 
ATOM     48  H   UNL A   1      42.015  28.663  28.671  1.00  0.00     0.167 HD
ATOM     49  C   UNL A   1      46.119  28.253  27.152  1.00  0.00     0.034 A 
ATOM     50  C   UNL A   1      39.985  29.951  30.094  1.00  0.00     0.034 A 
ATOM     51  C   UNL A   1      45.998  29.627  27.557  1.00  0.00     0.049 A 
ATOM     52  C   UNL A   1      41.118  30.938  29.981  1.00  0.00     0.074 A 
ATOM     53  C   UNL A   1      46.930  30.643  27.437  1.00  0.00     0.029 A 
ATOM     54  N   UNL A   1      44.885  30.175  28.173  1.00  0.00    -0.354 N 
ATOM     55  N   UNL A   1      42.282  30.797  29.393  1.00  0.00    -0.248 NA
ATOM     56  C   UNL A   1      40.908  32.264  30.580  1.00  0.00     0.031 C 
ATOM     57  C   UNL A   1      46.387  31.800  28.008  1.00  0.00     0.029 A 
ATOM     58  C   UNL A   1      45.109  31.510  28.457  1.00  0.00     0.049 A 
ATOM     59  H   UNL A   1      44.055  29.686  28.378  1.00  0.00     0.167 HD
ATOM     60  C   UNL A   1      42.928  32.022  29.524  1.00  0.00     0.074 A 
ATOM     61  C   UNL A   1      42.017  32.900  30.228  1.00  0.00     0.031 C 
ATOM     62  C   UNL A   1      44.170  32.384  29.115  1.00  0.00     0.034 A 
BRANCH  49  63
ATOM     63  C   UNL A   1      47.418  27.796  26.545  1.00  0.00     0.023 A 
ATOM     64  C   UNL A   1      48.449  27.320  27.378  1.00  0.00     0.012 A 
ATOM     65  C   UNL A   1      47.599  27.792  25.148  1.00  0.00     0.148 A 
ATOM     66  C   UNL A   1      49.652  26.873  26.833  1.00  0.00     0.002 A 
ATOM     67  C   UNL A   1      48.784  27.306  24.610  1.00  0.00     0.091 A 
ATOM     68  F   UNL A   1      46.616  28.275  24.374  1.00  0.00    -0.205 F 
ATOM     69  C   UNL A   1      49.816  26.856  25.451  1.00  0.00     0.022 A 
BRANCH  67  70
ATOM     70  S   UNL A   1      49.062  27.177  22.840  1.00  0.00     0.127 S 
ATOM     71  O   UNL A   1      50.519  27.060  22.778  1.00  0.00    -0.237 OA
ATOM     72  O   UNL A   1      48.338  25.950  22.504  1.00  0.00    -0.237 OA
ATOM     73  O   UNL A   1      48.506  28.389  22.256  1.00  0.00    -0.744 OA
ENDBRANCH  67  70
ENDBRANCH  49  63
BRANCH  50  74
ATOM     74  C   UNL A   1      38.713  30.317  30.778  1.00  0.00     0.023 A 
ATOM     75  C   UNL A   1      38.523  29.963  32.128  1.00  0.00     0.012 A 
ATOM     76  C   UNL A   1      37.702  31.033  30.106  1.00  0.00     0.148 A 
ATOM     77  C   UNL A   1      37.338  30.290  32.787  1.00  0.00     0.002 A 
ATOM     78  C   UNL A   1      36.549  31.405  30.786  1.00  0.00     0.091 A 
ATOM     79  F   UNL A   1      37.893  31.342  28.816  1.00  0.00    -0.205 F 
ATOM     80  C   UNL A   1      36.356  31.021  32.122  1.00  0.00     0.022 A 
BRANCH  78  81
ATOM     81  S   UNL A   1      35.294  32.455  30.044  1.00  0.00     0.127 S 
ATOM     82  O   UNL A   1      34.827  31.626  28.935  1.00  0.00    -0.237 OA
ATOM     83  O   UNL A   1      34.339  32.611  31.141  1.00  0.00    -0.237 OA
ATOM     84  O   UNL A   1      35.979  33.686  29.670  1.00  0.00    -0.744 OA
ENDBRANCH  78  81
ENDBRANCH  50  74
BRANCH  62  85
ATOM     85  C   UNL A   1      44.614  33.797  29.391  1.00  0.00     0.023 A 
ATOM     86  C   UNL A   1      45.205  34.114  30.632  1.00  0.00     0.012 A 
ATOM     87  C   UNL A   1      44.522  34.790  28.396  1.00  0.00     0.148 A 
ATOM     88  C   UNL A   1      45.667  35.404  30.887  1.00  0.00     0.002 A 
ATOM     89  C   UNL A   1      45.029  36.061  28.641  1.00  0.00     0.091 A 
ATOM     90  F   UNL A   1      43.943  34.473  27.229  1.00  0.00    -0.205 F 
ATOM     91  C   UNL A   1      45.591  36.373  29.889  1.00  0.00     0.022 A 
BRANCH  89  92
ATOM     92  S   UNL A   1      45.061  37.344  27.383  1.00  0.00     0.127 S 
ATOM     93  O   UNL A   1      45.650  38.464  28.115  1.00  0.00    -0.237 OA
ATOM     94  O   UNL A   1      45.931  36.757  26.363  1.00  0.00    -0.237 OA
ATOM     95  O   UNL A   1      43.678  37.529  26.963  1.00  0.00    -0.744 OA
ENDBRANCH  89  92
ENDBRANCH  62  85
ENDBRANCH  36  37
ENDBRANCH  29  31
ENDBRANCH  28  29
ENDBRANCH  27  28
ENDBRANCH   1  27
TORSDOF 20
ENDMDL
MODEL 2
REMARK VINA RESULT:     -11.4      2.312      3.494
REMARK SMILES Cc1cc(F)cc(N[C@H](C(=O)OCCOCCOC(=O)c2ccc(-c3c4nc(c(-c5cccc(S(=O)(=O)[O-])c5F)c5ccc([nH]5)c(-c5cccc(S(=O)(=O)[O-])c5F)c5nc(c(-c6cccc(S(=O)(=O)[O-])c6F)c6ccc3[nH]6)C=C5)C=C4)cc2)c2cc(C)cc(C)c2)c1
REMARK SMILES IDX 16 1 15 2 14 3 13 4 12 5 10 6 11 7 9 8 8 9 7 11 1 12 2 13
REMARK SMILES IDX 3 14 92 15 4 16 5 17 6 18 84 19 85 20 91 21 86 22 89 23
REMARK SMILES IDX 87 24 88 25 90 26 17 27 18 28 19 29 20 30 21 31 22 32 83 33
REMARK SMILES IDX 23 34 82 35 24 36 25 37 26 38 76 39 27 40 81 41 75 42 77 43
REMARK SMILES IDX 28 44 80 45 74 46 73 47 29 49 61 50 41 51 60 52 42 53 45 54
REMARK SMILES IDX 59 55 78 56 43 57 44 58 58 60 79 61 46 62 30 63 31 64 39 65
REMARK SMILES IDX 32 66 34 67 40 68 33 69 35 70 36 71 37 72 38 73 62 74 63 75
REMARK SMILES IDX 71 76 64 77 66 78 72 79 65 80 67 81 68 82 69 83 70 84 47 85
REMARK SMILES IDX 48 86 56 87 49 88 51 89 57 90 50 91 52 92 53 93 54 94 55 95
REMARK H PARENT 8 10 77 48 45 59
REMARK Flexibility Score: inf
ROOT
ATOM      1  C   UNL A   1      35.496  21.160  25.146  1.00  0.00     0.202 C 
ENDROOT
BRANCH   1   2
ATOM      2  O   UNL A   1      35.410  22.582  25.265  1.00  0.00    -0.374 OA
BRANCH   2   3
ATOM      3  C   UNL A   1      34.291  23.229  24.665  1.00  0.00     0.202 C 
BRANCH   3   4
ATOM      4  C   UNL A   1      33.769  24.516  25.308  1.00  0.00     0.261 C 
BRANCH   4   5
ATOM      5  O   UNL A   1      32.348  24.548  25.461  1.00  0.00    -0.461 OA
BRANCH   5   6
ATOM      6  C   UNL A   1      31.857  25.795  25.721  1.00  0.00     0.333 C 
ATOM      7  O   UNL A   1      31.105  26.042  26.661  1.00  0.00    -0.249 OA
BRANCH   6   8
ATOM      8  C   UNL A   1      32.440  26.875  24.786  1.00  0.00     0.221 C 
BRANCH   8   9
ATOM      9  N   UNL A   1      31.687  27.094  23.526  1.00  0.00    -0.369 N 
ATOM     10  H   UNL A   1      32.195  26.905  22.704  1.00  0.00     0.161 HD
BRANCH   9  11
ATOM     11  C   UNL A   1      30.386  27.520  23.321  1.00  0.00     0.038 A 
ATOM     12  C   UNL A   1      28.610  30.463  21.585  1.00  0.00     0.044 C 
ATOM     13  C   UNL A   1      28.854  29.225  22.399  1.00  0.00    -0.046 A 
ATOM     14  C   UNL A   1      27.763  28.579  22.981  1.00  0.00     0.042 A 
ATOM     15  C   UNL A   1      30.153  28.709  22.603  1.00  0.00     0.029 A 
ATOM     16  C   UNL A   1      27.978  27.414  23.687  1.00  0.00     0.125 A 
ATOM     17  F   UNL A   1      26.945  26.773  24.250  1.00  0.00    -0.207 F 
ATOM     18  C   UNL A   1      29.257  26.882  23.823  1.00  0.00     0.065 A 
ENDBRANCH   9  11
ENDBRANCH   8   9
BRANCH   8  19
ATOM     19  C   UNL A   1      32.774  28.168  25.525  1.00  0.00    -0.014 A 
ATOM     20  C   UNL A   1      34.033  28.337  26.120  1.00  0.00     0.010 A 
ATOM     21  C   UNL A   1      31.857  29.221  25.634  1.00  0.00     0.010 A 
ATOM     22  C   UNL A   1      34.326  29.407  26.958  1.00  0.00    -0.051 A 
ATOM     23  C   UNL A   1      32.189  30.383  26.352  1.00  0.00    -0.051 A 
ATOM     24  C   UNL A   1      35.557  29.331  27.807  1.00  0.00     0.044 C 
ATOM     25  C   UNL A   1      33.399  30.438  27.063  1.00  0.00     0.006 A 
ATOM     26  C   UNL A   1      31.257  31.556  26.403  1.00  0.00     0.044 C 
ENDBRANCH   8  19
ENDBRANCH   6   8
ENDBRANCH   5   6
ENDBRANCH   4   5
ENDBRANCH   3   4
ENDBRANCH   2   3
ENDBRANCH   1   2
BRANCH   1  27
ATOM     27  C   UNL A   1      36.901  20.558  25.037  1.00  0.00     0.261 C 
BRANCH  27  28
ATOM     28  O   UNL A   1      37.915  21.580  25.065  1.00  0.00    -0.460 OA
BRANCH  28  29
ATOM     29  C   UNL A   1      38.956  21.336  25.893  1.00  0.00     0.338 C 
ATOM     30  O   UNL A   1      39.590  20.290  25.995  1.00  0.00    -0.246 OA
BRANCH  29  31
ATOM     31  C   UNL A   1      39.392  22.593  26.523  1.00  0.00     0.060 A 
ATOM     32  C   UNL A   1      38.668  23.757  26.230  1.00  0.00     0.016 A 
ATOM     33  C   UNL A   1      40.520  22.643  27.344  1.00  0.00     0.016 A 
ATOM     34  C   UNL A   1      39.097  24.987  26.717  1.00  0.00     0.010 A 
ATOM     35  C   UNL A   1      40.959  23.882  27.819  1.00  0.00     0.010 A 
ATOM     36  C   UNL A   1      40.272  25.060  27.476  1.00  0.00    -0.014 A 
BRANCH  36  37
ATOM     37  C   UNL A   1      40.870  26.381  27.771  1.00  0.00     0.031 A 
ATOM     38  C   UNL A   1      42.266  26.662  27.287  1.00  0.00     0.074 A 
ATOM     39  C   UNL A   1      40.188  27.306  28.465  1.00  0.00     0.049 A 
ATOM     40  N   UNL A   1      43.010  27.719  27.478  1.00  0.00    -0.248 NA
ATOM     41  C   UNL A   1      42.909  25.610  26.483  1.00  0.00     0.031 C 
ATOM     42  C   UNL A   1      38.826  27.147  28.972  1.00  0.00     0.029 A 
ATOM     43  N   UNL A   1      40.563  28.557  28.888  1.00  0.00    -0.354 N 
ATOM     44  C   UNL A   1      44.218  27.448  26.846  1.00  0.00     0.074 A 
ATOM     45  C   UNL A   1      44.111  26.125  26.273  1.00  0.00     0.031 C 
ATOM     46  C   UNL A   1      38.492  28.245  29.672  1.00  0.00     0.029 A 
ATOM     47  C   UNL A   1      39.624  29.169  29.683  1.00  0.00     0.049 A 
ATOM     48  H   UNL A   1      41.420  28.974  28.645  1.00  0.00     0.167 HD
ATOM     49  C   UNL A   1      45.314  28.237  26.743  1.00  0.00     0.034 A 
ATOM     50  C   UNL A   1      39.687  30.330  30.365  1.00  0.00     0.034 A 
ATOM     51  C   UNL A   1      45.406  29.559  27.299  1.00  0.00     0.049 A 
ATOM     52  C   UNL A   1      40.930  31.176  30.259  1.00  0.00     0.074 A 
ATOM     53  C   UNL A   1      46.453  30.458  27.207  1.00  0.00     0.029 A 
ATOM     54  N   UNL A   1      44.422  30.166  28.063  1.00  0.00    -0.354 N 
ATOM     55  N   UNL A   1      42.020  30.960  29.561  1.00  0.00    -0.248 NA
ATOM     56  C   UNL A   1      40.941  32.440  31.011  1.00  0.00     0.031 C 
ATOM     57  C   UNL A   1      46.111  31.600  27.941  1.00  0.00     0.029 A 
ATOM     58  C   UNL A   1      44.841  31.422  28.466  1.00  0.00     0.049 A 
ATOM     59  H   UNL A   1      43.552  29.763  28.287  1.00  0.00     0.167 HD
ATOM     60  C   UNL A   1      42.830  32.072  29.764  1.00  0.00     0.074 A 
ATOM     61  C   UNL A   1      42.097  32.970  30.633  1.00  0.00     0.031 C 
ATOM     62  C   UNL A   1      44.077  32.323  29.290  1.00  0.00     0.034 A 
BRANCH  49  63
ATOM     63  C   UNL A   1      46.494  27.696  25.981  1.00  0.00     0.023 A 
ATOM     64  C   UNL A   1      46.594  27.925  24.595  1.00  0.00     0.012 A 
ATOM     65  C   UNL A   1      47.526  27.006  26.645  1.00  0.00     0.148 A 
ATOM     66  C   UNL A   1      47.689  27.450  23.875  1.00  0.00     0.002 A 
ATOM     67  C   UNL A   1      48.635  26.572  25.928  1.00  0.00     0.091 A 
ATOM     68  F   UNL A   1      47.399  26.775  27.960  1.00  0.00    -0.205 F 
ATOM     69  C   UNL A   1      48.713  26.784  24.541  1.00  0.00     0.022 A 
BRANCH  67  70
ATOM     70  S   UNL A   1      50.039  25.769  26.709  1.00  0.00     0.127 S 
ATOM     71  O   UNL A   1      50.422  26.758  27.717  1.00  0.00    -0.237 OA
ATOM     72  O   UNL A   1      49.434  24.551  27.250  1.00  0.00    -0.237 OA
ATOM     73  O   UNL A   1      51.013  25.545  25.651  1.00  0.00    -0.744 OA
ENDBRANCH  67  70
ENDBRANCH  49  63
BRANCH  50  74
ATOM     74  C   UNL A   1      38.527  30.769  31.192  1.00  0.00     0.023 A 
ATOM     75  C   UNL A   1      38.531  30.529  32.579  1.00  0.00     0.012 A 
ATOM     76  C   UNL A   1      37.432  31.443  30.614  1.00  0.00     0.148 A 
ATOM     77  C   UNL A   1      37.454  30.926  33.371  1.00  0.00     0.002 A 
ATOM     78  C   UNL A   1      36.390  31.887  31.418  1.00  0.00     0.091 A 
ATOM     79  F   UNL A   1      37.438  31.645  29.288  1.00  0.00    -0.205 F 
ATOM     80  C   UNL A   1      36.389  31.615  32.795  1.00  0.00     0.022 A 
BRANCH  78  81
ATOM     81  S   UNL A   1      35.045  32.892  30.778  1.00  0.00     0.127 S 
ATOM     82  O   UNL A   1      34.671  32.159  29.571  1.00  0.00    -0.237 OA
ATOM     83  O   UNL A   1      34.070  32.825  31.867  1.00  0.00    -0.237 OA
ATOM     84  O   UNL A   1      35.610  34.218  30.564  1.00  0.00    -0.744 OA
ENDBRANCH  78  81
ENDBRANCH  50  74
BRANCH  62  85
ATOM     85  C   UNL A   1      44.723  33.629  29.675  1.00  0.00     0.023 A 
ATOM     86  C   UNL A   1      45.560  33.687  30.807  1.00  0.00     0.012 A 
ATOM     87  C   UNL A   1      44.568  34.774  28.870  1.00  0.00     0.148 A 
ATOM     88  C   UNL A   1      46.206  34.874  31.150  1.00  0.00     0.002 A 
ATOM     89  C   UNL A   1      45.254  35.940  29.191  1.00  0.00     0.091 A 
ATOM     90  F   UNL A   1      43.755  34.703  27.806  1.00  0.00    -0.205 F 
ATOM     91  C   UNL A   1      46.063  35.996  30.336  1.00  0.00     0.022 A 
BRANCH  89  92
ATOM     92  S   UNL A   1      45.206  37.404  28.149  1.00  0.00     0.127 S 
ATOM     93  O   UNL A   1      43.858  37.327  27.589  1.00  0.00    -0.237 OA
ATOM     94  O   UNL A   1      45.403  38.482  29.119  1.00  0.00    -0.237 OA
ATOM     95  O   UNL A   1      46.291  37.250  27.189  1.00  0.00    -0.744 OA
ENDBRANCH  89  92
ENDBRANCH  62  85
ENDBRANCH  36  37
ENDBRANCH  29  31
ENDBRANCH  28  29
ENDBRANCH  27  28
ENDBRANCH   1  27
TORSDOF 20
ENDMDL
MODEL 3
REMARK VINA RESULT:     -11.3      1.746      2.191
REMARK SMILES Cc1cc(F)cc(N[C@H](C(=O)OCCOCCOC(=O)c2ccc(-c3c4nc(c(-c5cccc(S(=O)(=O)[O-])c5F)c5ccc([nH]5)c(-c5cccc(S(=O)(=O)[O-])c5F)c5nc(c(-c6cccc(S(=O)(=O)[O-])c6F)c6ccc3[nH]6)C=C5)C=C4)cc2)c2cc(C)cc(C)c2)c1
REMARK SMILES IDX 16 1 15 2 14 3 13 4 12 5 10 6 11 7 9 8 8 9 7 11 1 12 2 13
REMARK SMILES IDX 3 14 92 15 4 16 5 17 6 18 84 19 85 20 91 21 86 22 89 23
REMARK SMILES IDX 87 24 88 25 90 26 17 27 18 28 19 29 20 30 21 31 22 32 83 33
REMARK SMILES IDX 23 34 82 35 24 36 25 37 26 38 76 39 27 40 81 41 75 42 77 43
REMARK SMILES IDX 28 44 80 45 74 46 73 47 29 49 61 50 41 51 60 52 42 53 45 54
REMARK SMILES IDX 59 55 78 56 43 57 44 58 58 60 79 61 46 62 30 63 31 64 39 65
REMARK SMILES IDX 32 66 34 67 40 68 33 69 35 70 36 71 37 72 38 73 62 74 63 75
REMARK SMILES IDX 71 76 64 77 66 78 72 79 65 80 67 81 68 82 69 83 70 84 47 85
REMARK SMILES IDX 48 86 56 87 49 88 51 89 57 90 50 91 52 92 53 93 54 94 55 95
REMARK H PARENT 8 10 77 48 45 59
REMARK Flexibility Score: inf
ROOT
ATOM      1  C   UNL A   1      36.222  20.001  24.833  1.00  0.00     0.202 C 
ENDROOT
BRANCH   1   2
ATOM      2  O   UNL A   1      35.699  21.319  25.013  1.00  0.00    -0.374 OA
BRANCH   2   3
ATOM      3  C   UNL A   1      35.538  21.790  26.348  1.00  0.00     0.202 C 
BRANCH   3   4
ATOM      4  C   UNL A   1      34.720  23.065  26.573  1.00  0.00     0.261 C 
BRANCH   4   5
ATOM      5  O   UNL A   1      33.633  22.898  27.486  1.00  0.00    -0.461 OA
BRANCH   5   6
ATOM      6  C   UNL A   1      32.415  23.184  26.938  1.00  0.00     0.333 C 
ATOM      7  O   UNL A   1      31.382  23.268  27.598  1.00  0.00    -0.249 OA
BRANCH   6   8
ATOM      8  C   UNL A   1      32.496  23.505  25.432  1.00  0.00     0.221 C 
BRANCH   8   9
ATOM      9  N   UNL A   1      31.899  22.484  24.535  1.00  0.00    -0.369 N 
ATOM     10  H   UNL A   1      31.191  22.822  23.940  1.00  0.00     0.161 HD
BRANCH   9  11
ATOM     11  C   UNL A   1      32.176  21.135  24.401  1.00  0.00     0.038 A 
ATOM     12  C   UNL A   1      32.355  18.548  21.554  1.00  0.00     0.044 C 
ATOM     13  C   UNL A   1      32.352  19.162  22.924  1.00  0.00    -0.046 A 
ATOM     14  C   UNL A   1      32.564  18.337  24.028  1.00  0.00     0.042 A 
ATOM     15  C   UNL A   1      32.127  20.542  23.124  1.00  0.00     0.029 A 
ATOM     16  C   UNL A   1      32.613  18.905  25.285  1.00  0.00     0.125 A 
ATOM     17  F   UNL A   1      32.821  18.132  26.360  1.00  0.00    -0.207 F 
ATOM     18  C   UNL A   1      32.455  20.277  25.459  1.00  0.00     0.065 A 
ENDBRANCH   9  11
ENDBRANCH   8   9
BRANCH   8  19
ATOM     19  C   UNL A   1      32.048  24.929  25.113  1.00  0.00    -0.014 A 
ATOM     20  C   UNL A   1      30.693  25.207  24.879  1.00  0.00     0.010 A 
ATOM     21  C   UNL A   1      32.952  25.995  25.043  1.00  0.00     0.010 A 
ATOM     22  C   UNL A   1      30.254  26.438  24.405  1.00  0.00    -0.051 A 
ATOM     23  C   UNL A   1      32.506  27.287  24.713  1.00  0.00    -0.051 A 
ATOM     24  C   UNL A   1      28.859  26.538  23.868  1.00  0.00     0.044 C 
ATOM     25  C   UNL A   1      31.168  27.483  24.332  1.00  0.00     0.006 A 
ATOM     26  C   UNL A   1      33.443  28.457  24.723  1.00  0.00     0.044 C 
ENDBRANCH   8  19
ENDBRANCH   6   8
ENDBRANCH   5   6
ENDBRANCH   4   5
ENDBRANCH   3   4
ENDBRANCH   2   3
ENDBRANCH   1   2
BRANCH   1  27
ATOM     27  C   UNL A   1      37.740  19.835  24.960  1.00  0.00     0.261 C 
BRANCH  27  28
ATOM     28  O   UNL A   1      38.375  21.072  25.330  1.00  0.00    -0.460 OA
BRANCH  28  29
ATOM     29  C   UNL A   1      39.465  20.946  26.122  1.00  0.00     0.338 C 
ATOM     30  O   UNL A   1      40.181  19.956  26.241  1.00  0.00    -0.246 OA
BRANCH  29  31
ATOM     31  C   UNL A   1      39.829  22.259  26.678  1.00  0.00     0.060 A 
ATOM     32  C   UNL A   1      39.198  23.392  26.144  1.00  0.00     0.016 A 
ATOM     33  C   UNL A   1      40.806  22.387  27.665  1.00  0.00     0.016 A 
ATOM     34  C   UNL A   1      39.577  24.664  26.562  1.00  0.00     0.010 A 
ATOM     35  C   UNL A   1      41.198  23.665  28.072  1.00  0.00     0.010 A 
ATOM     36  C   UNL A   1      40.612  24.807  27.494  1.00  0.00    -0.014 A 
BRANCH  36  37
ATOM     37  C   UNL A   1      41.193  26.145  27.742  1.00  0.00     0.031 A 
ATOM     38  C   UNL A   1      42.599  26.415  27.281  1.00  0.00     0.074 A 
ATOM     39  C   UNL A   1      40.485  27.096  28.374  1.00  0.00     0.049 A 
ATOM     40  N   UNL A   1      43.329  27.486  27.441  1.00  0.00    -0.248 NA
ATOM     41  C   UNL A   1      43.270  25.331  26.545  1.00  0.00     0.031 C 
ATOM     42  C   UNL A   1      39.112  26.949  28.852  1.00  0.00     0.029 A 
ATOM     43  N   UNL A   1      40.840  28.368  28.746  1.00  0.00    -0.354 N 
ATOM     44  C   UNL A   1      44.556  27.197  26.855  1.00  0.00     0.074 A 
ATOM     45  C   UNL A   1      44.474  25.847  26.342  1.00  0.00     0.031 C 
ATOM     46  C   UNL A   1      38.752  28.075  29.490  1.00  0.00     0.029 A 
ATOM     47  C   UNL A   1      39.877  29.008  29.488  1.00  0.00     0.049 A 
ATOM     48  H   UNL A   1      41.701  28.781  28.506  1.00  0.00     0.167 HD
ATOM     49  C   UNL A   1      45.648  27.988  26.743  1.00  0.00     0.034 A 
ATOM     50  C   UNL A   1      39.913  30.201  30.115  1.00  0.00     0.034 A 
ATOM     51  C   UNL A   1      45.716  29.336  27.238  1.00  0.00     0.049 A 
ATOM     52  C   UNL A   1      41.152  31.052  30.002  1.00  0.00     0.074 A 
ATOM     53  C   UNL A   1      46.759  30.239  27.131  1.00  0.00     0.029 A 
ATOM     54  N   UNL A   1      44.708  29.969  27.947  1.00  0.00    -0.354 N 
ATOM     55  N   UNL A   1      42.261  30.813  29.343  1.00  0.00    -0.248 NA
ATOM     56  C   UNL A   1      41.134  32.350  30.693  1.00  0.00     0.031 C 
ATOM     57  C   UNL A   1      46.389  31.412  27.801  1.00  0.00     0.029 A 
ATOM     58  C   UNL A   1      45.107  31.247  28.301  1.00  0.00     0.049 A 
ATOM     59  H   UNL A   1      43.835  29.570  28.167  1.00  0.00     0.167 HD
ATOM     60  C   UNL A   1      43.058  31.940  29.514  1.00  0.00     0.074 A 
ATOM     61  C   UNL A   1      42.295  32.871  30.320  1.00  0.00     0.031 C 
ATOM     62  C   UNL A   1      44.314  32.179  29.062  1.00  0.00     0.034 A 
BRANCH  49  63
ATOM     63  C   UNL A   1      46.852  27.423  26.038  1.00  0.00     0.023 A 
ATOM     64  C   UNL A   1      46.981  27.577  24.644  1.00  0.00     0.012 A 
ATOM     65  C   UNL A   1      47.876  26.783  26.761  1.00  0.00     0.148 A 
ATOM     66  C   UNL A   1      48.098  27.078  23.975  1.00  0.00     0.002 A 
ATOM     67  C   UNL A   1      49.007  26.326  26.094  1.00  0.00     0.091 A 
ATOM     68  F   UNL A   1      47.722  26.622  28.084  1.00  0.00    -0.205 F 
ATOM     69  C   UNL A   1      49.114  26.463  24.700  1.00  0.00     0.022 A 
BRANCH  67  70
ATOM     70  S   UNL A   1      50.402  25.585  26.949  1.00  0.00     0.127 S 
ATOM     71  O   UNL A   1      50.741  26.626  27.919  1.00  0.00    -0.237 OA
ATOM     72  O   UNL A   1      49.803  24.383  27.530  1.00  0.00    -0.237 OA
ATOM     73  O   UNL A   1      51.408  25.329  25.929  1.00  0.00    -0.744 OA
ENDBRANCH  67  70
ENDBRANCH  49  63
BRANCH  50  74
ATOM     74  C   UNL A   1      38.729  30.669  30.890  1.00  0.00     0.023 A 
ATOM     75  C   UNL A   1      38.635  30.372  32.263  1.00  0.00     0.012 A 
ATOM     76  C   UNL A   1      37.708  31.424  30.278  1.00  0.00     0.148 A 
ATOM     77  C   UNL A   1      37.533  30.795  33.007  1.00  0.00     0.002 A 
ATOM     78  C   UNL A   1      36.642  31.890  31.037  1.00  0.00     0.091 A 
ATOM     79  F   UNL A   1      37.805  31.678  28.965  1.00  0.00    -0.205 F 
ATOM     80  C   UNL A   1      36.542  31.564  32.398  1.00  0.00     0.022 A 
BRANCH  78  81
ATOM     81  S   UNL A   1      35.393  32.992  30.364  1.00  0.00     0.127 S 
ATOM     82  O   UNL A   1      36.211  33.986  29.673  1.00  0.00    -0.237 OA
ATOM     83  O   UNL A   1      34.639  32.098  29.486  1.00  0.00    -0.237 OA
ATOM     84  O   UNL A   1      34.637  33.481  31.509  1.00  0.00    -0.744 OA
ENDBRANCH  78  81
ENDBRANCH  50  74
BRANCH  62  85
ATOM     85  C   UNL A   1      44.941  33.507  29.400  1.00  0.00     0.023 A 
ATOM     86  C   UNL A   1      45.720  33.634  30.568  1.00  0.00     0.012 A 
ATOM     87  C   UNL A   1      44.826  34.603  28.523  1.00  0.00     0.148 A 
ATOM     88  C   UNL A   1      46.348  34.841  30.872  1.00  0.00     0.002 A 
ATOM     89  C   UNL A   1      45.495  35.788  28.809  1.00  0.00     0.091 A 
ATOM     90  F   UNL A   1      44.068  34.467  27.425  1.00  0.00    -0.205 F 
ATOM     91  C   UNL A   1      46.246  35.913  29.988  1.00  0.00     0.022 A 
BRANCH  89  92
ATOM     92  S   UNL A   1      45.500  37.187  27.682  1.00  0.00     0.127 S 
ATOM     93  O   UNL A   1      46.296  36.672  26.570  1.00  0.00    -0.237 OA
ATOM     94  O   UNL A   1      44.076  37.354  27.387  1.00  0.00    -0.237 OA
ATOM     95  O   UNL A   1      46.096  38.294  28.418  1.00  0.00    -0.744 OA
ENDBRANCH  89  92
ENDBRANCH  62  85
ENDBRANCH  36  37
ENDBRANCH  29  31
ENDBRANCH  28  29
ENDBRANCH  27  28
ENDBRANCH   1  27
TORSDOF 20
ENDMDL
