MODEL 1
REMARK VINA RESULT:     -12.0      0.000      0.000
REMARK SMILES Cc1c(C(=O)N[C@H]2C=C[C@@H](C(=O)OCCOCCOC(=O)c3ccc(-c4c5nc(c(-c6cccc(S(=O)(=O)[O-])c6F)c6ccc([nH]6)c(-c6cccc(S(=O)(=O)[O-])c6F)c6nc(c(-c7cccc(S(=O)(=O)[O-])c7F)c7ccc4[nH]7)C=C6)C=C5)cc3)C2)oc2ccccc12
REMARK SMILES IDX 17 1 16 2 15 3 14 4 13 5 11 6 12 7 10 8 7 9 8 10 85 11 9 12
REMARK SMILES IDX 6 13 4 14 5 15 3 17 1 18 2 19 92 20 86 21 87 22 91 23 88 24
REMARK SMILES IDX 90 25 89 26 18 27 19 28 20 29 21 30 22 31 23 32 84 33 24 34
REMARK SMILES IDX 83 35 25 36 26 37 27 38 77 39 28 40 82 41 76 42 78 43 29 44
REMARK SMILES IDX 81 45 75 46 74 47 30 49 62 50 42 51 61 52 43 53 46 54 60 55
REMARK SMILES IDX 79 56 44 57 45 58 59 60 80 61 47 62 31 63 32 64 40 65 33 66
REMARK SMILES IDX 35 67 41 68 34 69 36 70 37 71 38 72 39 73 63 74 64 75 72 76
REMARK SMILES IDX 65 77 67 78 73 79 66 80 68 81 69 82 70 83 71 84 48 85 49 86
REMARK SMILES IDX 57 87 50 88 52 89 58 90 51 91 53 92 54 93 55 94 56 95
REMARK H PARENT 6 16 78 48 46 59
REMARK Flexibility Score: inf
ROOT
ATOM      1  C   UNL A   1      36.293  20.019  24.985  1.00  0.00     0.202 C 
ENDROOT
BRANCH   1   2
ATOM      2  O   UNL A   1      35.795  21.329  25.262  1.00  0.00    -0.374 OA
BRANCH   2   3
ATOM      3  C   UNL A   1      35.320  21.590  26.580  1.00  0.00     0.202 C 
BRANCH   3   4
ATOM      4  C   UNL A   1      33.804  21.546  26.788  1.00  0.00     0.261 C 
BRANCH   4   5
ATOM      5  O   UNL A   1      33.213  20.342  26.271  1.00  0.00    -0.463 OA
BRANCH   5   6
ATOM      6  C   UNL A   1      32.532  20.500  25.109  1.00  0.00     0.312 C 
ATOM      7  O   UNL A   1      31.969  19.597  24.495  1.00  0.00    -0.252 OA
BRANCH   6   8
ATOM      8  C   UNL A   1      32.463  21.930  24.618  1.00  0.00     0.124 C 
ATOM      9  C   UNL A   1      32.576  23.764  23.181  1.00  0.00     0.106 C 
ATOM     10  C   UNL A   1      31.142  23.520  23.523  1.00  0.00    -0.006 C 
ATOM     11  C   UNL A   1      33.108  22.333  23.297  1.00  0.00     0.048 C 
ATOM     12  C   UNL A   1      31.083  22.498  24.399  1.00  0.00    -0.014 C 
BRANCH   9  13
ATOM     13  N   UNL A   1      32.838  24.397  21.942  1.00  0.00    -0.343 N 
ATOM     14  C   UNL A   1      32.841  25.751  21.654  1.00  0.00     0.287 C 
ATOM     15  O   UNL A   1      33.081  26.009  20.468  1.00  0.00    -0.266 OA
ATOM     16  H   UNL A   1      33.044  23.798  21.189  1.00  0.00     0.164 HD
BRANCH  14  17
ATOM     17  C   UNL A   1      32.551  26.826  22.626  1.00  0.00     0.195 A 
ATOM     18  C   UNL A   1      30.232  28.086  22.349  1.00  0.00     0.049 C 
ATOM     19  C   UNL A   1      31.565  27.784  22.928  1.00  0.00     0.008 A 
ATOM     20  C   UNL A   1      32.035  28.527  24.063  1.00  0.00     0.024 A 
ATOM     21  O   UNL A   1      33.537  26.942  23.598  1.00  0.00    -0.451 OA
ATOM     22  C   UNL A   1      33.220  27.941  24.451  1.00  0.00     0.135 A 
ATOM     23  C   UNL A   1      31.543  29.614  24.815  1.00  0.00     0.012 A 
ATOM     24  C   UNL A   1      33.955  28.334  25.567  1.00  0.00     0.048 A 
ATOM     25  C   UNL A   1      32.258  30.040  25.939  1.00  0.00     0.001 A 
ATOM     26  C   UNL A   1      33.440  29.402  26.314  1.00  0.00     0.004 A 
ENDBRANCH  14  17
ENDBRANCH   9  13
ENDBRANCH   6   8
ENDBRANCH   5   6
ENDBRANCH   4   5
ENDBRANCH   3   4
ENDBRANCH   2   3
ENDBRANCH   1   2
BRANCH   1  27
ATOM     27  C   UNL A   1      37.817  19.834  24.972  1.00  0.00     0.261 C 
BRANCH  27  28
ATOM     28  O   UNL A   1      38.521  21.028  25.366  1.00  0.00    -0.460 OA
BRANCH  28  29
ATOM     29  C   UNL A   1      39.559  20.827  26.213  1.00  0.00     0.338 C 
ATOM     30  O   UNL A   1      40.185  19.787  26.378  1.00  0.00    -0.246 OA
BRANCH  29  31
ATOM     31  C   UNL A   1      39.997  22.108  26.793  1.00  0.00     0.060 A 
ATOM     32  C   UNL A   1      39.423  23.284  26.293  1.00  0.00     0.016 A 
ATOM     33  C   UNL A   1      41.020  22.164  27.740  1.00  0.00     0.016 A 
ATOM     34  C   UNL A   1      39.898  24.525  26.711  1.00  0.00     0.010 A 
ATOM     35  C   UNL A   1      41.502  23.411  28.150  1.00  0.00     0.010 A 
ATOM     36  C   UNL A   1      40.966  24.596  27.612  1.00  0.00    -0.014 A 
BRANCH  36  37
ATOM     37  C   UNL A   1      41.609  25.904  27.886  1.00  0.00     0.031 A 
ATOM     38  C   UNL A   1      40.828  26.967  28.611  1.00  0.00     0.074 A 
ATOM     39  C   UNL A   1      42.874  26.142  27.497  1.00  0.00     0.049 A 
ATOM     40  N   UNL A   1      41.190  28.179  28.941  1.00  0.00    -0.248 NA
ATOM     41  C   UNL A   1      39.457  26.618  29.016  1.00  0.00     0.031 C 
ATOM     42  C   UNL A   1      43.734  25.191  26.794  1.00  0.00     0.029 A 
ATOM     43  N   UNL A   1      43.648  27.269  27.621  1.00  0.00    -0.354 N 
ATOM     44  C   UNL A   1      40.085  28.749  29.561  1.00  0.00     0.074 A 
ATOM     45  C   UNL A   1      39.036  27.753  29.556  1.00  0.00     0.031 C 
ATOM     46  C   UNL A   1      44.910  25.782  26.528  1.00  0.00     0.029 A 
ATOM     47  C   UNL A   1      44.878  27.158  27.019  1.00  0.00     0.049 A 
ATOM     48  H   UNL A   1      43.350  28.079  28.094  1.00  0.00     0.167 HD
ATOM     49  C   UNL A   1      39.958  29.986  30.097  1.00  0.00     0.034 A 
ATOM     50  C   UNL A   1      45.861  28.070  26.867  1.00  0.00     0.034 A 
ATOM     51  C   UNL A   1      41.010  30.967  30.125  1.00  0.00     0.049 A 
ATOM     52  C   UNL A   1      45.684  29.447  27.454  1.00  0.00     0.074 A 
ATOM     53  C   UNL A   1      40.999  32.224  30.703  1.00  0.00     0.029 A 
ATOM     54  N   UNL A   1      42.255  30.809  29.536  1.00  0.00    -0.354 N 
ATOM     55  N   UNL A   1      44.684  29.926  28.153  1.00  0.00    -0.248 NA
ATOM     56  C   UNL A   1      46.788  30.400  27.259  1.00  0.00     0.031 C 
ATOM     57  C   UNL A   1      42.228  32.838  30.437  1.00  0.00     0.029 A 
ATOM     58  C   UNL A   1      43.014  31.951  29.719  1.00  0.00     0.049 A 
ATOM     59  H   UNL A   1      42.555  30.002  29.057  1.00  0.00     0.167 HD
ATOM     60  C   UNL A   1      45.051  31.218  28.513  1.00  0.00     0.074 A 
ATOM     61  C   UNL A   1      46.375  31.441  27.968  1.00  0.00     0.031 C 
ATOM     62  C   UNL A   1      44.353  32.142  29.220  1.00  0.00     0.034 A 
BRANCH  49  63
ATOM     63  C   UNL A   1      38.635  30.346  30.722  1.00  0.00     0.023 A 
ATOM     64  C   UNL A   1      38.353  29.945  32.043  1.00  0.00     0.012 A 
ATOM     65  C   UNL A   1      37.697  31.126  30.019  1.00  0.00     0.148 A 
ATOM     66  C   UNL A   1      37.143  30.290  32.646  1.00  0.00     0.002 A 
ATOM     67  C   UNL A   1      36.512  31.501  30.641  1.00  0.00     0.091 A 
ATOM     68  F   UNL A   1      37.973  31.476  28.755  1.00  0.00    -0.205 F 
ATOM     69  C   UNL A   1      36.229  31.075  31.950  1.00  0.00     0.022 A 
BRANCH  67  70
ATOM     70  S   UNL A   1      35.306  32.575  29.855  1.00  0.00     0.127 S 
ATOM     71  O   UNL A   1      34.863  31.750  28.733  1.00  0.00    -0.237 OA
ATOM     72  O   UNL A   1      34.311  32.751  30.913  1.00  0.00    -0.237 OA
ATOM     73  O   UNL A   1      36.026  33.789  29.494  1.00  0.00    -0.744 OA
ENDBRANCH  67  70
ENDBRANCH  49  63
BRANCH  50  74
ATOM     74  C   UNL A   1      47.120  27.698  26.163  1.00  0.00     0.023 A 
ATOM     75  C   UNL A   1      48.173  27.113  26.892  1.00  0.00     0.012 A 
ATOM     76  C   UNL A   1      47.272  27.902  24.778  1.00  0.00     0.148 A 
ATOM     77  C   UNL A   1      49.366  26.762  26.259  1.00  0.00     0.002 A 
ATOM     78  C   UNL A   1      48.442  27.500  24.144  1.00  0.00     0.091 A 
ATOM     79  F   UNL A   1      46.265  28.477  24.106  1.00  0.00    -0.205 F 
ATOM     80  C   UNL A   1      49.497  26.945  24.885  1.00  0.00     0.022 A 
BRANCH  78  81
ATOM     81  S   UNL A   1      48.648  27.578  22.361  1.00  0.00     0.127 S 
ATOM     82  O   UNL A   1      48.621  26.164  21.995  1.00  0.00    -0.237 OA
ATOM     83  O   UNL A   1      47.470  28.344  21.955  1.00  0.00    -0.237 OA
ATOM     84  O   UNL A   1      49.914  28.264  22.142  1.00  0.00    -0.744 OA
ENDBRANCH  78  81
ENDBRANCH  50  74
BRANCH  62  85
ATOM     85  C   UNL A   1      45.012  33.470  29.484  1.00  0.00     0.023 A 
ATOM     86  C   UNL A   1      45.802  33.644  30.638  1.00  0.00     0.012 A 
ATOM     87  C   UNL A   1      44.913  34.521  28.549  1.00  0.00     0.148 A 
ATOM     88  C   UNL A   1      46.458  34.853  30.873  1.00  0.00     0.002 A 
ATOM     89  C   UNL A   1      45.610  35.705  28.766  1.00  0.00     0.091 A 
ATOM     90  F   UNL A   1      44.143  34.343  27.467  1.00  0.00    -0.205 F 
ATOM     91  C   UNL A   1      46.372  35.877  29.932  1.00  0.00     0.022 A 
BRANCH  89  92
ATOM     92  S   UNL A   1      45.636  37.039  27.563  1.00  0.00     0.127 S 
ATOM     93  O   UNL A   1      44.227  37.432  27.523  1.00  0.00    -0.237 OA
ATOM     94  O   UNL A   1      46.524  38.013  28.196  1.00  0.00    -0.237 OA
ATOM     95  O   UNL A   1      46.158  36.458  26.332  1.00  0.00    -0.744 OA
ENDBRANCH  89  92
ENDBRANCH  62  85
ENDBRANCH  36  37
ENDBRANCH  29  31
ENDBRANCH  28  29
ENDBRANCH  27  28
ENDBRANCH   1  27
TORSDOF 19
ENDMDL
MODEL 2
REMARK VINA RESULT:     -11.9      0.818      7.478
REMARK SMILES Cc1c(C(=O)N[C@H]2C=C[C@@H](C(=O)OCCOCCOC(=O)c3ccc(-c4c5nc(c(-c6cccc(S(=O)(=O)[O-])c6F)c6ccc([nH]6)c(-c6cccc(S(=O)(=O)[O-])c6F)c6nc(c(-c7cccc(S(=O)(=O)[O-])c7F)c7ccc4[nH]7)C=C6)C=C5)cc3)C2)oc2ccccc12
REMARK SMILES IDX 17 1 16 2 15 3 14 4 13 5 11 6 12 7 10 8 7 9 8 10 85 11 9 12
REMARK SMILES IDX 6 13 4 14 5 15 3 17 1 18 2 19 92 20 86 21 87 22 91 23 88 24
REMARK SMILES IDX 90 25 89 26 18 27 19 28 20 29 21 30 22 31 23 32 84 33 24 34
REMARK SMILES IDX 83 35 25 36 26 37 27 38 77 39 28 40 82 41 76 42 78 43 29 44
REMARK SMILES IDX 81 45 75 46 74 47 30 49 62 50 42 51 61 52 43 53 46 54 60 55
REMARK SMILES IDX 79 56 44 57 45 58 59 60 80 61 47 62 31 63 32 64 40 65 33 66
REMARK SMILES IDX 35 67 41 68 34 69 36 70 37 71 38 72 39 73 63 74 64 75 72 76
REMARK SMILES IDX 65 77 67 78 73 79 66 80 68 81 69 82 70 83 71 84 48 85 49 86
REMARK SMILES IDX 57 87 50 88 52 89 58 90 51 91 53 92 54 93 55 94 56 95
REMARK H PARENT 6 16 78 48 46 59
REMARK Flexibility Score: inf
ROOT
ATOM      1  C   UNL A   1      36.536  20.108  24.897  1.00  0.00     0.202 C 
ENDROOT
BRANCH   1   2
ATOM      2  O   UNL A   1      35.899  21.356  25.180  1.00  0.00    -0.374 OA
BRANCH   2   3
ATOM      3  C   UNL A   1      35.507  21.607  26.527  1.00  0.00     0.202 C 
BRANCH   3   4
ATOM      4  C   UNL A   1      34.030  21.926  26.767  1.00  0.00     0.261 C 
BRANCH   4   5
ATOM      5  O   UNL A   1      33.177  20.791  26.541  1.00  0.00    -0.463 OA
BRANCH   5   6
ATOM      6  C   UNL A   1      32.569  20.773  25.329  1.00  0.00     0.312 C 
ATOM      7  O   UNL A   1      32.112  19.771  24.786  1.00  0.00    -0.252 OA
BRANCH   6   8
ATOM      8  C   UNL A   1      32.436  22.133  24.680  1.00  0.00     0.124 C 
ATOM      9  C   UNL A   1      32.445  23.792  23.039  1.00  0.00     0.106 C 
ATOM     10  C   UNL A   1      31.031  23.544  23.451  1.00  0.00    -0.006 C 
ATOM     11  C   UNL A   1      33.030  22.401  23.301  1.00  0.00     0.048 C 
ATOM     12  C   UNL A   1      31.031  22.628  24.440  1.00  0.00    -0.014 C 
BRANCH   9  13
ATOM     13  N   UNL A   1      32.650  24.285  21.727  1.00  0.00    -0.343 N 
ATOM     14  C   UNL A   1      32.520  25.584  21.269  1.00  0.00     0.287 C 
ATOM     15  O   UNL A   1      32.740  25.712  20.058  1.00  0.00    -0.266 OA
ATOM     16  H   UNL A   1      32.921  23.618  21.055  1.00  0.00     0.164 HD
BRANCH  14  17
ATOM     17  C   UNL A   1      32.118  26.740  22.098  1.00  0.00     0.195 A 
ATOM     18  C   UNL A   1      33.807  27.482  24.005  1.00  0.00     0.049 C 
ATOM     19  C   UNL A   1      32.565  27.505  23.191  1.00  0.00     0.008 A 
ATOM     20  C   UNL A   1      31.560  28.497  23.451  1.00  0.00     0.024 A 
ATOM     21  O   UNL A   1      30.924  27.309  21.670  1.00  0.00    -0.451 OA
ATOM     22  C   UNL A   1      30.607  28.353  22.467  1.00  0.00     0.135 A 
ATOM     23  C   UNL A   1      31.395  29.522  24.405  1.00  0.00     0.012 A 
ATOM     24  C   UNL A   1      29.496  29.184  22.330  1.00  0.00     0.048 A 
ATOM     25  C   UNL A   1      30.289  30.372  24.303  1.00  0.00     0.001 A 
ATOM     26  C   UNL A   1      29.361  30.210  23.275  1.00  0.00     0.004 A 
ENDBRANCH  14  17
ENDBRANCH   9  13
ENDBRANCH   6   8
ENDBRANCH   5   6
ENDBRANCH   4   5
ENDBRANCH   3   4
ENDBRANCH   2   3
ENDBRANCH   1   2
BRANCH   1  27
ATOM     27  C   UNL A   1      38.070  20.078  24.927  1.00  0.00     0.261 C 
BRANCH  27  28
ATOM     28  O   UNL A   1      38.636  21.317  25.398  1.00  0.00    -0.460 OA
BRANCH  28  29
ATOM     29  C   UNL A   1      39.652  21.181  26.284  1.00  0.00     0.338 C 
ATOM     30  O   UNL A   1      40.344  20.186  26.467  1.00  0.00    -0.246 OA
BRANCH  29  31
ATOM     31  C   UNL A   1      39.975  22.483  26.891  1.00  0.00     0.060 A 
ATOM     32  C   UNL A   1      39.299  23.614  26.414  1.00  0.00     0.016 A 
ATOM     33  C   UNL A   1      40.988  22.610  27.842  1.00  0.00     0.016 A 
ATOM     34  C   UNL A   1      39.662  24.884  26.857  1.00  0.00     0.010 A 
ATOM     35  C   UNL A   1      41.358  23.887  28.277  1.00  0.00     0.010 A 
ATOM     36  C   UNL A   1      40.720  25.031  27.762  1.00  0.00    -0.014 A 
BRANCH  36  37
ATOM     37  C   UNL A   1      41.244  26.385  28.064  1.00  0.00     0.031 A 
ATOM     38  C   UNL A   1      42.666  26.718  27.703  1.00  0.00     0.074 A 
ATOM     39  C   UNL A   1      40.461  27.309  28.648  1.00  0.00     0.049 A 
ATOM     40  N   UNL A   1      43.327  27.831  27.887  1.00  0.00    -0.248 NA
ATOM     41  C   UNL A   1      43.448  25.655  27.052  1.00  0.00     0.031 C 
ATOM     42  C   UNL A   1      39.066  27.109  29.037  1.00  0.00     0.029 A 
ATOM     43  N   UNL A   1      40.737  28.596  29.035  1.00  0.00    -0.354 N 
ATOM     44  C   UNL A   1      44.609  27.594  27.406  1.00  0.00     0.074 A 
ATOM     45  C   UNL A   1      44.636  26.229  26.927  1.00  0.00     0.031 C 
ATOM     46  C   UNL A   1      38.615  28.227  29.630  1.00  0.00     0.029 A 
ATOM     47  C   UNL A   1      39.693  29.212  29.682  1.00  0.00     0.049 A 
ATOM     48  H   UNL A   1      41.602  29.037  28.865  1.00  0.00     0.167 HD
ATOM     49  C   UNL A   1      45.665  28.440  27.355  1.00  0.00     0.034 A 
ATOM     50  C   UNL A   1      39.622  30.426  30.266  1.00  0.00     0.034 A 
ATOM     51  C   UNL A   1      45.629  29.805  27.805  1.00  0.00     0.049 A 
ATOM     52  C   UNL A   1      40.820  31.339  30.215  1.00  0.00     0.074 A 
ATOM     53  C   UNL A   1      46.629  30.760  27.736  1.00  0.00     0.029 A 
ATOM     54  N   UNL A   1      44.545  30.405  28.426  1.00  0.00    -0.354 N 
ATOM     55  N   UNL A   1      41.982  31.147  29.639  1.00  0.00    -0.248 NA
ATOM     56  C   UNL A   1      40.685  32.650  30.868  1.00  0.00     0.031 C 
ATOM     57  C   UNL A   1      46.157  31.930  28.342  1.00  0.00     0.029 A 
ATOM     58  C   UNL A   1      44.855  31.712  28.762  1.00  0.00     0.049 A 
ATOM     59  H   UNL A   1      43.681  29.966  28.601  1.00  0.00     0.167 HD
ATOM     60  C   UNL A   1      42.701  32.323  29.825  1.00  0.00     0.074 A 
ATOM     61  C   UNL A   1      41.837  33.228  30.554  1.00  0.00     0.031 C 
ATOM     62  C   UNL A   1      43.966  32.623  29.439  1.00  0.00     0.034 A 
BRANCH  49  63
ATOM     63  C   UNL A   1      46.951  27.919  26.768  1.00  0.00     0.023 A 
ATOM     64  C   UNL A   1      47.950  27.403  27.618  1.00  0.00     0.012 A 
ATOM     65  C   UNL A   1      47.147  27.892  25.374  1.00  0.00     0.148 A 
ATOM     66  C   UNL A   1      49.137  26.895  27.091  1.00  0.00     0.002 A 
ATOM     67  C   UNL A   1      48.315  27.346  24.855  1.00  0.00     0.091 A 
ATOM     68  F   UNL A   1      46.197  28.412  24.584  1.00  0.00    -0.205 F 
ATOM     69  C   UNL A   1      49.315  26.857  25.712  1.00  0.00     0.022 A 
BRANCH  67  70
ATOM     70  S   UNL A   1      48.602  27.183  23.089  1.00  0.00     0.127 S 
ATOM     71  O   UNL A   1      47.633  28.131  22.543  1.00  0.00    -0.237 OA
ATOM     72  O   UNL A   1      50.000  27.599  22.963  1.00  0.00    -0.237 OA
ATOM     73  O   UNL A   1      48.357  25.783  22.771  1.00  0.00    -0.744 OA
ENDBRANCH  67  70
ENDBRANCH  49  63
BRANCH  50  74
ATOM     74  C   UNL A   1      38.356  30.867  30.915  1.00  0.00     0.023 A 
ATOM     75  C   UNL A   1      38.176  30.655  32.296  1.00  0.00     0.012 A 
ATOM     76  C   UNL A   1      37.340  31.507  30.180  1.00  0.00     0.148 A 
ATOM     77  C   UNL A   1      36.996  31.050  32.927  1.00  0.00     0.002 A 
ATOM     78  C   UNL A   1      36.191  31.947  30.826  1.00  0.00     0.091 A 
ATOM     79  F   UNL A   1      37.523  31.682  28.863  1.00  0.00    -0.205 F 
ATOM     80  C   UNL A   1      36.009  31.705  32.196  1.00  0.00     0.022 A 
BRANCH  78  81
ATOM     81  S   UNL A   1      34.925  32.913  29.991  1.00  0.00     0.127 S 
ATOM     82  O   UNL A   1      34.415  31.955  29.014  1.00  0.00    -0.237 OA
ATOM     83  O   UNL A   1      34.010  33.222  31.089  1.00  0.00    -0.237 OA
ATOM     84  O   UNL A   1      35.615  34.071  29.442  1.00  0.00    -0.744 OA
ENDBRANCH  78  81
ENDBRANCH  50  74
BRANCH  62  85
ATOM     85  C   UNL A   1      44.491  33.998  29.758  1.00  0.00     0.023 A 
ATOM     86  C   UNL A   1      45.231  34.211  30.938  1.00  0.00     0.012 A 
ATOM     87  C   UNL A   1      44.321  35.062  28.848  1.00  0.00     0.148 A 
ATOM     88  C   UNL A   1      45.765  35.468  31.224  1.00  0.00     0.002 A 
ATOM     89  C   UNL A   1      44.898  36.298  29.117  1.00  0.00     0.091 A 
ATOM     90  F   UNL A   1      43.600  34.845  27.739  1.00  0.00    -0.205 F 
ATOM     91  C   UNL A   1      45.609  36.506  30.308  1.00  0.00     0.022 A 
BRANCH  89  92
ATOM     92  S   UNL A   1      44.832  37.664  27.950  1.00  0.00     0.127 S 
ATOM     93  O   UNL A   1      45.589  37.126  26.819  1.00  0.00    -0.237 OA
ATOM     94  O   UNL A   1      43.395  37.800  27.711  1.00  0.00    -0.237 OA
ATOM     95  O   UNL A   1      45.442  38.800  28.629  1.00  0.00    -0.744 OA
ENDBRANCH  89  92
ENDBRANCH  62  85
ENDBRANCH  36  37
ENDBRANCH  29  31
ENDBRANCH  28  29
ENDBRANCH  27  28
ENDBRANCH   1  27
TORSDOF 19
ENDMDL
MODEL 3
REMARK VINA RESULT:     -11.8      5.823     11.061
REMARK SMILES Cc1c(C(=O)N[C@H]2C=C[C@@H](C(=O)OCCOCCOC(=O)c3ccc(-c4c5nc(c(-c6cccc(S(=O)(=O)[O-])c6F)c6ccc([nH]6)c(-c6cccc(S(=O)(=O)[O-])c6F)c6nc(c(-c7cccc(S(=O)(=O)[O-])c7F)c7ccc4[nH]7)C=C6)C=C5)cc3)C2)oc2ccccc12
REMARK SMILES IDX 17 1 16 2 15 3 14 4 13 5 11 6 12 7 10 8 7 9 8 10 85 11 9 12
REMARK SMILES IDX 6 13 4 14 5 15 3 17 1 18 2 19 92 20 86 21 87 22 91 23 88 24
REMARK SMILES IDX 90 25 89 26 18 27 19 28 20 29 21 30 22 31 23 32 84 33 24 34
REMARK SMILES IDX 83 35 25 36 26 37 27 38 77 39 28 40 82 41 76 42 78 43 29 44
REMARK SMILES IDX 81 45 75 46 74 47 30 49 62 50 42 51 61 52 43 53 46 54 60 55
REMARK SMILES IDX 79 56 44 57 45 58 59 60 80 61 47 62 31 63 32 64 40 65 33 66
REMARK SMILES IDX 35 67 41 68 34 69 36 70 37 71 38 72 39 73 63 74 64 75 72 76
REMARK SMILES IDX 65 77 67 78 73 79 66 80 68 81 69 82 70 83 71 84 48 85 49 86
REMARK SMILES IDX 57 87 50 88 52 89 58 90 51 91 53 92 54 93 55 94 56 95
REMARK H PARENT 6 16 78 48 46 59
REMARK Flexibility Score: inf
ROOT
ATOM      1  C   UNL A   1      34.072  34.684  28.020  1.00  0.00     0.202 C 
ENDROOT
BRANCH   1   2
ATOM      2  O   UNL A   1      34.115  35.583  29.130  1.00  0.00    -0.374 OA
BRANCH   2   3
ATOM      3  C   UNL A   1      32.877  36.115  29.597  1.00  0.00     0.202 C 
BRANCH   3   4
ATOM      4  C   UNL A   1      32.747  36.332  31.107  1.00  0.00     0.261 C 
BRANCH   4   5
ATOM      5  O   UNL A   1      33.940  35.966  31.821  1.00  0.00    -0.463 OA
BRANCH   5   6
ATOM      6  C   UNL A   1      33.866  34.779  32.472  1.00  0.00     0.312 C 
ATOM      7  O   UNL A   1      32.826  34.247  32.852  1.00  0.00    -0.252 OA
BRANCH   6   8
ATOM      8  C   UNL A   1      35.201  34.093  32.667  1.00  0.00     0.124 C 
ATOM      9  C   UNL A   1      36.804  32.599  33.468  1.00  0.00     0.106 C 
ATOM     10  C   UNL A   1      36.536  32.279  32.034  1.00  0.00    -0.006 C 
ATOM     11  C   UNL A   1      35.437  33.169  33.857  1.00  0.00     0.048 C 
ATOM     12  C   UNL A   1      35.654  33.179  31.556  1.00  0.00    -0.014 C 
BRANCH   9  13
ATOM     13  N   UNL A   1      37.259  31.535  34.285  1.00  0.00    -0.343 N 
ATOM     14  C   UNL A   1      37.988  31.606  35.459  1.00  0.00     0.287 C 
ATOM     15  O   UNL A   1      38.266  30.502  35.943  1.00  0.00    -0.266 OA
ATOM     16  H   UNL A   1      37.026  30.629  33.979  1.00  0.00     0.164 HD
BRANCH  14  17
ATOM     17  C   UNL A   1      38.452  32.857  36.096  1.00  0.00     0.195 A 
ATOM     18  C   UNL A   1      39.309  34.773  34.472  1.00  0.00     0.049 C 
ATOM     19  C   UNL A   1      38.999  34.110  35.764  1.00  0.00     0.008 A 
ATOM     20  C   UNL A   1      39.220  34.812  36.997  1.00  0.00     0.024 A 
ATOM     21  O   UNL A   1      38.277  32.845  37.475  1.00  0.00    -0.451 OA
ATOM     22  C   UNL A   1      38.723  34.009  37.999  1.00  0.00     0.135 A 
ATOM     23  C   UNL A   1      39.760  36.067  37.345  1.00  0.00     0.012 A 
ATOM     24  C   UNL A   1      38.686  34.371  39.344  1.00  0.00     0.048 A 
ATOM     25  C   UNL A   1      39.746  36.464  38.686  1.00  0.00     0.001 A 
ATOM     26  C   UNL A   1      39.208  35.631  39.668  1.00  0.00     0.004 A 
ENDBRANCH  14  17
ENDBRANCH   9  13
ENDBRANCH   6   8
ENDBRANCH   5   6
ENDBRANCH   4   5
ENDBRANCH   3   4
ENDBRANCH   2   3
ENDBRANCH   1   2
BRANCH   1  27
ATOM     27  C   UNL A   1      35.140  33.583  27.965  1.00  0.00     0.261 C 
BRANCH  27  28
ATOM     28  O   UNL A   1      34.771  32.419  28.730  1.00  0.00    -0.460 OA
BRANCH  28  29
ATOM     29  C   UNL A   1      34.719  31.264  28.023  1.00  0.00     0.338 C 
ATOM     30  O   UNL A   1      33.918  30.973  27.143  1.00  0.00    -0.246 OA
BRANCH  29  31
ATOM     31  C   UNL A   1      35.907  30.441  28.306  1.00  0.00     0.060 A 
ATOM     32  C   UNL A   1      35.934  29.718  29.506  1.00  0.00     0.016 A 
ATOM     33  C   UNL A   1      37.016  30.451  27.458  1.00  0.00     0.016 A 
ATOM     34  C   UNL A   1      37.086  29.033  29.883  1.00  0.00     0.010 A 
ATOM     35  C   UNL A   1      38.175  29.770  27.845  1.00  0.00     0.010 A 
ATOM     36  C   UNL A   1      38.227  29.087  29.074  1.00  0.00    -0.014 A 
BRANCH  36  37
ATOM     37  C   UNL A   1      39.511  28.543  29.578  1.00  0.00     0.031 A 
ATOM     38  C   UNL A   1      40.157  29.181  30.778  1.00  0.00     0.074 A 
ATOM     39  C   UNL A   1      40.093  27.489  28.978  1.00  0.00     0.049 A 
ATOM     40  N   UNL A   1      41.279  28.874  31.374  1.00  0.00    -0.248 NA
ATOM     41  C   UNL A   1      39.445  30.318  31.384  1.00  0.00     0.031 C 
ATOM     42  C   UNL A   1      39.561  26.781  27.815  1.00  0.00     0.029 A 
ATOM     43  N   UNL A   1      41.272  26.845  29.255  1.00  0.00    -0.354 N 
ATOM     44  C   UNL A   1      41.426  29.796  32.403  1.00  0.00     0.074 A 
ATOM     45  C   UNL A   1      40.281  30.680  32.347  1.00  0.00     0.031 C 
ATOM     46  C   UNL A   1      40.424  25.814  27.462  1.00  0.00     0.029 A 
ATOM     47  C   UNL A   1      41.578  25.849  28.358  1.00  0.00     0.049 A 
ATOM     48  H   UNL A   1      41.846  27.075  30.022  1.00  0.00     0.167 HD
ATOM     49  C   UNL A   1      42.417  29.893  33.321  1.00  0.00     0.034 A 
ATOM     50  C   UNL A   1      42.673  25.067  28.262  1.00  0.00     0.034 A 
ATOM     51  C   UNL A   1      43.541  28.998  33.393  1.00  0.00     0.049 A 
ATOM     52  C   UNL A   1      43.772  25.211  29.282  1.00  0.00     0.074 A 
ATOM     53  C   UNL A   1      44.563  28.975  34.324  1.00  0.00     0.029 A 
ATOM     54  N   UNL A   1      43.801  27.981  32.488  1.00  0.00    -0.354 N 
ATOM     55  N   UNL A   1      43.833  26.001  30.328  1.00  0.00    -0.248 NA
ATOM     56  C   UNL A   1      44.941  24.332  29.128  1.00  0.00     0.031 C 
ATOM     57  C   UNL A   1      45.458  27.960  33.966  1.00  0.00     0.029 A 
ATOM     58  C   UNL A   1      44.977  27.334  32.827  1.00  0.00     0.049 A 
ATOM     59  H   UNL A   1      43.233  27.751  31.717  1.00  0.00     0.167 HD
ATOM     60  C   UNL A   1      45.023  25.688  30.976  1.00  0.00     0.074 A 
ATOM     61  C   UNL A   1      45.645  24.625  30.213  1.00  0.00     0.031 C 
ATOM     62  C   UNL A   1      45.559  26.239  32.093  1.00  0.00     0.034 A 
BRANCH  49  63
ATOM     63  C   UNL A   1      42.322  30.997  34.341  1.00  0.00     0.023 A 
ATOM     64  C   UNL A   1      41.836  30.714  35.634  1.00  0.00     0.012 A 
ATOM     65  C   UNL A   1      42.764  32.298  34.037  1.00  0.00     0.148 A 
ATOM     66  C   UNL A   1      41.763  31.718  36.599  1.00  0.00     0.002 A 
ATOM     67  C   UNL A   1      42.727  33.283  35.017  1.00  0.00     0.091 A 
ATOM     68  F   UNL A   1      43.198  32.553  32.794  1.00  0.00    -0.205 F 
ATOM     69  C   UNL A   1      42.217  32.998  36.294  1.00  0.00     0.022 A 
BRANCH  67  70
ATOM     70  S   UNL A   1      43.361  34.941  34.743  1.00  0.00     0.127 S 
ATOM     71  O   UNL A   1      43.029  35.597  36.006  1.00  0.00    -0.237 OA
ATOM     72  O   UNL A   1      44.790  34.697  34.540  1.00  0.00    -0.237 OA
ATOM     73  O   UNL A   1      42.662  35.449  33.570  1.00  0.00    -0.744 OA
ENDBRANCH  67  70
ENDBRANCH  49  63
BRANCH  50  74
ATOM     74  C   UNL A   1      42.766  24.047  27.180  1.00  0.00     0.023 A 
ATOM     75  C   UNL A   1      43.505  24.338  26.017  1.00  0.00     0.012 A 
ATOM     76  C   UNL A   1      42.144  22.789  27.304  1.00  0.00     0.148 A 
ATOM     77  C   UNL A   1      43.601  23.404  24.985  1.00  0.00     0.002 A 
ATOM     78  C   UNL A   1      42.290  21.844  26.296  1.00  0.00     0.091 A 
ATOM     79  F   UNL A   1      41.431  22.540  28.411  1.00  0.00    -0.205 F 
ATOM     80  C   UNL A   1      43.004  22.154  25.128  1.00  0.00     0.022 A 
BRANCH  78  81
ATOM     81  S   UNL A   1      41.666  20.166  26.450  1.00  0.00     0.127 S 
ATOM     82  O   UNL A   1      42.245  19.522  25.275  1.00  0.00    -0.237 OA
ATOM     83  O   UNL A   1      42.239  19.748  27.729  1.00  0.00    -0.237 OA
ATOM     84  O   UNL A   1      40.214  20.287  26.455  1.00  0.00    -0.744 OA
ENDBRANCH  78  81
ENDBRANCH  50  74
BRANCH  62  85
ATOM     85  C   UNL A   1      46.868  25.684  32.592  1.00  0.00     0.023 A 
ATOM     86  C   UNL A   1      48.083  26.217  32.117  1.00  0.00     0.012 A 
ATOM     87  C   UNL A   1      46.893  24.691  33.592  1.00  0.00     0.148 A 
ATOM     88  C   UNL A   1      49.302  25.746  32.605  1.00  0.00     0.002 A 
ATOM     89  C   UNL A   1      48.111  24.262  34.108  1.00  0.00     0.091 A 
ATOM     90  F   UNL A   1      45.727  24.184  34.019  1.00  0.00    -0.205 F 
ATOM     91  C   UNL A   1      49.316  24.780  33.608  1.00  0.00     0.022 A 
BRANCH  89  92
ATOM     92  S   UNL A   1      48.220  23.094  35.469  1.00  0.00     0.127 S 
ATOM     93  O   UNL A   1      47.646  21.888  34.873  1.00  0.00    -0.237 OA
ATOM     94  O   UNL A   1      49.662  23.028  35.709  1.00  0.00    -0.237 OA
ATOM     95  O   UNL A   1      47.453  23.679  36.562  1.00  0.00    -0.744 OA
ENDBRANCH  89  92
ENDBRANCH  62  85
ENDBRANCH  36  37
ENDBRANCH  29  31
ENDBRANCH  28  29
ENDBRANCH  27  28
ENDBRANCH   1  27
TORSDOF 19
ENDMDL
