MODEL 1
REMARK VINA RESULT:     -11.5      0.000      0.000
REMARK SMILES COC(=O)c1ccc(Cl)c(-c2ccc(C(=O)OCCOCCOC(=O)c3ccc(-c4c5nc(c(-c6cccc(S(=O)(=O)[O-])c6F)c6ccc([nH]6)c(-c6cccc(S(=O)(=O)[O-])c6F)c6nc(c(-c7cccc(S(=O)(=O)[O-])c7F)c7ccc4[nH]7)C=C6)C=C5)cc3)c(F)c2)c1
REMARK SMILES IDX 20 1 19 2 18 3 17 4 15 5 16 6 14 7 11 8 12 9 91 10 13 11
REMARK SMILES IDX 89 12 90 13 10 14 5 15 6 16 92 17 7 18 8 19 9 20 3 21 4 22
REMARK SMILES IDX 2 23 1 24 21 25 22 26 23 27 24 28 25 29 26 30 27 31 88 32
REMARK SMILES IDX 28 33 87 34 29 35 30 36 31 37 81 38 32 39 86 40 80 41 82 42
REMARK SMILES IDX 33 43 85 44 79 45 78 46 34 48 66 49 46 50 65 51 47 52 50 53
REMARK SMILES IDX 64 54 83 55 48 56 49 57 63 59 84 60 51 61 35 62 36 63 44 64
REMARK SMILES IDX 37 65 39 66 45 67 38 68 40 69 41 70 42 71 43 72 67 73 68 74
REMARK SMILES IDX 76 75 69 76 71 77 77 78 70 79 72 80 73 81 74 82 75 83 52 84
REMARK SMILES IDX 53 85 61 86 54 87 56 88 62 89 55 90 57 91 58 92 59 93 60 94
REMARK H PARENT 82 47 50 58
REMARK Flexibility Score: inf
ROOT
ATOM      1  O   UNL A   1      31.314  28.380  25.250  1.00  0.00    -0.374 OA
ENDROOT
BRANCH   1   2
ATOM      2  C   UNL A   1      30.769  29.251  24.258  1.00  0.00     0.202 C 
BRANCH   2   3
ATOM      3  C   UNL A   1      31.335  29.154  22.839  1.00  0.00     0.261 C 
BRANCH   3   4
ATOM      4  O   UNL A   1      31.688  27.804  22.505  1.00  0.00    -0.460 OA
BRANCH   4   5
ATOM      5  C   UNL A   1      33.010  27.529  22.559  1.00  0.00     0.341 C 
ATOM      6  O   UNL A   1      33.930  28.326  22.446  1.00  0.00    -0.246 OA
BRANCH   5   7
ATOM      7  C   UNL A   1      33.240  26.136  22.982  1.00  0.00     0.095 A 
ATOM      8  C   UNL A   1      33.911  23.559  23.891  1.00  0.00    -0.014 A 
ATOM      9  C   UNL A   1      33.872  24.641  24.783  1.00  0.00     0.010 A 
ATOM     10  C   UNL A   1      33.527  23.778  22.556  1.00  0.00     0.049 A 
ATOM     11  C   UNL A   1      33.541  25.920  24.332  1.00  0.00     0.019 A 
ATOM     12  C   UNL A   1      33.196  25.057  22.108  1.00  0.00     0.138 A 
ATOM     13  F   UNL A   1      32.900  25.218  20.811  1.00  0.00    -0.206 F 
BRANCH   8  14
ATOM     14  C   UNL A   1      34.507  22.278  24.302  1.00  0.00     0.001 A 
ATOM     15  C   UNL A   1      34.128  19.888  24.690  1.00  0.00     0.060 A 
ATOM     16  C   UNL A   1      35.483  19.706  24.969  1.00  0.00     0.017 A 
ATOM     17  C   UNL A   1      33.653  21.159  24.351  1.00  0.00     0.026 A 
ATOM     18  C   UNL A   1      36.351  20.799  24.913  1.00  0.00     0.022 A 
ATOM     19  C   UNL A   1      35.870  22.076  24.588  1.00  0.00     0.048 A 
ATOM     20  Cl  UNL A   1      37.015  23.372  24.562  1.00  0.00    -0.084 Cl
BRANCH  15  21
ATOM     21  C   UNL A   1      33.154  18.777  24.717  1.00  0.00     0.337 C 
ATOM     22  O   UNL A   1      32.313  18.640  25.591  1.00  0.00    -0.246 OA
BRANCH  21  23
ATOM     23  O   UNL A   1      33.407  17.926  23.696  1.00  0.00    -0.465 OA
ATOM     24  C   UNL A   1      32.467  18.033  22.626  1.00  0.00     0.282 C 
ENDBRANCH  21  23
ENDBRANCH  15  21
ENDBRANCH   8  14
ENDBRANCH   5   7
ENDBRANCH   4   5
ENDBRANCH   3   4
ENDBRANCH   2   3
ENDBRANCH   1   2
BRANCH   1  25
ATOM     25  C   UNL A   1      31.763  28.960  26.474  1.00  0.00     0.202 C 
BRANCH  25  26
ATOM     26  C   UNL A   1      31.760  30.489  26.600  1.00  0.00     0.261 C 
BRANCH  26  27
ATOM     27  O   UNL A   1      33.025  31.089  26.281  1.00  0.00    -0.460 OA
BRANCH  27  28
ATOM     28  C   UNL A   1      33.506  31.926  27.235  1.00  0.00     0.338 C 
ATOM     29  O   UNL A   1      32.925  32.870  27.745  1.00  0.00    -0.246 OA
BRANCH  28  30
ATOM     30  C   UNL A   1      34.802  31.432  27.732  1.00  0.00     0.060 A 
ATOM     31  C   UNL A   1      34.920  30.058  27.982  1.00  0.00     0.016 A 
ATOM     32  C   UNL A   1      35.854  32.300  28.024  1.00  0.00     0.016 A 
ATOM     33  C   UNL A   1      36.076  29.553  28.573  1.00  0.00     0.010 A 
ATOM     34  C   UNL A   1      37.010  31.792  28.625  1.00  0.00     0.010 A 
ATOM     35  C   UNL A   1      37.112  30.423  28.936  1.00  0.00    -0.014 A 
BRANCH  35  36
ATOM     36  C   UNL A   1      38.248  29.919  29.743  1.00  0.00     0.031 A 
ATOM     37  C   UNL A   1      38.443  30.437  31.143  1.00  0.00     0.074 A 
ATOM     38  C   UNL A   1      39.096  29.004  29.236  1.00  0.00     0.049 A 
ATOM     39  N   UNL A   1      39.395  30.168  31.996  1.00  0.00    -0.248 NA
ATOM     40  C   UNL A   1      37.435  31.386  31.649  1.00  0.00     0.031 C 
ATOM     41  C   UNL A   1      39.005  28.422  27.898  1.00  0.00     0.029 A 
ATOM     42  N   UNL A   1      40.218  28.427  29.779  1.00  0.00    -0.354 N 
ATOM     43  C   UNL A   1      39.125  30.936  33.122  1.00  0.00     0.074 A 
ATOM     44  C   UNL A   1      37.919  31.686  32.845  1.00  0.00     0.031 C 
ATOM     45  C   UNL A   1      40.043  27.591  27.714  1.00  0.00     0.029 A 
ATOM     46  C   UNL A   1      40.891  27.607  28.904  1.00  0.00     0.049 A 
ATOM     47  H   UNL A   1      40.510  28.584  30.706  1.00  0.00     0.167 HD
ATOM     48  C   UNL A   1      39.812  30.998  34.286  1.00  0.00     0.034 A 
ATOM     49  C   UNL A   1      42.071  26.969  29.036  1.00  0.00     0.034 A 
ATOM     50  C   UNL A   1      40.990  30.223  34.569  1.00  0.00     0.049 A 
ATOM     51  C   UNL A   1      42.824  27.070  30.338  1.00  0.00     0.074 A 
ATOM     52  C   UNL A   1      41.718  30.177  35.745  1.00  0.00     0.029 A 
ATOM     53  N   UNL A   1      41.617  29.372  33.675  1.00  0.00    -0.354 N 
ATOM     54  N   UNL A   1      42.496  27.713  31.431  1.00  0.00    -0.248 NA
ATOM     55  C   UNL A   1      44.094  26.334  30.438  1.00  0.00     0.031 C 
ATOM     56  C   UNL A   1      42.810  29.330  35.549  1.00  0.00     0.029 A 
ATOM     57  C   UNL A   1      42.735  28.810  34.267  1.00  0.00     0.049 A 
ATOM     58  H   UNL A   1      41.313  29.193  32.756  1.00  0.00     0.167 HD
ATOM     59  C   UNL A   1      43.496  27.432  32.356  1.00  0.00     0.074 A 
ATOM     60  C   UNL A   1      44.433  26.545  31.702  1.00  0.00     0.031 C 
ATOM     61  C   UNL A   1      43.630  27.881  33.628  1.00  0.00     0.034 A 
BRANCH  48  62
ATOM     62  C   UNL A   1      39.309  31.908  35.373  1.00  0.00     0.023 A 
ATOM     63  C   UNL A   1      38.480  31.392  36.388  1.00  0.00     0.012 A 
ATOM     64  C   UNL A   1      39.780  33.233  35.468  1.00  0.00     0.148 A 
ATOM     65  C   UNL A   1      38.125  32.182  37.481  1.00  0.00     0.002 A 
ATOM     66  C   UNL A   1      39.461  33.998  36.583  1.00  0.00     0.091 A 
ATOM     67  F   UNL A   1      40.554  33.707  34.480  1.00  0.00    -0.205 F 
ATOM     68  C   UNL A   1      38.629  33.476  37.586  1.00  0.00     0.022 A 
BRANCH  66  69
ATOM     69  S   UNL A   1      40.135  35.640  36.861  1.00  0.00     0.127 S 
ATOM     70  O   UNL A   1      39.554  36.388  35.746  1.00  0.00    -0.237 OA
ATOM     71  O   UNL A   1      39.585  35.977  38.173  1.00  0.00    -0.237 OA
ATOM     72  O   UNL A   1      41.583  35.497  36.819  1.00  0.00    -0.744 OA
ENDBRANCH  66  69
ENDBRANCH  48  62
BRANCH  49  73
ATOM     73  C   UNL A   1      42.606  26.157  27.905  1.00  0.00     0.023 A 
ATOM     74  C   UNL A   1      43.578  26.706  27.048  1.00  0.00     0.012 A 
ATOM     75  C   UNL A   1      42.170  24.834  27.691  1.00  0.00     0.148 A 
ATOM     76  C   UNL A   1      44.086  25.962  25.981  1.00  0.00     0.002 A 
ATOM     77  C   UNL A   1      42.726  24.079  26.665  1.00  0.00     0.091 A 
ATOM     78  F   UNL A   1      41.229  24.335  28.506  1.00  0.00    -0.205 F 
ATOM     79  C   UNL A   1      43.670  24.647  25.798  1.00  0.00     0.022 A 
BRANCH  77  80
ATOM     80  S   UNL A   1      42.354  22.335  26.443  1.00  0.00     0.127 S 
ATOM     81  O   UNL A   1      43.200  21.993  25.303  1.00  0.00    -0.237 OA
ATOM     82  O   UNL A   1      42.784  21.770  27.723  1.00  0.00    -0.237 OA
ATOM     83  O   UNL A   1      40.918  22.265  26.208  1.00  0.00    -0.744 OA
ENDBRANCH  77  80
ENDBRANCH  49  73
BRANCH  61  84
ATOM     84  C   UNL A   1      44.808  27.400  34.437  1.00  0.00     0.023 A 
ATOM     85  C   UNL A   1      45.979  28.179  34.505  1.00  0.00     0.012 A 
ATOM     86  C   UNL A   1      44.701  26.241  35.232  1.00  0.00     0.148 A 
ATOM     87  C   UNL A   1      47.033  27.801  35.336  1.00  0.00     0.002 A 
ATOM     88  C   UNL A   1      45.734  25.900  36.098  1.00  0.00     0.091 A 
ATOM     89  F   UNL A   1      43.583  25.506  35.143  1.00  0.00    -0.205 F 
ATOM     90  C   UNL A   1      46.904  26.673  36.143  1.00  0.00     0.022 A 
BRANCH  88  91
ATOM     91  S   UNL A   1      45.614  24.530  37.254  1.00  0.00     0.127 S 
ATOM     92  O   UNL A   1      46.984  24.449  37.761  1.00  0.00    -0.237 OA
ATOM     93  O   UNL A   1      44.636  25.027  38.221  1.00  0.00    -0.237 OA
ATOM     94  O   UNL A   1      45.171  23.381  36.477  1.00  0.00    -0.744 OA
ENDBRANCH  88  91
ENDBRANCH  61  84
ENDBRANCH  35  36
ENDBRANCH  28  30
ENDBRANCH  27  28
ENDBRANCH  26  27
ENDBRANCH  25  26
ENDBRANCH   1  25
TORSDOF 20
ENDMDL
MODEL 2
REMARK VINA RESULT:     -10.8      5.244     11.678
REMARK SMILES COC(=O)c1ccc(Cl)c(-c2ccc(C(=O)OCCOCCOC(=O)c3ccc(-c4c5nc(c(-c6cccc(S(=O)(=O)[O-])c6F)c6ccc([nH]6)c(-c6cccc(S(=O)(=O)[O-])c6F)c6nc(c(-c7cccc(S(=O)(=O)[O-])c7F)c7ccc4[nH]7)C=C6)C=C5)cc3)c(F)c2)c1
REMARK SMILES IDX 20 1 19 2 18 3 17 4 15 5 16 6 14 7 11 8 12 9 91 10 13 11
REMARK SMILES IDX 89 12 90 13 10 14 5 15 6 16 92 17 7 18 8 19 9 20 3 21 4 22
REMARK SMILES IDX 2 23 1 24 21 25 22 26 23 27 24 28 25 29 26 30 27 31 88 32
REMARK SMILES IDX 28 33 87 34 29 35 30 36 31 37 81 38 32 39 86 40 80 41 82 42
REMARK SMILES IDX 33 43 85 44 79 45 78 46 34 48 66 49 46 50 65 51 47 52 50 53
REMARK SMILES IDX 64 54 83 55 48 56 49 57 63 59 84 60 51 61 35 62 36 63 44 64
REMARK SMILES IDX 37 65 39 66 45 67 38 68 40 69 41 70 42 71 43 72 67 73 68 74
REMARK SMILES IDX 76 75 69 76 71 77 77 78 70 79 72 80 73 81 74 82 75 83 52 84
REMARK SMILES IDX 53 85 61 86 54 87 56 88 62 89 55 90 57 91 58 92 59 93 60 94
REMARK H PARENT 82 47 50 58
REMARK Flexibility Score: inf
ROOT
ATOM      1  O   UNL A   1      44.498  20.494  25.372  1.00  0.00    -0.374 OA
ENDROOT
BRANCH   1   2
ATOM      2  C   UNL A   1      45.051  21.462  24.479  1.00  0.00     0.202 C 
BRANCH   2   3
ATOM      3  C   UNL A   1      46.370  22.127  24.880  1.00  0.00     0.261 C 
BRANCH   3   4
ATOM      4  O   UNL A   1      46.345  22.565  26.246  1.00  0.00    -0.460 OA
BRANCH   4   5
ATOM      5  C   UNL A   1      46.397  23.905  26.418  1.00  0.00     0.341 C 
ATOM      6  O   UNL A   1      46.569  24.749  25.550  1.00  0.00    -0.246 OA
BRANCH   5   7
ATOM      7  C   UNL A   1      46.014  24.273  27.792  1.00  0.00     0.095 A 
ATOM      8  C   UNL A   1      45.055  25.076  30.313  1.00  0.00    -0.014 A 
ATOM      9  C   UNL A   1      44.293  24.224  29.499  1.00  0.00     0.010 A 
ATOM     10  C   UNL A   1      46.339  25.448  29.875  1.00  0.00     0.049 A 
ATOM     11  C   UNL A   1      44.767  23.827  28.248  1.00  0.00     0.019 A 
ATOM     12  C   UNL A   1      46.810  25.050  28.624  1.00  0.00     0.138 A 
ATOM     13  F   UNL A   1      48.015  25.486  28.231  1.00  0.00    -0.206 F 
BRANCH   8  14
ATOM     14  C   UNL A   1      44.455  25.702  31.502  1.00  0.00     0.001 A 
ATOM     15  C   UNL A   1      43.223  27.626  32.386  1.00  0.00     0.060 A 
ATOM     16  C   UNL A   1      43.159  27.024  33.643  1.00  0.00     0.017 A 
ATOM     17  C   UNL A   1      43.856  26.965  31.330  1.00  0.00     0.026 A 
ATOM     18  C   UNL A   1      43.736  25.766  33.834  1.00  0.00     0.022 A 
ATOM     19  C   UNL A   1      44.383  25.110  32.776  1.00  0.00     0.048 A 
ATOM     20  Cl  UNL A   1      45.084  23.564  33.112  1.00  0.00    -0.084 Cl
BRANCH  15  21
ATOM     21  C   UNL A   1      42.625  28.948  32.107  1.00  0.00     0.337 C 
ATOM     22  O   UNL A   1      41.422  29.143  32.045  1.00  0.00    -0.246 OA
BRANCH  21  23
ATOM     23  O   UNL A   1      43.605  29.848  31.856  1.00  0.00    -0.465 OA
ATOM     24  C   UNL A   1      44.348  30.213  33.020  1.00  0.00     0.282 C 
ENDBRANCH  21  23
ENDBRANCH  15  21
ENDBRANCH   8  14
ENDBRANCH   5   7
ENDBRANCH   4   5
ENDBRANCH   3   4
ENDBRANCH   2   3
ENDBRANCH   1   2
BRANCH   1  25
ATOM     25  C   UNL A   1      43.167  20.703  25.842  1.00  0.00     0.202 C 
BRANCH  25  26
ATOM     26  C   UNL A   1      42.630  22.139  25.897  1.00  0.00     0.261 C 
BRANCH  26  27
ATOM     27  O   UNL A   1      41.270  22.256  25.450  1.00  0.00    -0.460 OA
BRANCH  27  28
ATOM     28  C   UNL A   1      40.360  22.384  26.448  1.00  0.00     0.338 C 
ATOM     29  O   UNL A   1      39.696  21.497  26.956  1.00  0.00    -0.246 OA
BRANCH  28  30
ATOM     30  C   UNL A   1      40.400  23.754  26.993  1.00  0.00     0.060 A 
ATOM     31  C   UNL A   1      40.240  24.815  26.092  1.00  0.00     0.016 A 
ATOM     32  C   UNL A   1      40.668  23.999  28.339  1.00  0.00     0.016 A 
ATOM     33  C   UNL A   1      40.397  26.129  26.527  1.00  0.00     0.010 A 
ATOM     34  C   UNL A   1      40.833  25.319  28.772  1.00  0.00     0.010 A 
ATOM     35  C   UNL A   1      40.735  26.387  27.861  1.00  0.00    -0.014 A 
BRANCH  35  36
ATOM     36  C   UNL A   1      41.099  27.763  28.275  1.00  0.00     0.031 A 
ATOM     37  C   UNL A   1      42.544  28.183  28.241  1.00  0.00     0.074 A 
ATOM     38  C   UNL A   1      40.151  28.632  28.673  1.00  0.00     0.049 A 
ATOM     39  N   UNL A   1      43.082  29.316  28.608  1.00  0.00    -0.248 NA
ATOM     40  C   UNL A   1      43.513  27.197  27.731  1.00  0.00     0.031 C 
ATOM     41  C   UNL A   1      38.720  28.344  28.740  1.00  0.00     0.029 A 
ATOM     42  N   UNL A   1      40.256  29.925  29.124  1.00  0.00    -0.354 N 
ATOM     43  C   UNL A   1      44.449  29.170  28.407  1.00  0.00     0.074 A 
ATOM     44  C   UNL A   1      44.663  27.837  27.889  1.00  0.00     0.031 C 
ATOM     45  C   UNL A   1      38.082  29.419  29.231  1.00  0.00     0.029 A 
ATOM     46  C   UNL A   1      39.060  30.458  29.545  1.00  0.00     0.049 A 
ATOM     47  H   UNL A   1      41.106  30.422  29.143  1.00  0.00     0.167 HD
ATOM     48  C   UNL A   1      45.434  30.073  28.623  1.00  0.00     0.034 A 
ATOM     49  C   UNL A   1      38.790  31.635  30.145  1.00  0.00     0.034 A 
ATOM     50  C   UNL A   1      45.212  31.409  29.105  1.00  0.00     0.049 A 
ATOM     51  C   UNL A   1      39.911  32.613  30.389  1.00  0.00     0.074 A 
ATOM     52  C   UNL A   1      46.146  32.412  29.297  1.00  0.00     0.029 A 
ATOM     53  N   UNL A   1      43.984  31.926  29.480  1.00  0.00    -0.354 N 
ATOM     54  N   UNL A   1      41.182  32.501  30.091  1.00  0.00    -0.248 NA
ATOM     55  C   UNL A   1      39.557  33.893  31.024  1.00  0.00     0.031 C 
ATOM     56  C   UNL A   1      45.489  33.524  29.827  1.00  0.00     0.029 A 
ATOM     57  C   UNL A   1      44.138  33.230  29.919  1.00  0.00     0.049 A 
ATOM     58  H   UNL A   1      43.129  31.440  29.439  1.00  0.00     0.167 HD
ATOM     59  C   UNL A   1      41.771  33.704  30.467  1.00  0.00     0.074 A 
ATOM     60  C   UNL A   1      40.716  34.539  30.999  1.00  0.00     0.031 C 
ATOM     61  C   UNL A   1      43.072  34.075  30.391  1.00  0.00     0.034 A 
BRANCH  48  62
ATOM     62  C   UNL A   1      46.853  29.677  28.316  1.00  0.00     0.023 A 
ATOM     63  C   UNL A   1      47.428  30.040  27.083  1.00  0.00     0.012 A 
ATOM     64  C   UNL A   1      47.658  29.083  29.309  1.00  0.00     0.148 A 
ATOM     65  C   UNL A   1      48.782  29.814  26.840  1.00  0.00     0.002 A 
ATOM     66  C   UNL A   1      49.016  28.904  29.078  1.00  0.00     0.091 A 
ATOM     67  F   UNL A   1      47.083  28.732  30.469  1.00  0.00    -0.205 F 
ATOM     68  C   UNL A   1      49.578  29.262  27.842  1.00  0.00     0.022 A 
BRANCH  66  69
ATOM     69  S   UNL A   1      50.144  28.291  30.334  1.00  0.00     0.127 S 
ATOM     70  O   UNL A   1      49.823  26.864  30.347  1.00  0.00    -0.237 OA
ATOM     71  O   UNL A   1      51.447  28.618  29.758  1.00  0.00    -0.237 OA
ATOM     72  O   UNL A   1      49.815  29.007  31.558  1.00  0.00    -0.744 OA
ENDBRANCH  66  69
ENDBRANCH  48  62
BRANCH  49  73
ATOM     73  C   UNL A   1      37.389  31.962  30.539  1.00  0.00     0.023 A 
ATOM     74  C   UNL A   1      36.932  31.638  31.831  1.00  0.00     0.012 A 
ATOM     75  C   UNL A   1      36.517  32.615  29.645  1.00  0.00     0.148 A 
ATOM     76  C   UNL A   1      35.623  31.933  32.216  1.00  0.00     0.002 A 
ATOM     77  C   UNL A   1      35.236  32.960  30.057  1.00  0.00     0.091 A 
ATOM     78  F   UNL A   1      36.964  32.897  28.414  1.00  0.00    -0.205 F 
ATOM     79  C   UNL A   1      34.780  32.604  31.334  1.00  0.00     0.022 A 
BRANCH  77  80
ATOM     80  S   UNL A   1      34.132  33.948  29.040  1.00  0.00     0.127 S 
ATOM     81  O   UNL A   1      35.052  34.923  28.460  1.00  0.00    -0.237 OA
ATOM     82  O   UNL A   1      33.616  32.951  28.101  1.00  0.00    -0.237 OA
ATOM     83  O   UNL A   1      33.132  34.486  29.952  1.00  0.00    -0.744 OA
ENDBRANCH  77  80
ENDBRANCH  49  73
BRANCH  61  84
ATOM     84  C   UNL A   1      43.450  35.460  30.850  1.00  0.00     0.023 A 
ATOM     85  C   UNL A   1      43.556  36.507  29.914  1.00  0.00     0.012 A 
ATOM     86  C   UNL A   1      43.571  35.747  32.226  1.00  0.00     0.148 A 
ATOM     87  C   UNL A   1      43.797  37.813  30.338  1.00  0.00     0.002 A 
ATOM     88  C   UNL A   1      43.756  37.060  32.643  1.00  0.00     0.091 A 
ATOM     89  F   UNL A   1      43.479  34.734  33.100  1.00  0.00    -0.205 F 
ATOM     90  C   UNL A   1      43.881  38.092  31.700  1.00  0.00     0.022 A 
BRANCH  88  91
ATOM     91  S   UNL A   1      43.766  37.530  34.377  1.00  0.00     0.127 S 
ATOM     92  O   UNL A   1      44.185  38.930  34.302  1.00  0.00    -0.237 OA
ATOM     93  O   UNL A   1      42.368  37.333  34.758  1.00  0.00    -0.237 OA
ATOM     94  O   UNL A   1      44.707  36.636  35.035  1.00  0.00    -0.744 OA
ENDBRANCH  88  91
ENDBRANCH  61  84
ENDBRANCH  35  36
ENDBRANCH  28  30
ENDBRANCH  27  28
ENDBRANCH  26  27
ENDBRANCH  25  26
ENDBRANCH   1  25
TORSDOF 20
ENDMDL
MODEL 3
REMARK VINA RESULT:     -10.0      1.724      2.015
REMARK SMILES COC(=O)c1ccc(Cl)c(-c2ccc(C(=O)OCCOCCOC(=O)c3ccc(-c4c5nc(c(-c6cccc(S(=O)(=O)[O-])c6F)c6ccc([nH]6)c(-c6cccc(S(=O)(=O)[O-])c6F)c6nc(c(-c7cccc(S(=O)(=O)[O-])c7F)c7ccc4[nH]7)C=C6)C=C5)cc3)c(F)c2)c1
REMARK SMILES IDX 20 1 19 2 18 3 17 4 15 5 16 6 14 7 11 8 12 9 91 10 13 11
REMARK SMILES IDX 89 12 90 13 10 14 5 15 6 16 92 17 7 18 8 19 9 20 3 21 4 22
REMARK SMILES IDX 2 23 1 24 21 25 22 26 23 27 24 28 25 29 26 30 27 31 88 32
REMARK SMILES IDX 28 33 87 34 29 35 30 36 31 37 81 38 32 39 86 40 80 41 82 42
REMARK SMILES IDX 33 43 85 44 79 45 78 46 34 48 66 49 46 50 65 51 47 52 50 53
REMARK SMILES IDX 64 54 83 55 48 56 49 57 63 59 84 60 51 61 35 62 36 63 44 64
REMARK SMILES IDX 37 65 39 66 45 67 38 68 40 69 41 70 42 71 43 72 67 73 68 74
REMARK SMILES IDX 76 75 69 76 71 77 77 78 70 79 72 80 73 81 74 82 75 83 52 84
REMARK SMILES IDX 53 85 61 86 54 87 56 88 62 89 55 90 57 91 58 92 59 93 60 94
REMARK H PARENT 82 47 50 58
REMARK Flexibility Score: inf
ROOT
ATOM      1  O   UNL A   1      31.858  27.882  26.234  1.00  0.00    -0.374 OA
ENDROOT
BRANCH   1   2
ATOM      2  C   UNL A   1      31.168  27.748  24.991  1.00  0.00     0.202 C 
BRANCH   2   3
ATOM      3  C   UNL A   1      31.918  28.144  23.717  1.00  0.00     0.261 C 
BRANCH   3   4
ATOM      4  O   UNL A   1      31.651  27.229  22.644  1.00  0.00    -0.460 OA
BRANCH   4   5
ATOM      5  C   UNL A   1      32.742  26.629  22.118  1.00  0.00     0.341 C 
ATOM      6  O   UNL A   1      33.513  27.103  21.297  1.00  0.00    -0.246 OA
BRANCH   5   7
ATOM      7  C   UNL A   1      33.031  25.362  22.812  1.00  0.00     0.095 A 
ATOM      8  C   UNL A   1      33.779  22.904  23.959  1.00  0.00    -0.014 A 
ATOM      9  C   UNL A   1      34.718  23.935  23.810  1.00  0.00     0.010 A 
ATOM     10  C   UNL A   1      32.443  23.158  23.601  1.00  0.00     0.049 A 
ATOM     11  C   UNL A   1      34.349  25.154  23.239  1.00  0.00     0.019 A 
ATOM     12  C   UNL A   1      32.076  24.377  23.031  1.00  0.00     0.138 A 
ATOM     13  F   UNL A   1      30.802  24.542  22.650  1.00  0.00    -0.206 F 
BRANCH   8  14
ATOM     14  C   UNL A   1      34.217  21.544  24.312  1.00  0.00     0.001 A 
ATOM     15  C   UNL A   1      33.629  19.166  24.365  1.00  0.00     0.060 A 
ATOM     16  C   UNL A   1      34.905  18.848  24.831  1.00  0.00     0.017 A 
ATOM     17  C   UNL A   1      33.298  20.498  24.101  1.00  0.00     0.026 A 
ATOM     18  C   UNL A   1      35.838  19.868  25.037  1.00  0.00     0.022 A 
ATOM     19  C   UNL A   1      35.498  21.206  24.785  1.00  0.00     0.048 A 
ATOM     20  Cl  UNL A   1      36.712  22.401  25.085  1.00  0.00    -0.084 Cl
BRANCH  15  21
ATOM     21  C   UNL A   1      32.596  18.140  24.113  1.00  0.00     0.337 C 
ATOM     22  O   UNL A   1      32.198  17.845  22.997  1.00  0.00    -0.246 OA
BRANCH  21  23
ATOM     23  O   UNL A   1      32.125  17.669  25.292  1.00  0.00    -0.465 OA
ATOM     24  C   UNL A   1      32.488  16.310  25.542  1.00  0.00     0.282 C 
ENDBRANCH  21  23
ENDBRANCH  15  21
ENDBRANCH   8  14
ENDBRANCH   5   7
ENDBRANCH   4   5
ENDBRANCH   3   4
ENDBRANCH   2   3
ENDBRANCH   1   2
BRANCH   1  25
ATOM     25  C   UNL A   1      31.742  29.122  26.932  1.00  0.00     0.202 C 
BRANCH  25  26
ATOM     26  C   UNL A   1      32.806  30.199  26.685  1.00  0.00     0.261 C 
BRANCH  26  27
ATOM     27  O   UNL A   1      33.119  30.970  27.856  1.00  0.00    -0.460 OA
BRANCH  27  28
ATOM     28  C   UNL A   1      34.087  31.903  27.672  1.00  0.00     0.338 C 
ATOM     29  O   UNL A   1      33.944  33.036  27.244  1.00  0.00    -0.246 OA
BRANCH  28  30
ATOM     30  C   UNL A   1      35.360  31.427  28.242  1.00  0.00     0.060 A 
ATOM     31  C   UNL A   1      35.396  30.120  28.749  1.00  0.00     0.016 A 
ATOM     32  C   UNL A   1      36.471  32.263  28.354  1.00  0.00     0.016 A 
ATOM     33  C   UNL A   1      36.529  29.662  29.415  1.00  0.00     0.010 A 
ATOM     34  C   UNL A   1      37.605  31.802  29.030  1.00  0.00     0.010 A 
ATOM     35  C   UNL A   1      37.626  30.514  29.596  1.00  0.00    -0.014 A 
BRANCH  35  36
ATOM     36  C   UNL A   1      38.745  30.097  30.474  1.00  0.00     0.031 A 
ATOM     37  C   UNL A   1      38.863  30.698  31.849  1.00  0.00     0.074 A 
ATOM     38  C   UNL A   1      39.645  29.189  30.054  1.00  0.00     0.049 A 
ATOM     39  N   UNL A   1      39.788  30.513  32.753  1.00  0.00    -0.248 NA
ATOM     40  C   UNL A   1      37.803  31.635  32.261  1.00  0.00     0.031 C 
ATOM     41  C   UNL A   1      39.630  28.531  28.748  1.00  0.00     0.029 A 
ATOM     42  N   UNL A   1      40.763  28.685  30.672  1.00  0.00    -0.354 N 
ATOM     43  C   UNL A   1      39.445  31.330  33.822  1.00  0.00     0.074 A 
ATOM     44  C   UNL A   1      38.226  32.018  33.457  1.00  0.00     0.031 C 
ATOM     45  C   UNL A   1      40.704  27.731  28.652  1.00  0.00     0.029 A 
ATOM     46  C   UNL A   1      41.500  27.844  29.871  1.00  0.00     0.049 A 
ATOM     47  H   UNL A   1      41.011  28.903  31.599  1.00  0.00     0.167 HD
ATOM     48  C   UNL A   1      40.081  31.481  35.007  1.00  0.00     0.034 A 
ATOM     49  C   UNL A   1      42.696  27.259  30.085  1.00  0.00     0.034 A 
ATOM     50  C   UNL A   1      41.272  30.768  35.380  1.00  0.00     0.049 A 
ATOM     51  C   UNL A   1      43.390  27.459  31.408  1.00  0.00     0.074 A 
ATOM     52  C   UNL A   1      41.953  30.814  36.584  1.00  0.00     0.029 A 
ATOM     53  N   UNL A   1      41.966  29.894  34.560  1.00  0.00    -0.354 N 
ATOM     54  N   UNL A   1      42.995  28.149  32.450  1.00  0.00    -0.248 NA
ATOM     55  C   UNL A   1      44.681  26.778  31.599  1.00  0.00     0.031 C 
ATOM     56  C   UNL A   1      43.081  29.999  36.479  1.00  0.00     0.029 A 
ATOM     57  C   UNL A   1      43.077  29.407  35.227  1.00  0.00     0.049 A 
ATOM     58  H   UNL A   1      41.707  29.654  33.641  1.00  0.00     0.167 HD
ATOM     59  C   UNL A   1      43.965  27.957  33.428  1.00  0.00     0.074 A 
ATOM     60  C   UNL A   1      44.959  27.071  32.862  1.00  0.00     0.031 C 
ATOM     61  C   UNL A   1      44.031  28.479  34.677  1.00  0.00     0.034 A 
BRANCH  48  62
ATOM     62  C   UNL A   1      39.501  32.430  36.021  1.00  0.00     0.023 A 
ATOM     63  C   UNL A   1      38.645  31.941  37.026  1.00  0.00     0.012 A 
ATOM     64  C   UNL A   1      39.925  33.773  36.064  1.00  0.00     0.148 A 
ATOM     65  C   UNL A   1      38.217  32.774  38.059  1.00  0.00     0.002 A 
ATOM     66  C   UNL A   1      39.533  34.585  37.121  1.00  0.00     0.091 A 
ATOM     67  F   UNL A   1      40.727  34.221  35.086  1.00  0.00    -0.205 F 
ATOM     68  C   UNL A   1      38.674  34.089  38.115  1.00  0.00     0.022 A 
BRANCH  66  69
ATOM     69  S   UNL A   1      40.141  36.262  37.337  1.00  0.00     0.127 S 
ATOM     70  O   UNL A   1      39.952  36.818  35.997  1.00  0.00    -0.237 OA
ATOM     71  O   UNL A   1      39.227  36.788  38.350  1.00  0.00    -0.237 OA
ATOM     72  O   UNL A   1      41.527  36.139  37.763  1.00  0.00    -0.744 OA
ENDBRANCH  66  69
ENDBRANCH  48  62
BRANCH  49  73
ATOM     73  C   UNL A   1      43.305  26.407  29.023  1.00  0.00     0.023 A 
ATOM     74  C   UNL A   1      43.060  25.021  29.012  1.00  0.00     0.012 A 
ATOM     75  C   UNL A   1      44.107  26.971  28.011  1.00  0.00     0.148 A 
ATOM     76  C   UNL A   1      43.626  24.207  28.028  1.00  0.00     0.002 A 
ATOM     77  C   UNL A   1      44.616  26.165  27.000  1.00  0.00     0.091 A 
ATOM     78  F   UNL A   1      44.345  28.290  28.050  1.00  0.00    -0.205 F 
ATOM     79  C   UNL A   1      44.392  24.781  27.017  1.00  0.00     0.022 A 
BRANCH  77  80
ATOM     80  S   UNL A   1      45.493  26.836  25.583  1.00  0.00     0.127 S 
ATOM     81  O   UNL A   1      45.746  25.634  24.793  1.00  0.00    -0.237 OA
ATOM     82  O   UNL A   1      44.497  27.748  25.018  1.00  0.00    -0.237 OA
ATOM     83  O   UNL A   1      46.672  27.496  26.126  1.00  0.00    -0.744 OA
ENDBRANCH  77  80
ENDBRANCH  49  73
BRANCH  61  84
ATOM     84  C   UNL A   1      45.190  28.088  35.557  1.00  0.00     0.023 A 
ATOM     85  C   UNL A   1      46.361  28.870  35.566  1.00  0.00     0.012 A 
ATOM     86  C   UNL A   1      45.064  27.020  36.469  1.00  0.00     0.148 A 
ATOM     87  C   UNL A   1      47.397  28.583  36.454  1.00  0.00     0.002 A 
ATOM     88  C   UNL A   1      46.078  26.775  37.388  1.00  0.00     0.091 A 
ATOM     89  F   UNL A   1      43.946  26.280  36.436  1.00  0.00    -0.205 F 
ATOM     90  C   UNL A   1      47.249  27.548  37.374  1.00  0.00     0.022 A 
BRANCH  88  91
ATOM     91  S   UNL A   1      45.931  25.536  38.682  1.00  0.00     0.127 S 
ATOM     92  O   UNL A   1      44.714  25.969  39.370  1.00  0.00    -0.237 OA
ATOM     93  O   UNL A   1      45.787  24.301  37.911  1.00  0.00    -0.237 OA
ATOM     94  O   UNL A   1      47.153  25.623  39.468  1.00  0.00    -0.744 OA
ENDBRANCH  88  91
ENDBRANCH  61  84
ENDBRANCH  35  36
ENDBRANCH  28  30
ENDBRANCH  27  28
ENDBRANCH  26  27
ENDBRANCH  25  26
ENDBRANCH   1  25
TORSDOF 20
ENDMDL
