MODEL 1
REMARK VINA RESULT:     -11.3      0.000      0.000
REMARK SMILES O=C(OCCOCCOC(=O)c1ccc(-c2c3nc(c(-c4cccc(S(=O)(=O)[O-])c4F)c4ccc([nH]4)c(-c4cccc(S(=O)(=O)[O-])c4F)c4nc(c(-c5cccc(S(=O)(=O)[O-])c5F)c5ccc2[nH]5)C=C4)C=C3)cc1)c1ccc(NC(=O)[C@@H]2CC=CC[C@H]2C(=O)Nc2cccc([N+](=O)[O-])c2)cc1
REMARK SMILES IDX 5 1 4 2 3 3 2 4 1 5 75 6 76 7 101 8 77 9 100 10 78 11 79 12
REMARK SMILES IDX 80 13 81 15 82 16 83 17 87 18 84 19 86 20 85 21 88 22 89 23
REMARK SMILES IDX 90 24 91 26 92 27 99 28 93 29 95 30 94 31 96 32 97 33 98 34
REMARK SMILES IDX 6 35 7 36 8 37 9 38 10 39 11 40 12 41 13 42 74 43 14 44
REMARK SMILES IDX 73 45 15 46 16 47 17 48 67 49 18 50 72 51 66 52 68 53 19 54
REMARK SMILES IDX 71 55 65 56 64 57 20 59 52 60 32 61 51 62 33 63 36 64 50 65
REMARK SMILES IDX 69 66 34 67 35 68 49 70 70 71 37 72 21 73 22 74 30 75 23 76
REMARK SMILES IDX 25 77 31 78 24 79 26 80 27 81 28 82 29 83 53 84 54 85 62 86
REMARK SMILES IDX 55 87 57 88 63 89 56 90 58 91 59 92 60 93 61 94 38 95 39 96
REMARK SMILES IDX 47 97 40 98 42 99 48 100 41 101 43 102 44 103 45 104 46 105
REMARK H PARENT 79 14 90 25 68 58 36 69
REMARK Flexibility Score: inf
ROOT
ATOM      1  C   UNL A   1      34.419  32.318  27.975  1.00  0.00     0.202 C 
ENDROOT
BRANCH   1   2
ATOM      2  C   UNL A   1      34.371  30.798  27.761  1.00  0.00     0.261 C 
BRANCH   2   3
ATOM      3  O   UNL A   1      33.621  30.484  26.558  1.00  0.00    -0.460 OA
BRANCH   3   4
ATOM      4  C   UNL A   1      32.285  30.340  26.361  1.00  0.00     0.338 C 
ATOM      5  O   UNL A   1      31.536  31.289  26.585  1.00  0.00    -0.246 OA
BRANCH   4   6
ATOM      6  C   UNL A   1      31.651  29.054  25.945  1.00  0.00     0.060 A 
ATOM      7  C   UNL A   1      31.261  28.813  24.649  1.00  0.00     0.018 A 
ATOM      8  C   UNL A   1      31.529  27.978  26.841  1.00  0.00     0.018 A 
ATOM      9  C   UNL A   1      30.736  27.585  24.265  1.00  0.00     0.027 A 
ATOM     10  C   UNL A   1      31.142  26.688  26.389  1.00  0.00     0.027 A 
ATOM     11  C   UNL A   1      30.823  26.473  25.046  1.00  0.00     0.041 A 
BRANCH  11  12
ATOM     12  N   UNL A   1      30.726  25.176  24.504  1.00  0.00    -0.326 N 
ATOM     13  C   UNL A   1      31.404  23.987  24.682  1.00  0.00     0.228 C 
ATOM     14  H   UNL A   1      30.003  25.100  23.841  1.00  0.00     0.169 HD
ATOM     15  O   UNL A   1      30.844  23.005  24.167  1.00  0.00    -0.274 OA
BRANCH  13  16
ATOM     16  C   UNL A   1      32.820  23.814  25.324  1.00  0.00     0.095 C 
ATOM     17  C   UNL A   1      33.754  24.867  24.654  1.00  0.00     0.041 C 
ATOM     18  C   UNL A   1      33.503  22.409  25.374  1.00  0.00     0.095 C 
ATOM     19  C   UNL A   1      35.206  24.776  25.003  1.00  0.00    -0.030 C 
ATOM     20  C   UNL A   1      35.050  22.325  25.206  1.00  0.00     0.041 C 
ATOM     21  C   UNL A   1      35.799  23.607  25.245  1.00  0.00    -0.030 C 
BRANCH  18  22
ATOM     22  C   UNL A   1      33.271  21.420  26.527  1.00  0.00     0.228 C 
ATOM     23  O   UNL A   1      33.261  21.900  27.673  1.00  0.00    -0.274 OA
ATOM     24  N   UNL A   1      32.953  20.088  26.443  1.00  0.00    -0.326 N 
ATOM     25  H   UNL A   1      32.573  19.775  27.295  1.00  0.00     0.169 HD
BRANCH  24  26
ATOM     26  C   UNL A   1      33.002  19.021  25.509  1.00  0.00     0.048 A 
ATOM     27  C   UNL A   1      32.595  19.308  24.202  1.00  0.00     0.026 A 
ATOM     28  C   UNL A   1      33.321  17.695  25.755  1.00  0.00     0.111 A 
ATOM     29  C   UNL A   1      32.652  18.360  23.165  1.00  0.00     0.009 A 
ATOM     30  C   UNL A   1      33.371  16.725  24.738  1.00  0.00     0.271 A 
ATOM     31  C   UNL A   1      33.072  17.060  23.425  1.00  0.00     0.086 A 
BRANCH  30  32
ATOM     32  N   UNL A   1      33.736  15.345  25.091  1.00  0.00     0.062 N 
ATOM     33  O   UNL A   1      32.818  14.532  25.267  1.00  0.00    -0.258 OA
ATOM     34  O   UNL A   1      34.942  15.073  25.193  1.00  0.00    -0.258 OA
ENDBRANCH  30  32
ENDBRANCH  24  26
ENDBRANCH  18  22
ENDBRANCH  13  16
ENDBRANCH  11  12
ENDBRANCH   4   6
ENDBRANCH   3   4
ENDBRANCH   2   3
ENDBRANCH   1   2
BRANCH   1  35
ATOM     35  O   UNL A   1      34.550  32.667  29.358  1.00  0.00    -0.374 OA
BRANCH  35  36
ATOM     36  C   UNL A   1      35.827  32.336  29.931  1.00  0.00     0.202 C 
BRANCH  36  37
ATOM     37  C   UNL A   1      36.052  33.104  31.241  1.00  0.00     0.261 C 
BRANCH  37  38
ATOM     38  O   UNL A   1      37.433  33.009  31.627  1.00  0.00    -0.460 OA
BRANCH  38  39
ATOM     39  C   UNL A   1      37.996  34.193  32.001  1.00  0.00     0.338 C 
ATOM     40  O   UNL A   1      37.624  34.932  32.882  1.00  0.00    -0.246 OA
BRANCH  39  41
ATOM     41  C   UNL A   1      39.299  34.356  31.304  1.00  0.00     0.060 A 
ATOM     42  C   UNL A   1      39.259  34.567  29.920  1.00  0.00     0.016 A 
ATOM     43  C   UNL A   1      40.523  34.382  31.974  1.00  0.00     0.016 A 
ATOM     44  C   UNL A   1      40.415  34.888  29.214  1.00  0.00     0.010 A 
ATOM     45  C   UNL A   1      41.692  34.660  31.262  1.00  0.00     0.010 A 
ATOM     46  C   UNL A   1      41.639  34.926  29.883  1.00  0.00    -0.014 A 
BRANCH  46  47
ATOM     47  C   UNL A   1      42.891  35.121  29.125  1.00  0.00     0.031 A 
ATOM     48  C   UNL A   1      43.760  33.927  28.865  1.00  0.00     0.074 A 
ATOM     49  C   UNL A   1      43.262  36.348  28.721  1.00  0.00     0.049 A 
ATOM     50  N   UNL A   1      44.946  33.875  28.326  1.00  0.00    -0.248 NA
ATOM     51  C   UNL A   1      43.219  32.618  29.272  1.00  0.00     0.031 C 
ATOM     52  C   UNL A   1      42.485  37.573  28.911  1.00  0.00     0.029 A 
ATOM     53  N   UNL A   1      44.411  36.770  28.102  1.00  0.00    -0.354 N 
ATOM     54  C   UNL A   1      45.316  32.538  28.366  1.00  0.00     0.074 A 
ATOM     55  C   UNL A   1      44.224  31.808  28.971  1.00  0.00     0.031 C 
ATOM     56  C   UNL A   1      43.206  38.618  28.467  1.00  0.00     0.029 A 
ATOM     57  C   UNL A   1      44.502  38.140  27.994  1.00  0.00     0.049 A 
ATOM     58  H   UNL A   1      45.104  36.155  27.769  1.00  0.00     0.167 HD
ATOM     59  C   UNL A   1      46.467  31.972  27.936  1.00  0.00     0.034 A 
ATOM     60  C   UNL A   1      45.535  38.913  27.602  1.00  0.00     0.034 A 
ATOM     61  C   UNL A   1      47.542  32.703  27.325  1.00  0.00     0.049 A 
ATOM     62  C   UNL A   1      46.818  38.253  27.164  1.00  0.00     0.074 A 
ATOM     63  C   UNL A   1      48.721  32.210  26.797  1.00  0.00     0.029 A 
ATOM     64  N   UNL A   1      47.582  34.080  27.186  1.00  0.00    -0.354 N 
ATOM     65  N   UNL A   1      47.103  36.976  27.076  1.00  0.00    -0.248 NA
ATOM     66  C   UNL A   1      47.915  39.140  26.750  1.00  0.00     0.031 C 
ATOM     67  C   UNL A   1      49.493  33.294  26.372  1.00  0.00     0.029 A 
ATOM     68  C   UNL A   1      48.778  34.459  26.603  1.00  0.00     0.049 A 
ATOM     69  H   UNL A   1      46.866  34.697  27.459  1.00  0.00     0.167 HD
ATOM     70  C   UNL A   1      48.398  36.907  26.572  1.00  0.00     0.074 A 
ATOM     71  C   UNL A   1      48.830  38.270  26.343  1.00  0.00     0.031 C 
ATOM     72  C   UNL A   1      49.171  35.819  26.338  1.00  0.00     0.034 A 
BRANCH  59  73
ATOM     73  C   UNL A   1      46.626  30.487  28.102  1.00  0.00     0.023 A 
ATOM     74  C   UNL A   1      47.176  29.970  29.291  1.00  0.00     0.012 A 
ATOM     75  C   UNL A   1      46.148  29.604  27.115  1.00  0.00     0.148 A 
ATOM     76  C   UNL A   1      47.262  28.593  29.489  1.00  0.00     0.002 A 
ATOM     77  C   UNL A   1      46.197  28.235  27.337  1.00  0.00     0.091 A 
ATOM     78  F   UNL A   1      45.652  30.124  25.982  1.00  0.00    -0.205 F 
ATOM     79  C   UNL A   1      46.761  27.727  28.520  1.00  0.00     0.022 A 
BRANCH  77  80
ATOM     80  S   UNL A   1      45.509  27.040  26.187  1.00  0.00     0.127 S 
ATOM     81  O   UNL A   1      45.836  25.776  26.847  1.00  0.00    -0.237 OA
ATOM     82  O   UNL A   1      44.088  27.388  26.202  1.00  0.00    -0.237 OA
ATOM     83  O   UNL A   1      46.183  27.268  24.917  1.00  0.00    -0.744 OA
ENDBRANCH  77  80
ENDBRANCH  59  73
BRANCH  60  84
ATOM     84  C   UNL A   1      45.415  40.400  27.615  1.00  0.00     0.023 A 
ATOM     85  C   UNL A   1      45.577  41.103  28.825  1.00  0.00     0.012 A 
ATOM     86  C   UNL A   1      45.116  41.117  26.441  1.00  0.00     0.148 A 
ATOM     87  C   UNL A   1      45.401  42.487  28.872  1.00  0.00     0.002 A 
ATOM     88  C   UNL A   1      45.003  42.501  26.483  1.00  0.00     0.091 A 
ATOM     89  F   UNL A   1      44.943  40.430  25.302  1.00  0.00    -0.205 F 
ATOM     90  C   UNL A   1      45.124  43.187  27.702  1.00  0.00     0.022 A 
BRANCH  88  91
ATOM     91  S   UNL A   1      44.782  43.490  25.001  1.00  0.00     0.127 S 
ATOM     92  O   UNL A   1      43.418  43.145  24.612  1.00  0.00    -0.237 OA
ATOM     93  O   UNL A   1      44.954  44.848  25.516  1.00  0.00    -0.237 OA
ATOM     94  O   UNL A   1      45.833  43.060  24.088  1.00  0.00    -0.744 OA
ENDBRANCH  88  91
ENDBRANCH  60  84
BRANCH  72  95
ATOM     95  C   UNL A   1      50.552  36.045  25.778  1.00  0.00     0.023 A 
ATOM     96  C   UNL A   1      50.740  36.103  24.383  1.00  0.00     0.012 A 
ATOM     97  C   UNL A   1      51.644  36.282  26.635  1.00  0.00     0.148 A 
ATOM     98  C   UNL A   1      52.002  36.359  23.850  1.00  0.00     0.002 A 
ATOM     99  C   UNL A   1      52.887  36.589  26.097  1.00  0.00     0.091 A 
ATOM    100  F   UNL A   1      51.446  36.210  27.960  1.00  0.00    -0.205 F 
ATOM    101  C   UNL A   1      53.071  36.615  24.705  1.00  0.00     0.022 A 
BRANCH  99 102
ATOM    102  S   UNL A   1      54.299  37.028  27.116  1.00  0.00     0.127 S 
ATOM    103  O   UNL A   1      55.311  37.334  26.106  1.00  0.00    -0.237 OA
ATOM    104  O   UNL A   1      53.801  38.190  27.852  1.00  0.00    -0.237 OA
ATOM    105  O   UNL A   1      54.579  35.861  27.942  1.00  0.00    -0.744 OA
ENDBRANCH  99 102
ENDBRANCH  72  95
ENDBRANCH  46  47
ENDBRANCH  39  41
ENDBRANCH  38  39
ENDBRANCH  37  38
ENDBRANCH  36  37
ENDBRANCH  35  36
ENDBRANCH   1  35
TORSDOF 22
ENDMDL
MODEL 2
REMARK VINA RESULT:     -11.1      4.365      9.285
REMARK SMILES O=C(OCCOCCOC(=O)c1ccc(-c2c3nc(c(-c4cccc(S(=O)(=O)[O-])c4F)c4ccc([nH]4)c(-c4cccc(S(=O)(=O)[O-])c4F)c4nc(c(-c5cccc(S(=O)(=O)[O-])c5F)c5ccc2[nH]5)C=C4)C=C3)cc1)c1ccc(NC(=O)[C@@H]2CC=CC[C@H]2C(=O)Nc2cccc([N+](=O)[O-])c2)cc1
REMARK SMILES IDX 5 1 4 2 3 3 2 4 1 5 75 6 76 7 101 8 77 9 100 10 78 11 79 12
REMARK SMILES IDX 80 13 81 15 82 16 83 17 87 18 84 19 86 20 85 21 88 22 89 23
REMARK SMILES IDX 90 24 91 26 92 27 99 28 93 29 95 30 94 31 96 32 97 33 98 34
REMARK SMILES IDX 6 35 7 36 8 37 9 38 10 39 11 40 12 41 13 42 74 43 14 44
REMARK SMILES IDX 73 45 15 46 16 47 17 48 67 49 18 50 72 51 66 52 68 53 19 54
REMARK SMILES IDX 71 55 65 56 64 57 20 59 52 60 32 61 51 62 33 63 36 64 50 65
REMARK SMILES IDX 69 66 34 67 35 68 49 70 70 71 37 72 21 73 22 74 30 75 23 76
REMARK SMILES IDX 25 77 31 78 24 79 26 80 27 81 28 82 29 83 53 84 54 85 62 86
REMARK SMILES IDX 55 87 57 88 63 89 56 90 58 91 59 92 60 93 61 94 38 95 39 96
REMARK SMILES IDX 47 97 40 98 42 99 48 100 41 101 43 102 44 103 45 104 46 105
REMARK H PARENT 79 14 90 25 68 58 36 69
REMARK Flexibility Score: inf
ROOT
ATOM      1  C   UNL A   1      37.556  21.089  25.761  1.00  0.00     0.202 C 
ENDROOT
BRANCH   1   2
ATOM      2  C   UNL A   1      36.757  20.224  24.775  1.00  0.00     0.261 C 
BRANCH   2   3
ATOM      3  O   UNL A   1      35.424  19.973  25.294  1.00  0.00    -0.460 OA
BRANCH   3   4
ATOM      4  C   UNL A   1      34.209  20.063  24.694  1.00  0.00     0.338 C 
ATOM      5  O   UNL A   1      33.515  19.054  24.581  1.00  0.00    -0.246 OA
BRANCH   4   6
ATOM      6  C   UNL A   1      33.683  21.324  24.091  1.00  0.00     0.060 A 
ATOM      7  C   UNL A   1      34.504  22.248  23.490  1.00  0.00     0.018 A 
ATOM      8  C   UNL A   1      32.303  21.571  24.006  1.00  0.00     0.018 A 
ATOM      9  C   UNL A   1      33.991  23.383  22.873  1.00  0.00     0.027 A 
ATOM     10  C   UNL A   1      31.797  22.650  23.235  1.00  0.00     0.027 A 
ATOM     11  C   UNL A   1      32.669  23.524  22.580  1.00  0.00     0.041 A 
BRANCH  11  12
ATOM     12  N   UNL A   1      32.221  24.410  21.580  1.00  0.00    -0.326 N 
ATOM     13  C   UNL A   1      31.910  25.754  21.529  1.00  0.00     0.228 C 
ATOM     14  H   UNL A   1      32.101  23.964  20.711  1.00  0.00     0.169 HD
ATOM     15  O   UNL A   1      31.769  26.196  20.378  1.00  0.00    -0.274 OA
BRANCH  13  16
ATOM     16  C   UNL A   1      31.595  26.679  22.752  1.00  0.00     0.095 C 
ATOM     17  C   UNL A   1      30.101  27.107  22.625  1.00  0.00     0.041 C 
ATOM     18  C   UNL A   1      32.506  27.908  23.072  1.00  0.00     0.095 C 
ATOM     19  C   UNL A   1      29.624  28.130  23.607  1.00  0.00    -0.030 C 
ATOM     20  C   UNL A   1      31.844  29.199  23.641  1.00  0.00     0.041 C 
ATOM     21  C   UNL A   1      30.424  29.094  24.062  1.00  0.00    -0.030 C 
BRANCH  18  22
ATOM     22  C   UNL A   1      33.760  27.797  23.955  1.00  0.00     0.228 C 
ATOM     23  O   UNL A   1      34.685  28.586  23.699  1.00  0.00    -0.274 OA
ATOM     24  N   UNL A   1      33.940  27.016  25.067  1.00  0.00    -0.326 N 
ATOM     25  H   UNL A   1      34.696  27.352  25.600  1.00  0.00     0.169 HD
BRANCH  24  26
ATOM     26  C   UNL A   1      33.376  25.873  25.690  1.00  0.00     0.048 A 
ATOM     27  C   UNL A   1      34.254  24.834  26.016  1.00  0.00     0.026 A 
ATOM     28  C   UNL A   1      32.036  25.619  25.938  1.00  0.00     0.111 A 
ATOM     29  C   UNL A   1      33.837  23.673  26.691  1.00  0.00     0.009 A 
ATOM     30  C   UNL A   1      31.593  24.459  26.599  1.00  0.00     0.271 A 
ATOM     31  C   UNL A   1      32.497  23.492  27.015  1.00  0.00     0.086 A 
BRANCH  30  32
ATOM     32  N   UNL A   1      30.152  24.283  26.833  1.00  0.00     0.062 N 
ATOM     33  O   UNL A   1      29.780  23.246  27.399  1.00  0.00    -0.258 OA
ATOM     34  O   UNL A   1      29.390  25.185  26.451  1.00  0.00    -0.258 OA
ENDBRANCH  30  32
ENDBRANCH  24  26
ENDBRANCH  18  22
ENDBRANCH  13  16
ENDBRANCH  11  12
ENDBRANCH   4   6
ENDBRANCH   3   4
ENDBRANCH   2   3
ENDBRANCH   1   2
BRANCH   1  35
ATOM     35  O   UNL A   1      38.935  21.200  25.389  1.00  0.00    -0.374 OA
BRANCH  35  36
ATOM     36  C   UNL A   1      39.768  20.140  25.891  1.00  0.00     0.202 C 
BRANCH  36  37
ATOM     37  C   UNL A   1      40.757  20.672  26.938  1.00  0.00     0.261 C 
BRANCH  37  38
ATOM     38  O   UNL A   1      40.749  22.109  26.926  1.00  0.00    -0.460 OA
BRANCH  38  39
ATOM     39  C   UNL A   1      41.803  22.673  26.273  1.00  0.00     0.338 C 
ATOM     40  O   UNL A   1      42.448  22.188  25.373  1.00  0.00    -0.246 OA
BRANCH  39  41
ATOM     41  C   UNL A   1      41.924  24.098  26.677  1.00  0.00     0.060 A 
ATOM     42  C   UNL A   1      42.131  24.358  28.038  1.00  0.00     0.016 A 
ATOM     43  C   UNL A   1      41.913  25.153  25.763  1.00  0.00     0.016 A 
ATOM     44  C   UNL A   1      42.414  25.647  28.482  1.00  0.00     0.010 A 
ATOM     45  C   UNL A   1      42.152  26.454  26.211  1.00  0.00     0.010 A 
ATOM     46  C   UNL A   1      42.416  26.702  27.569  1.00  0.00    -0.014 A 
BRANCH  46  47
ATOM     47  C   UNL A   1      42.569  28.092  28.045  1.00  0.00     0.031 A 
ATOM     48  C   UNL A   1      43.949  28.672  28.117  1.00  0.00     0.074 A 
ATOM     49  C   UNL A   1      41.498  28.799  28.448  1.00  0.00     0.049 A 
ATOM     50  N   UNL A   1      44.335  29.818  28.605  1.00  0.00    -0.248 NA
ATOM     51  C   UNL A   1      45.040  27.847  27.569  1.00  0.00     0.031 C 
ATOM     52  C   UNL A   1      40.112  28.333  28.408  1.00  0.00     0.029 A 
ATOM     53  N   UNL A   1      41.419  30.046  29.012  1.00  0.00    -0.354 N 
ATOM     54  C   UNL A   1      45.715  29.838  28.465  1.00  0.00     0.074 A 
ATOM     55  C   UNL A   1      46.102  28.595  27.835  1.00  0.00     0.031 C 
ATOM     56  C   UNL A   1      39.324  29.263  28.976  1.00  0.00     0.029 A 
ATOM     57  C   UNL A   1      40.154  30.370  29.446  1.00  0.00     0.049 A 
ATOM     58  H   UNL A   1      42.191  30.651  29.098  1.00  0.00     0.167 HD
ATOM     59  C   UNL A   1      46.583  30.809  28.831  1.00  0.00     0.034 A 
ATOM     60  C   UNL A   1      39.730  31.417  30.182  1.00  0.00     0.034 A 
ATOM     61  C   UNL A   1      46.190  32.046  29.446  1.00  0.00     0.049 A 
ATOM     62  C   UNL A   1      40.728  32.465  30.607  1.00  0.00     0.074 A 
ATOM     63  C   UNL A   1      46.988  33.121  29.795  1.00  0.00     0.029 A 
ATOM     64  N   UNL A   1      44.897  32.363  29.828  1.00  0.00    -0.354 N 
ATOM     65  N   UNL A   1      42.011  32.539  30.346  1.00  0.00    -0.248 NA
ATOM     66  C   UNL A   1      40.216  33.584  31.411  1.00  0.00     0.031 C 
ATOM     67  C   UNL A   1      46.182  34.073  30.423  1.00  0.00     0.029 A 
ATOM     68  C   UNL A   1      44.877  33.608  30.434  1.00  0.00     0.049 A 
ATOM     69  H   UNL A   1      44.109  31.790  29.688  1.00  0.00     0.167 HD
ATOM     70  C   UNL A   1      42.452  33.722  30.927  1.00  0.00     0.074 A 
ATOM     71  C   UNL A   1      41.293  34.350  31.527  1.00  0.00     0.031 C 
ATOM     72  C   UNL A   1      43.705  34.238  30.981  1.00  0.00     0.034 A 
BRANCH  59  73
ATOM     73  C   UNL A   1      48.045  30.581  28.573  1.00  0.00     0.023 A 
ATOM     74  C   UNL A   1      48.630  31.059  27.384  1.00  0.00     0.012 A 
ATOM     75  C   UNL A   1      48.854  29.969  29.550  1.00  0.00     0.148 A 
ATOM     76  C   UNL A   1      50.000  30.918  27.165  1.00  0.00     0.002 A 
ATOM     77  C   UNL A   1      50.223  29.871  29.343  1.00  0.00     0.091 A 
ATOM     78  F   UNL A   1      48.267  29.500  30.661  1.00  0.00    -0.205 F 
ATOM     79  C   UNL A   1      50.796  30.338  28.148  1.00  0.00     0.022 A 
BRANCH  77  80
ATOM     80  S   UNL A   1      51.345  29.211  30.580  1.00  0.00     0.127 S 
ATOM     81  O   UNL A   1      51.084  30.096  31.716  1.00  0.00    -0.237 OA
ATOM     82  O   UNL A   1      50.848  27.845  30.743  1.00  0.00    -0.237 OA
ATOM     83  O   UNL A   1      52.681  29.315  30.010  1.00  0.00    -0.744 OA
ENDBRANCH  77  80
ENDBRANCH  59  73
BRANCH  60  84
ATOM     84  C   UNL A   1      38.297  31.532  30.581  1.00  0.00     0.023 A 
ATOM     85  C   UNL A   1      37.854  30.931  31.775  1.00  0.00     0.012 A 
ATOM     86  C   UNL A   1      37.367  32.211  29.770  1.00  0.00     0.148 A 
ATOM     87  C   UNL A   1      36.505  30.967  32.132  1.00  0.00     0.002 A 
ATOM     88  C   UNL A   1      36.037  32.296  30.163  1.00  0.00     0.091 A 
ATOM     89  F   UNL A   1      37.801  32.759  28.626  1.00  0.00    -0.205 F 
ATOM     90  C   UNL A   1      35.599  31.657  31.333  1.00  0.00     0.022 A 
BRANCH  88  91
ATOM     91  S   UNL A   1      34.834  33.279  29.262  1.00  0.00     0.127 S 
ATOM     92  O   UNL A   1      33.802  33.490  30.273  1.00  0.00    -0.237 OA
ATOM     93  O   UNL A   1      35.613  34.468  28.916  1.00  0.00    -0.237 OA
ATOM     94  O   UNL A   1      34.447  32.464  28.118  1.00  0.00    -0.744 OA
ENDBRANCH  88  91
ENDBRANCH  60  84
BRANCH  72  95
ATOM     95  C   UNL A   1      43.891  35.558  31.684  1.00  0.00     0.023 A 
ATOM     96  C   UNL A   1      44.134  35.584  33.071  1.00  0.00     0.012 A 
ATOM     97  C   UNL A   1      43.908  36.764  30.956  1.00  0.00     0.148 A 
ATOM     98  C   UNL A   1      44.356  36.793  33.729  1.00  0.00     0.002 A 
ATOM     99  C   UNL A   1      44.182  37.958  31.608  1.00  0.00     0.091 A 
ATOM    100  F   UNL A   1      43.662  36.719  29.638  1.00  0.00    -0.205 F 
ATOM    101  C   UNL A   1      44.394  37.977  32.996  1.00  0.00     0.022 A 
BRANCH  99 102
ATOM    102  S   UNL A   1      44.348  39.520  30.736  1.00  0.00     0.127 S 
ATOM    103  O   UNL A   1      44.631  40.445  31.833  1.00  0.00    -0.237 OA
ATOM    104  O   UNL A   1      45.481  39.261  29.848  1.00  0.00    -0.237 OA
ATOM    105  O   UNL A   1      43.079  39.736  30.053  1.00  0.00    -0.744 OA
ENDBRANCH  99 102
ENDBRANCH  72  95
ENDBRANCH  46  47
ENDBRANCH  39  41
ENDBRANCH  38  39
ENDBRANCH  37  38
ENDBRANCH  36  37
ENDBRANCH  35  36
ENDBRANCH   1  35
TORSDOF 22
ENDMDL
MODEL 3
REMARK VINA RESULT:     -11.0      6.397     12.440
REMARK SMILES O=C(OCCOCCOC(=O)c1ccc(-c2c3nc(c(-c4cccc(S(=O)(=O)[O-])c4F)c4ccc([nH]4)c(-c4cccc(S(=O)(=O)[O-])c4F)c4nc(c(-c5cccc(S(=O)(=O)[O-])c5F)c5ccc2[nH]5)C=C4)C=C3)cc1)c1ccc(NC(=O)[C@@H]2CC=CC[C@H]2C(=O)Nc2cccc([N+](=O)[O-])c2)cc1
REMARK SMILES IDX 5 1 4 2 3 3 2 4 1 5 75 6 76 7 101 8 77 9 100 10 78 11 79 12
REMARK SMILES IDX 80 13 81 15 82 16 83 17 87 18 84 19 86 20 85 21 88 22 89 23
REMARK SMILES IDX 90 24 91 26 92 27 99 28 93 29 95 30 94 31 96 32 97 33 98 34
REMARK SMILES IDX 6 35 7 36 8 37 9 38 10 39 11 40 12 41 13 42 74 43 14 44
REMARK SMILES IDX 73 45 15 46 16 47 17 48 67 49 18 50 72 51 66 52 68 53 19 54
REMARK SMILES IDX 71 55 65 56 64 57 20 59 52 60 32 61 51 62 33 63 36 64 50 65
REMARK SMILES IDX 69 66 34 67 35 68 49 70 70 71 37 72 21 73 22 74 30 75 23 76
REMARK SMILES IDX 25 77 31 78 24 79 26 80 27 81 28 82 29 83 53 84 54 85 62 86
REMARK SMILES IDX 55 87 57 88 63 89 56 90 58 91 59 92 60 93 61 94 38 95 39 96
REMARK SMILES IDX 47 97 40 98 42 99 48 100 41 101 43 102 44 103 45 104 46 105
REMARK H PARENT 79 14 90 25 68 58 36 69
REMARK Flexibility Score: inf
ROOT
ATOM      1  C   UNL A   1      44.905  19.802  25.460  1.00  0.00     0.202 C 
ENDROOT
BRANCH   1   2
ATOM      2  C   UNL A   1      45.581  21.160  25.223  1.00  0.00     0.261 C 
BRANCH   2   3
ATOM      3  O   UNL A   1      45.251  22.080  26.298  1.00  0.00    -0.460 OA
BRANCH   3   4
ATOM      4  C   UNL A   1      45.903  23.182  26.751  1.00  0.00     0.338 C 
ATOM      5  O   UNL A   1      46.871  23.610  26.125  1.00  0.00    -0.246 OA
BRANCH   4   6
ATOM      6  C   UNL A   1      45.549  23.879  28.022  1.00  0.00     0.060 A 
ATOM      7  C   UNL A   1      44.463  23.515  28.781  1.00  0.00     0.018 A 
ATOM      8  C   UNL A   1      46.382  24.872  28.565  1.00  0.00     0.018 A 
ATOM      9  C   UNL A   1      44.187  24.129  29.997  1.00  0.00     0.027 A 
ATOM     10  C   UNL A   1      46.170  25.369  29.879  1.00  0.00     0.027 A 
ATOM     11  C   UNL A   1      45.092  24.916  30.643  1.00  0.00     0.041 A 
BRANCH  11  12
ATOM     12  N   UNL A   1      45.014  25.150  32.030  1.00  0.00    -0.326 N 
ATOM     13  C   UNL A   1      45.482  26.126  32.887  1.00  0.00     0.228 C 
ATOM     14  H   UNL A   1      44.506  24.451  32.501  1.00  0.00     0.169 HD
ATOM     15  O   UNL A   1      44.990  26.077  34.026  1.00  0.00    -0.274 OA
BRANCH  13  16
ATOM     16  C   UNL A   1      46.632  27.146  32.590  1.00  0.00     0.095 C 
ATOM     17  C   UNL A   1      47.958  26.490  33.078  1.00  0.00     0.041 C 
ATOM     18  C   UNL A   1      46.524  28.627  33.078  1.00  0.00     0.095 C 
ATOM     19  C   UNL A   1      49.176  27.359  33.040  1.00  0.00    -0.030 C 
ATOM     20  C   UNL A   1      47.821  29.357  33.540  1.00  0.00     0.041 C 
ATOM     21  C   UNL A   1      49.109  28.672  33.263  1.00  0.00    -0.030 C 
BRANCH  18  22
ATOM     22  C   UNL A   1      45.842  29.723  32.244  1.00  0.00     0.228 C 
ATOM     23  O   UNL A   1      46.595  30.485  31.613  1.00  0.00    -0.274 OA
ATOM     24  N   UNL A   1      44.501  29.894  32.013  1.00  0.00    -0.326 N 
ATOM     25  H   UNL A   1      44.362  30.467  31.225  1.00  0.00     0.169 HD
BRANCH  24  26
ATOM     26  C   UNL A   1      43.251  29.499  32.555  1.00  0.00     0.048 A 
ATOM     27  C   UNL A   1      42.608  28.420  31.938  1.00  0.00     0.026 A 
ATOM     28  C   UNL A   1      42.539  30.112  33.573  1.00  0.00     0.111 A 
ATOM     29  C   UNL A   1      41.396  27.889  32.411  1.00  0.00     0.009 A 
ATOM     30  C   UNL A   1      41.317  29.608  34.056  1.00  0.00     0.271 A 
ATOM     31  C   UNL A   1      40.754  28.467  33.501  1.00  0.00     0.086 A 
BRANCH  30  32
ATOM     32  N   UNL A   1      40.640  30.318  35.151  1.00  0.00     0.062 N 
ATOM     33  O   UNL A   1      39.765  29.709  35.781  1.00  0.00    -0.258 OA
ATOM     34  O   UNL A   1      40.986  31.487  35.384  1.00  0.00    -0.258 OA
ENDBRANCH  30  32
ENDBRANCH  24  26
ENDBRANCH  18  22
ENDBRANCH  13  16
ENDBRANCH  11  12
ENDBRANCH   4   6
ENDBRANCH   3   4
ENDBRANCH   2   3
ENDBRANCH   1   2
BRANCH   1  35
ATOM     35  O   UNL A   1      43.604  19.732  24.865  1.00  0.00    -0.374 OA
BRANCH  35  36
ATOM     36  C   UNL A   1      42.536  19.529  25.805  1.00  0.00     0.202 C 
BRANCH  36  37
ATOM     37  C   UNL A   1      41.832  20.856  26.126  1.00  0.00     0.261 C 
BRANCH  37  38
ATOM     38  O   UNL A   1      40.543  20.593  26.705  1.00  0.00    -0.460 OA
BRANCH  38  39
ATOM     39  C   UNL A   1      39.599  21.536  26.429  1.00  0.00     0.338 C 
ATOM     40  O   UNL A   1      38.450  21.346  26.107  1.00  0.00    -0.246 OA
BRANCH  39  41
ATOM     41  C   UNL A   1      40.124  22.877  26.800  1.00  0.00     0.060 A 
ATOM     42  C   UNL A   1      39.871  23.928  25.909  1.00  0.00     0.016 A 
ATOM     43  C   UNL A   1      40.775  23.132  28.008  1.00  0.00     0.016 A 
ATOM     44  C   UNL A   1      40.184  25.241  26.250  1.00  0.00     0.010 A 
ATOM     45  C   UNL A   1      41.130  24.443  28.334  1.00  0.00     0.010 A 
ATOM     46  C   UNL A   1      40.824  25.501  27.462  1.00  0.00    -0.014 A 
BRANCH  46  47
ATOM     47  C   UNL A   1      41.292  26.867  27.772  1.00  0.00     0.031 A 
ATOM     48  C   UNL A   1      42.708  27.228  27.437  1.00  0.00     0.074 A 
ATOM     49  C   UNL A   1      40.479  27.746  28.384  1.00  0.00     0.049 A 
ATOM     50  N   UNL A   1      43.368  28.318  27.718  1.00  0.00    -0.248 NA
ATOM     51  C   UNL A   1      43.485  26.223  26.691  1.00  0.00     0.031 C 
ATOM     52  C   UNL A   1      39.083  27.501  28.742  1.00  0.00     0.029 A 
ATOM     53  N   UNL A   1      40.730  29.012  28.851  1.00  0.00    -0.354 N 
ATOM     54  C   UNL A   1      44.648  28.118  27.222  1.00  0.00     0.074 A 
ATOM     55  C   UNL A   1      44.673  26.807  26.612  1.00  0.00     0.031 C 
ATOM     56  C   UNL A   1      38.615  28.563  29.422  1.00  0.00     0.029 A 
ATOM     57  C   UNL A   1      39.686  29.544  29.574  1.00  0.00     0.049 A 
ATOM     58  H   UNL A   1      41.574  29.492  28.686  1.00  0.00     0.167 HD
ATOM     59  C   UNL A   1      45.709  28.956  27.274  1.00  0.00     0.034 A 
ATOM     60  C   UNL A   1      39.626  30.671  30.310  1.00  0.00     0.034 A 
ATOM     61  C   UNL A   1      45.673  30.261  27.872  1.00  0.00     0.049 A 
ATOM     62  C   UNL A   1      40.839  31.566  30.379  1.00  0.00     0.074 A 
ATOM     63  C   UNL A   1      46.677  31.211  27.916  1.00  0.00     0.029 A 
ATOM     64  N   UNL A   1      44.588  30.789  28.551  1.00  0.00    -0.354 N 
ATOM     65  N   UNL A   1      42.001  31.430  29.788  1.00  0.00    -0.248 NA
ATOM     66  C   UNL A   1      40.723  32.781  31.199  1.00  0.00     0.031 C 
ATOM     67  C   UNL A   1      46.212  32.300  28.657  1.00  0.00     0.029 A 
ATOM     68  C   UNL A   1      44.906  32.043  29.043  1.00  0.00     0.049 A 
ATOM     69  H   UNL A   1      43.719  30.340  28.666  1.00  0.00     0.167 HD
ATOM     70  C   UNL A   1      42.743  32.552  30.141  1.00  0.00     0.074 A 
ATOM     71  C   UNL A   1      41.888  33.374  30.971  1.00  0.00     0.031 C 
ATOM     72  C   UNL A   1      44.023  32.868  29.826  1.00  0.00     0.034 A 
BRANCH  59  73
ATOM     73  C   UNL A   1      47.001  28.493  26.662  1.00  0.00     0.023 A 
ATOM     74  C   UNL A   1      48.067  28.095  27.493  1.00  0.00     0.012 A 
ATOM     75  C   UNL A   1      47.125  28.372  25.265  1.00  0.00     0.148 A 
ATOM     76  C   UNL A   1      49.244  27.595  26.940  1.00  0.00     0.002 A 
ATOM     77  C   UNL A   1      48.284  27.833  24.724  1.00  0.00     0.091 A 
ATOM     78  F   UNL A   1      46.105  28.782  24.497  1.00  0.00    -0.205 F 
ATOM     79  C   UNL A   1      49.348  27.451  25.559  1.00  0.00     0.022 A 
BRANCH  77  80
ATOM     80  S   UNL A   1      48.485  27.535  22.965  1.00  0.00     0.127 S 
ATOM     81  O   UNL A   1      49.815  28.095  22.722  1.00  0.00    -0.237 OA
ATOM     82  O   UNL A   1      48.415  26.075  22.894  1.00  0.00    -0.237 OA
ATOM     83  O   UNL A   1      47.390  28.234  22.308  1.00  0.00    -0.744 OA
ENDBRANCH  77  80
ENDBRANCH  59  73
BRANCH  60  84
ATOM     84  C   UNL A   1      38.384  31.022  31.058  1.00  0.00     0.023 A 
ATOM     85  C   UNL A   1      38.245  30.629  32.403  1.00  0.00     0.012 A 
ATOM     86  C   UNL A   1      37.331  31.719  30.436  1.00  0.00     0.148 A 
ATOM     87  C   UNL A   1      37.064  30.887  33.101  1.00  0.00     0.002 A 
ATOM     88  C   UNL A   1      36.183  32.027  31.154  1.00  0.00     0.091 A 
ATOM     89  F   UNL A   1      37.471  32.067  29.148  1.00  0.00    -0.205 F 
ATOM     90  C   UNL A   1      36.037  31.593  32.481  1.00  0.00     0.022 A 
BRANCH  88  91
ATOM     91  S   UNL A   1      34.872  33.049  30.474  1.00  0.00     0.127 S 
ATOM     92  O   UNL A   1      33.993  33.215  31.628  1.00  0.00    -0.237 OA
ATOM     93  O   UNL A   1      35.603  34.251  30.075  1.00  0.00    -0.237 OA
ATOM     94  O   UNL A   1      34.324  32.286  29.360  1.00  0.00    -0.744 OA
ENDBRANCH  88  91
ENDBRANCH  60  84
BRANCH  72  95
ATOM     95  C   UNL A   1      44.575  34.169  30.351  1.00  0.00     0.023 A 
ATOM     96  C   UNL A   1      44.517  35.327  29.551  1.00  0.00     0.012 A 
ATOM     97  C   UNL A   1      45.074  34.259  31.665  1.00  0.00     0.148 A 
ATOM     98  C   UNL A   1      44.979  36.548  30.039  1.00  0.00     0.002 A 
ATOM     99  C   UNL A   1      45.483  35.489  32.163  1.00  0.00     0.091 A 
ATOM    100  F   UNL A   1      45.132  33.143  32.406  1.00  0.00    -0.205 F 
ATOM    101  C   UNL A   1      45.448  36.633  31.348  1.00  0.00     0.022 A 
BRANCH  99 102
ATOM    102  S   UNL A   1      46.010  35.716  33.865  1.00  0.00     0.127 S 
ATOM    103  O   UNL A   1      46.964  36.817  33.736  1.00  0.00    -0.237 OA
ATOM    104  O   UNL A   1      44.758  36.069  34.534  1.00  0.00    -0.237 OA
ATOM    105  O   UNL A   1      46.583  34.443  34.282  1.00  0.00    -0.744 OA
ENDBRANCH  99 102
ENDBRANCH  72  95
ENDBRANCH  46  47
ENDBRANCH  39  41
ENDBRANCH  38  39
ENDBRANCH  37  38
ENDBRANCH  36  37
ENDBRANCH  35  36
ENDBRANCH   1  35
TORSDOF 22
ENDMDL
