MODEL 1
REMARK VINA RESULT:     -10.7      0.000      0.000
REMARK SMILES O=C(OCCOCCOC(=O)[C@H]1CCC[N@@H+]1Cc1ccccc1[N+](=O)[O-])c1ccc(-c2c3nc(c(-c4cccc(S(=O)(=O)[O-])c4F)c4ccc([nH]4)c(-c4cccc(S(=O)(=O)[O-])c4F)c4nc(c(-c5cccc(S(=O)(=O)[O-])c5F)c5ccc2[nH]5)C=C4)C=C3)cc1
REMARK SMILES IDX 6 1 5 2 4 3 3 4 2 5 1 6 27 7 28 8 89 9 29 10 88 11 30 12
REMARK SMILES IDX 31 13 32 14 82 15 33 16 87 17 81 18 83 19 34 20 86 21 80 22
REMARK SMILES IDX 79 23 35 25 67 26 47 27 66 28 48 29 51 30 65 31 84 32 49 33
REMARK SMILES IDX 50 34 64 36 85 37 52 38 36 39 37 40 45 41 38 42 40 43 46 44
REMARK SMILES IDX 39 45 41 46 42 47 43 48 44 49 68 50 69 51 77 52 70 53 72 54
REMARK SMILES IDX 78 55 71 56 73 57 74 58 75 59 76 60 53 61 54 62 62 63 55 64
REMARK SMILES IDX 57 65 63 66 56 67 58 68 59 69 60 70 61 71 7 72 8 73 9 74
REMARK SMILES IDX 10 75 11 76 12 77 13 78 16 79 14 80 15 81 17 83 18 84 19 85
REMARK SMILES IDX 23 86 20 87 22 88 21 89 24 90 25 91 26 92
REMARK H PARENT 83 24 51 35 16 82
REMARK Flexibility Score: inf
ROOT
ATOM      1  O   UNL A   1      31.771  30.367  26.916  1.00  0.00    -0.374 OA
ENDROOT
BRANCH   1   2
ATOM      2  C   UNL A   1      32.613  31.520  26.883  1.00  0.00     0.202 C 
BRANCH   2   3
ATOM      3  C   UNL A   1      31.865  32.857  26.885  1.00  0.00     0.261 C 
BRANCH   3   4
ATOM      4  O   UNL A   1      32.387  33.734  27.890  1.00  0.00    -0.460 OA
BRANCH   4   5
ATOM      5  C   UNL A   1      33.661  34.182  28.002  1.00  0.00     0.338 C 
ATOM      6  O   UNL A   1      33.912  35.319  27.603  1.00  0.00    -0.246 OA
BRANCH   5   7
ATOM      7  C   UNL A   1      34.777  33.381  28.597  1.00  0.00     0.060 A 
ATOM      8  C   UNL A   1      36.137  33.600  28.365  1.00  0.00     0.016 A 
ATOM      9  C   UNL A   1      34.425  32.402  29.540  1.00  0.00     0.016 A 
ATOM     10  C   UNL A   1      37.119  32.887  29.021  1.00  0.00     0.010 A 
ATOM     11  C   UNL A   1      35.409  31.688  30.230  1.00  0.00     0.010 A 
ATOM     12  C   UNL A   1      36.759  31.945  29.971  1.00  0.00    -0.014 A 
BRANCH  12  13
ATOM     13  C   UNL A   1      37.853  31.221  30.624  1.00  0.00     0.031 A 
ATOM     14  C   UNL A   1      38.115  31.493  32.065  1.00  0.00     0.074 A 
ATOM     15  C   UNL A   1      38.485  30.249  29.940  1.00  0.00     0.049 A 
ATOM     16  N   UNL A   1      39.045  31.002  32.832  1.00  0.00    -0.248 NA
ATOM     17  C   UNL A   1      37.196  32.425  32.743  1.00  0.00     0.031 C 
ATOM     18  C   UNL A   1      38.176  29.851  28.562  1.00  0.00     0.029 A 
ATOM     19  N   UNL A   1      39.504  29.417  30.306  1.00  0.00    -0.354 N 
ATOM     20  C   UNL A   1      38.869  31.616  34.063  1.00  0.00     0.074 A 
ATOM     21  C   UNL A   1      37.716  32.480  33.959  1.00  0.00     0.031 C 
ATOM     22  C   UNL A   1      39.007  28.863  28.194  1.00  0.00     0.029 A 
ATOM     23  C   UNL A   1      39.946  28.617  29.279  1.00  0.00     0.049 A 
ATOM     24  H   UNL A   1      39.885  29.392  31.214  1.00  0.00     0.167 HD
ATOM     25  C   UNL A   1      39.631  31.476  35.167  1.00  0.00     0.034 A 
ATOM     26  C   UNL A   1      41.033  27.826  29.217  1.00  0.00     0.034 A 
ATOM     27  C   UNL A   1      40.765  30.597  35.227  1.00  0.00     0.049 A 
ATOM     28  C   UNL A   1      41.899  27.747  30.445  1.00  0.00     0.074 A 
ATOM     29  C   UNL A   1      41.626  30.374  36.282  1.00  0.00     0.029 A 
ATOM     30  N   UNL A   1      41.202  29.811  34.169  1.00  0.00    -0.354 N 
ATOM     31  N   UNL A   1      41.711  28.299  31.622  1.00  0.00    -0.248 NA
ATOM     32  C   UNL A   1      43.120  26.940  30.347  1.00  0.00     0.031 C 
ATOM     33  C   UNL A   1      42.614  29.487  35.846  1.00  0.00     0.029 A 
ATOM     34  C   UNL A   1      42.341  29.122  34.535  1.00  0.00     0.049 A 
ATOM     35  H   UNL A   1      40.765  29.752  33.290  1.00  0.00     0.167 HD
ATOM     36  C   UNL A   1      42.779  27.892  32.409  1.00  0.00     0.074 A 
ATOM     37  C   UNL A   1      43.589  27.017  31.584  1.00  0.00     0.031 C 
ATOM     38  C   UNL A   1      43.086  28.226  33.687  1.00  0.00     0.034 A 
BRANCH  25  39
ATOM     39  C   UNL A   1      39.310  32.338  36.351  1.00  0.00     0.023 A 
ATOM     40  C   UNL A   1      39.944  33.582  36.529  1.00  0.00     0.012 A 
ATOM     41  C   UNL A   1      38.342  31.911  37.281  1.00  0.00     0.148 A 
ATOM     42  C   UNL A   1      39.630  34.382  37.628  1.00  0.00     0.002 A 
ATOM     43  C   UNL A   1      38.004  32.730  38.348  1.00  0.00     0.091 A 
ATOM     44  F   UNL A   1      37.778  30.707  37.106  1.00  0.00    -0.205 F 
ATOM     45  C   UNL A   1      38.654  33.962  38.530  1.00  0.00     0.022 A 
BRANCH  43  46
ATOM     46  S   UNL A   1      36.715  32.309  39.525  1.00  0.00     0.127 S 
ATOM     47  O   UNL A   1      36.946  30.879  39.717  1.00  0.00    -0.237 OA
ATOM     48  O   UNL A   1      37.065  33.146  40.668  1.00  0.00    -0.237 OA
ATOM     49  O   UNL A   1      35.450  32.646  38.878  1.00  0.00    -0.744 OA
ENDBRANCH  43  46
ENDBRANCH  25  39
BRANCH  26  50
ATOM     50  C   UNL A   1      41.395  27.114  27.957  1.00  0.00     0.023 A 
ATOM     51  C   UNL A   1      41.873  27.839  26.850  1.00  0.00     0.012 A 
ATOM     52  C   UNL A   1      41.241  25.716  27.841  1.00  0.00     0.148 A 
ATOM     53  C   UNL A   1      42.145  27.195  25.640  1.00  0.00     0.002 A 
ATOM     54  C   UNL A   1      41.570  25.073  26.653  1.00  0.00     0.091 A 
ATOM     55  F   UNL A   1      40.762  25.037  28.894  1.00  0.00    -0.205 F 
ATOM     56  C   UNL A   1      42.001  25.813  25.544  1.00  0.00     0.022 A 
BRANCH  54  57
ATOM     57  S   UNL A   1      41.528  23.285  26.490  1.00  0.00     0.127 S 
ATOM     58  O   UNL A   1      42.139  22.855  27.745  1.00  0.00    -0.237 OA
ATOM     59  O   UNL A   1      40.092  23.021  26.381  1.00  0.00    -0.237 OA
ATOM     60  O   UNL A   1      42.282  22.985  25.279  1.00  0.00    -0.744 OA
ENDBRANCH  54  57
ENDBRANCH  26  50
BRANCH  38  61
ATOM     61  C   UNL A   1      44.330  27.621  34.269  1.00  0.00     0.023 A 
ATOM     62  C   UNL A   1      45.547  28.327  34.205  1.00  0.00     0.012 A 
ATOM     63  C   UNL A   1      44.268  26.396  34.960  1.00  0.00     0.148 A 
ATOM     64  C   UNL A   1      46.695  27.805  34.798  1.00  0.00     0.002 A 
ATOM     65  C   UNL A   1      45.400  25.913  35.599  1.00  0.00     0.091 A 
ATOM     66  F   UNL A   1      43.099  25.739  34.991  1.00  0.00    -0.205 F 
ATOM     67  C   UNL A   1      46.617  26.608  35.506  1.00  0.00     0.022 A 
BRANCH  65  68
ATOM     68  S   UNL A   1      45.367  24.443  36.627  1.00  0.00     0.127 S 
ATOM     69  O   UNL A   1      46.761  24.350  37.058  1.00  0.00    -0.237 OA
ATOM     70  O   UNL A   1      44.425  24.824  37.680  1.00  0.00    -0.237 OA
ATOM     71  O   UNL A   1      44.909  23.359  35.768  1.00  0.00    -0.744 OA
ENDBRANCH  65  68
ENDBRANCH  38  61
ENDBRANCH  12  13
ENDBRANCH   5   7
ENDBRANCH   4   5
ENDBRANCH   3   4
ENDBRANCH   2   3
ENDBRANCH   1   2
BRANCH   1  72
ATOM     72  C   UNL A   1      32.415  29.097  26.783  1.00  0.00     0.202 C 
BRANCH  72  73
ATOM     73  C   UNL A   1      31.411  27.986  27.082  1.00  0.00     0.261 C 
BRANCH  73  74
ATOM     74  O   UNL A   1      31.138  27.310  25.845  1.00  0.00    -0.459 OA
BRANCH  74  75
ATOM     75  C   UNL A   1      31.227  25.950  25.949  1.00  0.00     0.365 C 
ATOM     76  O   UNL A   1      30.762  25.283  26.866  1.00  0.00    -0.245 OA
BRANCH  75  77
ATOM     77  C   UNL A   1      32.014  25.384  24.754  1.00  0.00     0.295 C 
ATOM     78  C   UNL A   1      33.094  26.398  24.426  1.00  0.00     0.083 C 
ATOM     79  N   UNL A   1      32.751  24.153  25.134  1.00  0.00    -0.319 N 
ATOM     80  C   UNL A   1      34.245  26.018  25.350  1.00  0.00     0.068 C 
ATOM     81  C   UNL A   1      33.950  24.602  25.844  1.00  0.00     0.263 C 
ATOM     82  H   UNL A   1      32.153  23.588  25.739  1.00  0.00     0.349 HD
BRANCH  79  83
ATOM     83  C   UNL A   1      32.971  23.136  24.095  1.00  0.00     0.307 C 
BRANCH  83  84
ATOM     84  C   UNL A   1      34.338  22.486  24.067  1.00  0.00     0.084 A 
ATOM     85  C   UNL A   1      35.305  23.021  23.192  1.00  0.00     0.017 A 
ATOM     86  C   UNL A   1      34.757  21.483  24.960  1.00  0.00     0.278 A 
ATOM     87  C   UNL A   1      36.651  22.664  23.301  1.00  0.00     0.001 A 
ATOM     88  C   UNL A   1      36.114  21.157  25.103  1.00  0.00     0.086 A 
ATOM     89  C   UNL A   1      37.060  21.769  24.285  1.00  0.00     0.007 A 
BRANCH  86  90
ATOM     90  N   UNL A   1      33.804  20.717  25.756  1.00  0.00     0.063 N 
ATOM     91  O   UNL A   1      33.153  19.837  25.175  1.00  0.00    -0.258 OA
ATOM     92  O   UNL A   1      33.667  21.037  26.944  1.00  0.00    -0.258 OA
ENDBRANCH  86  90
ENDBRANCH  83  84
ENDBRANCH  79  83
ENDBRANCH  75  77
ENDBRANCH  74  75
ENDBRANCH  73  74
ENDBRANCH  72  73
ENDBRANCH   1  72
TORSDOF 20
ENDMDL
MODEL 2
REMARK VINA RESULT:     -10.7      1.441      7.798
REMARK SMILES O=C(OCCOCCOC(=O)[C@H]1CCC[N@@H+]1Cc1ccccc1[N+](=O)[O-])c1ccc(-c2c3nc(c(-c4cccc(S(=O)(=O)[O-])c4F)c4ccc([nH]4)c(-c4cccc(S(=O)(=O)[O-])c4F)c4nc(c(-c5cccc(S(=O)(=O)[O-])c5F)c5ccc2[nH]5)C=C4)C=C3)cc1
REMARK SMILES IDX 6 1 5 2 4 3 3 4 2 5 1 6 27 7 28 8 89 9 29 10 88 11 30 12
REMARK SMILES IDX 31 13 32 14 82 15 33 16 87 17 81 18 83 19 34 20 86 21 80 22
REMARK SMILES IDX 79 23 35 25 67 26 47 27 66 28 48 29 51 30 65 31 84 32 49 33
REMARK SMILES IDX 50 34 64 36 85 37 52 38 36 39 37 40 45 41 38 42 40 43 46 44
REMARK SMILES IDX 39 45 41 46 42 47 43 48 44 49 68 50 69 51 77 52 70 53 72 54
REMARK SMILES IDX 78 55 71 56 73 57 74 58 75 59 76 60 53 61 54 62 62 63 55 64
REMARK SMILES IDX 57 65 63 66 56 67 58 68 59 69 60 70 61 71 7 72 8 73 9 74
REMARK SMILES IDX 10 75 11 76 12 77 13 78 16 79 14 80 15 81 17 83 18 84 19 85
REMARK SMILES IDX 23 86 20 87 22 88 21 89 24 90 25 91 26 92
REMARK H PARENT 83 24 51 35 16 82
REMARK Flexibility Score: inf
ROOT
ATOM      1  O   UNL A   1      31.734  29.148  24.659  1.00  0.00    -0.374 OA
ENDROOT
BRANCH   1   2
ATOM      2  C   UNL A   1      31.717  29.048  26.083  1.00  0.00     0.202 C 
BRANCH   2   3
ATOM      3  C   UNL A   1      31.670  30.391  26.818  1.00  0.00     0.261 C 
BRANCH   3   4
ATOM      4  O   UNL A   1      32.778  31.218  26.445  1.00  0.00    -0.460 OA
BRANCH   4   5
ATOM      5  C   UNL A   1      33.522  32.005  27.261  1.00  0.00     0.338 C 
ATOM      6  O   UNL A   1      33.117  33.143  27.493  1.00  0.00    -0.246 OA
BRANCH   5   7
ATOM      7  C   UNL A   1      34.798  31.564  27.907  1.00  0.00     0.060 A 
ATOM      8  C   UNL A   1      35.896  32.388  28.165  1.00  0.00     0.016 A 
ATOM      9  C   UNL A   1      34.849  30.243  28.380  1.00  0.00     0.016 A 
ATOM     10  C   UNL A   1      37.006  31.942  28.852  1.00  0.00     0.010 A 
ATOM     11  C   UNL A   1      35.956  29.783  29.099  1.00  0.00     0.010 A 
ATOM     12  C   UNL A   1      37.030  30.645  29.340  1.00  0.00    -0.014 A 
BRANCH  12  13
ATOM     13  C   UNL A   1      38.242  30.236  30.054  1.00  0.00     0.031 A 
ATOM     14  C   UNL A   1      39.189  29.315  29.364  1.00  0.00     0.074 A 
ATOM     15  C   UNL A   1      38.520  30.810  31.239  1.00  0.00     0.049 A 
ATOM     16  N   UNL A   1      40.296  28.797  29.811  1.00  0.00    -0.248 NA
ATOM     17  C   UNL A   1      38.858  28.943  27.975  1.00  0.00     0.031 C 
ATOM     18  C   UNL A   1      37.688  31.822  31.901  1.00  0.00     0.029 A 
ATOM     19  N   UNL A   1      39.574  30.636  32.092  1.00  0.00    -0.354 N 
ATOM     20  C   UNL A   1      40.759  27.982  28.789  1.00  0.00     0.074 A 
ATOM     21  C   UNL A   1      39.844  28.109  27.679  1.00  0.00     0.031 C 
ATOM     22  C   UNL A   1      38.257  32.162  33.069  1.00  0.00     0.029 A 
ATOM     23  C   UNL A   1      39.443  31.340  33.265  1.00  0.00     0.049 A 
ATOM     24  H   UNL A   1      40.349  30.064  31.886  1.00  0.00     0.167 HD
ATOM     25  C   UNL A   1      41.847  27.185  28.804  1.00  0.00     0.034 A 
ATOM     26  C   UNL A   1      40.175  31.268  34.392  1.00  0.00     0.034 A 
ATOM     27  C   UNL A   1      42.736  27.098  29.928  1.00  0.00     0.049 A 
ATOM     28  C   UNL A   1      41.341  30.317  34.397  1.00  0.00     0.074 A 
ATOM     29  C   UNL A   1      43.865  26.318  30.074  1.00  0.00     0.029 A 
ATOM     30  N   UNL A   1      42.573  27.807  31.111  1.00  0.00    -0.354 N 
ATOM     31  N   UNL A   1      41.802  29.574  33.417  1.00  0.00    -0.248 NA
ATOM     32  C   UNL A   1      42.090  30.190  35.652  1.00  0.00     0.031 C 
ATOM     33  C   UNL A   1      44.360  26.522  31.366  1.00  0.00     0.029 A 
ATOM     34  C   UNL A   1      43.566  27.462  32.007  1.00  0.00     0.049 A 
ATOM     35  H   UNL A   1      41.858  28.460  31.285  1.00  0.00     0.167 HD
ATOM     36  C   UNL A   1      42.905  28.907  33.930  1.00  0.00     0.074 A 
ATOM     37  C   UNL A   1      43.064  29.363  35.297  1.00  0.00     0.031 C 
ATOM     38  C   UNL A   1      43.703  27.981  33.343  1.00  0.00     0.034 A 
BRANCH  25  39
ATOM     39  C   UNL A   1      42.084  26.303  27.614  1.00  0.00     0.023 A 
ATOM     40  C   UNL A   1      42.725  26.802  26.465  1.00  0.00     0.012 A 
ATOM     41  C   UNL A   1      41.685  24.953  27.657  1.00  0.00     0.148 A 
ATOM     42  C   UNL A   1      42.951  25.972  25.367  1.00  0.00     0.002 A 
ATOM     43  C   UNL A   1      41.951  24.122  26.580  1.00  0.00     0.091 A 
ATOM     44  F   UNL A   1      41.045  24.513  28.751  1.00  0.00    -0.205 F 
ATOM     45  C   UNL A   1      42.575  24.631  25.429  1.00  0.00     0.022 A 
BRANCH  43  46
ATOM     46  S   UNL A   1      41.565  22.369  26.587  1.00  0.00     0.127 S 
ATOM     47  O   UNL A   1      40.105  22.387  26.517  1.00  0.00    -0.237 OA
ATOM     48  O   UNL A   1      42.231  21.907  25.373  1.00  0.00    -0.237 OA
ATOM     49  O   UNL A   1      42.113  21.838  27.831  1.00  0.00    -0.744 OA
ENDBRANCH  43  46
ENDBRANCH  25  39
BRANCH  26  50
ATOM     50  C   UNL A   1      39.799  32.051  35.605  1.00  0.00     0.023 A 
ATOM     51  C   UNL A   1      40.424  33.284  35.870  1.00  0.00     0.012 A 
ATOM     52  C   UNL A   1      38.839  31.563  36.517  1.00  0.00     0.148 A 
ATOM     53  C   UNL A   1      40.135  33.991  37.041  1.00  0.00     0.002 A 
ATOM     54  C   UNL A   1      38.513  32.301  37.649  1.00  0.00     0.091 A 
ATOM     55  F   UNL A   1      38.267  30.376  36.267  1.00  0.00    -0.205 F 
ATOM     56  C   UNL A   1      39.176  33.504  37.925  1.00  0.00     0.022 A 
BRANCH  54  57
ATOM     57  S   UNL A   1      37.203  31.802  38.771  1.00  0.00     0.127 S 
ATOM     58  O   UNL A   1      37.005  30.404  38.398  1.00  0.00    -0.237 OA
ATOM     59  O   UNL A   1      37.826  32.007  40.080  1.00  0.00    -0.237 OA
ATOM     60  O   UNL A   1      36.088  32.700  38.495  1.00  0.00    -0.744 OA
ENDBRANCH  54  57
ENDBRANCH  26  50
BRANCH  38  61
ATOM     61  C   UNL A   1      44.828  27.429  34.171  1.00  0.00     0.023 A 
ATOM     62  C   UNL A   1      46.059  28.111  34.222  1.00  0.00     0.012 A 
ATOM     63  C   UNL A   1      44.627  26.287  34.970  1.00  0.00     0.148 A 
ATOM     64  C   UNL A   1      47.088  27.644  35.037  1.00  0.00     0.002 A 
ATOM     65  C   UNL A   1      45.635  25.864  35.824  1.00  0.00     0.091 A 
ATOM     66  F   UNL A   1      43.449  25.650  34.889  1.00  0.00    -0.205 F 
ATOM     67  C   UNL A   1      46.870  26.532  35.847  1.00  0.00     0.022 A 
BRANCH  65  68
ATOM     68  S   UNL A   1      45.405  24.514  36.983  1.00  0.00     0.127 S 
ATOM     69  O   UNL A   1      44.260  24.982  37.761  1.00  0.00    -0.237 OA
ATOM     70  O   UNL A   1      45.121  23.388  36.093  1.00  0.00    -0.237 OA
ATOM     71  O   UNL A   1      46.655  24.400  37.724  1.00  0.00    -0.744 OA
ENDBRANCH  65  68
ENDBRANCH  38  61
ENDBRANCH  12  13
ENDBRANCH   5   7
ENDBRANCH   4   5
ENDBRANCH   3   4
ENDBRANCH   2   3
ENDBRANCH   1   2
BRANCH   1  72
ATOM     72  C   UNL A   1      30.567  29.694  24.039  1.00  0.00     0.202 C 
BRANCH  72  73
ATOM     73  C   UNL A   1      30.007  28.687  23.037  1.00  0.00     0.261 C 
BRANCH  73  74
ATOM     74  O   UNL A   1      30.130  27.383  23.625  1.00  0.00    -0.459 OA
BRANCH  74  75
ATOM     75  C   UNL A   1      30.908  26.535  22.887  1.00  0.00     0.365 C 
ATOM     76  O   UNL A   1      31.029  26.575  21.668  1.00  0.00    -0.245 OA
BRANCH  75  77
ATOM     77  C   UNL A   1      31.593  25.515  23.812  1.00  0.00     0.295 C 
ATOM     78  C   UNL A   1      32.401  24.592  22.918  1.00  0.00     0.083 C 
ATOM     79  N   UNL A   1      32.596  26.174  24.685  1.00  0.00    -0.319 N 
ATOM     80  C   UNL A   1      33.731  25.317  22.751  1.00  0.00     0.068 C 
ATOM     81  C   UNL A   1      33.785  26.374  23.854  1.00  0.00     0.263 C 
ATOM     82  H   UNL A   1      32.215  27.064  25.006  1.00  0.00     0.349 HD
BRANCH  79  83
ATOM     83  C   UNL A   1      32.840  25.591  26.012  1.00  0.00     0.307 C 
BRANCH  83  84
ATOM     84  C   UNL A   1      33.427  24.196  26.038  1.00  0.00     0.084 A 
ATOM     85  C   UNL A   1      34.813  24.058  25.816  1.00  0.00     0.017 A 
ATOM     86  C   UNL A   1      32.716  23.043  26.417  1.00  0.00     0.278 A 
ATOM     87  C   UNL A   1      35.471  22.858  26.090  1.00  0.00     0.001 A 
ATOM     88  C   UNL A   1      33.381  21.850  26.739  1.00  0.00     0.086 A 
ATOM     89  C   UNL A   1      34.764  21.771  26.596  1.00  0.00     0.007 A 
BRANCH  86  90
ATOM     90  N   UNL A   1      31.258  23.023  26.467  1.00  0.00     0.063 N 
ATOM     91  O   UNL A   1      30.719  23.315  27.543  1.00  0.00    -0.258 OA
ATOM     92  O   UNL A   1      30.659  22.658  25.446  1.00  0.00    -0.258 OA
ENDBRANCH  86  90
ENDBRANCH  83  84
ENDBRANCH  79  83
ENDBRANCH  75  77
ENDBRANCH  74  75
ENDBRANCH  73  74
ENDBRANCH  72  73
ENDBRANCH   1  72
TORSDOF 20
ENDMDL
MODEL 3
REMARK VINA RESULT:     -10.6      5.235      8.563
REMARK SMILES O=C(OCCOCCOC(=O)[C@H]1CCC[N@@H+]1Cc1ccccc1[N+](=O)[O-])c1ccc(-c2c3nc(c(-c4cccc(S(=O)(=O)[O-])c4F)c4ccc([nH]4)c(-c4cccc(S(=O)(=O)[O-])c4F)c4nc(c(-c5cccc(S(=O)(=O)[O-])c5F)c5ccc2[nH]5)C=C4)C=C3)cc1
REMARK SMILES IDX 6 1 5 2 4 3 3 4 2 5 1 6 27 7 28 8 89 9 29 10 88 11 30 12
REMARK SMILES IDX 31 13 32 14 82 15 33 16 87 17 81 18 83 19 34 20 86 21 80 22
REMARK SMILES IDX 79 23 35 25 67 26 47 27 66 28 48 29 51 30 65 31 84 32 49 33
REMARK SMILES IDX 50 34 64 36 85 37 52 38 36 39 37 40 45 41 38 42 40 43 46 44
REMARK SMILES IDX 39 45 41 46 42 47 43 48 44 49 68 50 69 51 77 52 70 53 72 54
REMARK SMILES IDX 78 55 71 56 73 57 74 58 75 59 76 60 53 61 54 62 62 63 55 64
REMARK SMILES IDX 57 65 63 66 56 67 58 68 59 69 60 70 61 71 7 72 8 73 9 74
REMARK SMILES IDX 10 75 11 76 12 77 13 78 16 79 14 80 15 81 17 83 18 84 19 85
REMARK SMILES IDX 23 86 20 87 22 88 21 89 24 90 25 91 26 92
REMARK H PARENT 83 24 51 35 16 82
REMARK Flexibility Score: inf
ROOT
ATOM      1  O   UNL A   1      34.521  21.686  24.871  1.00  0.00    -0.374 OA
ENDROOT
BRANCH   1   2
ATOM      2  C   UNL A   1      35.440  20.598  24.974  1.00  0.00     0.202 C 
BRANCH   2   3
ATOM      3  C   UNL A   1      36.902  20.969  24.705  1.00  0.00     0.261 C 
BRANCH   3   4
ATOM      4  O   UNL A   1      37.534  21.457  25.894  1.00  0.00    -0.460 OA
BRANCH   4   5
ATOM      5  C   UNL A   1      38.865  21.518  26.146  1.00  0.00     0.338 C 
ATOM      6  O   UNL A   1      39.515  20.476  26.078  1.00  0.00    -0.246 OA
BRANCH   5   7
ATOM      7  C   UNL A   1      39.591  22.782  26.487  1.00  0.00     0.060 A 
ATOM      8  C   UNL A   1      39.304  24.042  25.956  1.00  0.00     0.016 A 
ATOM      9  C   UNL A   1      40.566  22.705  27.494  1.00  0.00     0.016 A 
ATOM     10  C   UNL A   1      39.947  25.185  26.385  1.00  0.00     0.010 A 
ATOM     11  C   UNL A   1      41.209  23.857  27.956  1.00  0.00     0.010 A 
ATOM     12  C   UNL A   1      40.885  25.099  27.401  1.00  0.00    -0.014 A 
BRANCH  12  13
ATOM     13  C   UNL A   1      41.533  26.351  27.802  1.00  0.00     0.031 A 
ATOM     14  C   UNL A   1      40.744  27.326  28.605  1.00  0.00     0.074 A 
ATOM     15  C   UNL A   1      42.845  26.511  27.548  1.00  0.00     0.049 A 
ATOM     16  N   UNL A   1      41.095  28.503  29.036  1.00  0.00    -0.248 NA
ATOM     17  C   UNL A   1      39.382  26.915  28.997  1.00  0.00     0.031 C 
ATOM     18  C   UNL A   1      43.700  25.524  26.878  1.00  0.00     0.029 A 
ATOM     19  N   UNL A   1      43.690  27.548  27.827  1.00  0.00    -0.354 N 
ATOM     20  C   UNL A   1      39.978  29.004  29.689  1.00  0.00     0.074 A 
ATOM     21  C   UNL A   1      38.952  27.989  29.641  1.00  0.00     0.031 C 
ATOM     22  C   UNL A   1      44.945  26.017  26.780  1.00  0.00     0.029 A 
ATOM     23  C   UNL A   1      44.952  27.373  27.310  1.00  0.00     0.049 A 
ATOM     24  H   UNL A   1      43.421  28.341  28.347  1.00  0.00     0.167 HD
ATOM     25  C   UNL A   1      39.834  30.222  30.251  1.00  0.00     0.034 A 
ATOM     26  C   UNL A   1      45.970  28.249  27.225  1.00  0.00     0.034 A 
ATOM     27  C   UNL A   1      40.887  31.197  30.283  1.00  0.00     0.049 A 
ATOM     28  C   UNL A   1      45.749  29.621  27.803  1.00  0.00     0.074 A 
ATOM     29  C   UNL A   1      40.864  32.472  30.811  1.00  0.00     0.029 A 
ATOM     30  N   UNL A   1      42.150  31.003  29.738  1.00  0.00    -0.354 N 
ATOM     31  N   UNL A   1      44.707  30.083  28.454  1.00  0.00    -0.248 NA
ATOM     32  C   UNL A   1      46.837  30.592  27.642  1.00  0.00     0.031 C 
ATOM     33  C   UNL A   1      42.100  33.067  30.544  1.00  0.00     0.029 A 
ATOM     34  C   UNL A   1      42.908  32.147  29.890  1.00  0.00     0.049 A 
ATOM     35  H   UNL A   1      42.459  30.174  29.308  1.00  0.00     0.167 HD
ATOM     36  C   UNL A   1      45.019  31.390  28.796  1.00  0.00     0.074 A 
ATOM     37  C   UNL A   1      46.363  31.634  28.312  1.00  0.00     0.031 C 
ATOM     38  C   UNL A   1      44.261  32.321  29.427  1.00  0.00     0.034 A 
BRANCH  25  39
ATOM     39  C   UNL A   1      38.486  30.582  30.800  1.00  0.00     0.023 A 
ATOM     40  C   UNL A   1      38.145  30.272  32.130  1.00  0.00     0.012 A 
ATOM     41  C   UNL A   1      37.561  31.263  29.985  1.00  0.00     0.148 A 
ATOM     42  C   UNL A   1      36.892  30.622  32.635  1.00  0.00     0.002 A 
ATOM     43  C   UNL A   1      36.335  31.645  30.506  1.00  0.00     0.091 A 
ATOM     44  F   UNL A   1      37.900  31.515  28.712  1.00  0.00    -0.205 F 
ATOM     45  C   UNL A   1      35.993  31.317  31.829  1.00  0.00     0.022 A 
BRANCH  43  46
ATOM     46  S   UNL A   1      35.136  32.599  29.570  1.00  0.00     0.127 S 
ATOM     47  O   UNL A   1      34.645  31.604  28.618  1.00  0.00    -0.237 OA
ATOM     48  O   UNL A   1      34.180  32.983  30.604  1.00  0.00    -0.237 OA
ATOM     49  O   UNL A   1      35.876  33.706  28.973  1.00  0.00    -0.744 OA
ENDBRANCH  43  46
ENDBRANCH  25  39
BRANCH  26  50
ATOM     50  C   UNL A   1      47.237  27.889  26.524  1.00  0.00     0.023 A 
ATOM     51  C   UNL A   1      48.382  27.549  27.267  1.00  0.00     0.012 A 
ATOM     52  C   UNL A   1      47.320  27.910  25.115  1.00  0.00     0.148 A 
ATOM     53  C   UNL A   1      49.595  27.283  26.626  1.00  0.00     0.002 A 
ATOM     54  C   UNL A   1      48.514  27.586  24.481  1.00  0.00     0.091 A 
ATOM     55  F   UNL A   1      46.229  28.258  24.417  1.00  0.00    -0.205 F 
ATOM     56  C   UNL A   1      49.658  27.294  25.235  1.00  0.00     0.022 A 
BRANCH  54  57
ATOM     57  S   UNL A   1      48.644  27.459  22.694  1.00  0.00     0.127 S 
ATOM     58  O   UNL A   1      48.476  26.024  22.483  1.00  0.00    -0.237 OA
ATOM     59  O   UNL A   1      47.520  28.283  22.246  1.00  0.00    -0.237 OA
ATOM     60  O   UNL A   1      49.953  28.005  22.358  1.00  0.00    -0.744 OA
ENDBRANCH  54  57
ENDBRANCH  26  50
BRANCH  38  61
ATOM     61  C   UNL A   1      44.885  33.669  29.650  1.00  0.00     0.023 A 
ATOM     62  C   UNL A   1      45.634  33.908  30.818  1.00  0.00     0.012 A 
ATOM     63  C   UNL A   1      44.803  34.662  28.655  1.00  0.00     0.148 A 
ATOM     64  C   UNL A   1      46.271  35.133  31.006  1.00  0.00     0.002 A 
ATOM     65  C   UNL A   1      45.490  35.855  28.823  1.00  0.00     0.091 A 
ATOM     66  F   UNL A   1      44.070  34.411  27.561  1.00  0.00    -0.205 F 
ATOM     67  C   UNL A   1      46.211  36.098  30.003  1.00  0.00     0.022 A 
BRANCH  65  68
ATOM     68  S   UNL A   1      45.564  37.107  27.540  1.00  0.00     0.127 S 
ATOM     69  O   UNL A   1      44.156  37.480  27.407  1.00  0.00    -0.237 OA
ATOM     70  O   UNL A   1      46.411  38.129  28.155  1.00  0.00    -0.237 OA
ATOM     71  O   UNL A   1      46.147  36.457  26.373  1.00  0.00    -0.744 OA
ENDBRANCH  65  68
ENDBRANCH  38  61
ENDBRANCH  12  13
ENDBRANCH   5   7
ENDBRANCH   4   5
ENDBRANCH   3   4
ENDBRANCH   2   3
ENDBRANCH   1   2
BRANCH   1  72
ATOM     72  C   UNL A   1      34.985  22.859  24.199  1.00  0.00     0.202 C 
BRANCH  72  73
ATOM     73  C   UNL A   1      34.101  23.130  22.984  1.00  0.00     0.261 C 
BRANCH  73  74
ATOM     74  O   UNL A   1      32.938  23.832  23.448  1.00  0.00    -0.459 OA
BRANCH  74  75
ATOM     75  C   UNL A   1      31.864  23.011  23.652  1.00  0.00     0.365 C 
ATOM     76  O   UNL A   1      31.687  21.935  23.092  1.00  0.00    -0.245 OA
BRANCH  75  77
ATOM     77  C   UNL A   1      30.904  23.647  24.671  1.00  0.00     0.295 C 
ATOM     78  C   UNL A   1      30.807  22.681  25.838  1.00  0.00     0.083 C 
ATOM     79  N   UNL A   1      31.482  24.886  25.249  1.00  0.00    -0.319 N 
ATOM     80  C   UNL A   1      31.985  23.063  26.726  1.00  0.00     0.068 C 
ATOM     81  C   UNL A   1      32.439  24.448  26.267  1.00  0.00     0.263 C 
ATOM     82  H   UNL A   1      31.947  25.407  24.505  1.00  0.00     0.349 HD
BRANCH  79  83
ATOM     83  C   UNL A   1      30.554  25.948  25.664  1.00  0.00     0.307 C 
BRANCH  83  84
ATOM     84  C   UNL A   1      31.139  27.336  25.805  1.00  0.00     0.084 A 
ATOM     85  C   UNL A   1      31.555  27.750  27.087  1.00  0.00     0.017 A 
ATOM     86  C   UNL A   1      31.435  28.186  24.724  1.00  0.00     0.278 A 
ATOM     87  C   UNL A   1      32.345  28.889  27.256  1.00  0.00     0.001 A 
ATOM     88  C   UNL A   1      32.267  29.305  24.884  1.00  0.00     0.086 A 
ATOM     89  C   UNL A   1      32.738  29.638  26.151  1.00  0.00     0.007 A 
BRANCH  86  90
ATOM     90  N   UNL A   1      30.872  27.963  23.397  1.00  0.00     0.063 N 
ATOM     91  O   UNL A   1      29.638  27.992  23.289  1.00  0.00    -0.258 OA
ATOM     92  O   UNL A   1      31.662  27.703  22.480  1.00  0.00    -0.258 OA
ENDBRANCH  86  90
ENDBRANCH  83  84
ENDBRANCH  79  83
ENDBRANCH  75  77
ENDBRANCH  74  75
ENDBRANCH  73  74
ENDBRANCH  72  73
ENDBRANCH   1  72
TORSDOF 20
ENDMDL
