MODEL 1
REMARK VINA RESULT:     -10.9      0.000      0.000
REMARK SMILES CS(=O)(=O)[C@@H]1CCC[C@@H](Sc2ccc(C(=O)OCCOCCOC(=O)c3ccc(-c4c5nc(c(-c6cccc(S(=O)(=O)[O-])c6F)c6ccc([nH]6)c(-c6cccc(S(=O)(=O)[O-])c6F)c6nc(c(-c7cccc(S(=O)(=O)[O-])c7F)c7ccc4[nH]7)C=C6)C=C5)cc3)cn2)C1
REMARK SMILES IDX 20 1 19 2 18 3 17 4 15 5 16 6 14 7 11 8 12 9 90 10 13 11
REMARK SMILES IDX 89 12 10 13 9 14 5 15 6 16 91 17 7 18 8 19 2 20 1 21 3 22
REMARK SMILES IDX 4 23 21 24 22 25 23 26 24 27 25 28 26 29 27 30 88 31 28 32
REMARK SMILES IDX 87 33 29 34 30 35 31 36 81 37 32 38 86 39 80 40 82 41 33 42
REMARK SMILES IDX 85 43 79 44 78 45 34 47 66 48 46 49 65 50 47 51 50 52 64 53
REMARK SMILES IDX 83 54 48 55 49 56 63 58 84 59 51 60 35 61 36 62 44 63 37 64
REMARK SMILES IDX 39 65 45 66 38 67 40 68 41 69 42 70 43 71 67 72 68 73 76 74
REMARK SMILES IDX 69 75 71 76 77 77 70 78 72 79 73 80 74 81 75 82 52 83 53 84
REMARK SMILES IDX 61 85 54 86 56 87 62 88 55 89 57 90 58 91 59 92 60 93
REMARK H PARENT 82 46 50 57
REMARK Flexibility Score: inf
ROOT
ATOM      1  O   UNL A   1      37.948  19.976  25.082  1.00  0.00    -0.374 OA
ENDROOT
BRANCH   1   2
ATOM      2  C   UNL A   1      36.527  19.961  24.927  1.00  0.00     0.202 C 
BRANCH   2   3
ATOM      3  C   UNL A   1      35.814  21.257  25.330  1.00  0.00     0.261 C 
BRANCH   3   4
ATOM      4  O   UNL A   1      34.395  21.060  25.368  1.00  0.00    -0.460 OA
BRANCH   4   5
ATOM      5  C   UNL A   1      33.734  21.513  26.461  1.00  0.00     0.339 C 
ATOM      6  O   UNL A   1      33.902  21.183  27.622  1.00  0.00    -0.246 OA
BRANCH   5   7
ATOM      7  C   UNL A   1      32.833  22.602  26.033  1.00  0.00     0.078 A 
ATOM      8  C   UNL A   1      31.057  24.542  25.108  1.00  0.00     0.096 A 
ATOM      9  C   UNL A   1      31.019  24.106  26.412  1.00  0.00     0.036 A 
ATOM     10  N   UNL A   1      31.963  24.007  24.253  1.00  0.00    -0.249 NA
ATOM     11  C   UNL A   1      31.898  23.147  26.893  1.00  0.00     0.020 A 
ATOM     12  C   UNL A   1      32.826  23.057  24.726  1.00  0.00     0.128 A 
BRANCH   8  13
ATOM     13  S   UNL A   1      29.945  25.730  24.392  1.00  0.00    -0.103 SA
BRANCH  13  14
ATOM     14  C   UNL A   1      30.845  27.079  23.451  1.00  0.00     0.054 C 
ATOM     15  C   UNL A   1      29.409  29.161  23.483  1.00  0.00     0.109 C 
ATOM     16  C   UNL A   1      30.555  29.976  24.106  1.00  0.00     0.020 C 
ATOM     17  C   UNL A   1      29.947  28.020  22.637  1.00  0.00     0.034 C 
ATOM     18  C   UNL A   1      31.702  29.175  24.747  1.00  0.00     0.002 C 
ATOM     19  C   UNL A   1      32.005  27.810  24.131  1.00  0.00     0.015 C 
BRANCH  15  20
ATOM     20  S   UNL A   1      28.236  30.201  22.599  1.00  0.00     0.150 S 
ATOM     21  C   UNL A   1      28.657  31.831  23.193  1.00  0.00     0.158 C 
ATOM     22  O   UNL A   1      26.905  29.907  23.096  1.00  0.00    -0.229 OA
ATOM     23  O   UNL A   1      28.524  30.140  21.181  1.00  0.00    -0.229 OA
ENDBRANCH  15  20
ENDBRANCH  13  14
ENDBRANCH   8  13
ENDBRANCH   5   7
ENDBRANCH   4   5
ENDBRANCH   3   4
ENDBRANCH   2   3
ENDBRANCH   1   2
BRANCH   1  24
ATOM     24  C   UNL A   1      38.534  21.244  25.391  1.00  0.00     0.202 C 
BRANCH  24  25
ATOM     25  C   UNL A   1      39.814  21.202  26.232  1.00  0.00     0.261 C 
BRANCH  25  26
ATOM     26  O   UNL A   1      40.296  19.855  26.393  1.00  0.00    -0.460 OA
BRANCH  26  27
ATOM     27  C   UNL A   1      41.611  19.695  26.105  1.00  0.00     0.338 C 
ATOM     28  O   UNL A   1      42.141  18.716  25.607  1.00  0.00    -0.246 OA
BRANCH  27  29
ATOM     29  C   UNL A   1      42.327  20.967  26.313  1.00  0.00     0.060 A 
ATOM     30  C   UNL A   1      42.583  21.349  27.637  1.00  0.00     0.016 A 
ATOM     31  C   UNL A   1      42.676  21.804  25.251  1.00  0.00     0.016 A 
ATOM     32  C   UNL A   1      43.139  22.596  27.906  1.00  0.00     0.010 A 
ATOM     33  C   UNL A   1      43.234  23.056  25.526  1.00  0.00     0.010 A 
ATOM     34  C   UNL A   1      43.431  23.475  26.854  1.00  0.00    -0.014 A 
BRANCH  34  35
ATOM     35  C   UNL A   1      43.813  24.876  27.155  1.00  0.00     0.031 A 
ATOM     36  C   UNL A   1      45.246  25.302  26.973  1.00  0.00     0.074 A 
ATOM     37  C   UNL A   1      42.891  25.764  27.571  1.00  0.00     0.049 A 
ATOM     38  N   UNL A   1      45.801  26.461  27.208  1.00  0.00    -0.248 NA
ATOM     39  C   UNL A   1      46.177  24.282  26.462  1.00  0.00     0.031 C 
ATOM     40  C   UNL A   1      41.472  25.476  27.775  1.00  0.00     0.029 A 
ATOM     41  N   UNL A   1      43.020  27.084  27.921  1.00  0.00    -0.354 N 
ATOM     42  C   UNL A   1      47.147  26.307  26.898  1.00  0.00     0.074 A 
ATOM     43  C   UNL A   1      47.329  24.934  26.479  1.00  0.00     0.031 C 
ATOM     44  C   UNL A   1      40.865  26.581  28.237  1.00  0.00     0.029 A 
ATOM     45  C   UNL A   1      41.856  27.644  28.392  1.00  0.00     0.049 A 
ATOM     46  H   UNL A   1      43.864  27.584  27.842  1.00  0.00     0.167 HD
ATOM     47  C   UNL A   1      48.139  27.229  26.940  1.00  0.00     0.034 A 
ATOM     48  C   UNL A   1      41.623  28.865  28.914  1.00  0.00     0.034 A 
ATOM     49  C   UNL A   1      47.952  28.596  27.346  1.00  0.00     0.049 A 
ATOM     50  C   UNL A   1      42.754  29.858  28.990  1.00  0.00     0.074 A 
ATOM     51  C   UNL A   1      48.886  29.615  27.391  1.00  0.00     0.029 A 
ATOM     52  N   UNL A   1      46.753  29.134  27.785  1.00  0.00    -0.354 N 
ATOM     53  N   UNL A   1      43.998  29.727  28.596  1.00  0.00    -0.248 NA
ATOM     54  C   UNL A   1      42.440  31.180  29.551  1.00  0.00     0.031 C 
ATOM     55  C   UNL A   1      48.259  30.761  27.890  1.00  0.00     0.029 A 
ATOM     56  C   UNL A   1      46.925  30.468  28.115  1.00  0.00     0.049 A 
ATOM     57  H   UNL A   1      45.903  28.641  27.852  1.00  0.00     0.167 HD
ATOM     58  C   UNL A   1      44.601  30.961  28.822  1.00  0.00     0.074 A 
ATOM     59  C   UNL A   1      43.580  31.831  29.368  1.00  0.00     0.031 C 
ATOM     60  C   UNL A   1      45.886  31.338  28.606  1.00  0.00     0.034 A 
BRANCH  47  61
ATOM     61  C   UNL A   1      49.518  26.793  26.515  1.00  0.00     0.023 A 
ATOM     62  C   UNL A   1      50.281  25.962  27.360  1.00  0.00     0.012 A 
ATOM     63  C   UNL A   1      50.036  27.158  25.256  1.00  0.00     0.148 A 
ATOM     64  C   UNL A   1      51.550  25.530  26.976  1.00  0.00     0.002 A 
ATOM     65  C   UNL A   1      51.280  26.684  24.860  1.00  0.00     0.091 A 
ATOM     66  F   UNL A   1      49.304  27.964  24.474  1.00  0.00    -0.205 F 
ATOM     67  C   UNL A   1      52.044  25.881  25.723  1.00  0.00     0.022 A 
BRANCH  65  68
ATOM     68  S   UNL A   1      51.973  27.014  23.235  1.00  0.00     0.127 S 
ATOM     69  O   UNL A   1      53.064  26.042  23.178  1.00  0.00    -0.237 OA
ATOM     70  O   UNL A   1      50.843  26.715  22.355  1.00  0.00    -0.237 OA
ATOM     71  O   UNL A   1      52.383  28.411  23.248  1.00  0.00    -0.744 OA
ENDBRANCH  65  68
ENDBRANCH  47  61
BRANCH  48  72
ATOM     72  C   UNL A   1      40.259  29.230  29.390  1.00  0.00     0.023 A 
ATOM     73  C   UNL A   1      39.341  29.816  28.497  1.00  0.00     0.012 A 
ATOM     74  C   UNL A   1      39.868  29.004  30.724  1.00  0.00     0.148 A 
ATOM     75  C   UNL A   1      38.075  30.208  28.933  1.00  0.00     0.002 A 
ATOM     76  C   UNL A   1      38.585  29.341  31.137  1.00  0.00     0.091 A 
ATOM     77  F   UNL A   1      40.760  28.458  31.563  1.00  0.00    -0.205 F 
ATOM     78  C   UNL A   1      37.694  29.963  30.249  1.00  0.00     0.022 A 
BRANCH  76  79
ATOM     79  S   UNL A   1      37.966  28.937  32.774  1.00  0.00     0.127 S 
ATOM     80  O   UNL A   1      36.579  29.387  32.689  1.00  0.00    -0.237 OA
ATOM     81  O   UNL A   1      38.144  27.484  32.812  1.00  0.00    -0.237 OA
ATOM     82  O   UNL A   1      38.814  29.668  33.706  1.00  0.00    -0.744 OA
ENDBRANCH  76  79
ENDBRANCH  48  72
BRANCH  60  83
ATOM     83  C   UNL A   1      46.257  32.767  28.907  1.00  0.00     0.023 A 
ATOM     84  C   UNL A   1      46.816  33.107  30.155  1.00  0.00     0.012 A 
ATOM     85  C   UNL A   1      46.112  33.765  27.922  1.00  0.00     0.148 A 
ATOM     86  C   UNL A   1      47.185  34.423  30.432  1.00  0.00     0.002 A 
ATOM     87  C   UNL A   1      46.533  35.063  28.185  1.00  0.00     0.091 A 
ATOM     88  F   UNL A   1      45.564  33.426  26.745  1.00  0.00    -0.205 F 
ATOM     89  C   UNL A   1      47.056  35.397  29.444  1.00  0.00     0.022 A 
BRANCH  87  90
ATOM     90  S   UNL A   1      46.496  36.360  26.943  1.00  0.00     0.127 S 
ATOM     91  O   UNL A   1      47.035  35.669  25.774  1.00  0.00    -0.237 OA
ATOM     92  O   UNL A   1      45.067  36.669  26.866  1.00  0.00    -0.237 OA
ATOM     93  O   UNL A   1      47.322  37.441  27.465  1.00  0.00    -0.744 OA
ENDBRANCH  87  90
ENDBRANCH  60  83
ENDBRANCH  34  35
ENDBRANCH  27  29
ENDBRANCH  26  27
ENDBRANCH  25  26
ENDBRANCH  24  25
ENDBRANCH   1  24
TORSDOF 20
ENDMDL
MODEL 2
REMARK VINA RESULT:     -10.6      1.759      2.059
REMARK SMILES CS(=O)(=O)[C@@H]1CCC[C@@H](Sc2ccc(C(=O)OCCOCCOC(=O)c3ccc(-c4c5nc(c(-c6cccc(S(=O)(=O)[O-])c6F)c6ccc([nH]6)c(-c6cccc(S(=O)(=O)[O-])c6F)c6nc(c(-c7cccc(S(=O)(=O)[O-])c7F)c7ccc4[nH]7)C=C6)C=C5)cc3)cn2)C1
REMARK SMILES IDX 20 1 19 2 18 3 17 4 15 5 16 6 14 7 11 8 12 9 90 10 13 11
REMARK SMILES IDX 89 12 10 13 9 14 5 15 6 16 91 17 7 18 8 19 2 20 1 21 3 22
REMARK SMILES IDX 4 23 21 24 22 25 23 26 24 27 25 28 26 29 27 30 88 31 28 32
REMARK SMILES IDX 87 33 29 34 30 35 31 36 81 37 32 38 86 39 80 40 82 41 33 42
REMARK SMILES IDX 85 43 79 44 78 45 34 47 66 48 46 49 65 50 47 51 50 52 64 53
REMARK SMILES IDX 83 54 48 55 49 56 63 58 84 59 51 60 35 61 36 62 44 63 37 64
REMARK SMILES IDX 39 65 45 66 38 67 40 68 41 69 42 70 43 71 67 72 68 73 76 74
REMARK SMILES IDX 69 75 71 76 77 77 70 78 72 79 73 80 74 81 75 82 52 83 53 84
REMARK SMILES IDX 61 85 54 86 56 87 62 88 55 89 57 90 58 91 59 92 60 93
REMARK H PARENT 82 46 50 57
REMARK Flexibility Score: inf
ROOT
ATOM      1  O   UNL A   1      37.803  21.634  25.084  1.00  0.00    -0.374 OA
ENDROOT
BRANCH   1   2
ATOM      2  C   UNL A   1      36.997  20.455  25.036  1.00  0.00     0.202 C 
BRANCH   2   3
ATOM      3  C   UNL A   1      35.487  20.702  24.930  1.00  0.00     0.261 C 
BRANCH   3   4
ATOM      4  O   UNL A   1      35.123  21.901  25.626  1.00  0.00    -0.460 OA
BRANCH   4   5
ATOM      5  C   UNL A   1      34.108  21.817  26.520  1.00  0.00     0.339 C 
ATOM      6  O   UNL A   1      34.088  21.195  27.568  1.00  0.00    -0.246 OA
BRANCH   5   7
ATOM      7  C   UNL A   1      33.033  22.729  26.080  1.00  0.00     0.078 A 
ATOM      8  C   UNL A   1      31.132  24.557  25.177  1.00  0.00     0.096 A 
ATOM      9  C   UNL A   1      31.158  23.265  24.704  1.00  0.00     0.036 A 
ATOM     10  N   UNL A   1      32.058  24.954  26.084  1.00  0.00    -0.249 NA
ATOM     11  C   UNL A   1      32.091  22.339  25.146  1.00  0.00     0.020 A 
ATOM     12  C   UNL A   1      32.982  24.042  26.515  1.00  0.00     0.128 A 
BRANCH   8  13
ATOM     13  S   UNL A   1      30.006  25.823  24.637  1.00  0.00    -0.103 SA
BRANCH  13  14
ATOM     14  C   UNL A   1      30.849  27.140  23.604  1.00  0.00     0.054 C 
ATOM     15  C   UNL A   1      29.338  29.167  23.516  1.00  0.00     0.109 C 
ATOM     16  C   UNL A   1      30.458  30.062  24.076  1.00  0.00     0.020 C 
ATOM     17  C   UNL A   1      29.912  27.994  22.741  1.00  0.00     0.034 C 
ATOM     18  C   UNL A   1      31.638  29.345  24.756  1.00  0.00     0.002 C 
ATOM     19  C   UNL A   1      31.987  27.955  24.225  1.00  0.00     0.015 C 
BRANCH  15  20
ATOM     20  S   UNL A   1      28.122  30.105  22.579  1.00  0.00     0.150 S 
ATOM     21  C   UNL A   1      28.494  31.785  23.055  1.00  0.00     0.158 C 
ATOM     22  O   UNL A   1      26.807  29.803  23.112  1.00  0.00    -0.229 OA
ATOM     23  O   UNL A   1      28.397  29.957  21.165  1.00  0.00    -0.229 OA
ENDBRANCH  15  20
ENDBRANCH  13  14
ENDBRANCH   8  13
ENDBRANCH   5   7
ENDBRANCH   4   5
ENDBRANCH   3   4
ENDBRANCH   2   3
ENDBRANCH   1   2
BRANCH   1  24
ATOM     24  C   UNL A   1      39.052  21.515  25.771  1.00  0.00     0.202 C 
BRANCH  24  25
ATOM     25  C   UNL A   1      39.485  20.089  26.128  1.00  0.00     0.261 C 
BRANCH  25  26
ATOM     26  O   UNL A   1      40.671  19.703  25.410  1.00  0.00    -0.460 OA
BRANCH  26  27
ATOM     27  C   UNL A   1      41.777  19.578  26.185  1.00  0.00     0.338 C 
ATOM     28  O   UNL A   1      42.322  18.543  26.529  1.00  0.00    -0.246 OA
BRANCH  27  29
ATOM     29  C   UNL A   1      42.369  20.908  26.428  1.00  0.00     0.060 A 
ATOM     30  C   UNL A   1      42.477  21.327  27.760  1.00  0.00     0.016 A 
ATOM     31  C   UNL A   1      42.743  21.755  25.383  1.00  0.00     0.016 A 
ATOM     32  C   UNL A   1      42.906  22.619  28.050  1.00  0.00     0.010 A 
ATOM     33  C   UNL A   1      43.173  23.052  25.678  1.00  0.00     0.010 A 
ATOM     34  C   UNL A   1      43.218  23.504  27.009  1.00  0.00    -0.014 A 
BRANCH  34  35
ATOM     35  C   UNL A   1      43.460  24.935  27.312  1.00  0.00     0.031 A 
ATOM     36  C   UNL A   1      44.824  25.520  27.056  1.00  0.00     0.074 A 
ATOM     37  C   UNL A   1      42.472  25.710  27.797  1.00  0.00     0.049 A 
ATOM     38  N   UNL A   1      45.260  26.731  27.279  1.00  0.00    -0.248 NA
ATOM     39  C   UNL A   1      45.830  24.617  26.474  1.00  0.00     0.031 C 
ATOM     40  C   UNL A   1      41.108  25.263  28.076  1.00  0.00     0.029 A 
ATOM     41  N   UNL A   1      42.475  27.033  28.162  1.00  0.00    -0.354 N 
ATOM     42  C   UNL A   1      46.595  26.732  26.890  1.00  0.00     0.074 A 
ATOM     43  C   UNL A   1      46.903  25.393  26.436  1.00  0.00     0.031 C 
ATOM     44  C   UNL A   1      40.411  26.288  28.593  1.00  0.00     0.029 A 
ATOM     45  C   UNL A   1      41.285  27.453  28.709  1.00  0.00     0.049 A 
ATOM     46  H   UNL A   1      43.252  27.624  28.043  1.00  0.00     0.167 HD
ATOM     47  C   UNL A   1      47.479  27.758  26.891  1.00  0.00     0.034 A 
ATOM     48  C   UNL A   1      40.950  28.635  29.265  1.00  0.00     0.034 A 
ATOM     49  C   UNL A   1      47.166  29.091  27.331  1.00  0.00     0.049 A 
ATOM     50  C   UNL A   1      41.967  29.747  29.294  1.00  0.00     0.074 A 
ATOM     51  C   UNL A   1      47.983  30.207  27.341  1.00  0.00     0.029 A 
ATOM     52  N   UNL A   1      45.943  29.487  27.848  1.00  0.00    -0.354 N 
ATOM     53  N   UNL A   1      43.192  29.760  28.826  1.00  0.00    -0.248 NA
ATOM     54  C   UNL A   1      41.542  31.020  29.895  1.00  0.00     0.031 C 
ATOM     55  C   UNL A   1      47.264  31.271  27.895  1.00  0.00     0.029 A 
ATOM     56  C   UNL A   1      45.985  30.828  28.191  1.00  0.00     0.049 A 
ATOM     57  H   UNL A   1      45.159  28.901  27.955  1.00  0.00     0.167 HD
ATOM     58  C   UNL A   1      43.667  31.050  29.039  1.00  0.00     0.074 A 
ATOM     59  C   UNL A   1      42.591  31.795  29.658  1.00  0.00     0.031 C 
ATOM     60  C   UNL A   1      44.888  31.571  28.757  1.00  0.00     0.034 A 
BRANCH  47  61
ATOM     61  C   UNL A   1      48.870  27.484  26.379  1.00  0.00     0.023 A 
ATOM     62  C   UNL A   1      49.110  27.452  24.990  1.00  0.00     0.012 A 
ATOM     63  C   UNL A   1      49.949  27.315  27.270  1.00  0.00     0.148 A 
ATOM     64  C   UNL A   1      50.394  27.222  24.495  1.00  0.00     0.002 A 
ATOM     65  C   UNL A   1      51.233  27.135  26.770  1.00  0.00     0.091 A 
ATOM     66  F   UNL A   1      49.698  27.330  28.586  1.00  0.00    -0.205 F 
ATOM     67  C   UNL A   1      51.455  27.075  25.384  1.00  0.00     0.022 A 
BRANCH  65  68
ATOM     68  S   UNL A   1      52.679  27.014  27.829  1.00  0.00     0.127 S 
ATOM     69  O   UNL A   1      52.269  25.972  28.769  1.00  0.00    -0.237 OA
ATOM     70  O   UNL A   1      53.718  26.607  26.882  1.00  0.00    -0.237 OA
ATOM     71  O   UNL A   1      52.866  28.337  28.407  1.00  0.00    -0.744 OA
ENDBRANCH  65  68
ENDBRANCH  47  61
BRANCH  48  72
ATOM     72  C   UNL A   1      39.584  28.840  29.825  1.00  0.00     0.023 A 
ATOM     73  C   UNL A   1      39.289  28.391  31.127  1.00  0.00     0.012 A 
ATOM     74  C   UNL A   1      38.577  29.472  29.072  1.00  0.00     0.148 A 
ATOM     75  C   UNL A   1      38.004  28.531  31.653  1.00  0.00     0.002 A 
ATOM     76  C   UNL A   1      37.316  29.663  29.625  1.00  0.00     0.091 A 
ATOM     77  F   UNL A   1      38.872  29.880  27.830  1.00  0.00    -0.205 F 
ATOM     78  C   UNL A   1      37.020  29.174  30.907  1.00  0.00     0.022 A 
BRANCH  76  79
ATOM     79  S   UNL A   1      36.032  30.600  28.787  1.00  0.00     0.127 S 
ATOM     80  O   UNL A   1      35.365  29.563  28.006  1.00  0.00    -0.237 OA
ATOM     81  O   UNL A   1      35.257  31.121  29.914  1.00  0.00    -0.237 OA
ATOM     82  O   UNL A   1      36.730  31.623  28.019  1.00  0.00    -0.744 OA
ENDBRANCH  76  79
ENDBRANCH  48  72
BRANCH  60  83
ATOM     83  C   UNL A   1      45.115  33.030  29.061  1.00  0.00     0.023 A 
ATOM     84  C   UNL A   1      45.619  33.421  30.318  1.00  0.00     0.012 A 
ATOM     85  C   UNL A   1      44.891  34.008  28.072  1.00  0.00     0.148 A 
ATOM     86  C   UNL A   1      45.856  34.766  30.599  1.00  0.00     0.002 A 
ATOM     87  C   UNL A   1      45.182  35.341  28.340  1.00  0.00     0.091 A 
ATOM     88  F   UNL A   1      44.397  33.619  26.888  1.00  0.00    -0.205 F 
ATOM     89  C   UNL A   1      45.650  35.724  29.607  1.00  0.00     0.022 A 
BRANCH  87  90
ATOM     90  S   UNL A   1      45.040  36.628  27.096  1.00  0.00     0.127 S 
ATOM     91  O   UNL A   1      45.957  36.148  26.064  1.00  0.00    -0.237 OA
ATOM     92  O   UNL A   1      43.623  36.555  26.737  1.00  0.00    -0.237 OA
ATOM     93  O   UNL A   1      45.435  37.868  27.752  1.00  0.00    -0.744 OA
ENDBRANCH  87  90
ENDBRANCH  60  83
ENDBRANCH  34  35
ENDBRANCH  27  29
ENDBRANCH  26  27
ENDBRANCH  25  26
ENDBRANCH  24  25
ENDBRANCH   1  24
TORSDOF 20
ENDMDL
MODEL 3
REMARK VINA RESULT:     -10.4      1.765      7.737
REMARK SMILES CS(=O)(=O)[C@@H]1CCC[C@@H](Sc2ccc(C(=O)OCCOCCOC(=O)c3ccc(-c4c5nc(c(-c6cccc(S(=O)(=O)[O-])c6F)c6ccc([nH]6)c(-c6cccc(S(=O)(=O)[O-])c6F)c6nc(c(-c7cccc(S(=O)(=O)[O-])c7F)c7ccc4[nH]7)C=C6)C=C5)cc3)cn2)C1
REMARK SMILES IDX 20 1 19 2 18 3 17 4 15 5 16 6 14 7 11 8 12 9 90 10 13 11
REMARK SMILES IDX 89 12 10 13 9 14 5 15 6 16 91 17 7 18 8 19 2 20 1 21 3 22
REMARK SMILES IDX 4 23 21 24 22 25 23 26 24 27 25 28 26 29 27 30 88 31 28 32
REMARK SMILES IDX 87 33 29 34 30 35 31 36 81 37 32 38 86 39 80 40 82 41 33 42
REMARK SMILES IDX 85 43 79 44 78 45 34 47 66 48 46 49 65 50 47 51 50 52 64 53
REMARK SMILES IDX 83 54 48 55 49 56 63 58 84 59 51 60 35 61 36 62 44 63 37 64
REMARK SMILES IDX 39 65 45 66 38 67 40 68 41 69 42 70 43 71 67 72 68 73 76 74
REMARK SMILES IDX 69 75 71 76 77 77 70 78 72 79 73 80 74 81 75 82 52 83 53 84
REMARK SMILES IDX 61 85 54 86 56 87 62 88 55 89 57 90 58 91 59 92 60 93
REMARK H PARENT 82 46 50 57
REMARK Flexibility Score: inf
ROOT
ATOM      1  O   UNL A   1      38.149  20.083  25.131  1.00  0.00    -0.374 OA
ENDROOT
BRANCH   1   2
ATOM      2  C   UNL A   1      36.732  19.929  25.028  1.00  0.00     0.202 C 
BRANCH   2   3
ATOM      3  C   UNL A   1      35.911  21.138  25.491  1.00  0.00     0.261 C 
BRANCH   3   4
ATOM      4  O   UNL A   1      34.872  21.432  24.549  1.00  0.00    -0.460 OA
BRANCH   4   5
ATOM      5  C   UNL A   1      33.597  21.169  24.927  1.00  0.00     0.339 C 
ATOM      6  O   UNL A   1      33.178  20.172  25.489  1.00  0.00    -0.246 OA
BRANCH   5   7
ATOM      7  C   UNL A   1      32.783  22.372  24.662  1.00  0.00     0.078 A 
ATOM      8  C   UNL A   1      31.098  24.545  24.195  1.00  0.00     0.096 A 
ATOM      9  C   UNL A   1      32.002  24.555  25.233  1.00  0.00     0.036 A 
ATOM     10  N   UNL A   1      31.013  23.452  23.396  1.00  0.00    -0.249 NA
ATOM     11  C   UNL A   1      32.853  23.487  25.477  1.00  0.00     0.020 A 
ATOM     12  C   UNL A   1      31.848  22.397  23.642  1.00  0.00     0.128 A 
BRANCH   8  13
ATOM     13  S   UNL A   1      29.939  25.843  23.833  1.00  0.00    -0.103 SA
BRANCH  13  14
ATOM     14  C   UNL A   1      30.782  27.422  23.276  1.00  0.00     0.054 C 
ATOM     15  C   UNL A   1      32.240  28.253  25.169  1.00  0.00     0.109 C 
ATOM     16  C   UNL A   1      33.478  28.248  24.255  1.00  0.00     0.020 C 
ATOM     17  C   UNL A   1      30.971  28.483  24.367  1.00  0.00     0.034 C 
ATOM     18  C   UNL A   1      33.371  27.433  22.953  1.00  0.00     0.002 C 
ATOM     19  C   UNL A   1      31.980  27.329  22.328  1.00  0.00     0.015 C 
BRANCH  15  20
ATOM     20  S   UNL A   1      32.419  29.391  26.550  1.00  0.00     0.150 S 
ATOM     21  C   UNL A   1      31.457  30.794  26.009  1.00  0.00     0.158 C 
ATOM     22  O   UNL A   1      33.802  29.828  26.602  1.00  0.00    -0.229 OA
ATOM     23  O   UNL A   1      31.782  28.821  27.719  1.00  0.00    -0.229 OA
ENDBRANCH  15  20
ENDBRANCH  13  14
ENDBRANCH   8  13
ENDBRANCH   5   7
ENDBRANCH   4   5
ENDBRANCH   3   4
ENDBRANCH   2   3
ENDBRANCH   1   2
BRANCH   1  24
ATOM     24  C   UNL A   1      38.622  21.410  25.378  1.00  0.00     0.202 C 
BRANCH  24  25
ATOM     25  C   UNL A   1      39.657  21.552  26.500  1.00  0.00     0.261 C 
BRANCH  25  26
ATOM     26  O   UNL A   1      40.257  20.286  26.828  1.00  0.00    -0.460 OA
BRANCH  26  27
ATOM     27  C   UNL A   1      41.499  20.107  26.315  1.00  0.00     0.338 C 
ATOM     28  O   UNL A   1      41.911  19.134  25.706  1.00  0.00    -0.246 OA
BRANCH  27  29
ATOM     29  C   UNL A   1      42.274  21.357  26.436  1.00  0.00     0.060 A 
ATOM     30  C   UNL A   1      42.807  21.661  27.695  1.00  0.00     0.016 A 
ATOM     31  C   UNL A   1      42.417  22.246  25.369  1.00  0.00     0.016 A 
ATOM     32  C   UNL A   1      43.436  22.885  27.906  1.00  0.00     0.010 A 
ATOM     33  C   UNL A   1      43.050  23.474  25.585  1.00  0.00     0.010 A 
ATOM     34  C   UNL A   1      43.527  23.816  26.863  1.00  0.00    -0.014 A 
BRANCH  34  35
ATOM     35  C   UNL A   1      43.997  25.193  27.149  1.00  0.00     0.031 A 
ATOM     36  C   UNL A   1      43.029  26.196  27.719  1.00  0.00     0.074 A 
ATOM     37  C   UNL A   1      45.275  25.544  26.917  1.00  0.00     0.049 A 
ATOM     38  N   UNL A   1      43.218  27.455  28.012  1.00  0.00    -0.248 NA
ATOM     39  C   UNL A   1      41.665  25.714  27.994  1.00  0.00     0.031 C 
ATOM     40  C   UNL A   1      46.309  24.660  26.378  1.00  0.00     0.029 A 
ATOM     41  N   UNL A   1      45.914  26.746  27.085  1.00  0.00    -0.354 N 
ATOM     42  C   UNL A   1      41.996  27.925  28.480  1.00  0.00     0.074 A 
ATOM     43  C   UNL A   1      41.066  26.819  28.412  1.00  0.00     0.031 C 
ATOM     44  C   UNL A   1      47.447  25.358  26.236  1.00  0.00     0.029 A 
ATOM     45  C   UNL A   1      47.216  26.742  26.644  1.00  0.00     0.049 A 
ATOM     46  H   UNL A   1      45.482  27.536  27.484  1.00  0.00     0.167 HD
ATOM     47  C   UNL A   1      41.680  29.158  28.942  1.00  0.00     0.034 A 
ATOM     48  C   UNL A   1      48.111  27.747  26.554  1.00  0.00     0.034 A 
ATOM     49  C   UNL A   1      42.611  30.252  29.019  1.00  0.00     0.049 A 
ATOM     50  C   UNL A   1      47.720  29.122  27.035  1.00  0.00     0.074 A 
ATOM     51  C   UNL A   1      42.398  31.531  29.502  1.00  0.00     0.029 A 
ATOM     52  N   UNL A   1      43.929  30.201  28.594  1.00  0.00    -0.354 N 
ATOM     53  N   UNL A   1      46.592  29.521  27.571  1.00  0.00    -0.248 NA
ATOM     54  C   UNL A   1      48.740  30.176  26.931  1.00  0.00     0.031 C 
ATOM     55  C   UNL A   1      43.578  32.263  29.337  1.00  0.00     0.029 A 
ATOM     56  C   UNL A   1      44.539  31.429  28.791  1.00  0.00     0.049 A 
ATOM     57  H   UNL A   1      44.368  29.409  28.207  1.00  0.00     0.167 HD
ATOM     58  C   UNL A   1      46.782  30.858  27.905  1.00  0.00     0.074 A 
ATOM     59  C   UNL A   1      48.139  31.194  27.530  1.00  0.00     0.031 C 
ATOM     60  C   UNL A   1      45.908  31.734  28.463  1.00  0.00     0.034 A 
BRANCH  47  61
ATOM     61  C   UNL A   1      40.270  29.386  29.423  1.00  0.00     0.023 A 
ATOM     62  C   UNL A   1      39.278  29.795  28.509  1.00  0.00     0.012 A 
ATOM     63  C   UNL A   1      39.915  29.142  30.764  1.00  0.00     0.148 A 
ATOM     64  C   UNL A   1      37.962  29.991  28.928  1.00  0.00     0.002 A 
ATOM     65  C   UNL A   1      38.593  29.292  31.164  1.00  0.00     0.091 A 
ATOM     66  F   UNL A   1      40.876  28.772  31.622  1.00  0.00    -0.205 F 
ATOM     67  C   UNL A   1      37.618  29.728  30.251  1.00  0.00     0.022 A 
BRANCH  65  68
ATOM     68  S   UNL A   1      38.031  28.903  32.826  1.00  0.00     0.127 S 
ATOM     69  O   UNL A   1      36.643  29.362  32.782  1.00  0.00    -0.237 OA
ATOM     70  O   UNL A   1      38.192  27.450  32.871  1.00  0.00    -0.237 OA
ATOM     71  O   UNL A   1      38.903  29.642  33.728  1.00  0.00    -0.744 OA
ENDBRANCH  65  68
ENDBRANCH  47  61
BRANCH  48  72
ATOM     72  C   UNL A   1      49.472  27.493  26.005  1.00  0.00     0.023 A 
ATOM     73  C   UNL A   1      49.648  27.344  24.615  1.00  0.00     0.012 A 
ATOM     74  C   UNL A   1      50.592  27.393  26.853  1.00  0.00     0.148 A 
ATOM     75  C   UNL A   1      50.907  27.060  24.084  1.00  0.00     0.002 A 
ATOM     76  C   UNL A   1      51.853  27.170  26.312  1.00  0.00     0.091 A 
ATOM     77  F   UNL A   1      50.403  27.524  28.173  1.00  0.00    -0.205 F 
ATOM     78  C   UNL A   1      52.010  26.981  24.930  1.00  0.00     0.022 A 
BRANCH  76  79
ATOM     79  S   UNL A   1      53.344  27.190  27.313  1.00  0.00     0.127 S 
ATOM     80  O   UNL A   1      53.182  28.430  28.067  1.00  0.00    -0.237 OA
ATOM     81  O   UNL A   1      53.195  25.965  28.098  1.00  0.00    -0.237 OA
ATOM     82  O   UNL A   1      54.452  27.162  26.366  1.00  0.00    -0.744 OA
ENDBRANCH  76  79
ENDBRANCH  48  72
BRANCH  60  83
ATOM     83  C   UNL A   1      46.404  33.127  28.757  1.00  0.00     0.023 A 
ATOM     84  C   UNL A   1      47.035  33.410  29.984  1.00  0.00     0.012 A 
ATOM     85  C   UNL A   1      46.301  34.141  27.783  1.00  0.00     0.148 A 
ATOM     86  C   UNL A   1      47.520  34.689  30.254  1.00  0.00     0.002 A 
ATOM     87  C   UNL A   1      46.836  35.398  28.037  1.00  0.00     0.091 A 
ATOM     88  F   UNL A   1      45.683  33.857  26.628  1.00  0.00    -0.205 F 
ATOM     89  C   UNL A   1      47.431  35.679  29.277  1.00  0.00     0.022 A 
BRANCH  87  90
ATOM     90  S   UNL A   1      46.854  36.705  26.805  1.00  0.00     0.127 S 
ATOM     91  O   UNL A   1      45.429  36.982  26.643  1.00  0.00    -0.237 OA
ATOM     92  O   UNL A   1      47.608  37.759  27.486  1.00  0.00    -0.237 OA
ATOM     93  O   UNL A   1      47.518  36.146  25.634  1.00  0.00    -0.744 OA
ENDBRANCH  87  90
ENDBRANCH  60  83
ENDBRANCH  34  35
ENDBRANCH  27  29
ENDBRANCH  26  27
ENDBRANCH  25  26
ENDBRANCH  24  25
ENDBRANCH   1  24
TORSDOF 20
ENDMDL
