MODEL 1
REMARK VINA RESULT:     -10.9      0.000      0.000
REMARK SMILES C[C@]1(C(=O)NCc2ccc(C(=O)OCCOCCOC(=O)c3ccc(-c4c5nc(c(-c6cccc(S(=O)(=O)[O-])c6F)c6ccc([nH]6)c(-c6cccc(S(=O)(=O)[O-])c6F)c6nc(c(-c7cccc(S(=O)(=O)[O-])c7F)c7ccc4[nH]7)C=C6)C=C5)cc3)o2)CCC[NH2+]C1
REMARK SMILES IDX 16 1 15 2 14 3 13 4 11 5 12 6 10 7 7 8 8 9 85 10 9 11 6 12
REMARK SMILES IDX 5 13 3 14 4 15 2 17 1 18 86 19 90 20 87 21 89 22 88 23 17 26
REMARK SMILES IDX 18 27 19 28 20 29 21 30 22 31 23 32 84 33 24 34 83 35 25 36
REMARK SMILES IDX 26 37 27 38 77 39 28 40 82 41 76 42 78 43 29 44 81 45 75 46
REMARK SMILES IDX 74 47 30 49 62 50 42 51 61 52 43 53 46 54 60 55 79 56 44 57
REMARK SMILES IDX 45 58 59 60 80 61 47 62 31 63 32 64 40 65 33 66 35 67 41 68
REMARK SMILES IDX 34 69 36 70 37 71 38 72 39 73 63 74 64 75 72 76 65 77 67 78
REMARK SMILES IDX 73 79 66 80 68 81 69 82 70 83 71 84 48 85 49 86 57 87 50 88
REMARK SMILES IDX 52 89 58 90 51 91 53 92 54 93 55 94 56 95
REMARK H PARENT 5 16 89 24 89 25 78 48 46 59
REMARK Flexibility Score: inf
ROOT
ATOM      1  O   UNL A   1      35.640  21.373  26.053  1.00  0.00    -0.374 OA
ENDROOT
BRANCH   1   2
ATOM      2  C   UNL A   1      34.293  21.363  26.531  1.00  0.00     0.202 C 
BRANCH   2   3
ATOM      3  C   UNL A   1      33.311  20.644  25.600  1.00  0.00     0.261 C 
BRANCH   3   4
ATOM      4  O   UNL A   1      32.414  21.596  25.006  1.00  0.00    -0.457 OA
BRANCH   4   5
ATOM      5  C   UNL A   1      32.499  21.735  23.653  1.00  0.00     0.374 C 
ATOM      6  O   UNL A   1      32.132  20.898  22.836  1.00  0.00    -0.242 OA
BRANCH   5   7
ATOM      7  C   UNL A   1      32.979  23.061  23.341  1.00  0.00     0.211 A 
ATOM      8  C   UNL A   1      32.752  25.100  22.528  1.00  0.00     0.124 A 
ATOM      9  C   UNL A   1      33.969  25.075  23.177  1.00  0.00     0.048 A 
ATOM     10  O   UNL A   1      32.161  23.876  22.605  1.00  0.00    -0.452 OA
ATOM     11  C   UNL A   1      34.111  23.769  23.707  1.00  0.00     0.058 A 
BRANCH   8  12
ATOM     12  C   UNL A   1      31.980  26.192  21.881  1.00  0.00     0.191 C 
BRANCH  12  13
ATOM     13  N   UNL A   1      32.583  27.481  22.132  1.00  0.00    -0.348 N 
ATOM     14  C   UNL A   1      32.653  28.283  23.220  1.00  0.00     0.232 C 
ATOM     15  O   UNL A   1      33.547  29.142  23.168  1.00  0.00    -0.274 OA
ATOM     16  H   UNL A   1      33.041  27.855  21.344  1.00  0.00     0.163 HD
BRANCH  14  17
ATOM     17  C   UNL A   1      31.621  28.337  24.377  1.00  0.00     0.095 C 
ATOM     18  C   UNL A   1      30.263  28.548  23.665  1.00  0.00     0.028 C 
ATOM     19  C   UNL A   1      31.454  27.155  25.345  1.00  0.00     0.028 C 
ATOM     20  C   UNL A   1      31.926  29.593  25.241  1.00  0.00     0.277 C 
ATOM     21  C   UNL A   1      32.656  26.995  26.270  1.00  0.00     0.063 C 
ATOM     22  N   UNL A   1      33.081  29.412  26.137  1.00  0.00    -0.345 N 
ATOM     23  C   UNL A   1      32.906  28.283  27.045  1.00  0.00     0.260 C 
ATOM     24  H   UNL A   1      33.913  29.251  25.571  1.00  0.00     0.346 HD
ATOM     25  H   UNL A   1      33.172  30.256  26.702  1.00  0.00     0.346 HD
ENDBRANCH  14  17
ENDBRANCH  12  13
ENDBRANCH   8  12
ENDBRANCH   5   7
ENDBRANCH   4   5
ENDBRANCH   3   4
ENDBRANCH   2   3
ENDBRANCH   1   2
BRANCH   1  26
ATOM     26  C   UNL A   1      35.953  20.397  25.054  1.00  0.00     0.202 C 
BRANCH  26  27
ATOM     27  C   UNL A   1      37.417  19.945  25.048  1.00  0.00     0.261 C 
BRANCH  27  28
ATOM     28  O   UNL A   1      38.302  21.068  25.217  1.00  0.00    -0.460 OA
BRANCH  28  29
ATOM     29  C   UNL A   1      39.332  20.873  26.075  1.00  0.00     0.338 C 
ATOM     30  O   UNL A   1      39.915  19.824  26.297  1.00  0.00    -0.246 OA
BRANCH  29  31
ATOM     31  C   UNL A   1      39.793  22.176  26.596  1.00  0.00     0.060 A 
ATOM     32  C   UNL A   1      39.172  23.329  26.098  1.00  0.00     0.016 A 
ATOM     33  C   UNL A   1      40.826  22.278  27.531  1.00  0.00     0.016 A 
ATOM     34  C   UNL A   1      39.608  24.589  26.505  1.00  0.00     0.010 A 
ATOM     35  C   UNL A   1      41.265  23.544  27.934  1.00  0.00     0.010 A 
ATOM     36  C   UNL A   1      40.677  24.706  27.402  1.00  0.00    -0.014 A 
BRANCH  36  37
ATOM     37  C   UNL A   1      41.251  26.039  27.705  1.00  0.00     0.031 A 
ATOM     38  C   UNL A   1      42.652  26.354  27.259  1.00  0.00     0.074 A 
ATOM     39  C   UNL A   1      40.537  26.952  28.387  1.00  0.00     0.049 A 
ATOM     40  N   UNL A   1      43.353  27.442  27.445  1.00  0.00    -0.248 NA
ATOM     41  C   UNL A   1      43.358  25.303  26.509  1.00  0.00     0.031 C 
ATOM     42  C   UNL A   1      39.174  26.762  28.880  1.00  0.00     0.029 A 
ATOM     43  N   UNL A   1      40.874  28.215  28.807  1.00  0.00    -0.354 N 
ATOM     44  C   UNL A   1      44.590  27.200  26.860  1.00  0.00     0.074 A 
ATOM     45  C   UNL A   1      44.548  25.856  26.325  1.00  0.00     0.031 C 
ATOM     46  C   UNL A   1      38.800  27.859  29.561  1.00  0.00     0.029 A 
ATOM     47  C   UNL A   1      39.902  28.819  29.569  1.00  0.00     0.049 A 
ATOM     48  H   UNL A   1      41.730  28.647  28.583  1.00  0.00     0.167 HD
ATOM     49  C   UNL A   1      45.658  28.026  26.763  1.00  0.00     0.034 A 
ATOM     50  C   UNL A   1      39.908  30.003  30.213  1.00  0.00     0.034 A 
ATOM     51  C   UNL A   1      45.691  29.370  27.275  1.00  0.00     0.049 A 
ATOM     52  C   UNL A   1      41.113  30.901  30.097  1.00  0.00     0.074 A 
ATOM     53  C   UNL A   1      46.707  30.303  27.174  1.00  0.00     0.029 A 
ATOM     54  N   UNL A   1      44.667  29.968  27.992  1.00  0.00    -0.354 N 
ATOM     55  N   UNL A   1      42.223  30.709  29.427  1.00  0.00    -0.248 NA
ATOM     56  C   UNL A   1      41.052  32.191  30.799  1.00  0.00     0.031 C 
ATOM     57  C   UNL A   1      46.304  31.462  27.849  1.00  0.00     0.029 A 
ATOM     58  C   UNL A   1      45.030  31.255  28.351  1.00  0.00     0.049 A 
ATOM     59  H   UNL A   1      43.808  29.541  28.213  1.00  0.00     0.167 HD
ATOM     60  C   UNL A   1      42.976  31.868  29.594  1.00  0.00     0.074 A 
ATOM     61  C   UNL A   1      42.187  32.762  30.416  1.00  0.00     0.031 C 
ATOM     62  C   UNL A   1      44.212  32.159  29.119  1.00  0.00     0.034 A 
BRANCH  49  63
ATOM     63  C   UNL A   1      46.874  27.510  26.041  1.00  0.00     0.023 A 
ATOM     64  C   UNL A   1      47.000  27.725  24.654  1.00  0.00     0.012 A 
ATOM     65  C   UNL A   1      47.912  26.864  26.739  1.00  0.00     0.148 A 
ATOM     66  C   UNL A   1      48.128  27.279  23.967  1.00  0.00     0.002 A 
ATOM     67  C   UNL A   1      49.052  26.458  26.053  1.00  0.00     0.091 A 
ATOM     68  F   UNL A   1      47.762  26.646  28.053  1.00  0.00    -0.205 F 
ATOM     69  C   UNL A   1      49.157  26.657  24.668  1.00  0.00     0.022 A 
BRANCH  67  70
ATOM     70  S   UNL A   1      50.459  25.710  26.884  1.00  0.00     0.127 S 
ATOM     71  O   UNL A   1      51.424  25.605  25.791  1.00  0.00    -0.237 OA
ATOM     72  O   UNL A   1      50.790  26.714  27.896  1.00  0.00    -0.237 OA
ATOM     73  O   UNL A   1      49.977  24.445  27.422  1.00  0.00    -0.744 OA
ENDBRANCH  67  70
ENDBRANCH  49  63
BRANCH  50  74
ATOM     74  C   UNL A   1      38.708  30.431  30.986  1.00  0.00     0.023 A 
ATOM     75  C   UNL A   1      38.639  30.158  32.365  1.00  0.00     0.012 A 
ATOM     76  C   UNL A   1      37.653  31.131  30.369  1.00  0.00     0.148 A 
ATOM     77  C   UNL A   1      37.528  30.551  33.112  1.00  0.00     0.002 A 
ATOM     78  C   UNL A   1      36.575  31.568  31.130  1.00  0.00     0.091 A 
ATOM     79  F   UNL A   1      37.729  31.364  29.052  1.00  0.00    -0.205 F 
ATOM     80  C   UNL A   1      36.502  31.266  32.499  1.00  0.00     0.022 A 
BRANCH  78  81
ATOM     81  S   UNL A   1      35.276  32.605  30.448  1.00  0.00     0.127 S 
ATOM     82  O   UNL A   1      34.887  31.854  29.258  1.00  0.00    -0.237 OA
ATOM     83  O   UNL A   1      34.289  32.602  31.529  1.00  0.00    -0.237 OA
ATOM     84  O   UNL A   1      35.895  33.901  30.208  1.00  0.00    -0.744 OA
ENDBRANCH  78  81
ENDBRANCH  50  74
BRANCH  62  85
ATOM     85  C   UNL A   1      44.787  33.514  29.438  1.00  0.00     0.023 A 
ATOM     86  C   UNL A   1      45.633  33.669  30.554  1.00  0.00     0.012 A 
ATOM     87  C   UNL A   1      44.562  34.612  28.584  1.00  0.00     0.148 A 
ATOM     88  C   UNL A   1      46.225  34.901  30.829  1.00  0.00     0.002 A 
ATOM     89  C   UNL A   1      45.191  35.825  28.839  1.00  0.00     0.091 A 
ATOM     90  F   UNL A   1      43.737  34.450  27.538  1.00  0.00    -0.205 F 
ATOM     91  C   UNL A   1      46.015  35.974  29.966  1.00  0.00     0.022 A 
BRANCH  89  92
ATOM     92  S   UNL A   1      45.051  37.231  27.729  1.00  0.00     0.127 S 
ATOM     93  O   UNL A   1      45.195  38.355  28.651  1.00  0.00    -0.237 OA
ATOM     94  O   UNL A   1      46.186  37.031  26.827  1.00  0.00    -0.237 OA
ATOM     95  O   UNL A   1      43.747  37.106  27.090  1.00  0.00    -0.744 OA
ENDBRANCH  89  92
ENDBRANCH  62  85
ENDBRANCH  36  37
ENDBRANCH  29  31
ENDBRANCH  28  29
ENDBRANCH  27  28
ENDBRANCH  26  27
ENDBRANCH   1  26
TORSDOF 20
ENDMDL
MODEL 2
REMARK VINA RESULT:     -10.6      2.439      4.222
REMARK SMILES C[C@]1(C(=O)NCc2ccc(C(=O)OCCOCCOC(=O)c3ccc(-c4c5nc(c(-c6cccc(S(=O)(=O)[O-])c6F)c6ccc([nH]6)c(-c6cccc(S(=O)(=O)[O-])c6F)c6nc(c(-c7cccc(S(=O)(=O)[O-])c7F)c7ccc4[nH]7)C=C6)C=C5)cc3)o2)CCC[NH2+]C1
REMARK SMILES IDX 16 1 15 2 14 3 13 4 11 5 12 6 10 7 7 8 8 9 85 10 9 11 6 12
REMARK SMILES IDX 5 13 3 14 4 15 2 17 1 18 86 19 90 20 87 21 89 22 88 23 17 26
REMARK SMILES IDX 18 27 19 28 20 29 21 30 22 31 23 32 84 33 24 34 83 35 25 36
REMARK SMILES IDX 26 37 27 38 77 39 28 40 82 41 76 42 78 43 29 44 81 45 75 46
REMARK SMILES IDX 74 47 30 49 62 50 42 51 61 52 43 53 46 54 60 55 79 56 44 57
REMARK SMILES IDX 45 58 59 60 80 61 47 62 31 63 32 64 40 65 33 66 35 67 41 68
REMARK SMILES IDX 34 69 36 70 37 71 38 72 39 73 63 74 64 75 72 76 65 77 67 78
REMARK SMILES IDX 73 79 66 80 68 81 69 82 70 83 71 84 48 85 49 86 57 87 50 88
REMARK SMILES IDX 52 89 58 90 51 91 53 92 54 93 55 94 56 95
REMARK H PARENT 5 16 89 24 89 25 78 48 46 59
REMARK Flexibility Score: inf
ROOT
ATOM      1  O   UNL A   1      36.778  22.125  24.208  1.00  0.00    -0.374 OA
ENDROOT
BRANCH   1   2
ATOM      2  C   UNL A   1      36.756  23.553  24.278  1.00  0.00     0.202 C 
BRANCH   2   3
ATOM      3  C   UNL A   1      35.460  24.179  23.753  1.00  0.00     0.261 C 
BRANCH   3   4
ATOM      4  O   UNL A   1      34.922  23.372  22.692  1.00  0.00    -0.457 OA
BRANCH   4   5
ATOM      5  C   UNL A   1      33.648  23.661  22.309  1.00  0.00     0.374 C 
ATOM      6  O   UNL A   1      33.335  24.186  21.246  1.00  0.00    -0.242 OA
BRANCH   5   7
ATOM      7  C   UNL A   1      32.726  23.148  23.296  1.00  0.00     0.211 A 
ATOM      8  C   UNL A   1      32.094  21.708  24.845  1.00  0.00     0.124 A 
ATOM      9  C   UNL A   1      31.175  22.737  24.873  1.00  0.00     0.048 A 
ATOM     10  O   UNL A   1      33.021  21.942  23.874  1.00  0.00    -0.452 OA
ATOM     11  C   UNL A   1      31.585  23.666  23.885  1.00  0.00     0.058 A 
BRANCH   8  12
ATOM     12  C   UNL A   1      32.289  20.510  25.700  1.00  0.00     0.191 C 
BRANCH  12  13
ATOM     13  N   UNL A   1      33.592  19.923  25.493  1.00  0.00    -0.348 N 
ATOM     14  C   UNL A   1      34.069  18.984  24.643  1.00  0.00     0.232 C 
ATOM     15  O   UNL A   1      35.304  18.989  24.512  1.00  0.00    -0.274 OA
ATOM     16  H   UNL A   1      34.281  20.283  26.099  1.00  0.00     0.163 HD
BRANCH  14  17
ATOM     17  C   UNL A   1      33.248  17.829  24.012  1.00  0.00     0.095 C 
ATOM     18  C   UNL A   1      32.492  18.496  22.838  1.00  0.00     0.028 C 
ATOM     19  C   UNL A   1      33.941  16.574  23.459  1.00  0.00     0.028 C 
ATOM     20  C   UNL A   1      32.205  17.347  25.061  1.00  0.00     0.277 C 
ATOM     21  C   UNL A   1      34.530  15.706  24.566  1.00  0.00     0.063 C 
ATOM     22  N   UNL A   1      32.791  16.499  26.112  1.00  0.00    -0.345 N 
ATOM     23  C   UNL A   1      33.449  15.316  25.567  1.00  0.00     0.260 C 
ATOM     24  H   UNL A   1      33.478  17.047  26.630  1.00  0.00     0.346 HD
ATOM     25  H   UNL A   1      32.034  16.184  26.718  1.00  0.00     0.346 HD
ENDBRANCH  14  17
ENDBRANCH  12  13
ENDBRANCH   8  12
ENDBRANCH   5   7
ENDBRANCH   4   5
ENDBRANCH   3   4
ENDBRANCH   2   3
ENDBRANCH   1   2
BRANCH   1  26
ATOM     26  C   UNL A   1      37.031  21.446  25.442  1.00  0.00     0.202 C 
BRANCH  26  27
ATOM     27  C   UNL A   1      38.201  20.458  25.392  1.00  0.00     0.261 C 
BRANCH  27  28
ATOM     28  O   UNL A   1      39.460  21.148  25.504  1.00  0.00    -0.460 OA
BRANCH  28  29
ATOM     29  C   UNL A   1      40.056  21.078  26.718  1.00  0.00     0.338 C 
ATOM     30  O   UNL A   1      40.410  20.070  27.307  1.00  0.00    -0.246 OA
BRANCH  29  31
ATOM     31  C   UNL A   1      40.396  22.440  27.179  1.00  0.00     0.060 A 
ATOM     32  C   UNL A   1      39.727  23.514  26.576  1.00  0.00     0.016 A 
ATOM     33  C   UNL A   1      41.364  22.672  28.160  1.00  0.00     0.016 A 
ATOM     34  C   UNL A   1      40.050  24.823  26.925  1.00  0.00     0.010 A 
ATOM     35  C   UNL A   1      41.690  23.987  28.504  1.00  0.00     0.010 A 
ATOM     36  C   UNL A   1      41.056  25.070  27.869  1.00  0.00    -0.014 A 
BRANCH  36  37
ATOM     37  C   UNL A   1      41.518  26.457  28.117  1.00  0.00     0.031 A 
ATOM     38  C   UNL A   1      42.910  26.851  27.708  1.00  0.00     0.074 A 
ATOM     39  C   UNL A   1      40.712  27.350  28.717  1.00  0.00     0.049 A 
ATOM     40  N   UNL A   1      43.522  27.996  27.858  1.00  0.00    -0.248 NA
ATOM     41  C   UNL A   1      43.722  25.817  27.047  1.00  0.00     0.031 C 
ATOM     42  C   UNL A   1      39.347  27.086  29.168  1.00  0.00     0.029 A 
ATOM     43  N   UNL A   1      40.939  28.655  29.077  1.00  0.00    -0.354 N 
ATOM     44  C   UNL A   1      44.797  27.816  27.336  1.00  0.00     0.074 A 
ATOM     45  C   UNL A   1      44.876  26.446  26.877  1.00  0.00     0.031 C 
ATOM     46  C   UNL A   1      38.865  28.187  29.771  1.00  0.00     0.029 A 
ATOM     47  C   UNL A   1      39.894  29.225  29.765  1.00  0.00     0.049 A 
ATOM     48  H   UNL A   1      41.770  29.137  28.862  1.00  0.00     0.167 HD
ATOM     49  C   UNL A   1      45.806  28.713  27.233  1.00  0.00     0.034 A 
ATOM     50  C   UNL A   1      39.787  30.440  30.340  1.00  0.00     0.034 A 
ATOM     51  C   UNL A   1      45.720  30.081  27.668  1.00  0.00     0.049 A 
ATOM     52  C   UNL A   1      40.927  31.417  30.220  1.00  0.00     0.074 A 
ATOM     53  C   UNL A   1      46.669  31.081  27.553  1.00  0.00     0.029 A 
ATOM     54  N   UNL A   1      44.626  30.640  28.309  1.00  0.00    -0.354 N 
ATOM     55  N   UNL A   1      42.076  31.273  29.605  1.00  0.00    -0.248 NA
ATOM     56  C   UNL A   1      40.744  32.736  30.844  1.00  0.00     0.031 C 
ATOM     57  C   UNL A   1      46.155  32.241  28.144  1.00  0.00     0.029 A 
ATOM     58  C   UNL A   1      44.879  31.968  28.608  1.00  0.00     0.049 A 
ATOM     59  H   UNL A   1      43.792  30.163  28.522  1.00  0.00     0.167 HD
ATOM     60  C   UNL A   1      42.735  32.492  29.734  1.00  0.00     0.074 A 
ATOM     61  C   UNL A   1      41.850  33.368  30.473  1.00  0.00     0.031 C 
ATOM     62  C   UNL A   1      43.966  32.848  29.291  1.00  0.00     0.034 A 
BRANCH  49  63
ATOM     63  C   UNL A   1      47.085  28.251  26.589  1.00  0.00     0.023 A 
ATOM     64  C   UNL A   1      48.159  27.835  27.402  1.00  0.00     0.012 A 
ATOM     65  C   UNL A   1      47.207  28.177  25.188  1.00  0.00     0.148 A 
ATOM     66  C   UNL A   1      49.346  27.379  26.830  1.00  0.00     0.002 A 
ATOM     67  C   UNL A   1      48.380  27.683  24.626  1.00  0.00     0.091 A 
ATOM     68  F   UNL A   1      46.185  28.602  24.433  1.00  0.00    -0.205 F 
ATOM     69  C   UNL A   1      49.452  27.292  25.444  1.00  0.00     0.022 A 
BRANCH  67  70
ATOM     70  S   UNL A   1      48.581  27.470  22.853  1.00  0.00     0.127 S 
ATOM     71  O   UNL A   1      49.914  28.030  22.639  1.00  0.00    -0.237 OA
ATOM     72  O   UNL A   1      48.498  26.017  22.704  1.00  0.00    -0.237 OA
ATOM     73  O   UNL A   1      47.484  28.204  22.237  1.00  0.00    -0.744 OA
ENDBRANCH  67  70
ENDBRANCH  49  63
BRANCH  50  74
ATOM     74  C   UNL A   1      38.527  30.819  31.041  1.00  0.00     0.023 A 
ATOM     75  C   UNL A   1      38.385  30.535  32.413  1.00  0.00     0.012 A 
ATOM     76  C   UNL A   1      37.485  31.482  30.364  1.00  0.00     0.148 A 
ATOM     77  C   UNL A   1      37.218  30.883  33.093  1.00  0.00     0.002 A 
ATOM     78  C   UNL A   1      36.348  31.874  31.060  1.00  0.00     0.091 A 
ATOM     79  F   UNL A   1      37.632  31.725  29.054  1.00  0.00    -0.205 F 
ATOM     80  C   UNL A   1      36.205  31.562  32.421  1.00  0.00     0.022 A 
BRANCH  78  81
ATOM     81  S   UNL A   1      35.054  32.865  30.304  1.00  0.00     0.127 S 
ATOM     82  O   UNL A   1      34.521  31.948  29.301  1.00  0.00    -0.237 OA
ATOM     83  O   UNL A   1      34.167  33.121  31.440  1.00  0.00    -0.237 OA
ATOM     84  O   UNL A   1      35.722  34.053  29.789  1.00  0.00    -0.744 OA
ENDBRANCH  78  81
ENDBRANCH  50  74
BRANCH  62  85
ATOM     85  C   UNL A   1      44.428  34.258  29.554  1.00  0.00     0.023 A 
ATOM     86  C   UNL A   1      45.206  34.537  30.694  1.00  0.00     0.012 A 
ATOM     87  C   UNL A   1      44.166  35.287  28.627  1.00  0.00     0.148 A 
ATOM     88  C   UNL A   1      45.695  35.823  30.922  1.00  0.00     0.002 A 
ATOM     89  C   UNL A   1      44.694  36.555  28.837  1.00  0.00     0.091 A 
ATOM     90  F   UNL A   1      43.406  35.006  27.558  1.00  0.00    -0.205 F 
ATOM     91  C   UNL A   1      45.451  36.828  29.988  1.00  0.00     0.022 A 
BRANCH  89  92
ATOM     92  S   UNL A   1      44.508  37.882  27.640  1.00  0.00     0.127 S 
ATOM     93  O   UNL A   1      44.668  39.066  28.480  1.00  0.00    -0.237 OA
ATOM     94  O   UNL A   1      45.619  37.632  26.720  1.00  0.00    -0.237 OA
ATOM     95  O   UNL A   1      43.188  37.704  27.049  1.00  0.00    -0.744 OA
ENDBRANCH  89  92
ENDBRANCH  62  85
ENDBRANCH  36  37
ENDBRANCH  29  31
ENDBRANCH  28  29
ENDBRANCH  27  28
ENDBRANCH  26  27
ENDBRANCH   1  26
TORSDOF 20
ENDMDL
MODEL 3
REMARK VINA RESULT:     -10.3      2.047      7.893
REMARK SMILES C[C@]1(C(=O)NCc2ccc(C(=O)OCCOCCOC(=O)c3ccc(-c4c5nc(c(-c6cccc(S(=O)(=O)[O-])c6F)c6ccc([nH]6)c(-c6cccc(S(=O)(=O)[O-])c6F)c6nc(c(-c7cccc(S(=O)(=O)[O-])c7F)c7ccc4[nH]7)C=C6)C=C5)cc3)o2)CCC[NH2+]C1
REMARK SMILES IDX 16 1 15 2 14 3 13 4 11 5 12 6 10 7 7 8 8 9 85 10 9 11 6 12
REMARK SMILES IDX 5 13 3 14 4 15 2 17 1 18 86 19 90 20 87 21 89 22 88 23 17 26
REMARK SMILES IDX 18 27 19 28 20 29 21 30 22 31 23 32 84 33 24 34 83 35 25 36
REMARK SMILES IDX 26 37 27 38 77 39 28 40 82 41 76 42 78 43 29 44 81 45 75 46
REMARK SMILES IDX 74 47 30 49 62 50 42 51 61 52 43 53 46 54 60 55 79 56 44 57
REMARK SMILES IDX 45 58 59 60 80 61 47 62 31 63 32 64 40 65 33 66 35 67 41 68
REMARK SMILES IDX 34 69 36 70 37 71 38 72 39 73 63 74 64 75 72 76 65 77 67 78
REMARK SMILES IDX 73 79 66 80 68 81 69 82 70 83 71 84 48 85 49 86 57 87 50 88
REMARK SMILES IDX 52 89 58 90 51 91 53 92 54 93 55 94 56 95
REMARK H PARENT 5 16 89 24 89 25 78 48 46 59
REMARK Flexibility Score: inf
ROOT
ATOM      1  O   UNL A   1      38.287  21.697  25.496  1.00  0.00    -0.374 OA
ENDROOT
BRANCH   1   2
ATOM      2  C   UNL A   1      37.354  22.717  25.130  1.00  0.00     0.202 C 
BRANCH   2   3
ATOM      3  C   UNL A   1      36.683  22.484  23.773  1.00  0.00     0.261 C 
BRANCH   3   4
ATOM      4  O   UNL A   1      35.300  22.142  23.963  1.00  0.00    -0.457 OA
BRANCH   4   5
ATOM      5  C   UNL A   1      34.392  23.056  23.521  1.00  0.00     0.374 C 
ATOM      6  O   UNL A   1      34.550  23.793  22.554  1.00  0.00    -0.242 OA
BRANCH   5   7
ATOM      7  C   UNL A   1      33.179  22.934  24.297  1.00  0.00     0.211 A 
ATOM      8  C   UNL A   1      31.632  23.699  25.672  1.00  0.00     0.124 A 
ATOM      9  C   UNL A   1      31.178  22.478  25.217  1.00  0.00     0.048 A 
ATOM     10  O   UNL A   1      32.855  23.966  25.136  1.00  0.00    -0.452 OA
ATOM     11  C   UNL A   1      32.166  21.992  24.326  1.00  0.00     0.058 A 
BRANCH   8  12
ATOM     12  C   UNL A   1      31.014  24.749  26.522  1.00  0.00     0.191 C 
BRANCH  12  13
ATOM     13  N   UNL A   1      30.339  25.743  25.720  1.00  0.00    -0.348 N 
ATOM     14  C   UNL A   1      30.733  26.905  25.147  1.00  0.00     0.232 C 
ATOM     15  O   UNL A   1      29.984  27.311  24.244  1.00  0.00    -0.274 OA
ATOM     16  H   UNL A   1      29.392  25.530  25.554  1.00  0.00     0.163 HD
BRANCH  14  17
ATOM     17  C   UNL A   1      31.878  27.823  25.650  1.00  0.00     0.095 C 
ATOM     18  C   UNL A   1      31.609  27.971  27.167  1.00  0.00     0.028 C 
ATOM     19  C   UNL A   1      33.350  27.417  25.481  1.00  0.00     0.028 C 
ATOM     20  C   UNL A   1      31.711  29.217  24.980  1.00  0.00     0.277 C 
ATOM     21  C   UNL A   1      33.797  27.461  24.024  1.00  0.00     0.063 C 
ATOM     22  N   UNL A   1      32.161  29.242  23.578  1.00  0.00    -0.345 N 
ATOM     23  C   UNL A   1      33.560  28.848  23.438  1.00  0.00     0.260 C 
ATOM     24  H   UNL A   1      31.584  28.598  23.036  1.00  0.00     0.346 HD
ATOM     25  H   UNL A   1      32.071  30.199  23.238  1.00  0.00     0.346 HD
ENDBRANCH  14  17
ENDBRANCH  12  13
ENDBRANCH   8  12
ENDBRANCH   5   7
ENDBRANCH   4   5
ENDBRANCH   3   4
ENDBRANCH   2   3
ENDBRANCH   1   2
BRANCH   1  26
ATOM     26  C   UNL A   1      37.991  20.382  25.016  1.00  0.00     0.202 C 
BRANCH  26  27
ATOM     27  C   UNL A   1      38.977  19.302  25.475  1.00  0.00     0.261 C 
BRANCH  27  28
ATOM     28  O   UNL A   1      39.814  19.792  26.539  1.00  0.00    -0.460 OA
BRANCH  28  29
ATOM     29  C   UNL A   1      41.147  19.680  26.329  1.00  0.00     0.338 C 
ATOM     30  O   UNL A   1      41.746  18.707  25.902  1.00  0.00    -0.246 OA
BRANCH  29  31
ATOM     31  C   UNL A   1      41.788  20.998  26.524  1.00  0.00     0.060 A 
ATOM     32  C   UNL A   1      42.179  21.342  27.826  1.00  0.00     0.016 A 
ATOM     33  C   UNL A   1      41.983  21.892  25.469  1.00  0.00     0.016 A 
ATOM     34  C   UNL A   1      42.731  22.595  28.081  1.00  0.00     0.010 A 
ATOM     35  C   UNL A   1      42.532  23.152  25.730  1.00  0.00     0.010 A 
ATOM     36  C   UNL A   1      42.883  23.520  27.041  1.00  0.00    -0.014 A 
BRANCH  36  37
ATOM     37  C   UNL A   1      43.310  24.909  27.338  1.00  0.00     0.031 A 
ATOM     38  C   UNL A   1      42.325  25.865  27.952  1.00  0.00     0.074 A 
ATOM     39  C   UNL A   1      44.557  25.318  27.045  1.00  0.00     0.049 A 
ATOM     40  N   UNL A   1      42.481  27.125  28.263  1.00  0.00    -0.248 NA
ATOM     41  C   UNL A   1      40.986  25.333  28.249  1.00  0.00     0.031 C 
ATOM     42  C   UNL A   1      45.598  24.489  26.441  1.00  0.00     0.029 A 
ATOM     43  N   UNL A   1      45.149  26.548  27.193  1.00  0.00    -0.354 N 
ATOM     44  C   UNL A   1      41.257  27.545  28.768  1.00  0.00     0.074 A 
ATOM     45  C   UNL A   1      40.364  26.409  28.710  1.00  0.00     0.031 C 
ATOM     46  C   UNL A   1      46.694  25.241  26.242  1.00  0.00     0.029 A 
ATOM     47  C   UNL A   1      46.426  26.607  26.687  1.00  0.00     0.049 A 
ATOM     48  H   UNL A   1      44.702  27.314  27.621  1.00  0.00     0.167 HD
ATOM     49  C   UNL A   1      40.912  28.762  29.252  1.00  0.00     0.034 A 
ATOM     50  C   UNL A   1      47.275  27.649  26.580  1.00  0.00     0.034 A 
ATOM     51  C   UNL A   1      41.807  29.885  29.332  1.00  0.00     0.049 A 
ATOM     52  C   UNL A   1      46.864  28.995  27.118  1.00  0.00     0.074 A 
ATOM     53  C   UNL A   1      41.565  31.140  29.860  1.00  0.00     0.029 A 
ATOM     54  N   UNL A   1      43.111  29.892  28.862  1.00  0.00    -0.354 N 
ATOM     55  N   UNL A   1      45.749  29.339  27.714  1.00  0.00    -0.248 NA
ATOM     56  C   UNL A   1      47.841  30.088  26.997  1.00  0.00     0.031 C 
ATOM     57  C   UNL A   1      42.719  31.914  29.691  1.00  0.00     0.029 A 
ATOM     58  C   UNL A   1      43.685  31.133  29.077  1.00  0.00     0.049 A 
ATOM     59  H   UNL A   1      43.562  29.127  28.438  1.00  0.00     0.167 HD
ATOM     60  C   UNL A   1      45.904  30.675  28.075  1.00  0.00     0.074 A 
ATOM     61  C   UNL A   1      47.228  31.072  27.642  1.00  0.00     0.031 C 
ATOM     62  C   UNL A   1      45.025  31.499  28.696  1.00  0.00     0.034 A 
BRANCH  49  63
ATOM     63  C   UNL A   1      39.509  28.932  29.771  1.00  0.00     0.023 A 
ATOM     64  C   UNL A   1      39.202  28.529  31.086  1.00  0.00     0.012 A 
ATOM     65  C   UNL A   1      38.513  29.538  28.981  1.00  0.00     0.148 A 
ATOM     66  C   UNL A   1      37.917  28.699  31.598  1.00  0.00     0.002 A 
ATOM     67  C   UNL A   1      37.244  29.741  29.514  1.00  0.00     0.091 A 
ATOM     68  F   UNL A   1      38.818  29.891  27.725  1.00  0.00    -0.205 F 
ATOM     69  C   UNL A   1      36.942  29.314  30.817  1.00  0.00     0.022 A 
BRANCH  67  70
ATOM     70  S   UNL A   1      35.945  30.587  28.607  1.00  0.00     0.127 S 
ATOM     71  O   UNL A   1      36.716  31.525  27.793  1.00  0.00    -0.237 OA
ATOM     72  O   UNL A   1      35.328  29.493  27.856  1.00  0.00    -0.237 OA
ATOM     73  O   UNL A   1      35.083  31.189  29.615  1.00  0.00    -0.744 OA
ENDBRANCH  67  70
ENDBRANCH  49  63
BRANCH  50  74
ATOM     74  C   UNL A   1      48.624  27.446  25.980  1.00  0.00     0.023 A 
ATOM     75  C   UNL A   1      49.684  26.999  26.792  1.00  0.00     0.012 A 
ATOM     76  C   UNL A   1      48.854  27.665  24.608  1.00  0.00     0.148 A 
ATOM     77  C   UNL A   1      50.955  26.798  26.254  1.00  0.00     0.002 A 
ATOM     78  C   UNL A   1      50.109  27.410  24.067  1.00  0.00     0.091 A 
ATOM     79  F   UNL A   1      47.837  28.109  23.856  1.00  0.00    -0.205 F 
ATOM     80  C   UNL A   1      51.165  26.991  24.890  1.00  0.00     0.022 A 
BRANCH  78  81
ATOM     81  S   UNL A   1      50.431  27.508  22.302  1.00  0.00     0.127 S 
ATOM     82  O   UNL A   1      50.050  28.886  22.004  1.00  0.00    -0.237 OA
ATOM     83  O   UNL A   1      51.869  27.240  22.243  1.00  0.00    -0.237 OA
ATOM     84  O   UNL A   1      49.606  26.474  21.696  1.00  0.00    -0.744 OA
ENDBRANCH  78  81
ENDBRANCH  50  74
BRANCH  62  85
ATOM     85  C   UNL A   1      45.468  32.910  28.987  1.00  0.00     0.023 A 
ATOM     86  C   UNL A   1      46.214  33.183  30.150  1.00  0.00     0.012 A 
ATOM     87  C   UNL A   1      45.221  33.946  28.064  1.00  0.00     0.148 A 
ATOM     88  C   UNL A   1      46.686  34.470  30.404  1.00  0.00     0.002 A 
ATOM     89  C   UNL A   1      45.733  35.217  28.303  1.00  0.00     0.091 A 
ATOM     90  F   UNL A   1      44.492  33.671  26.973  1.00  0.00    -0.205 F 
ATOM     91  C   UNL A   1      46.457  35.483  29.476  1.00  0.00     0.022 A 
BRANCH  89  92
ATOM     92  S   UNL A   1      45.566  36.556  27.115  1.00  0.00     0.127 S 
ATOM     93  O   UNL A   1      46.252  37.649  27.801  1.00  0.00    -0.237 OA
ATOM     94  O   UNL A   1      46.274  36.028  25.948  1.00  0.00    -0.237 OA
ATOM     95  O   UNL A   1      44.134  36.738  26.918  1.00  0.00    -0.744 OA
ENDBRANCH  89  92
ENDBRANCH  62  85
ENDBRANCH  36  37
ENDBRANCH  29  31
ENDBRANCH  28  29
ENDBRANCH  27  28
ENDBRANCH  26  27
ENDBRANCH   1  26
TORSDOF 20
ENDMDL
