MODEL 1
REMARK VINA RESULT:     -11.9      0.000      0.000
REMARK SMILES NC(=O)c1ccc(Nc2ccc(C(=O)OCCOCCOC(=O)c3ccc(-c4c5nc(c(-c6cccc(S(=O)(=O)[O-])c6F)c6ccc([nH]6)c(-c6cccc(S(=O)(=O)[O-])c6F)c6nc(c(-c7cccc(S(=O)(=O)[O-])c7F)c7ccc4[nH]7)C=C6)C=C5)cc3)c(Cl)c2)nn1
REMARK SMILES IDX 18 1 17 2 16 3 15 4 13 5 14 6 12 7 9 8 10 9 89 10 11 11
REMARK SMILES IDX 87 12 88 13 8 14 7 16 4 17 5 18 91 19 6 20 90 21 2 22 1 23
REMARK SMILES IDX 3 26 19 27 20 28 21 29 22 30 23 31 24 32 25 33 86 34 26 35
REMARK SMILES IDX 85 36 27 37 28 38 29 39 79 40 30 41 84 42 78 43 80 44 31 45
REMARK SMILES IDX 83 46 77 47 76 48 32 50 64 51 44 52 63 53 45 54 48 55 62 56
REMARK SMILES IDX 81 57 46 58 47 59 61 61 82 62 49 63 33 64 34 65 42 66 35 67
REMARK SMILES IDX 37 68 43 69 36 70 38 71 39 72 40 73 41 74 65 75 66 76 74 77
REMARK SMILES IDX 67 78 69 79 75 80 68 81 70 82 71 83 72 84 73 85 50 86 51 87
REMARK SMILES IDX 59 88 52 89 54 90 60 91 53 92 55 93 56 94 57 95 58 96
REMARK H PARENT 8 15 1 24 1 25 80 49 48 60
REMARK Flexibility Score: inf
ROOT
ATOM      1  O   UNL A   1      35.003  21.297  24.456  1.00  0.00    -0.374 OA
ENDROOT
BRANCH   1   2
ATOM      2  C   UNL A   1      33.749  21.648  25.048  1.00  0.00     0.202 C 
BRANCH   2   3
ATOM      3  C   UNL A   1      32.840  22.532  24.193  1.00  0.00     0.261 C 
BRANCH   3   4
ATOM      4  O   UNL A   1      33.490  23.779  23.896  1.00  0.00    -0.460 OA
BRANCH   4   5
ATOM      5  C   UNL A   1      33.334  24.764  24.805  1.00  0.00     0.339 C 
ATOM      6  O   UNL A   1      34.103  25.062  25.711  1.00  0.00    -0.246 OA
BRANCH   5   7
ATOM      7  C   UNL A   1      32.181  25.614  24.450  1.00  0.00     0.078 A 
ATOM      8  C   UNL A   1      29.824  27.035  23.819  1.00  0.00     0.041 A 
ATOM      9  C   UNL A   1      29.817  26.062  24.822  1.00  0.00     0.027 A 
ATOM     10  C   UNL A   1      31.039  27.321  23.176  1.00  0.00     0.047 A 
ATOM     11  C   UNL A   1      30.978  25.345  25.122  1.00  0.00     0.019 A 
ATOM     12  C   UNL A   1      32.216  26.624  23.488  1.00  0.00     0.057 A 
ATOM     13  Cl  UNL A   1      33.637  27.040  22.602  1.00  0.00    -0.083 Cl
BRANCH   8  14
ATOM     14  N   UNL A   1      28.665  27.732  23.440  1.00  0.00    -0.339 N 
ATOM     15  H   UNL A   1      27.815  27.283  23.650  1.00  0.00     0.168 HD
BRANCH  14  16
ATOM     16  C   UNL A   1      28.546  28.981  22.805  1.00  0.00     0.153 A 
ATOM     17  C   UNL A   1      28.173  31.391  21.545  1.00  0.00     0.150 A 
ATOM     18  C   UNL A   1      27.571  31.190  22.774  1.00  0.00     0.040 A 
ATOM     19  N   UNL A   1      28.955  30.451  20.980  1.00  0.00    -0.143 NA
ATOM     20  C   UNL A   1      27.764  29.962  23.410  1.00  0.00     0.051 A 
ATOM     21  N   UNL A   1      29.157  29.248  21.632  1.00  0.00    -0.132 NA
BRANCH  17  22
ATOM     22  C   UNL A   1      27.971  32.647  20.771  1.00  0.00     0.269 C 
ATOM     23  N   UNL A   1      28.252  32.606  19.427  1.00  0.00    -0.364 N 
ATOM     24  H   UNL A   1      28.134  33.413  18.875  1.00  0.00     0.160 HD
ATOM     25  H   UNL A   1      28.573  31.771  19.016  1.00  0.00     0.160 HD
ATOM     26  O   UNL A   1      27.572  33.683  21.284  1.00  0.00    -0.268 OA
ENDBRANCH  17  22
ENDBRANCH  14  16
ENDBRANCH   8  14
ENDBRANCH   5   7
ENDBRANCH   4   5
ENDBRANCH   3   4
ENDBRANCH   2   3
ENDBRANCH   1   2
BRANCH   1  27
ATOM     27  C   UNL A   1      35.747  20.253  25.086  1.00  0.00     0.202 C 
BRANCH  27  28
ATOM     28  C   UNL A   1      37.255  20.226  24.811  1.00  0.00     0.261 C 
BRANCH  28  29
ATOM     29  O   UNL A   1      37.916  21.421  25.262  1.00  0.00    -0.460 OA
BRANCH  29  30
ATOM     30  C   UNL A   1      39.082  21.205  25.914  1.00  0.00     0.338 C 
ATOM     31  O   UNL A   1      39.805  20.220  25.821  1.00  0.00    -0.246 OA
BRANCH  30  32
ATOM     32  C   UNL A   1      39.493  22.410  26.658  1.00  0.00     0.060 A 
ATOM     33  C   UNL A   1      38.918  23.626  26.269  1.00  0.00     0.016 A 
ATOM     34  C   UNL A   1      40.481  22.377  27.646  1.00  0.00     0.016 A 
ATOM     35  C   UNL A   1      39.381  24.822  26.810  1.00  0.00     0.010 A 
ATOM     36  C   UNL A   1      40.947  23.582  28.188  1.00  0.00     0.010 A 
ATOM     37  C   UNL A   1      40.434  24.811  27.735  1.00  0.00    -0.014 A 
BRANCH  37  38
ATOM     38  C   UNL A   1      41.087  26.096  28.087  1.00  0.00     0.031 A 
ATOM     39  C   UNL A   1      42.495  26.355  27.621  1.00  0.00     0.074 A 
ATOM     40  C   UNL A   1      40.418  27.045  28.767  1.00  0.00     0.049 A 
ATOM     41  N   UNL A   1      43.225  27.433  27.746  1.00  0.00    -0.248 NA
ATOM     42  C   UNL A   1      43.173  25.252  26.920  1.00  0.00     0.031 C 
ATOM     43  C   UNL A   1      39.056  26.913  29.281  1.00  0.00     0.029 A 
ATOM     44  N   UNL A   1      40.802  28.306  29.147  1.00  0.00    -0.354 N 
ATOM     45  C   UNL A   1      44.449  27.136  27.159  1.00  0.00     0.074 A 
ATOM     46  C   UNL A   1      44.374  25.766  26.698  1.00  0.00     0.031 C 
ATOM     47  C   UNL A   1      38.722  28.047  29.924  1.00  0.00     0.029 A 
ATOM     48  C   UNL A   1      39.847  28.978  29.872  1.00  0.00     0.049 A 
ATOM     49  H   UNL A   1      41.678  28.694  28.921  1.00  0.00     0.167 HD
ATOM     50  C   UNL A   1      45.531  27.932  26.995  1.00  0.00     0.034 A 
ATOM     51  C   UNL A   1      39.878  30.204  30.431  1.00  0.00     0.034 A 
ATOM     52  C   UNL A   1      45.599  29.301  27.432  1.00  0.00     0.049 A 
ATOM     53  C   UNL A   1      41.092  31.075  30.226  1.00  0.00     0.074 A 
ATOM     54  C   UNL A   1      46.635  30.205  27.277  1.00  0.00     0.029 A 
ATOM     55  N   UNL A   1      44.592  29.964  28.118  1.00  0.00    -0.354 N 
ATOM     56  N   UNL A   1      42.189  30.824  29.554  1.00  0.00    -0.248 NA
ATOM     57  C   UNL A   1      41.050  32.421  30.821  1.00  0.00     0.031 C 
ATOM     58  C   UNL A   1      46.262  31.409  27.885  1.00  0.00     0.029 A 
ATOM     59  C   UNL A   1      44.983  31.262  28.397  1.00  0.00     0.049 A 
ATOM     60  H   UNL A   1      43.727  29.568  28.370  1.00  0.00     0.167 HD
ATOM     61  C   UNL A   1      42.949  31.987  29.610  1.00  0.00     0.074 A 
ATOM     62  C   UNL A   1      42.175  32.953  30.363  1.00  0.00     0.031 C 
ATOM     63  C   UNL A   1      44.180  32.232  29.098  1.00  0.00     0.034 A 
BRANCH  50  64
ATOM     64  C   UNL A   1      46.722  27.353  26.280  1.00  0.00     0.023 A 
ATOM     65  C   UNL A   1      46.820  27.480  24.878  1.00  0.00     0.012 A 
ATOM     66  C   UNL A   1      47.765  26.729  26.991  1.00  0.00     0.148 A 
ATOM     67  C   UNL A   1      47.922  26.968  24.194  1.00  0.00     0.002 A 
ATOM     68  C   UNL A   1      48.880  26.259  26.307  1.00  0.00     0.091 A 
ATOM     69  F   UNL A   1      47.642  26.596  28.319  1.00  0.00    -0.205 F 
ATOM     70  C   UNL A   1      48.955  26.367  24.909  1.00  0.00     0.022 A 
BRANCH  68  71
ATOM     71  S   UNL A   1      50.296  25.539  27.145  1.00  0.00     0.127 S 
ATOM     72  O   UNL A   1      49.733  24.294  27.662  1.00  0.00    -0.237 OA
ATOM     73  O   UNL A   1      51.250  25.367  26.048  1.00  0.00    -0.237 OA
ATOM     74  O   UNL A   1      50.701  26.509  28.152  1.00  0.00    -0.744 OA
ENDBRANCH  68  71
ENDBRANCH  50  64
BRANCH  51  75
ATOM     75  C   UNL A   1      38.697  30.708  31.186  1.00  0.00     0.023 A 
ATOM     76  C   UNL A   1      38.625  30.510  32.579  1.00  0.00     0.012 A 
ATOM     77  C   UNL A   1      37.651  31.390  30.534  1.00  0.00     0.148 A 
ATOM     78  C   UNL A   1      37.519  30.953  33.303  1.00  0.00     0.002 A 
ATOM     79  C   UNL A   1      36.578  31.876  31.270  1.00  0.00     0.091 A 
ATOM     80  F   UNL A   1      37.730  31.550  29.206  1.00  0.00    -0.205 F 
ATOM     81  C   UNL A   1      36.501  31.645  32.652  1.00  0.00     0.022 A 
BRANCH  79  82
ATOM     82  S   UNL A   1      35.286  32.884  30.533  1.00  0.00     0.127 S 
ATOM     83  O   UNL A   1      34.676  31.949  29.592  1.00  0.00    -0.237 OA
ATOM     84  O   UNL A   1      34.460  33.215  31.697  1.00  0.00    -0.237 OA
ATOM     85  O   UNL A   1      35.970  34.026  29.941  1.00  0.00    -0.744 OA
ENDBRANCH  79  82
ENDBRANCH  51  75
BRANCH  63  86
ATOM     86  C   UNL A   1      44.758  33.610  29.296  1.00  0.00     0.023 A 
ATOM     87  C   UNL A   1      45.429  33.925  30.496  1.00  0.00     0.012 A 
ATOM     88  C   UNL A   1      44.685  34.578  28.273  1.00  0.00     0.148 A 
ATOM     89  C   UNL A   1      45.976  35.193  30.691  1.00  0.00     0.002 A 
ATOM     90  C   UNL A   1      45.276  35.823  28.456  1.00  0.00     0.091 A 
ATOM     91  F   UNL A   1      44.027  34.271  27.146  1.00  0.00    -0.205 F 
ATOM     92  C   UNL A   1      45.910  36.137  29.669  1.00  0.00     0.022 A 
BRANCH  90  93
ATOM     93  S   UNL A   1      45.318  37.058  27.153  1.00  0.00     0.127 S 
ATOM     94  O   UNL A   1      46.002  36.338  26.080  1.00  0.00    -0.237 OA
ATOM     95  O   UNL A   1      43.897  37.309  26.908  1.00  0.00    -0.237 OA
ATOM     96  O   UNL A   1      46.039  38.195  27.710  1.00  0.00    -0.744 OA
ENDBRANCH  90  93
ENDBRANCH  63  86
ENDBRANCH  37  38
ENDBRANCH  30  32
ENDBRANCH  29  30
ENDBRANCH  28  29
ENDBRANCH  27  28
ENDBRANCH   1  27
TORSDOF 20
ENDMDL
MODEL 2
REMARK VINA RESULT:     -11.3      1.786      2.048
REMARK SMILES NC(=O)c1ccc(Nc2ccc(C(=O)OCCOCCOC(=O)c3ccc(-c4c5nc(c(-c6cccc(S(=O)(=O)[O-])c6F)c6ccc([nH]6)c(-c6cccc(S(=O)(=O)[O-])c6F)c6nc(c(-c7cccc(S(=O)(=O)[O-])c7F)c7ccc4[nH]7)C=C6)C=C5)cc3)c(Cl)c2)nn1
REMARK SMILES IDX 18 1 17 2 16 3 15 4 13 5 14 6 12 7 9 8 10 9 89 10 11 11
REMARK SMILES IDX 87 12 88 13 8 14 7 16 4 17 5 18 91 19 6 20 90 21 2 22 1 23
REMARK SMILES IDX 3 26 19 27 20 28 21 29 22 30 23 31 24 32 25 33 86 34 26 35
REMARK SMILES IDX 85 36 27 37 28 38 29 39 79 40 30 41 84 42 78 43 80 44 31 45
REMARK SMILES IDX 83 46 77 47 76 48 32 50 64 51 44 52 63 53 45 54 48 55 62 56
REMARK SMILES IDX 81 57 46 58 47 59 61 61 82 62 49 63 33 64 34 65 42 66 35 67
REMARK SMILES IDX 37 68 43 69 36 70 38 71 39 72 40 73 41 74 65 75 66 76 74 77
REMARK SMILES IDX 67 78 69 79 75 80 68 81 70 82 71 83 72 84 73 85 50 86 51 87
REMARK SMILES IDX 59 88 52 89 54 90 60 91 53 92 55 93 56 94 57 95 58 96
REMARK H PARENT 8 15 1 24 1 25 80 49 48 60
REMARK Flexibility Score: inf
ROOT
ATOM      1  O   UNL A   1      35.864  21.470  24.135  1.00  0.00    -0.374 OA
ENDROOT
BRANCH   1   2
ATOM      2  C   UNL A   1      35.123  22.531  24.744  1.00  0.00     0.202 C 
BRANCH   2   3
ATOM      3  C   UNL A   1      34.010  23.136  23.886  1.00  0.00     0.261 C 
BRANCH   3   4
ATOM      4  O   UNL A   1      34.071  24.571  23.925  1.00  0.00    -0.460 OA
BRANCH   4   5
ATOM      5  C   UNL A   1      33.548  25.160  25.021  1.00  0.00     0.339 C 
ATOM      6  O   UNL A   1      34.047  25.216  26.139  1.00  0.00    -0.246 OA
BRANCH   5   7
ATOM      7  C   UNL A   1      32.349  25.942  24.663  1.00  0.00     0.078 A 
ATOM      8  C   UNL A   1      29.934  27.211  23.934  1.00  0.00     0.041 A 
ATOM      9  C   UNL A   1      29.915  25.989  24.613  1.00  0.00     0.027 A 
ATOM     10  C   UNL A   1      31.177  27.810  23.674  1.00  0.00     0.047 A 
ATOM     11  C   UNL A   1      31.110  25.351  24.957  1.00  0.00     0.019 A 
ATOM     12  C   UNL A   1      32.381  27.189  24.039  1.00  0.00     0.057 A 
ATOM     13  Cl  UNL A   1      33.845  28.007  23.630  1.00  0.00    -0.083 Cl
BRANCH   8  14
ATOM     14  N   UNL A   1      28.759  27.853  23.512  1.00  0.00    -0.339 N 
ATOM     15  H   UNL A   1      27.922  27.375  23.709  1.00  0.00     0.168 HD
BRANCH  14  16
ATOM     16  C   UNL A   1      28.607  29.083  22.847  1.00  0.00     0.153 A 
ATOM     17  C   UNL A   1      28.169  31.464  21.554  1.00  0.00     0.150 A 
ATOM     18  C   UNL A   1      27.765  31.346  22.873  1.00  0.00     0.040 A 
ATOM     19  N   UNL A   1      28.795  30.458  20.915  1.00  0.00    -0.143 NA
ATOM     20  C   UNL A   1      27.991  30.132  23.524  1.00  0.00     0.051 A 
ATOM     21  N   UNL A   1      29.033  29.269  21.580  1.00  0.00    -0.132 NA
BRANCH  17  22
ATOM     22  C   UNL A   1      27.914  32.702  20.766  1.00  0.00     0.269 C 
ATOM     23  N   UNL A   1      28.105  32.629  19.408  1.00  0.00    -0.364 N 
ATOM     24  H   UNL A   1      27.949  33.423  18.847  1.00  0.00     0.160 HD
ATOM     25  H   UNL A   1      28.399  31.785  18.997  1.00  0.00     0.160 HD
ATOM     26  O   UNL A   1      27.547  33.750  21.281  1.00  0.00    -0.268 OA
ENDBRANCH  17  22
ENDBRANCH  14  16
ENDBRANCH   8  14
ENDBRANCH   5   7
ENDBRANCH   4   5
ENDBRANCH   3   4
ENDBRANCH   2   3
ENDBRANCH   1   2
BRANCH   1  27
ATOM     27  C   UNL A   1      36.355  20.445  25.001  1.00  0.00     0.202 C 
BRANCH  27  28
ATOM     28  C   UNL A   1      37.879  20.337  25.135  1.00  0.00     0.261 C 
BRANCH  28  29
ATOM     29  O   UNL A   1      38.477  21.561  25.592  1.00  0.00    -0.460 OA
BRANCH  29  30
ATOM     30  C   UNL A   1      39.668  21.405  26.215  1.00  0.00     0.338 C 
ATOM     31  O   UNL A   1      40.444  20.466  26.093  1.00  0.00    -0.246 OA
BRANCH  30  32
ATOM     32  C   UNL A   1      40.025  22.622  26.968  1.00  0.00     0.060 A 
ATOM     33  C   UNL A   1      39.288  23.780  26.694  1.00  0.00     0.016 A 
ATOM     34  C   UNL A   1      41.108  22.664  27.851  1.00  0.00     0.016 A 
ATOM     35  C   UNL A   1      39.676  25.001  27.239  1.00  0.00     0.010 A 
ATOM     36  C   UNL A   1      41.498  23.893  28.398  1.00  0.00     0.010 A 
ATOM     37  C   UNL A   1      40.814  25.073  28.054  1.00  0.00    -0.014 A 
BRANCH  37  38
ATOM     38  C   UNL A   1      41.361  26.410  28.397  1.00  0.00     0.031 A 
ATOM     39  C   UNL A   1      42.782  26.738  28.022  1.00  0.00     0.074 A 
ATOM     40  C   UNL A   1      40.588  27.340  28.986  1.00  0.00     0.049 A 
ATOM     41  N   UNL A   1      43.435  27.864  28.154  1.00  0.00    -0.248 NA
ATOM     42  C   UNL A   1      43.575  25.654  27.419  1.00  0.00     0.031 C 
ATOM     43  C   UNL A   1      39.202  27.143  29.406  1.00  0.00     0.029 A 
ATOM     44  N   UNL A   1      40.867  28.636  29.338  1.00  0.00    -0.354 N 
ATOM     45  C   UNL A   1      44.714  27.622  27.669  1.00  0.00     0.074 A 
ATOM     46  C   UNL A   1      44.756  26.234  27.262  1.00  0.00     0.031 C 
ATOM     47  C   UNL A   1      38.754  28.276  29.974  1.00  0.00     0.029 A 
ATOM     48  C   UNL A   1      39.823  29.274  29.964  1.00  0.00     0.049 A 
ATOM     49  H   UNL A   1      41.733  29.069  29.159  1.00  0.00     0.167 HD
ATOM     50  C   UNL A   1      45.757  28.478  27.549  1.00  0.00     0.034 A 
ATOM     51  C   UNL A   1      39.739  30.520  30.471  1.00  0.00     0.034 A 
ATOM     52  C   UNL A   1      45.710  29.864  27.931  1.00  0.00     0.049 A 
ATOM     53  C   UNL A   1      40.910  31.457  30.317  1.00  0.00     0.074 A 
ATOM     54  C   UNL A   1      46.699  30.824  27.812  1.00  0.00     0.029 A 
ATOM     55  N   UNL A   1      44.617  30.488  28.514  1.00  0.00    -0.354 N 
ATOM     56  N   UNL A   1      42.067  31.250  29.736  1.00  0.00    -0.248 NA
ATOM     57  C   UNL A   1      40.744  32.819  30.849  1.00  0.00     0.031 C 
ATOM     58  C   UNL A   1      46.211  32.025  28.340  1.00  0.00     0.029 A 
ATOM     59  C   UNL A   1      44.908  31.818  28.765  1.00  0.00     0.049 A 
ATOM     60  H   UNL A   1      43.761  30.049  28.721  1.00  0.00     0.167 HD
ATOM     61  C   UNL A   1      42.750  32.460  29.797  1.00  0.00     0.074 A 
ATOM     62  C   UNL A   1      41.866  33.403  30.451  1.00  0.00     0.031 C 
ATOM     63  C   UNL A   1      43.999  32.762  29.365  1.00  0.00     0.034 A 
BRANCH  50  64
ATOM     64  C   UNL A   1      47.030  27.948  26.946  1.00  0.00     0.023 A 
ATOM     65  C   UNL A   1      48.043  27.448  27.791  1.00  0.00     0.012 A 
ATOM     66  C   UNL A   1      47.207  27.897  25.551  1.00  0.00     0.148 A 
ATOM     67  C   UNL A   1      49.224  26.934  27.256  1.00  0.00     0.002 A 
ATOM     68  C   UNL A   1      48.369  27.344  25.023  1.00  0.00     0.091 A 
ATOM     69  F   UNL A   1      46.244  28.399  24.765  1.00  0.00    -0.205 F 
ATOM     70  C   UNL A   1      49.383  26.874  25.874  1.00  0.00     0.022 A 
BRANCH  68  71
ATOM     71  S   UNL A   1      48.633  27.152  23.257  1.00  0.00     0.127 S 
ATOM     72  O   UNL A   1      48.114  25.805  23.025  1.00  0.00    -0.237 OA
ATOM     73  O   UNL A   1      47.809  28.227  22.703  1.00  0.00    -0.237 OA
ATOM     74  O   UNL A   1      50.064  27.316  23.046  1.00  0.00    -0.744 OA
ENDBRANCH  68  71
ENDBRANCH  50  64
BRANCH  51  75
ATOM     75  C   UNL A   1      38.477  30.977  31.117  1.00  0.00     0.023 A 
ATOM     76  C   UNL A   1      38.313  30.828  32.508  1.00  0.00     0.012 A 
ATOM     77  C   UNL A   1      37.444  31.568  30.363  1.00  0.00     0.148 A 
ATOM     78  C   UNL A   1      37.131  31.228  33.132  1.00  0.00     0.002 A 
ATOM     79  C   UNL A   1      36.292  32.014  30.999  1.00  0.00     0.091 A 
ATOM     80  F   UNL A   1      37.612  31.683  29.039  1.00  0.00    -0.205 F 
ATOM     81  C   UNL A   1      36.126  31.830  32.381  1.00  0.00     0.022 A 
BRANCH  79  82
ATOM     82  S   UNL A   1      35.001  32.911  30.130  1.00  0.00     0.127 S 
ATOM     83  O   UNL A   1      34.552  31.921  29.154  1.00  0.00    -0.237 OA
ATOM     84  O   UNL A   1      34.049  33.191  31.207  1.00  0.00    -0.237 OA
ATOM     85  O   UNL A   1      35.648  34.095  29.582  1.00  0.00    -0.744 OA
ENDBRANCH  79  82
ENDBRANCH  51  75
BRANCH  63  86
ATOM     86  C   UNL A   1      44.477  34.180  29.545  1.00  0.00     0.023 A 
ATOM     87  C   UNL A   1      44.272  35.126  28.520  1.00  0.00     0.012 A 
ATOM     88  C   UNL A   1      45.081  34.590  30.751  1.00  0.00     0.148 A 
ATOM     89  C   UNL A   1      44.701  36.444  28.675  1.00  0.00     0.002 A 
ATOM     90  C   UNL A   1      45.461  35.918  30.916  1.00  0.00     0.091 A 
ATOM     91  F   UNL A   1      45.287  33.676  31.710  1.00  0.00    -0.205 F 
ATOM     92  C   UNL A   1      45.284  36.843  29.875  1.00  0.00     0.022 A 
BRANCH  90  93
ATOM     93  S   UNL A   1      46.130  36.530  32.467  1.00  0.00     0.127 S 
ATOM     94  O   UNL A   1      44.949  36.517  33.329  1.00  0.00    -0.237 OA
ATOM     95  O   UNL A   1      47.138  35.522  32.798  1.00  0.00    -0.237 OA
ATOM     96  O   UNL A   1      46.678  37.847  32.167  1.00  0.00    -0.744 OA
ENDBRANCH  90  93
ENDBRANCH  63  86
ENDBRANCH  37  38
ENDBRANCH  30  32
ENDBRANCH  29  30
ENDBRANCH  28  29
ENDBRANCH  27  28
ENDBRANCH   1  27
TORSDOF 20
ENDMDL
MODEL 3
REMARK VINA RESULT:     -11.1      1.940      7.787
REMARK SMILES NC(=O)c1ccc(Nc2ccc(C(=O)OCCOCCOC(=O)c3ccc(-c4c5nc(c(-c6cccc(S(=O)(=O)[O-])c6F)c6ccc([nH]6)c(-c6cccc(S(=O)(=O)[O-])c6F)c6nc(c(-c7cccc(S(=O)(=O)[O-])c7F)c7ccc4[nH]7)C=C6)C=C5)cc3)c(Cl)c2)nn1
REMARK SMILES IDX 18 1 17 2 16 3 15 4 13 5 14 6 12 7 9 8 10 9 89 10 11 11
REMARK SMILES IDX 87 12 88 13 8 14 7 16 4 17 5 18 91 19 6 20 90 21 2 22 1 23
REMARK SMILES IDX 3 26 19 27 20 28 21 29 22 30 23 31 24 32 25 33 86 34 26 35
REMARK SMILES IDX 85 36 27 37 28 38 29 39 79 40 30 41 84 42 78 43 80 44 31 45
REMARK SMILES IDX 83 46 77 47 76 48 32 50 64 51 44 52 63 53 45 54 48 55 62 56
REMARK SMILES IDX 81 57 46 58 47 59 61 61 82 62 49 63 33 64 34 65 42 66 35 67
REMARK SMILES IDX 37 68 43 69 36 70 38 71 39 72 40 73 41 74 65 75 66 76 74 77
REMARK SMILES IDX 67 78 69 79 75 80 68 81 70 82 71 83 72 84 73 85 50 86 51 87
REMARK SMILES IDX 59 88 52 89 54 90 60 91 53 92 55 93 56 94 57 95 58 96
REMARK H PARENT 8 15 1 24 1 25 80 49 48 60
REMARK Flexibility Score: inf
ROOT
ATOM      1  O   UNL A   1      37.068  20.610  24.686  1.00  0.00    -0.374 OA
ENDROOT
BRANCH   1   2
ATOM      2  C   UNL A   1      35.713  20.670  25.143  1.00  0.00     0.202 C 
BRANCH   2   3
ATOM      3  C   UNL A   1      35.435  21.678  26.259  1.00  0.00     0.261 C 
BRANCH   3   4
ATOM      4  O   UNL A   1      34.096  21.519  26.756  1.00  0.00    -0.460 OA
BRANCH   4   5
ATOM      5  C   UNL A   1      33.104  21.675  25.854  1.00  0.00     0.339 C 
ATOM      6  O   UNL A   1      32.271  20.841  25.521  1.00  0.00    -0.246 OA
BRANCH   5   7
ATOM      7  C   UNL A   1      32.999  23.089  25.444  1.00  0.00     0.078 A 
ATOM      8  C   UNL A   1      32.605  25.818  24.836  1.00  0.00     0.041 A 
ATOM      9  C   UNL A   1      32.438  25.352  26.143  1.00  0.00     0.027 A 
ATOM     10  C   UNL A   1      33.023  24.906  23.852  1.00  0.00     0.047 A 
ATOM     11  C   UNL A   1      32.613  23.998  26.442  1.00  0.00     0.019 A 
ATOM     12  C   UNL A   1      33.227  23.551  24.148  1.00  0.00     0.057 A 
ATOM     13  Cl  UNL A   1      33.703  22.523  22.846  1.00  0.00    -0.083 Cl
BRANCH   8  14
ATOM     14  N   UNL A   1      32.375  27.156  24.479  1.00  0.00    -0.339 N 
ATOM     15  H   UNL A   1      33.155  27.752  24.550  1.00  0.00     0.168 HD
BRANCH  14  16
ATOM     16  C   UNL A   1      31.189  27.767  24.035  1.00  0.00     0.153 A 
ATOM     17  C   UNL A   1      28.847  28.999  23.304  1.00  0.00     0.150 A 
ATOM     18  C   UNL A   1      29.893  29.785  23.753  1.00  0.00     0.040 A 
ATOM     19  N   UNL A   1      28.968  27.663  23.188  1.00  0.00    -0.143 NA
ATOM     20  C   UNL A   1      31.081  29.153  24.124  1.00  0.00     0.051 A 
ATOM     21  N   UNL A   1      30.159  27.052  23.537  1.00  0.00    -0.132 NA
BRANCH  17  22
ATOM     22  C   UNL A   1      27.527  29.586  22.945  1.00  0.00     0.269 C 
ATOM     23  N   UNL A   1      26.457  28.726  22.883  1.00  0.00    -0.364 N 
ATOM     24  H   UNL A   1      25.564  29.069  22.649  1.00  0.00     0.160 HD
ATOM     25  H   UNL A   1      26.583  27.769  23.071  1.00  0.00     0.160 HD
ATOM     26  O   UNL A   1      27.373  30.777  22.712  1.00  0.00    -0.268 OA
ENDBRANCH  17  22
ENDBRANCH  14  16
ENDBRANCH   8  14
ENDBRANCH   5   7
ENDBRANCH   4   5
ENDBRANCH   3   4
ENDBRANCH   2   3
ENDBRANCH   1   2
BRANCH   1  27
ATOM     27  C   UNL A   1      37.710  19.335  24.730  1.00  0.00     0.202 C 
BRANCH  27  28
ATOM     28  C   UNL A   1      39.037  19.265  25.496  1.00  0.00     0.261 C 
BRANCH  28  29
ATOM     29  O   UNL A   1      39.523  20.565  25.871  1.00  0.00    -0.460 OA
BRANCH  29  30
ATOM     30  C   UNL A   1      40.476  20.551  26.832  1.00  0.00     0.338 C 
ATOM     31  O   UNL A   1      41.139  19.588  27.197  1.00  0.00    -0.246 OA
BRANCH  30  32
ATOM     32  C   UNL A   1      40.760  21.920  27.303  1.00  0.00     0.060 A 
ATOM     33  C   UNL A   1      40.180  22.973  26.586  1.00  0.00     0.016 A 
ATOM     34  C   UNL A   1      41.640  22.180  28.356  1.00  0.00     0.016 A 
ATOM     35  C   UNL A   1      40.537  24.289  26.867  1.00  0.00     0.010 A 
ATOM     36  C   UNL A   1      41.999  23.505  28.637  1.00  0.00     0.010 A 
ATOM     37  C   UNL A   1      41.488  24.559  27.860  1.00  0.00    -0.014 A 
BRANCH  37  38
ATOM     38  C   UNL A   1      42.050  25.930  27.955  1.00  0.00     0.031 A 
ATOM     39  C   UNL A   1      41.226  27.017  28.594  1.00  0.00     0.074 A 
ATOM     40  C   UNL A   1      43.298  26.194  27.529  1.00  0.00     0.049 A 
ATOM     41  N   UNL A   1      41.548  28.258  28.851  1.00  0.00    -0.248 NA
ATOM     42  C   UNL A   1      39.856  26.658  28.995  1.00  0.00     0.031 C 
ATOM     43  C   UNL A   1      44.192  25.232  26.887  1.00  0.00     0.029 A 
ATOM     44  N   UNL A   1      44.025  27.357  27.569  1.00  0.00    -0.354 N 
ATOM     45  C   UNL A   1      40.421  28.833  29.426  1.00  0.00     0.074 A 
ATOM     46  C   UNL A   1      39.396  27.812  29.458  1.00  0.00     0.031 C 
ATOM     47  C   UNL A   1      45.347  25.850  26.578  1.00  0.00     0.029 A 
ATOM     48  C   UNL A   1      45.269  27.249  26.994  1.00  0.00     0.049 A 
ATOM     49  H   UNL A   1      43.689  28.190  27.971  1.00  0.00     0.167 HD
ATOM     50  C   UNL A   1      40.255  30.088  29.906  1.00  0.00     0.034 A 
ATOM     51  C   UNL A   1      46.235  28.174  26.824  1.00  0.00     0.034 A 
ATOM     52  C   UNL A   1      41.280  31.097  29.896  1.00  0.00     0.049 A 
ATOM     53  C   UNL A   1      46.030  29.562  27.375  1.00  0.00     0.074 A 
ATOM     54  C   UNL A   1      41.225  32.386  30.395  1.00  0.00     0.029 A 
ATOM     55  N   UNL A   1      42.546  30.935  29.352  1.00  0.00    -0.354 N 
ATOM     56  N   UNL A   1      45.006  30.050  28.034  1.00  0.00    -0.248 NA
ATOM     57  C   UNL A   1      47.136  30.515  27.199  1.00  0.00     0.031 C 
ATOM     58  C   UNL A   1      42.451  33.010  30.137  1.00  0.00     0.029 A 
ATOM     59  C   UNL A   1      43.279  32.100  29.499  1.00  0.00     0.049 A 
ATOM     60  H   UNL A   1      42.874  30.112  28.923  1.00  0.00     0.167 HD
ATOM     61  C   UNL A   1      45.359  31.348  28.385  1.00  0.00     0.074 A 
ATOM     62  C   UNL A   1      46.702  31.563  27.885  1.00  0.00     0.031 C 
ATOM     63  C   UNL A   1      44.635  32.283  29.048  1.00  0.00     0.034 A 
BRANCH  50  64
ATOM     64  C   UNL A   1      38.923  30.431  30.518  1.00  0.00     0.023 A 
ATOM     65  C   UNL A   1      38.709  30.196  31.892  1.00  0.00     0.012 A 
ATOM     66  C   UNL A   1      37.904  31.028  29.752  1.00  0.00     0.148 A 
ATOM     67  C   UNL A   1      37.490  30.523  32.487  1.00  0.00     0.002 A 
ATOM     68  C   UNL A   1      36.707  31.390  30.361  1.00  0.00     0.091 A 
ATOM     69  F   UNL A   1      38.117  31.221  28.443  1.00  0.00    -0.205 F 
ATOM     70  C   UNL A   1      36.495  31.127  31.724  1.00  0.00     0.022 A 
BRANCH  68  71
ATOM     71  S   UNL A   1      35.394  32.243  29.481  1.00  0.00     0.127 S 
ATOM     72  O   UNL A   1      36.088  33.433  28.995  1.00  0.00    -0.237 OA
ATOM     73  O   UNL A   1      35.040  31.276  28.441  1.00  0.00    -0.237 OA
ATOM     74  O   UNL A   1      34.346  32.486  30.463  1.00  0.00    -0.744 OA
ENDBRANCH  68  71
ENDBRANCH  50  64
BRANCH  51  75
ATOM     75  C   UNL A   1      47.512  27.801  26.152  1.00  0.00     0.023 A 
ATOM     76  C   UNL A   1      48.605  27.368  26.928  1.00  0.00     0.012 A 
ATOM     77  C   UNL A   1      47.644  27.864  24.752  1.00  0.00     0.148 A 
ATOM     78  C   UNL A   1      49.818  27.036  26.323  1.00  0.00     0.002 A 
ATOM     79  C   UNL A   1      48.837  27.478  24.152  1.00  0.00     0.091 A 
ATOM     80  F   UNL A   1      46.598  28.296  24.034  1.00  0.00    -0.205 F 
ATOM     81  C   UNL A   1      49.930  27.080  24.936  1.00  0.00     0.022 A 
BRANCH  79  82
ATOM     82  S   UNL A   1      49.029  27.386  22.368  1.00  0.00     0.127 S 
ATOM     83  O   UNL A   1      48.417  26.095  22.067  1.00  0.00    -0.237 OA
ATOM     84  O   UNL A   1      48.264  28.551  21.920  1.00  0.00    -0.237 OA
ATOM     85  O   UNL A   1      50.462  27.482  22.123  1.00  0.00    -0.744 OA
ENDBRANCH  79  82
ENDBRANCH  51  75
BRANCH  63  86
ATOM     86  C   UNL A   1      45.288  33.616  29.311  1.00  0.00     0.023 A 
ATOM     87  C   UNL A   1      46.102  33.787  30.449  1.00  0.00     0.012 A 
ATOM     88  C   UNL A   1      45.140  34.684  28.403  1.00  0.00     0.148 A 
ATOM     89  C   UNL A   1      46.721  35.011  30.702  1.00  0.00     0.002 A 
ATOM     90  C   UNL A   1      45.800  35.886  28.636  1.00  0.00     0.091 A 
ATOM     91  F   UNL A   1      44.348  34.514  27.335  1.00  0.00    -0.205 F 
ATOM     92  C   UNL A   1      46.580  36.056  29.792  1.00  0.00     0.022 A 
BRANCH  90  93
ATOM     93  S   UNL A   1      45.747  37.245  27.463  1.00  0.00     0.127 S 
ATOM     94  O   UNL A   1      44.309  37.398  27.247  1.00  0.00    -0.237 OA
ATOM     95  O   UNL A   1      46.369  38.337  28.214  1.00  0.00    -0.237 OA
ATOM     96  O   UNL A   1      46.516  36.800  26.309  1.00  0.00    -0.744 OA
ENDBRANCH  90  93
ENDBRANCH  63  86
ENDBRANCH  37  38
ENDBRANCH  30  32
ENDBRANCH  29  30
ENDBRANCH  28  29
ENDBRANCH  27  28
ENDBRANCH   1  27
TORSDOF 20
ENDMDL
