MODEL 1
REMARK VINA RESULT:     -11.8      0.000      0.000
REMARK SMILES Cc1c(Cl)cc2c(c1C)O[C@@H](C(F)(F)F)C(C(=O)OCCOCCOC(=O)c1ccc(-c3c4nc(c(-c5cccc(S(=O)(=O)[O-])c5F)c5ccc([nH]5)c(-c5cccc(S(=O)(=O)[O-])c5F)c5nc(c(-c6cccc(S(=O)(=O)[O-])c6F)c6ccc3[nH]6)C=C5)C=C4)cc1)=C2
REMARK SMILES IDX 23 1 22 2 21 3 20 4 19 5 17 6 18 7 16 8 1 9 2 10 3 11 8 12
REMARK SMILES IDX 4 13 5 14 7 15 9 16 6 17 10 18 91 19 11 20 12 21 13 22 14 23
REMARK SMILES IDX 15 24 24 25 25 26 26 27 27 28 28 29 29 30 90 31 30 32 89 33
REMARK SMILES IDX 31 34 32 35 33 36 83 37 34 38 88 39 82 40 84 41 35 42 87 43
REMARK SMILES IDX 81 44 80 45 36 47 68 48 48 49 67 50 49 51 52 52 66 53 85 54
REMARK SMILES IDX 50 55 51 56 65 58 86 59 53 60 37 61 38 62 46 63 39 64 41 65
REMARK SMILES IDX 47 66 40 67 42 68 43 69 44 70 45 71 69 72 70 73 78 74 71 75
REMARK SMILES IDX 73 76 79 77 72 78 74 79 75 80 76 81 77 82 54 83 55 84 63 85
REMARK SMILES IDX 56 86 58 87 64 88 57 89 59 90 60 91 61 92 62 93
REMARK H PARENT 84 46 52 57
REMARK Flexibility Score: inf
ROOT
ATOM      1  C   UNL A   1      36.065  21.358  25.344  1.00  0.00     0.202 C 
ENDROOT
BRANCH   1   2
ATOM      2  O   UNL A   1      34.878  21.174  24.569  1.00  0.00    -0.374 OA
BRANCH   2   3
ATOM      3  C   UNL A   1      34.050  20.062  24.918  1.00  0.00     0.202 C 
BRANCH   3   4
ATOM      4  C   UNL A   1      32.580  20.382  25.205  1.00  0.00     0.261 C 
BRANCH   4   5
ATOM      5  O   UNL A   1      32.467  21.667  25.841  1.00  0.00    -0.460 OA
BRANCH   5   6
ATOM      6  C   UNL A   1      31.255  22.242  25.728  1.00  0.00     0.338 C 
ATOM      7  O   UNL A   1      30.198  21.777  26.129  1.00  0.00    -0.246 OA
BRANCH   6   8
ATOM      8  C   UNL A   1      31.377  23.599  25.161  1.00  0.00     0.087 C 
ATOM      9  C   UNL A   1      30.976  30.091  24.572  1.00  0.00     0.046 C 
ATOM     10  C   UNL A   1      31.207  28.631  24.874  1.00  0.00    -0.026 A 
ATOM     11  C   UNL A   1      31.646  28.282  26.171  1.00  0.00     0.045 A 
ATOM     12  C   UNL A   1      30.955  27.593  23.937  1.00  0.00    -0.004 A 
ATOM     13  Cl  UNL A   1      31.947  29.475  27.392  1.00  0.00    -0.084 Cl
ATOM     14  C   UNL A   1      31.825  26.953  26.542  1.00  0.00     0.032 A 
ATOM     15  C   UNL A   1      31.131  26.247  24.337  1.00  0.00     0.131 A 
ATOM     16  C   UNL A   1      30.529  27.840  22.511  1.00  0.00     0.049 C 
ATOM     17  C   UNL A   1      31.549  25.937  25.632  1.00  0.00     0.019 A 
ATOM     18  O   UNL A   1      30.788  25.267  23.434  1.00  0.00    -0.475 OA
ATOM     19  C   UNL A   1      31.576  24.559  26.074  1.00  0.00     0.027 C 
ATOM     20  C   UNL A   1      31.227  23.895  23.691  1.00  0.00     0.316 C 
BRANCH  20  21
ATOM     21  C   UNL A   1      32.483  23.622  22.837  1.00  0.00     0.430 C 
ATOM     22  F   UNL A   1      33.637  23.835  23.506  1.00  0.00    -0.167 F 
ATOM     23  F   UNL A   1      32.516  22.334  22.416  1.00  0.00    -0.167 F 
ATOM     24  F   UNL A   1      32.520  24.404  21.730  1.00  0.00    -0.167 F 
ENDBRANCH  20  21
ENDBRANCH   6   8
ENDBRANCH   5   6
ENDBRANCH   4   5
ENDBRANCH   3   4
ENDBRANCH   2   3
ENDBRANCH   1   2
BRANCH   1  25
ATOM     25  C   UNL A   1      37.221  20.379  25.089  1.00  0.00     0.261 C 
BRANCH  25  26
ATOM     26  O   UNL A   1      38.485  21.060  25.006  1.00  0.00    -0.460 OA
BRANCH  26  27
ATOM     27  C   UNL A   1      39.352  20.793  26.011  1.00  0.00     0.338 C 
ATOM     28  O   UNL A   1      39.869  19.716  26.267  1.00  0.00    -0.246 OA
BRANCH  27  29
ATOM     29  C   UNL A   1      39.784  22.059  26.639  1.00  0.00     0.060 A 
ATOM     30  C   UNL A   1      39.184  23.240  26.179  1.00  0.00     0.016 A 
ATOM     31  C   UNL A   1      40.758  22.103  27.638  1.00  0.00     0.016 A 
ATOM     32  C   UNL A   1      39.592  24.473  26.681  1.00  0.00     0.010 A 
ATOM     33  C   UNL A   1      41.175  23.344  28.133  1.00  0.00     0.010 A 
ATOM     34  C   UNL A   1      40.621  24.535  27.629  1.00  0.00    -0.014 A 
BRANCH  34  35
ATOM     35  C   UNL A   1      41.216  25.854  27.958  1.00  0.00     0.031 A 
ATOM     36  C   UNL A   1      42.618  26.153  27.501  1.00  0.00     0.074 A 
ATOM     37  C   UNL A   1      40.504  26.795  28.605  1.00  0.00     0.049 A 
ATOM     38  N   UNL A   1      43.315  27.251  27.633  1.00  0.00    -0.248 NA
ATOM     39  C   UNL A   1      43.329  25.072  26.796  1.00  0.00     0.031 C 
ATOM     40  C   UNL A   1      39.133  26.634  29.085  1.00  0.00     0.029 A 
ATOM     41  N   UNL A   1      40.842  28.075  28.973  1.00  0.00    -0.354 N 
ATOM     42  C   UNL A   1      44.546  26.992  27.043  1.00  0.00     0.074 A 
ATOM     43  C   UNL A   1      44.515  25.623  26.579  1.00  0.00     0.031 C 
ATOM     44  C   UNL A   1      38.747  27.770  29.690  1.00  0.00     0.029 A 
ATOM     45  C   UNL A   1      39.849  28.732  29.661  1.00  0.00     0.049 A 
ATOM     46  H   UNL A   1      41.713  28.483  28.765  1.00  0.00     0.167 HD
ATOM     47  C   UNL A   1      45.599  27.826  26.878  1.00  0.00     0.034 A 
ATOM     48  C   UNL A   1      39.834  29.964  30.211  1.00  0.00     0.034 A 
ATOM     49  C   UNL A   1      45.622  29.193  27.321  1.00  0.00     0.049 A 
ATOM     50  C   UNL A   1      41.040  30.857  30.059  1.00  0.00     0.074 A 
ATOM     51  C   UNL A   1      46.631  30.126  27.163  1.00  0.00     0.029 A 
ATOM     52  N   UNL A   1      44.601  29.820  28.016  1.00  0.00    -0.354 N 
ATOM     53  N   UNL A   1      42.151  30.637  29.398  1.00  0.00    -0.248 NA
ATOM     54  C   UNL A   1      40.980  32.179  30.702  1.00  0.00     0.031 C 
ATOM     55  C   UNL A   1      46.235  31.307  27.795  1.00  0.00     0.029 A 
ATOM     56  C   UNL A   1      44.962  31.123  28.313  1.00  0.00     0.049 A 
ATOM     57  H   UNL A   1      43.743  29.402  28.261  1.00  0.00     0.167 HD
ATOM     58  C   UNL A   1      42.909  31.798  29.521  1.00  0.00     0.074 A 
ATOM     59  C   UNL A   1      42.119  32.730  30.299  1.00  0.00     0.031 C 
ATOM     60  C   UNL A   1      44.151  32.061  29.047  1.00  0.00     0.034 A 
BRANCH  47  61
ATOM     61  C   UNL A   1      46.808  27.301  26.149  1.00  0.00     0.023 A 
ATOM     62  C   UNL A   1      46.949  27.552  24.768  1.00  0.00     0.012 A 
ATOM     63  C   UNL A   1      47.843  26.643  26.843  1.00  0.00     0.148 A 
ATOM     64  C   UNL A   1      48.091  27.137  24.086  1.00  0.00     0.002 A 
ATOM     65  C   UNL A   1      49.000  26.278  26.164  1.00  0.00     0.091 A 
ATOM     66  F   UNL A   1      47.681  26.398  28.150  1.00  0.00    -0.205 F 
ATOM     67  C   UNL A   1      49.121  26.514  24.785  1.00  0.00     0.022 A 
BRANCH  65  68
ATOM     68  S   UNL A   1      50.421  25.551  26.988  1.00  0.00     0.127 S 
ATOM     69  O   UNL A   1      51.341  25.353  25.867  1.00  0.00    -0.237 OA
ATOM     70  O   UNL A   1      50.811  26.611  27.916  1.00  0.00    -0.237 OA
ATOM     71  O   UNL A   1      49.942  24.330  27.619  1.00  0.00    -0.744 OA
ENDBRANCH  65  68
ENDBRANCH  47  61
BRANCH  48  72
ATOM     72  C   UNL A   1      38.610  30.446  30.916  1.00  0.00     0.023 A 
ATOM     73  C   UNL A   1      38.493  30.261  32.308  1.00  0.00     0.012 A 
ATOM     74  C   UNL A   1      37.582  31.118  30.226  1.00  0.00     0.148 A 
ATOM     75  C   UNL A   1      37.366  30.716  32.995  1.00  0.00     0.002 A 
ATOM     76  C   UNL A   1      36.491  31.621  30.924  1.00  0.00     0.091 A 
ATOM     77  F   UNL A   1      37.702  31.270  28.899  1.00  0.00    -0.205 F 
ATOM     78  C   UNL A   1      36.372  31.405  32.306  1.00  0.00     0.022 A 
BRANCH  76  79
ATOM     79  S   UNL A   1      35.230  32.641  30.150  1.00  0.00     0.127 S 
ATOM     80  O   UNL A   1      34.734  31.758  29.097  1.00  0.00    -0.237 OA
ATOM     81  O   UNL A   1      34.302  32.861  31.260  1.00  0.00    -0.237 OA
ATOM     82  O   UNL A   1      35.918  33.841  29.692  1.00  0.00    -0.744 OA
ENDBRANCH  76  79
ENDBRANCH  48  72
BRANCH  60  83
ATOM     83  C   UNL A   1      44.760  33.412  29.335  1.00  0.00     0.023 A 
ATOM     84  C   UNL A   1      45.564  33.583  30.479  1.00  0.00     0.012 A 
ATOM     85  C   UNL A   1      44.653  34.466  28.403  1.00  0.00     0.148 A 
ATOM     86  C   UNL A   1      46.237  34.783  30.701  1.00  0.00     0.002 A 
ATOM     87  C   UNL A   1      45.369  35.640  28.604  1.00  0.00     0.091 A 
ATOM     88  F   UNL A   1      43.876  34.288  27.325  1.00  0.00    -0.205 F 
ATOM     89  C   UNL A   1      46.153  35.805  29.758  1.00  0.00     0.022 A 
BRANCH  87  90
ATOM     90  S   UNL A   1      45.414  36.970  27.396  1.00  0.00     0.127 S 
ATOM     91  O   UNL A   1      46.083  36.324  26.267  1.00  0.00    -0.237 OA
ATOM     92  O   UNL A   1      43.992  37.243  27.187  1.00  0.00    -0.237 OA
ATOM     93  O   UNL A   1      46.158  38.057  28.017  1.00  0.00    -0.744 OA
ENDBRANCH  87  90
ENDBRANCH  60  83
ENDBRANCH  34  35
ENDBRANCH  27  29
ENDBRANCH  26  27
ENDBRANCH  25  26
ENDBRANCH   1  25
TORSDOF 18
ENDMDL
MODEL 2
REMARK VINA RESULT:     -11.8      1.794      2.143
REMARK SMILES Cc1c(Cl)cc2c(c1C)O[C@@H](C(F)(F)F)C(C(=O)OCCOCCOC(=O)c1ccc(-c3c4nc(c(-c5cccc(S(=O)(=O)[O-])c5F)c5ccc([nH]5)c(-c5cccc(S(=O)(=O)[O-])c5F)c5nc(c(-c6cccc(S(=O)(=O)[O-])c6F)c6ccc3[nH]6)C=C5)C=C4)cc1)=C2
REMARK SMILES IDX 23 1 22 2 21 3 20 4 19 5 17 6 18 7 16 8 1 9 2 10 3 11 8 12
REMARK SMILES IDX 4 13 5 14 7 15 9 16 6 17 10 18 91 19 11 20 12 21 13 22 14 23
REMARK SMILES IDX 15 24 24 25 25 26 26 27 27 28 28 29 29 30 90 31 30 32 89 33
REMARK SMILES IDX 31 34 32 35 33 36 83 37 34 38 88 39 82 40 84 41 35 42 87 43
REMARK SMILES IDX 81 44 80 45 36 47 68 48 48 49 67 50 49 51 52 52 66 53 85 54
REMARK SMILES IDX 50 55 51 56 65 58 86 59 53 60 37 61 38 62 46 63 39 64 41 65
REMARK SMILES IDX 47 66 40 67 42 68 43 69 44 70 45 71 69 72 70 73 78 74 71 75
REMARK SMILES IDX 73 76 79 77 72 78 74 79 75 80 76 81 77 82 54 83 55 84 63 85
REMARK SMILES IDX 56 86 58 87 64 88 57 89 59 90 60 91 61 92 62 93
REMARK H PARENT 84 46 52 57
REMARK Flexibility Score: inf
ROOT
ATOM      1  C   UNL A   1      35.978  21.130  25.532  1.00  0.00     0.202 C 
ENDROOT
BRANCH   1   2
ATOM      2  O   UNL A   1      34.840  21.108  24.667  1.00  0.00    -0.374 OA
BRANCH   2   3
ATOM      3  C   UNL A   1      33.919  20.030  24.847  1.00  0.00     0.202 C 
BRANCH   3   4
ATOM      4  C   UNL A   1      32.444  20.357  24.596  1.00  0.00     0.261 C 
BRANCH   4   5
ATOM      5  O   UNL A   1      32.242  21.780  24.611  1.00  0.00    -0.460 OA
BRANCH   5   6
ATOM      6  C   UNL A   1      32.189  22.351  23.393  1.00  0.00     0.338 C 
ATOM      7  O   UNL A   1      32.157  21.761  22.323  1.00  0.00    -0.246 OA
BRANCH   6   8
ATOM      8  C   UNL A   1      32.039  23.814  23.513  1.00  0.00     0.087 C 
ATOM      9  C   UNL A   1      29.560  29.826  22.907  1.00  0.00     0.046 C 
ATOM     10  C   UNL A   1      29.954  28.393  23.167  1.00  0.00    -0.026 A 
ATOM     11  C   UNL A   1      28.934  27.472  23.495  1.00  0.00     0.045 A 
ATOM     12  C   UNL A   1      31.288  27.919  23.047  1.00  0.00    -0.004 A 
ATOM     13  Cl  UNL A   1      27.272  27.949  23.629  1.00  0.00    -0.084 Cl
ATOM     14  C   UNL A   1      29.212  26.123  23.691  1.00  0.00     0.032 A 
ATOM     15  C   UNL A   1      31.549  26.542  23.239  1.00  0.00     0.131 A 
ATOM     16  C   UNL A   1      32.469  28.811  22.749  1.00  0.00     0.049 C 
ATOM     17  C   UNL A   1      30.514  25.656  23.544  1.00  0.00     0.019 A 
ATOM     18  O   UNL A   1      32.835  26.103  23.024  1.00  0.00    -0.475 OA
ATOM     19  C   UNL A   1      30.768  24.232  23.585  1.00  0.00     0.027 C 
ATOM     20  C   UNL A   1      33.206  24.767  23.492  1.00  0.00     0.316 C 
BRANCH  20  21
ATOM     21  C   UNL A   1      33.954  24.916  24.834  1.00  0.00     0.430 C 
ATOM     22  F   UNL A   1      33.268  24.412  25.882  1.00  0.00    -0.167 F 
ATOM     23  F   UNL A   1      35.143  24.266  24.803  1.00  0.00    -0.167 F 
ATOM     24  F   UNL A   1      34.218  26.215  25.123  1.00  0.00    -0.167 F 
ENDBRANCH  20  21
ENDBRANCH   6   8
ENDBRANCH   5   6
ENDBRANCH   4   5
ENDBRANCH   3   4
ENDBRANCH   2   3
ENDBRANCH   1   2
BRANCH   1  25
ATOM     25  C   UNL A   1      37.225  20.368  25.061  1.00  0.00     0.261 C 
BRANCH  25  26
ATOM     26  O   UNL A   1      38.384  21.219  25.018  1.00  0.00    -0.460 OA
BRANCH  26  27
ATOM     27  C   UNL A   1      39.345  20.931  25.928  1.00  0.00     0.338 C 
ATOM     28  O   UNL A   1      39.903  19.856  26.091  1.00  0.00    -0.246 OA
BRANCH  27  29
ATOM     29  C   UNL A   1      39.809  22.180  26.566  1.00  0.00     0.060 A 
ATOM     30  C   UNL A   1      39.143  23.364  26.218  1.00  0.00     0.016 A 
ATOM     31  C   UNL A   1      40.875  22.208  27.467  1.00  0.00     0.016 A 
ATOM     32  C   UNL A   1      39.571  24.585  26.732  1.00  0.00     0.010 A 
ATOM     33  C   UNL A   1      41.313  23.438  27.973  1.00  0.00     0.010 A 
ATOM     34  C   UNL A   1      40.687  24.634  27.578  1.00  0.00    -0.014 A 
BRANCH  34  35
ATOM     35  C   UNL A   1      41.283  25.953  27.904  1.00  0.00     0.031 A 
ATOM     36  C   UNL A   1      42.686  26.249  27.450  1.00  0.00     0.074 A 
ATOM     37  C   UNL A   1      40.571  26.897  28.547  1.00  0.00     0.049 A 
ATOM     38  N   UNL A   1      43.384  27.346  27.581  1.00  0.00    -0.248 NA
ATOM     39  C   UNL A   1      43.398  25.165  26.750  1.00  0.00     0.031 C 
ATOM     40  C   UNL A   1      39.198  26.739  29.024  1.00  0.00     0.029 A 
ATOM     41  N   UNL A   1      40.909  28.178  28.913  1.00  0.00    -0.354 N 
ATOM     42  C   UNL A   1      44.617  27.083  26.995  1.00  0.00     0.074 A 
ATOM     43  C   UNL A   1      44.584  25.713  26.535  1.00  0.00     0.031 C 
ATOM     44  C   UNL A   1      38.812  27.878  29.625  1.00  0.00     0.029 A 
ATOM     45  C   UNL A   1      39.916  28.838  29.597  1.00  0.00     0.049 A 
ATOM     46  H   UNL A   1      41.781  28.584  28.705  1.00  0.00     0.167 HD
ATOM     47  C   UNL A   1      45.671  27.915  26.830  1.00  0.00     0.034 A 
ATOM     48  C   UNL A   1      39.901  30.071  30.143  1.00  0.00     0.034 A 
ATOM     49  C   UNL A   1      45.695  29.283  27.270  1.00  0.00     0.049 A 
ATOM     50  C   UNL A   1      41.109  30.961  29.991  1.00  0.00     0.074 A 
ATOM     51  C   UNL A   1      46.706  30.215  27.112  1.00  0.00     0.029 A 
ATOM     52  N   UNL A   1      44.673  29.914  27.960  1.00  0.00    -0.354 N 
ATOM     53  N   UNL A   1      42.221  30.739  29.334  1.00  0.00    -0.248 NA
ATOM     54  C   UNL A   1      41.049  32.286  30.631  1.00  0.00     0.031 C 
ATOM     55  C   UNL A   1      46.310  31.398  27.740  1.00  0.00     0.029 A 
ATOM     56  C   UNL A   1      45.036  31.217  28.255  1.00  0.00     0.049 A 
ATOM     57  H   UNL A   1      43.814  29.498  28.204  1.00  0.00     0.167 HD
ATOM     58  C   UNL A   1      42.980  31.899  29.456  1.00  0.00     0.074 A 
ATOM     59  C   UNL A   1      42.190  32.834  30.230  1.00  0.00     0.031 C 
ATOM     60  C   UNL A   1      44.224  32.159  28.985  1.00  0.00     0.034 A 
BRANCH  47  61
ATOM     61  C   UNL A   1      46.881  27.386  26.106  1.00  0.00     0.023 A 
ATOM     62  C   UNL A   1      47.722  26.455  26.749  1.00  0.00     0.012 A 
ATOM     63  C   UNL A   1      47.133  27.735  24.764  1.00  0.00     0.148 A 
ATOM     64  C   UNL A   1      48.808  25.898  26.076  1.00  0.00     0.002 A 
ATOM     65  C   UNL A   1      48.188  27.137  24.086  1.00  0.00     0.091 A 
ATOM     66  F   UNL A   1      46.332  28.636  24.178  1.00  0.00    -0.205 F 
ATOM     67  C   UNL A   1      49.032  26.228  24.742  1.00  0.00     0.022 A 
BRANCH  65  68
ATOM     68  S   UNL A   1      48.509  27.425  22.342  1.00  0.00     0.127 S 
ATOM     69  O   UNL A   1      49.754  28.193  22.395  1.00  0.00    -0.237 OA
ATOM     70  O   UNL A   1      48.655  26.063  21.830  1.00  0.00    -0.237 OA
ATOM     71  O   UNL A   1      47.355  28.151  21.832  1.00  0.00    -0.744 OA
ENDBRANCH  65  68
ENDBRANCH  47  61
BRANCH  48  72
ATOM     72  C   UNL A   1      38.676  30.557  30.844  1.00  0.00     0.023 A 
ATOM     73  C   UNL A   1      38.577  30.421  32.243  1.00  0.00     0.012 A 
ATOM     74  C   UNL A   1      37.629  31.186  30.141  1.00  0.00     0.148 A 
ATOM     75  C   UNL A   1      37.449  30.880  32.925  1.00  0.00     0.002 A 
ATOM     76  C   UNL A   1      36.536  31.694  30.833  1.00  0.00     0.091 A 
ATOM     77  F   UNL A   1      37.733  31.292  28.809  1.00  0.00    -0.205 F 
ATOM     78  C   UNL A   1      36.435  31.527  32.223  1.00  0.00     0.022 A 
BRANCH  76  79
ATOM     79  S   UNL A   1      35.250  32.664  30.036  1.00  0.00     0.127 S 
ATOM     80  O   UNL A   1      34.361  32.961  31.156  1.00  0.00    -0.237 OA
ATOM     81  O   UNL A   1      36.010  33.807  29.531  1.00  0.00    -0.237 OA
ATOM     82  O   UNL A   1      34.691  31.805  29.000  1.00  0.00    -0.744 OA
ENDBRANCH  76  79
ENDBRANCH  48  72
BRANCH  60  83
ATOM     83  C   UNL A   1      44.834  33.509  29.271  1.00  0.00     0.023 A 
ATOM     84  C   UNL A   1      45.615  33.689  30.429  1.00  0.00     0.012 A 
ATOM     85  C   UNL A   1      44.753  34.554  28.325  1.00  0.00     0.148 A 
ATOM     86  C   UNL A   1      46.290  34.888  30.652  1.00  0.00     0.002 A 
ATOM     87  C   UNL A   1      45.472  35.726  28.528  1.00  0.00     0.091 A 
ATOM     88  F   UNL A   1      43.998  34.368  27.233  1.00  0.00    -0.205 F 
ATOM     89  C   UNL A   1      46.231  35.900  29.696  1.00  0.00     0.022 A 
BRANCH  87  90
ATOM     90  S   UNL A   1      45.550  37.042  27.306  1.00  0.00     0.127 S 
ATOM     91  O   UNL A   1      46.382  38.032  27.988  1.00  0.00    -0.237 OA
ATOM     92  O   UNL A   1      46.199  36.374  26.177  1.00  0.00    -0.237 OA
ATOM     93  O   UNL A   1      44.174  37.451  27.063  1.00  0.00    -0.744 OA
ENDBRANCH  87  90
ENDBRANCH  60  83
ENDBRANCH  34  35
ENDBRANCH  27  29
ENDBRANCH  26  27
ENDBRANCH  25  26
ENDBRANCH   1  25
TORSDOF 18
ENDMDL
MODEL 3
REMARK VINA RESULT:     -11.7      1.915      7.816
REMARK SMILES Cc1c(Cl)cc2c(c1C)O[C@@H](C(F)(F)F)C(C(=O)OCCOCCOC(=O)c1ccc(-c3c4nc(c(-c5cccc(S(=O)(=O)[O-])c5F)c5ccc([nH]5)c(-c5cccc(S(=O)(=O)[O-])c5F)c5nc(c(-c6cccc(S(=O)(=O)[O-])c6F)c6ccc3[nH]6)C=C5)C=C4)cc1)=C2
REMARK SMILES IDX 23 1 22 2 21 3 20 4 19 5 17 6 18 7 16 8 1 9 2 10 3 11 8 12
REMARK SMILES IDX 4 13 5 14 7 15 9 16 6 17 10 18 91 19 11 20 12 21 13 22 14 23
REMARK SMILES IDX 15 24 24 25 25 26 26 27 27 28 28 29 29 30 90 31 30 32 89 33
REMARK SMILES IDX 31 34 32 35 33 36 83 37 34 38 88 39 82 40 84 41 35 42 87 43
REMARK SMILES IDX 81 44 80 45 36 47 68 48 48 49 67 50 49 51 52 52 66 53 85 54
REMARK SMILES IDX 50 55 51 56 65 58 86 59 53 60 37 61 38 62 46 63 39 64 41 65
REMARK SMILES IDX 47 66 40 67 42 68 43 69 44 70 45 71 69 72 70 73 78 74 71 75
REMARK SMILES IDX 73 76 79 77 72 78 74 79 75 80 76 81 77 82 54 83 55 84 63 85
REMARK SMILES IDX 56 86 58 87 64 88 57 89 59 90 60 91 61 92 62 93
REMARK H PARENT 84 46 52 57
REMARK Flexibility Score: inf
ROOT
ATOM      1  C   UNL A   1      35.152  21.495  25.439  1.00  0.00     0.202 C 
ENDROOT
BRANCH   1   2
ATOM      2  O   UNL A   1      33.867  21.037  25.012  1.00  0.00    -0.374 OA
BRANCH   2   3
ATOM      3  C   UNL A   1      33.339  21.627  23.822  1.00  0.00     0.202 C 
BRANCH   3   4
ATOM      4  C   UNL A   1      32.220  22.654  24.019  1.00  0.00     0.261 C 
BRANCH   4   5
ATOM      5  O   UNL A   1      32.175  23.559  22.903  1.00  0.00    -0.460 OA
BRANCH   5   6
ATOM      6  C   UNL A   1      33.047  24.581  22.975  1.00  0.00     0.338 C 
ATOM      7  O   UNL A   1      34.187  24.587  22.533  1.00  0.00    -0.246 OA
BRANCH   6   8
ATOM      8  C   UNL A   1      32.401  25.774  23.556  1.00  0.00     0.087 C 
ATOM      9  C   UNL A   1      29.365  31.540  23.998  1.00  0.00     0.046 C 
ATOM     10  C   UNL A   1      29.884  30.138  23.797  1.00  0.00    -0.026 A 
ATOM     11  C   UNL A   1      29.307  29.357  22.771  1.00  0.00     0.045 A 
ATOM     12  C   UNL A   1      30.954  29.588  24.553  1.00  0.00    -0.004 A 
ATOM     13  Cl  UNL A   1      28.021  29.953  21.773  1.00  0.00    -0.084 Cl
ATOM     14  C   UNL A   1      29.771  28.076  22.487  1.00  0.00     0.032 A 
ATOM     15  C   UNL A   1      31.420  28.288  24.242  1.00  0.00     0.131 A 
ATOM     16  C   UNL A   1      31.619  30.303  25.703  1.00  0.00     0.049 C 
ATOM     17  C   UNL A   1      30.839  27.551  23.210  1.00  0.00     0.019 A 
ATOM     18  O   UNL A   1      32.517  27.825  24.932  1.00  0.00    -0.475 OA
ATOM     19  C   UNL A   1      31.422  26.291  22.801  1.00  0.00     0.027 C 
ATOM     20  C   UNL A   1      32.841  26.400  24.855  1.00  0.00     0.316 C 
BRANCH  20  21
ATOM     21  C   UNL A   1      32.304  25.713  26.128  1.00  0.00     0.430 C 
ATOM     22  F   UNL A   1      33.147  24.782  26.624  1.00  0.00    -0.167 F 
ATOM     23  F   UNL A   1      32.101  26.615  27.120  1.00  0.00    -0.167 F 
ATOM     24  F   UNL A   1      31.119  25.093  25.905  1.00  0.00    -0.167 F 
ENDBRANCH  20  21
ENDBRANCH   6   8
ENDBRANCH   5   6
ENDBRANCH   4   5
ENDBRANCH   3   4
ENDBRANCH   2   3
ENDBRANCH   1   2
BRANCH   1  25
ATOM     25  C   UNL A   1      36.356  20.602  25.102  1.00  0.00     0.261 C 
BRANCH  25  26
ATOM     26  O   UNL A   1      37.552  21.376  24.904  1.00  0.00    -0.460 OA
BRANCH  26  27
ATOM     27  C   UNL A   1      38.611  21.005  25.662  1.00  0.00     0.338 C 
ATOM     28  O   UNL A   1      39.121  19.896  25.717  1.00  0.00    -0.246 OA
BRANCH  27  29
ATOM     29  C   UNL A   1      39.234  22.204  26.259  1.00  0.00     0.060 A 
ATOM     30  C   UNL A   1      38.649  23.444  25.966  1.00  0.00     0.016 A 
ATOM     31  C   UNL A   1      40.367  22.131  27.071  1.00  0.00     0.016 A 
ATOM     32  C   UNL A   1      39.223  24.619  26.443  1.00  0.00     0.010 A 
ATOM     33  C   UNL A   1      40.951  23.315  27.539  1.00  0.00     0.010 A 
ATOM     34  C   UNL A   1      40.403  24.564  27.195  1.00  0.00    -0.014 A 
BRANCH  34  35
ATOM     35  C   UNL A   1      41.138  25.823  27.472  1.00  0.00     0.031 A 
ATOM     36  C   UNL A   1      40.458  26.900  28.274  1.00  0.00     0.074 A 
ATOM     37  C   UNL A   1      42.411  25.988  27.066  1.00  0.00     0.049 A 
ATOM     38  N   UNL A   1      40.927  28.053  28.674  1.00  0.00    -0.248 NA
ATOM     39  C   UNL A   1      39.067  26.642  28.684  1.00  0.00     0.031 C 
ATOM     40  C   UNL A   1      43.184  25.015  26.297  1.00  0.00     0.029 A 
ATOM     41  N   UNL A   1      43.276  27.042  27.242  1.00  0.00    -0.354 N 
ATOM     42  C   UNL A   1      39.888  28.662  29.368  1.00  0.00     0.074 A 
ATOM     43  C   UNL A   1      38.755  27.766  29.310  1.00  0.00     0.031 C 
ATOM     44  C   UNL A   1      44.408  25.518  26.063  1.00  0.00     0.029 A 
ATOM     45  C   UNL A   1      44.499  26.858  26.644  1.00  0.00     0.049 A 
ATOM     46  H   UNL A   1      43.040  27.852  27.749  1.00  0.00     0.167 HD
ATOM     47  C   UNL A   1      39.886  29.848  30.020  1.00  0.00     0.034 A 
ATOM     48  C   UNL A   1      45.568  27.678  26.567  1.00  0.00     0.034 A 
ATOM     49  C   UNL A   1      41.019  30.729  30.095  1.00  0.00     0.049 A 
ATOM     50  C   UNL A   1      45.522  29.018  27.257  1.00  0.00     0.074 A 
ATOM     51  C   UNL A   1      41.122  31.935  30.766  1.00  0.00     0.029 A 
ATOM     52  N   UNL A   1      42.238  30.510  29.475  1.00  0.00    -0.354 N 
ATOM     53  N   UNL A   1      44.575  29.528  28.007  1.00  0.00    -0.248 NA
ATOM     54  C   UNL A   1      46.704  29.884  27.118  1.00  0.00     0.031 C 
ATOM     55  C   UNL A   1      42.392  32.463  30.520  1.00  0.00     0.029 A 
ATOM     56  C   UNL A   1      43.095  31.568  29.728  1.00  0.00     0.049 A 
ATOM     57  H   UNL A   1      42.463  29.718  28.934  1.00  0.00     0.167 HD
ATOM     58  C   UNL A   1      45.054  30.758  28.450  1.00  0.00     0.074 A 
ATOM     59  C   UNL A   1      46.388  30.905  27.905  1.00  0.00     0.031 C 
ATOM     60  C   UNL A   1      44.439  31.686  29.222  1.00  0.00     0.034 A 
BRANCH  47  61
ATOM     61  C   UNL A   1      38.629  30.253  30.745  1.00  0.00     0.023 A 
ATOM     62  C   UNL A   1      38.494  29.958  32.117  1.00  0.00     0.012 A 
ATOM     63  C   UNL A   1      37.628  31.003  30.096  1.00  0.00     0.148 A 
ATOM     64  C   UNL A   1      37.372  30.383  32.827  1.00  0.00     0.002 A 
ATOM     65  C   UNL A   1      36.538  31.466  30.823  1.00  0.00     0.091 A 
ATOM     66  F   UNL A   1      37.768  31.257  28.788  1.00  0.00    -0.205 F 
ATOM     67  C   UNL A   1      36.402  31.148  32.184  1.00  0.00     0.022 A 
BRANCH  65  68
ATOM     68  S   UNL A   1      35.278  32.532  30.112  1.00  0.00     0.127 S 
ATOM     69  O   UNL A   1      34.786  31.709  29.007  1.00  0.00    -0.237 OA
ATOM     70  O   UNL A   1      34.342  32.681  31.226  1.00  0.00    -0.237 OA
ATOM     71  O   UNL A   1      35.960  33.756  29.717  1.00  0.00    -0.744 OA
ENDBRANCH  65  68
ENDBRANCH  47  61
BRANCH  48  72
ATOM     72  C   UNL A   1      46.796  27.231  25.846  1.00  0.00     0.023 A 
ATOM     73  C   UNL A   1      47.692  26.349  26.483  1.00  0.00     0.012 A 
ATOM     74  C   UNL A   1      47.063  27.642  24.525  1.00  0.00     0.148 A 
ATOM     75  C   UNL A   1      48.840  25.903  25.827  1.00  0.00     0.002 A 
ATOM     76  C   UNL A   1      48.176  27.147  23.856  1.00  0.00     0.091 A 
ATOM     77  F   UNL A   1      46.208  28.494  23.941  1.00  0.00    -0.205 F 
ATOM     78  C   UNL A   1      49.075  26.293  24.511  1.00  0.00     0.022 A 
BRANCH  76  79
ATOM     79  S   UNL A   1      48.488  27.480  22.118  1.00  0.00     0.127 S 
ATOM     80  O   UNL A   1      49.660  28.349  22.184  1.00  0.00    -0.237 OA
ATOM     81  O   UNL A   1      48.746  26.136  21.600  1.00  0.00    -0.237 OA
ATOM     82  O   UNL A   1      47.273  28.100  21.608  1.00  0.00    -0.744 OA
ENDBRANCH  76  79
ENDBRANCH  48  72
BRANCH  60  83
ATOM     83  C   UNL A   1      45.183  32.957  29.550  1.00  0.00     0.023 A 
ATOM     84  C   UNL A   1      46.041  32.992  30.667  1.00  0.00     0.012 A 
ATOM     85  C   UNL A   1      45.142  34.065  28.677  1.00  0.00     0.148 A 
ATOM     86  C   UNL A   1      46.833  34.112  30.920  1.00  0.00     0.002 A 
ATOM     87  C   UNL A   1      45.974  35.155  28.905  1.00  0.00     0.091 A 
ATOM     88  F   UNL A   1      44.313  34.017  27.624  1.00  0.00    -0.205 F 
ATOM     89  C   UNL A   1      46.811  35.185  30.032  1.00  0.00     0.022 A 
BRANCH  87  90
ATOM     90  S   UNL A   1      46.101  36.536  27.763  1.00  0.00     0.127 S 
ATOM     91  O   UNL A   1      47.090  37.383  28.427  1.00  0.00    -0.237 OA
ATOM     92  O   UNL A   1      46.578  35.883  26.543  1.00  0.00    -0.237 OA
ATOM     93  O   UNL A   1      44.764  37.106  27.665  1.00  0.00    -0.744 OA
ENDBRANCH  87  90
ENDBRANCH  60  83
ENDBRANCH  34  35
ENDBRANCH  27  29
ENDBRANCH  26  27
ENDBRANCH  25  26
ENDBRANCH   1  25
TORSDOF 18
ENDMDL
