MODEL 1
REMARK VINA RESULT:     -12.5      0.000      0.000
REMARK SMILES O=C(OCCOCCOC(=O)c1ccc(-c2c3nc(c(-c4cccc(S(=O)(=O)[O-])c4F)c4ccc([nH]4)c(-c4cccc(S(=O)(=O)[O-])c4F)c4nc(c(-c5cccc(S(=O)(=O)[O-])c5F)c5ccc2[nH]5)C=C4)C=C3)cc1)C1=Cc2cc(Cl)cc(-c3ccc(Cl)cc3)c2O[C@@H]1C(F)(F)F
REMARK SMILES IDX 7 1 6 2 5 3 4 4 3 5 2 6 1 7 75 8 76 9 92 10 77 11 91 12
REMARK SMILES IDX 78 13 90 14 79 15 82 16 80 17 81 18 93 19 94 20 95 21 96 22
REMARK SMILES IDX 83 23 84 24 89 25 85 26 88 27 86 28 87 29 8 30 9 31 10 32
REMARK SMILES IDX 11 33 12 34 13 35 74 36 14 37 73 38 15 39 16 40 17 41 67 42
REMARK SMILES IDX 18 43 72 44 66 45 68 46 19 47 71 48 65 49 64 50 20 52 52 53
REMARK SMILES IDX 32 54 51 55 33 56 36 57 50 58 69 59 34 60 35 61 49 63 70 64
REMARK SMILES IDX 37 65 21 66 22 67 30 68 23 69 25 70 31 71 24 72 26 73 27 74
REMARK SMILES IDX 28 75 29 76 53 77 54 78 62 79 55 80 57 81 63 82 56 83 58 84
REMARK SMILES IDX 59 85 60 86 61 87 38 88 39 89 47 90 40 91 42 92 48 93 41 94
REMARK SMILES IDX 43 95 44 96 45 97 46 98
REMARK H PARENT 68 51 36 62
REMARK Flexibility Score: inf
ROOT
ATOM      1  C   UNL A   1      37.538  18.860  24.871  1.00  0.00     0.202 C 
ENDROOT
BRANCH   1   2
ATOM      2  O   UNL A   1      36.117  19.134  24.836  1.00  0.00    -0.374 OA
BRANCH   2   3
ATOM      3  C   UNL A   1      34.794  18.210  24.610  1.00  0.00     0.202 C 
BRANCH   3   4
ATOM      4  C   UNL A   1      32.683  18.732  24.682  1.00  0.00     0.261 C 
BRANCH   4   5
ATOM      5  O   UNL A   1      32.063  20.073  24.123  1.00  0.00    -0.460 OA
BRANCH   5   6
ATOM      6  C   UNL A   1      31.932  21.031  25.045  1.00  0.00     0.338 C 
ATOM      7  O   UNL A   1      30.977  21.423  25.664  1.00  0.00    -0.246 OA
BRANCH   6   8
ATOM      8  C   UNL A   1      33.227  21.602  24.795  1.00  0.00     0.087 C 
ATOM      9  C   UNL A   1      33.343  22.017  23.389  1.00  0.00     0.027 C 
ATOM     10  C   UNL A   1      33.290  22.804  26.314  1.00  0.00     0.316 C 
ATOM     11  C   UNL A   1      33.358  23.747  22.864  1.00  0.00     0.019 A 
ATOM     12  O   UNL A   1      33.311  24.672  25.754  1.00  0.00    -0.475 OA
ATOM     13  C   UNL A   1      33.192  23.943  21.518  1.00  0.00     0.032 A 
ATOM     14  C   UNL A   1      33.273  25.099  23.971  1.00  0.00     0.135 A 
ATOM     15  C   UNL A   1      32.868  25.248  21.150  1.00  0.00     0.042 A 
ATOM     16  C   UNL A   1      33.044  26.416  23.463  1.00  0.00     0.026 A 
ATOM     17  Cl  UNL A   1      32.589  25.538  19.463  1.00  0.00    -0.084 Cl
ATOM     18  C   UNL A   1      32.752  26.372  22.055  1.00  0.00     0.033 A 
BRANCH  10  19
ATOM     19  C   UNL A   1      34.273  21.893  27.196  1.00  0.00     0.430 C 
ATOM     20  F   UNL A   1      35.460  21.609  26.622  1.00  0.00    -0.167 F 
ATOM     21  F   UNL A   1      34.607  22.595  28.321  1.00  0.00    -0.167 F 
ATOM     22  F   UNL A   1      33.727  20.749  27.669  1.00  0.00    -0.167 F 
ENDBRANCH  10  19
BRANCH  16  23
ATOM     23  C   UNL A   1      33.074  27.872  24.160  1.00  0.00    -0.015 A 
ATOM     24  C   UNL A   1      31.485  28.618  23.701  1.00  0.00     0.010 A 
ATOM     25  C   UNL A   1      34.072  28.780  25.682  1.00  0.00     0.010 A 
ATOM     26  C   UNL A   1      30.897  30.013  24.603  1.00  0.00     0.021 A 
ATOM     27  C   UNL A   1      33.335  30.195  26.512  1.00  0.00     0.021 A 
ATOM     28  C   UNL A   1      31.784  30.751  25.948  1.00  0.00     0.041 A 
ATOM     29  Cl  UNL A   1      31.085  32.111  26.739  1.00  0.00    -0.084 Cl
ENDBRANCH  16  23
ENDBRANCH   6   8
ENDBRANCH   5   6
ENDBRANCH   4   5
ENDBRANCH   3   4
ENDBRANCH   2   3
ENDBRANCH   1   2
BRANCH   1  30
ATOM     30  C   UNL A   1      38.448  20.015  25.283  1.00  0.00     0.261 C 
BRANCH  30  31
ATOM     31  O   UNL A   1      39.358  19.557  26.248  1.00  0.00    -0.460 OA
BRANCH  31  32
ATOM     32  C   UNL A   1      40.609  19.988  26.011  1.00  0.00     0.338 C 
ATOM     33  O   UNL A   1      41.476  19.524  25.296  1.00  0.00    -0.246 OA
BRANCH  32  34
ATOM     34  C   UNL A   1      40.704  21.214  26.757  1.00  0.00     0.060 A 
ATOM     35  C   UNL A   1      40.020  22.710  26.081  1.00  0.00     0.016 A 
ATOM     36  C   UNL A   1      41.746  21.323  28.241  1.00  0.00     0.016 A 
ATOM     37  C   UNL A   1      40.360  24.323  26.771  1.00  0.00     0.010 A 
ATOM     38  C   UNL A   1      42.074  23.174  28.980  1.00  0.00     0.010 A 
ATOM     39  C   UNL A   1      41.372  24.598  28.175  1.00  0.00    -0.014 A 
BRANCH  39  40
ATOM     40  C   UNL A   1      42.069  25.875  28.553  1.00  0.00     0.031 A 
ATOM     41  C   UNL A   1      41.295  27.017  29.198  1.00  0.00     0.074 A 
ATOM     42  C   UNL A   1      43.218  26.179  27.918  1.00  0.00     0.049 A 
ATOM     43  N   UNL A   1      41.589  28.296  29.282  1.00  0.00    -0.248 NA
ATOM     44  C   UNL A   1      39.975  26.694  29.748  1.00  0.00     0.031 C 
ATOM     45  C   UNL A   1      43.974  25.257  27.075  1.00  0.00     0.029 A 
ATOM     46  N   UNL A   1      43.889  27.374  27.800  1.00  0.00    -0.354 N 
ATOM     47  C   UNL A   1      40.464  28.922  29.824  1.00  0.00     0.074 A 
ATOM     48  C   UNL A   1      39.463  27.893  29.984  1.00  0.00     0.031 C 
ATOM     49  C   UNL A   1      44.975  25.929  26.483  1.00  0.00     0.029 A 
ATOM     50  C   UNL A   1      44.936  27.328  26.907  1.00  0.00     0.049 A 
ATOM     51  H   UNL A   1      43.645  28.182  28.305  1.00  0.00     0.167 HD
ATOM     52  C   UNL A   1      40.278  30.214  30.203  1.00  0.00     0.034 A 
ATOM     53  C   UNL A   1      45.770  28.296  26.473  1.00  0.00     0.034 A 
ATOM     54  C   UNL A   1      41.286  31.232  30.084  1.00  0.00     0.049 A 
ATOM     55  C   UNL A   1      45.639  29.700  27.006  1.00  0.00     0.074 A 
ATOM     56  C   UNL A   1      41.290  32.515  30.606  1.00  0.00     0.029 A 
ATOM     57  N   UNL A   1      42.461  31.090  29.366  1.00  0.00    -0.354 N 
ATOM     58  N   UNL A   1      44.701  30.212  27.762  1.00  0.00    -0.248 NA
ATOM     59  C   UNL A   1      46.718  30.645  26.674  1.00  0.00     0.031 C 
ATOM     60  C   UNL A   1      42.450  33.162  30.166  1.00  0.00     0.029 A 
ATOM     61  C   UNL A   1      43.195  32.261  29.422  1.00  0.00     0.049 A 
ATOM     62  H   UNL A   1      42.733  30.275  28.885  1.00  0.00     0.167 HD
ATOM     63  C   UNL A   1      45.106  31.513  28.049  1.00  0.00     0.074 A 
ATOM     64  C   UNL A   1      46.372  31.715  27.379  1.00  0.00     0.031 C 
ATOM     65  C   UNL A   1      44.483  32.449  28.807  1.00  0.00     0.034 A 
BRANCH  52  66
ATOM     66  C   UNL A   1      38.965  30.588  30.871  1.00  0.00     0.023 A 
ATOM     67  C   UNL A   1      38.808  30.368  32.257  1.00  0.00     0.012 A 
ATOM     68  C   UNL A   1      37.919  31.218  30.162  1.00  0.00     0.148 A 
ATOM     69  C   UNL A   1      37.617  30.689  32.907  1.00  0.00     0.002 A 
ATOM     70  C   UNL A   1      36.757  31.592  30.831  1.00  0.00     0.091 A 
ATOM     71  F   UNL A   1      38.073  31.437  28.848  1.00  0.00    -0.205 F 
ATOM     72  C   UNL A   1      36.596  31.308  32.196  1.00  0.00     0.022 A 
BRANCH  70  73
ATOM     73  S   UNL A   1      35.415  32.491  30.040  1.00  0.00     0.127 S 
ATOM     74  O   UNL A   1      34.429  32.560  31.119  1.00  0.00    -0.237 OA
ATOM     75  O   UNL A   1      36.050  33.770  29.718  1.00  0.00    -0.237 OA
ATOM     76  O   UNL A   1      35.022  31.698  28.885  1.00  0.00    -0.744 OA
ENDBRANCH  70  73
ENDBRANCH  52  66
BRANCH  53  77
ATOM     77  C   UNL A   1      46.906  27.933  25.580  1.00  0.00     0.023 A 
ATOM     78  C   UNL A   1      46.718  28.010  24.186  1.00  0.00     0.012 A 
ATOM     79  C   UNL A   1      48.166  27.561  26.087  1.00  0.00     0.148 A 
ATOM     80  C   UNL A   1      47.749  27.685  23.308  1.00  0.00     0.002 A 
ATOM     81  C   UNL A   1      49.206  27.286  25.205  1.00  0.00     0.091 A 
ATOM     82  F   UNL A   1      48.326  27.510  27.416  1.00  0.00    -0.205 F 
ATOM     83  C   UNL A   1      48.995  27.330  23.817  1.00  0.00     0.022 A 
BRANCH  81  84
ATOM     84  S   UNL A   1      50.880  26.930  25.752  1.00  0.00     0.127 S 
ATOM     85  O   UNL A   1      50.706  25.647  26.430  1.00  0.00    -0.237 OA
ATOM     86  O   UNL A   1      51.598  26.862  24.479  1.00  0.00    -0.237 OA
ATOM     87  O   UNL A   1      51.264  28.043  26.608  1.00  0.00    -0.744 OA
ENDBRANCH  81  84
ENDBRANCH  53  77
BRANCH  65  88
ATOM     88  C   UNL A   1      45.182  33.761  29.053  1.00  0.00     0.023 A 
ATOM     89  C   UNL A   1      46.005  33.940  30.181  1.00  0.00     0.012 A 
ATOM     90  C   UNL A   1      45.101  34.786  28.086  1.00  0.00     0.148 A 
ATOM     91  C   UNL A   1      46.717  35.129  30.355  1.00  0.00     0.002 A 
ATOM     92  C   UNL A   1      45.856  35.942  28.238  1.00  0.00     0.091 A 
ATOM     93  F   UNL A   1      44.297  34.603  27.029  1.00  0.00    -0.205 F 
ATOM     94  C   UNL A   1      46.655  36.121  29.378  1.00  0.00     0.022 A 
BRANCH  92  95
ATOM     95  S   UNL A   1      45.918  37.225  26.981  1.00  0.00     0.127 S 
ATOM     96  O   UNL A   1      44.511  37.609  26.878  1.00  0.00    -0.237 OA
ATOM     97  O   UNL A   1      46.780  38.227  27.608  1.00  0.00    -0.237 OA
ATOM     98  O   UNL A   1      46.479  36.600  25.790  1.00  0.00    -0.744 OA
ENDBRANCH  92  95
ENDBRANCH  65  88
ENDBRANCH  39  40
ENDBRANCH  32  34
ENDBRANCH  31  32
ENDBRANCH  30  31
ENDBRANCH   1  30
TORSDOF 19
ENDMDL
MODEL 2
REMARK VINA RESULT:     -12.2      1.998      2.654
REMARK SMILES O=C(OCCOCCOC(=O)c1ccc(-c2c3nc(c(-c4cccc(S(=O)(=O)[O-])c4F)c4ccc([nH]4)c(-c4cccc(S(=O)(=O)[O-])c4F)c4nc(c(-c5cccc(S(=O)(=O)[O-])c5F)c5ccc2[nH]5)C=C4)C=C3)cc1)C1=Cc2cc(Cl)cc(-c3ccc(Cl)cc3)c2O[C@@H]1C(F)(F)F
REMARK SMILES IDX 7 1 6 2 5 3 4 4 3 5 2 6 1 7 75 8 76 9 92 10 77 11 91 12
REMARK SMILES IDX 78 13 90 14 79 15 82 16 80 17 81 18 93 19 94 20 95 21 96 22
REMARK SMILES IDX 83 23 84 24 89 25 85 26 88 27 86 28 87 29 8 30 9 31 10 32
REMARK SMILES IDX 11 33 12 34 13 35 74 36 14 37 73 38 15 39 16 40 17 41 67 42
REMARK SMILES IDX 18 43 72 44 66 45 68 46 19 47 71 48 65 49 64 50 20 52 52 53
REMARK SMILES IDX 32 54 51 55 33 56 36 57 50 58 69 59 34 60 35 61 49 63 70 64
REMARK SMILES IDX 37 65 21 66 22 67 30 68 23 69 25 70 31 71 24 72 26 73 27 74
REMARK SMILES IDX 28 75 29 76 53 77 54 78 62 79 55 80 57 81 63 82 56 83 58 84
REMARK SMILES IDX 59 85 60 86 61 87 38 88 39 89 47 90 40 91 42 92 48 93 41 94
REMARK SMILES IDX 43 95 44 96 45 97 46 98
REMARK H PARENT 68 51 36 62
REMARK Flexibility Score: inf
ROOT
ATOM      1  C   UNL A   1      36.696  20.151  25.004  1.00  0.00     0.202 C 
ENDROOT
BRANCH   1   2
ATOM      2  O   UNL A   1      35.355  20.331  24.488  1.00  0.00    -0.374 OA
BRANCH   2   3
ATOM      3  C   UNL A   1      33.871  19.969  25.056  1.00  0.00     0.202 C 
BRANCH   3   4
ATOM      4  C   UNL A   1      32.047  21.156  25.085  1.00  0.00     0.261 C 
BRANCH   4   5
ATOM      5  O   UNL A   1      31.784  22.433  24.194  1.00  0.00    -0.460 OA
BRANCH   5   6
ATOM      6  C   UNL A   1      31.428  23.515  24.895  1.00  0.00     0.338 C 
ATOM      7  O   UNL A   1      30.490  23.728  25.617  1.00  0.00    -0.246 OA
BRANCH   6   8
ATOM      8  C   UNL A   1      32.365  24.384  24.239  1.00  0.00     0.087 C 
ATOM      9  C   UNL A   1      31.672  25.257  23.279  1.00  0.00     0.027 C 
ATOM     10  C   UNL A   1      33.310  25.001  25.815  1.00  0.00     0.316 C 
ATOM     11  C   UNL A   1      31.428  27.028  23.546  1.00  0.00     0.019 A 
ATOM     12  O   UNL A   1      33.056  26.912  26.106  1.00  0.00    -0.475 OA
ATOM     13  C   UNL A   1      30.532  27.622  22.697  1.00  0.00     0.032 A 
ATOM     14  C   UNL A   1      32.021  27.890  24.949  1.00  0.00     0.135 A 
ATOM     15  C   UNL A   1      30.089  28.881  23.098  1.00  0.00     0.042 A 
ATOM     16  C   UNL A   1      31.576  29.226  25.199  1.00  0.00     0.026 A 
ATOM     17  Cl  UNL A   1      28.908  29.653  22.089  1.00  0.00    -0.084 Cl
ATOM     18  C   UNL A   1      30.535  29.594  24.277  1.00  0.00     0.033 A 
BRANCH  10  19
ATOM     19  C   UNL A   1      34.597  24.066  25.603  1.00  0.00     0.430 C 
ATOM     20  F   UNL A   1      35.777  24.634  25.925  1.00  0.00    -0.167 F 
ATOM     21  F   UNL A   1      34.494  23.004  26.458  1.00  0.00    -0.167 F 
ATOM     22  F   UNL A   1      34.700  23.498  24.379  1.00  0.00    -0.167 F 
ENDBRANCH  10  19
BRANCH  16  23
ATOM     23  C   UNL A   1      32.034  30.343  26.272  1.00  0.00    -0.015 A 
ATOM     24  C   UNL A   1      33.733  29.874  26.702  1.00  0.00     0.010 A 
ATOM     25  C   UNL A   1      31.471  32.223  26.804  1.00  0.00     0.010 A 
ATOM     26  C   UNL A   1      34.776  31.055  27.492  1.00  0.00     0.021 A 
ATOM     27  C   UNL A   1      32.656  33.317  27.599  1.00  0.00     0.021 A 
ATOM     28  C   UNL A   1      34.255  32.697  27.906  1.00  0.00     0.041 A 
ATOM     29  Cl  UNL A   1      35.385  33.744  28.674  1.00  0.00    -0.084 Cl
ENDBRANCH  16  23
ENDBRANCH   6   8
ENDBRANCH   5   6
ENDBRANCH   4   5
ENDBRANCH   3   4
ENDBRANCH   2   3
ENDBRANCH   1   2
BRANCH   1  30
ATOM     30  C   UNL A   1      37.266  21.295  25.840  1.00  0.00     0.261 C 
BRANCH  30  31
ATOM     31  O   UNL A   1      38.497  21.691  25.294  1.00  0.00    -0.460 OA
BRANCH  31  32
ATOM     32  C   UNL A   1      39.540  21.231  26.005  1.00  0.00     0.338 C 
ATOM     33  O   UNL A   1      40.109  20.158  25.959  1.00  0.00    -0.246 OA
BRANCH  32  34
ATOM     34  C   UNL A   1      39.918  22.346  26.831  1.00  0.00     0.060 A 
ATOM     35  C   UNL A   1      39.235  23.955  26.504  1.00  0.00     0.016 A 
ATOM     36  C   UNL A   1      41.283  22.203  28.021  1.00  0.00     0.016 A 
ATOM     37  C   UNL A   1      39.872  25.445  27.257  1.00  0.00     0.010 A 
ATOM     38  C   UNL A   1      41.943  23.923  28.850  1.00  0.00     0.010 A 
ATOM     39  C   UNL A   1      41.205  25.478  28.394  1.00  0.00    -0.014 A 
BRANCH  39  40
ATOM     40  C   UNL A   1      42.085  26.652  28.724  1.00  0.00     0.031 A 
ATOM     41  C   UNL A   1      41.509  27.879  29.418  1.00  0.00     0.074 A 
ATOM     42  C   UNL A   1      43.219  26.809  28.015  1.00  0.00     0.049 A 
ATOM     43  N   UNL A   1      41.970  29.108  29.481  1.00  0.00    -0.248 NA
ATOM     44  C   UNL A   1      40.197  27.725  30.054  1.00  0.00     0.031 C 
ATOM     45  C   UNL A   1      43.793  25.804  27.125  1.00  0.00     0.029 A 
ATOM     46  N   UNL A   1      44.030  27.908  27.852  1.00  0.00    -0.354 N 
ATOM     47  C   UNL A   1      40.973  29.870  30.096  1.00  0.00     0.074 A 
ATOM     48  C   UNL A   1      39.861  28.978  30.322  1.00  0.00     0.031 C 
ATOM     49  C   UNL A   1      44.832  26.345  26.468  1.00  0.00     0.029 A 
ATOM     50  C   UNL A   1      45.002  27.734  26.892  1.00  0.00     0.049 A 
ATOM     51  H   UNL A   1      43.927  28.738  28.372  1.00  0.00     0.167 HD
ATOM     52  C   UNL A   1      40.981  31.172  30.485  1.00  0.00     0.034 A 
ATOM     53  C   UNL A   1      45.924  28.590  26.403  1.00  0.00     0.034 A 
ATOM     54  C   UNL A   1      42.103  32.053  30.299  1.00  0.00     0.049 A 
ATOM     55  C   UNL A   1      46.011  29.995  26.943  1.00  0.00     0.074 A 
ATOM     56  C   UNL A   1      42.307  33.320  30.819  1.00  0.00     0.029 A 
ATOM     57  N   UNL A   1      43.200  31.766  29.505  1.00  0.00    -0.354 N 
ATOM     58  N   UNL A   1      45.198  30.618  27.759  1.00  0.00    -0.248 NA
ATOM     59  C   UNL A   1      47.178  30.795  26.540  1.00  0.00     0.031 C 
ATOM     60  C   UNL A   1      43.510  33.816  30.303  1.00  0.00     0.029 A 
ATOM     61  C   UNL A   1      44.081  32.832  29.512  1.00  0.00     0.049 A 
ATOM     62  H   UNL A   1      43.332  30.926  29.008  1.00  0.00     0.167 HD
ATOM     63  C   UNL A   1      45.786  31.854  28.017  1.00  0.00     0.074 A 
ATOM     64  C   UNL A   1      47.021  31.896  27.265  1.00  0.00     0.031 C 
ATOM     65  C   UNL A   1      45.340  32.856  28.814  1.00  0.00     0.034 A 
BRANCH  52  66
ATOM     66  C   UNL A   1      39.775  31.708  31.238  1.00  0.00     0.023 A 
ATOM     67  C   UNL A   1      38.712  32.291  30.515  1.00  0.00     0.012 A 
ATOM     68  C   UNL A   1      39.650  31.577  32.638  1.00  0.00     0.148 A 
ATOM     69  C   UNL A   1      37.591  32.802  31.167  1.00  0.00     0.002 A 
ATOM     70  C   UNL A   1      38.500  32.035  33.277  1.00  0.00     0.091 A 
ATOM     71  F   UNL A   1      40.655  31.014  33.325  1.00  0.00    -0.205 F 
ATOM     72  C   UNL A   1      37.482  32.666  32.546  1.00  0.00     0.022 A 
BRANCH  70  73
ATOM     73  S   UNL A   1      38.202  31.819  35.038  1.00  0.00     0.127 S 
ATOM     74  O   UNL A   1      39.281  32.618  35.619  1.00  0.00    -0.237 OA
ATOM     75  O   UNL A   1      36.867  32.397  35.196  1.00  0.00    -0.237 OA
ATOM     76  O   UNL A   1      38.280  30.388  35.288  1.00  0.00    -0.744 OA
ENDBRANCH  70  73
ENDBRANCH  52  66
BRANCH  53  77
ATOM     77  C   UNL A   1      46.943  28.090  25.438  1.00  0.00     0.023 A 
ATOM     78  C   UNL A   1      46.653  28.155  24.060  1.00  0.00     0.012 A 
ATOM     79  C   UNL A   1      48.194  27.601  25.858  1.00  0.00     0.148 A 
ATOM     80  C   UNL A   1      47.573  27.704  23.117  1.00  0.00     0.002 A 
ATOM     81  C   UNL A   1      49.127  27.198  24.908  1.00  0.00     0.091 A 
ATOM     82  F   UNL A   1      48.453  27.564  27.172  1.00  0.00    -0.205 F 
ATOM     83  C   UNL A   1      48.812  27.233  23.540  1.00  0.00     0.022 A 
BRANCH  81  84
ATOM     84  S   UNL A   1      50.794  26.683  25.336  1.00  0.00     0.127 S 
ATOM     85  O   UNL A   1      51.268  27.823  26.117  1.00  0.00    -0.237 OA
ATOM     86  O   UNL A   1      50.538  25.469  26.111  1.00  0.00    -0.237 OA
ATOM     87  O   UNL A   1      51.479  26.462  24.071  1.00  0.00    -0.744 OA
ENDBRANCH  81  84
ENDBRANCH  53  77
BRANCH  65  88
ATOM     88  C   UNL A   1      46.218  34.065  29.012  1.00  0.00     0.023 A 
ATOM     89  C   UNL A   1      47.198  34.088  30.022  1.00  0.00     0.012 A 
ATOM     90  C   UNL A   1      46.133  35.144  28.106  1.00  0.00     0.148 A 
ATOM     91  C   UNL A   1      48.064  35.177  30.142  1.00  0.00     0.002 A 
ATOM     92  C   UNL A   1      47.034  36.197  28.197  1.00  0.00     0.091 A 
ATOM     93  F   UNL A   1      45.180  35.111  27.163  1.00  0.00    -0.205 F 
ATOM     94  C   UNL A   1      47.992  36.222  29.222  1.00  0.00     0.022 A 
BRANCH  92  95
ATOM     95  S   UNL A   1      47.083  37.531  26.995  1.00  0.00     0.127 S 
ATOM     96  O   UNL A   1      45.785  38.170  27.207  1.00  0.00    -0.237 OA
ATOM     97  O   UNL A   1      48.231  38.315  27.452  1.00  0.00    -0.237 OA
ATOM     98  O   UNL A   1      47.258  36.899  25.693  1.00  0.00    -0.744 OA
ENDBRANCH  92  95
ENDBRANCH  65  88
ENDBRANCH  39  40
ENDBRANCH  32  34
ENDBRANCH  31  32
ENDBRANCH  30  31
ENDBRANCH   1  30
TORSDOF 19
ENDMDL
MODEL 3
REMARK VINA RESULT:     -11.9      0.893      7.458
REMARK SMILES O=C(OCCOCCOC(=O)c1ccc(-c2c3nc(c(-c4cccc(S(=O)(=O)[O-])c4F)c4ccc([nH]4)c(-c4cccc(S(=O)(=O)[O-])c4F)c4nc(c(-c5cccc(S(=O)(=O)[O-])c5F)c5ccc2[nH]5)C=C4)C=C3)cc1)C1=Cc2cc(Cl)cc(-c3ccc(Cl)cc3)c2O[C@@H]1C(F)(F)F
REMARK SMILES IDX 7 1 6 2 5 3 4 4 3 5 2 6 1 7 75 8 76 9 92 10 77 11 91 12
REMARK SMILES IDX 78 13 90 14 79 15 82 16 80 17 81 18 93 19 94 20 95 21 96 22
REMARK SMILES IDX 83 23 84 24 89 25 85 26 88 27 86 28 87 29 8 30 9 31 10 32
REMARK SMILES IDX 11 33 12 34 13 35 74 36 14 37 73 38 15 39 16 40 17 41 67 42
REMARK SMILES IDX 18 43 72 44 66 45 68 46 19 47 71 48 65 49 64 50 20 52 52 53
REMARK SMILES IDX 32 54 51 55 33 56 36 57 50 58 69 59 34 60 35 61 49 63 70 64
REMARK SMILES IDX 37 65 21 66 22 67 30 68 23 69 25 70 31 71 24 72 26 73 27 74
REMARK SMILES IDX 28 75 29 76 53 77 54 78 62 79 55 80 57 81 63 82 56 83 58 84
REMARK SMILES IDX 59 85 60 86 61 87 38 88 39 89 47 90 40 91 42 92 48 93 41 94
REMARK SMILES IDX 43 95 44 96 45 97 46 98
REMARK H PARENT 68 51 36 62
REMARK Flexibility Score: inf
ROOT
ATOM      1  C   UNL A   1      37.251  19.220  24.402  1.00  0.00     0.202 C 
ENDROOT
BRANCH   1   2
ATOM      2  O   UNL A   1      35.928  19.121  24.983  1.00  0.00    -0.374 OA
BRANCH   2   3
ATOM      3  C   UNL A   1      34.619  18.207  24.658  1.00  0.00     0.202 C 
BRANCH   3   4
ATOM      4  C   UNL A   1      32.516  18.753  24.541  1.00  0.00     0.261 C 
BRANCH   4   5
ATOM      5  O   UNL A   1      31.970  20.160  24.077  1.00  0.00    -0.460 OA
BRANCH   5   6
ATOM      6  C   UNL A   1      31.886  21.058  25.064  1.00  0.00     0.338 C 
ATOM      7  O   UNL A   1      30.958  21.421  25.739  1.00  0.00    -0.246 OA
BRANCH   6   8
ATOM      8  C   UNL A   1      33.181  21.624  24.808  1.00  0.00     0.087 C 
ATOM      9  C   UNL A   1      33.291  22.044  23.403  1.00  0.00     0.027 C 
ATOM     10  C   UNL A   1      33.257  22.821  26.331  1.00  0.00     0.316 C 
ATOM     11  C   UNL A   1      33.308  23.775  22.883  1.00  0.00     0.019 A 
ATOM     12  O   UNL A   1      33.281  24.691  25.777  1.00  0.00    -0.475 OA
ATOM     13  C   UNL A   1      33.135  23.976  21.539  1.00  0.00     0.032 A 
ATOM     14  C   UNL A   1      33.234  25.124  23.995  1.00  0.00     0.135 A 
ATOM     15  C   UNL A   1      32.813  25.283  21.177  1.00  0.00     0.042 A 
ATOM     16  C   UNL A   1      33.006  26.444  23.492  1.00  0.00     0.026 A 
ATOM     17  Cl  UNL A   1      32.526  25.580  19.493  1.00  0.00    -0.084 Cl
ATOM     18  C   UNL A   1      32.706  26.405  22.086  1.00  0.00     0.033 A 
BRANCH  10  19
ATOM     19  C   UNL A   1      34.242  21.904  27.204  1.00  0.00     0.430 C 
ATOM     20  F   UNL A   1      35.455  21.686  26.659  1.00  0.00    -0.167 F 
ATOM     21  F   UNL A   1      34.514  22.565  28.370  1.00  0.00    -0.167 F 
ATOM     22  F   UNL A   1      33.721  20.723  27.607  1.00  0.00    -0.167 F 
ENDBRANCH  10  19
BRANCH  16  23
ATOM     23  C   UNL A   1      33.046  27.897  24.194  1.00  0.00    -0.015 A 
ATOM     24  C   UNL A   1      31.465  28.657  23.730  1.00  0.00     0.010 A 
ATOM     25  C   UNL A   1      34.043  28.792  25.724  1.00  0.00     0.010 A 
ATOM     26  C   UNL A   1      30.885  30.055  24.633  1.00  0.00     0.021 A 
ATOM     27  C   UNL A   1      33.315  30.210  26.554  1.00  0.00     0.021 A 
ATOM     28  C   UNL A   1      31.772  30.782  25.984  1.00  0.00     0.041 A 
ATOM     29  Cl  UNL A   1      31.080  32.145  26.777  1.00  0.00    -0.084 Cl
ENDBRANCH  16  23
ENDBRANCH   6   8
ENDBRANCH   5   6
ENDBRANCH   4   5
ENDBRANCH   3   4
ENDBRANCH   2   3
ENDBRANCH   1   2
BRANCH   1  30
ATOM     30  C   UNL A   1      38.429  19.163  25.372  1.00  0.00     0.261 C 
BRANCH  30  31
ATOM     31  O   UNL A   1      38.912  20.463  25.582  1.00  0.00    -0.460 OA
BRANCH  31  32
ATOM     32  C   UNL A   1      40.027  20.477  26.333  1.00  0.00     0.338 C 
ATOM     33  O   UNL A   1      40.870  19.618  26.500  1.00  0.00    -0.246 OA
BRANCH  32  34
ATOM     34  C   UNL A   1      40.066  21.808  26.876  1.00  0.00     0.060 A 
ATOM     35  C   UNL A   1      38.968  23.052  26.236  1.00  0.00     0.016 A 
ATOM     36  C   UNL A   1      41.396  22.315  28.004  1.00  0.00     0.016 A 
ATOM     37  C   UNL A   1      39.153  24.789  26.613  1.00  0.00     0.010 A 
ATOM     38  C   UNL A   1      41.538  24.290  28.403  1.00  0.00     0.010 A 
ATOM     39  C   UNL A   1      40.405  25.440  27.652  1.00  0.00    -0.014 A 
BRANCH  39  40
ATOM     40  C   UNL A   1      40.918  26.853  27.676  1.00  0.00     0.031 A 
ATOM     41  C   UNL A   1      42.299  27.183  27.123  1.00  0.00     0.074 A 
ATOM     42  C   UNL A   1      40.384  27.704  28.573  1.00  0.00     0.049 A 
ATOM     43  N   UNL A   1      43.073  28.221  27.348  1.00  0.00    -0.248 NA
ATOM     44  C   UNL A   1      42.929  26.171  26.269  1.00  0.00     0.031 C 
ATOM     45  C   UNL A   1      39.178  27.444  29.354  1.00  0.00     0.029 A 
ATOM     46  N   UNL A   1      40.844  28.909  29.051  1.00  0.00    -0.354 N 
ATOM     47  C   UNL A   1      44.292  27.944  26.724  1.00  0.00     0.074 A 
ATOM     48  C   UNL A   1      44.174  26.615  26.173  1.00  0.00     0.031 C 
ATOM     49  C   UNL A   1      39.020  28.430  30.252  1.00  0.00     0.029 A 
ATOM     50  C   UNL A   1      40.109  29.396  30.108  1.00  0.00     0.049 A 
ATOM     51  H   UNL A   1      41.623  29.378  28.673  1.00  0.00     0.167 HD
ATOM     52  C   UNL A   1      45.396  28.723  26.574  1.00  0.00     0.034 A 
ATOM     53  C   UNL A   1      40.285  30.489  30.878  1.00  0.00     0.034 A 
ATOM     54  C   UNL A   1      45.502  30.062  27.086  1.00  0.00     0.049 A 
ATOM     55  C   UNL A   1      41.440  31.421  30.612  1.00  0.00     0.074 A 
ATOM     56  C   UNL A   1      46.476  31.014  26.834  1.00  0.00     0.029 A 
ATOM     57  N   UNL A   1      44.613  30.630  27.982  1.00  0.00    -0.354 N 
ATOM     58  N   UNL A   1      42.454  31.268  29.798  1.00  0.00    -0.248 NA
ATOM     59  C   UNL A   1      41.441  32.707  31.328  1.00  0.00     0.031 C 
ATOM     60  C   UNL A   1      46.197  32.143  27.612  1.00  0.00     0.029 A 
ATOM     61  C   UNL A   1      45.016  31.914  28.301  1.00  0.00     0.049 A 
ATOM     62  H   UNL A   1      43.811  30.185  28.341  1.00  0.00     0.167 HD
ATOM     63  C   UNL A   1      43.176  32.458  29.855  1.00  0.00     0.074 A 
ATOM     64  C   UNL A   1      42.487  33.321  30.790  1.00  0.00     0.031 C 
ATOM     65  C   UNL A   1      44.303  32.800  29.184  1.00  0.00     0.034 A 
BRANCH  52  66
ATOM     66  C   UNL A   1      46.550  28.187  25.743  1.00  0.00     0.023 A 
ATOM     67  C   UNL A   1      46.489  28.279  24.336  1.00  0.00     0.012 A 
ATOM     68  C   UNL A   1      47.717  27.661  26.339  1.00  0.00     0.148 A 
ATOM     69  C   UNL A   1      47.523  27.792  23.537  1.00  0.00     0.002 A 
ATOM     70  C   UNL A   1      48.771  27.233  25.536  1.00  0.00     0.091 A 
ATOM     71  F   UNL A   1      47.779  27.584  27.676  1.00  0.00    -0.205 F 
ATOM     72  C   UNL A   1      48.666  27.276  24.137  1.00  0.00     0.022 A 
BRANCH  70  73
ATOM     73  S   UNL A   1      50.337  26.648  26.200  1.00  0.00     0.127 S 
ATOM     74  O   UNL A   1      50.812  27.830  26.918  1.00  0.00    -0.237 OA
ATOM     75  O   UNL A   1      49.911  25.545  27.063  1.00  0.00    -0.237 OA
ATOM     76  O   UNL A   1      51.138  26.250  25.053  1.00  0.00    -0.744 OA
ENDBRANCH  70  73
ENDBRANCH  52  66
BRANCH  53  77
ATOM     77  C   UNL A   1      39.252  30.842  31.891  1.00  0.00     0.023 A 
ATOM     78  C   UNL A   1      39.469  30.468  33.233  1.00  0.00     0.012 A 
ATOM     79  C   UNL A   1      38.096  31.572  31.557  1.00  0.00     0.148 A 
ATOM     80  C   UNL A   1      38.535  30.777  34.219  1.00  0.00     0.002 A 
ATOM     81  C   UNL A   1      37.192  31.921  32.556  1.00  0.00     0.091 A 
ATOM     82  F   UNL A   1      37.919  31.931  30.279  1.00  0.00    -0.205 F 
ATOM     83  C   UNL A   1      37.401  31.509  33.882  1.00  0.00     0.022 A 
BRANCH  81  84
ATOM     84  S   UNL A   1      35.758  32.959  32.253  1.00  0.00     0.127 S 
ATOM     85  O   UNL A   1      36.372  34.164  31.700  1.00  0.00    -0.237 OA
ATOM     86  O   UNL A   1      35.007  32.152  31.291  1.00  0.00    -0.237 OA
ATOM     87  O   UNL A   1      35.107  33.125  33.545  1.00  0.00    -0.744 OA
ENDBRANCH  81  84
ENDBRANCH  53  77
BRANCH  65  88
ATOM     88  C   UNL A   1      44.839  34.200  29.341  1.00  0.00     0.023 A 
ATOM     89  C   UNL A   1      45.770  34.507  30.352  1.00  0.00     0.012 A 
ATOM     90  C   UNL A   1      44.491  35.190  28.398  1.00  0.00     0.148 A 
ATOM     91  C   UNL A   1      46.326  35.785  30.436  1.00  0.00     0.002 A 
ATOM     92  C   UNL A   1      45.091  36.441  28.455  1.00  0.00     0.091 A 
ATOM     93  F   UNL A   1      43.589  34.883  27.455  1.00  0.00    -0.205 F 
ATOM     94  C   UNL A   1      45.999  36.746  29.481  1.00  0.00     0.022 A 
BRANCH  92  95
ATOM     95  S   UNL A   1      44.809  37.703  27.207  1.00  0.00     0.127 S 
ATOM     96  O   UNL A   1      43.403  37.483  26.873  1.00  0.00    -0.237 OA
ATOM     97  O   UNL A   1      45.074  38.935  27.951  1.00  0.00    -0.237 OA
ATOM     98  O   UNL A   1      45.753  37.428  26.131  1.00  0.00    -0.744 OA
ENDBRANCH  92  95
ENDBRANCH  65  88
ENDBRANCH  39  40
ENDBRANCH  32  34
ENDBRANCH  31  32
ENDBRANCH  30  31
ENDBRANCH   1  30
TORSDOF 19
ENDMDL
