MODEL 1
REMARK VINA RESULT:     -12.0      0.000      0.000
REMARK SMILES CC(C)[C@H](NC(=O)[C@H](Cc1ccccc1)n1c(=O)[nH]c2ccccc2c1=O)C(=O)OCCOCCOC(=O)c1ccc(-c2c3nc(c(-c4cccc(S(=O)(=O)[O-])c4F)c4ccc([nH]4)c(-c4cccc(S(=O)(=O)[O-])c4F)c4nc(c(-c5cccc(S(=O)(=O)[O-])c5F)c5ccc2[nH]5)C=C4)C=C3)cc1
REMARK SMILES IDX 32 1 31 2 30 3 28 4 29 5 4 6 2 7 1 8 3 9 5 10 6 11 7 13 8 14
REMARK SMILES IDX 16 15 17 16 26 17 18 18 19 19 25 20 27 21 20 22 24 24 21 25
REMARK SMILES IDX 23 26 22 27 9 28 10 29 11 30 15 31 12 32 14 33 13 34 33 35
REMARK SMILES IDX 34 36 35 37 36 38 37 39 38 40 39 41 40 42 101 43 41 44
REMARK SMILES IDX 100 45 42 46 43 47 44 48 94 49 45 50 99 51 93 52 95 53 46 54
REMARK SMILES IDX 98 55 92 56 91 57 47 59 79 60 59 61 78 62 60 63 63 64 77 65
REMARK SMILES IDX 96 66 61 67 62 68 76 70 97 71 64 72 48 73 49 74 57 75 50 76
REMARK SMILES IDX 52 77 58 78 51 79 53 80 54 81 55 82 56 83 80 84 81 85 89 86
REMARK SMILES IDX 82 87 84 88 90 89 83 90 85 91 86 92 87 93 88 94 65 95 66 96
REMARK SMILES IDX 74 97 67 98 69 99 75 100 68 101 70 102 71 103 72 104 73 105
REMARK H PARENT 5 12 19 23 95 58 63 69
REMARK Flexibility Score: inf
ROOT
ATOM      1  C   UNL A   1      36.939  20.769  24.664  1.00  0.00     0.202 C 
ENDROOT
BRANCH   1   2
ATOM      2  C   UNL A   1      37.033  22.228  24.064  1.00  0.00     0.261 C 
BRANCH   2   3
ATOM      3  O   UNL A   1      36.194  22.624  22.918  1.00  0.00    -0.462 OA
BRANCH   3   4
ATOM      4  C   UNL A   1      34.900  23.048  23.158  1.00  0.00     0.328 C 
ATOM      5  O   UNL A   1      34.054  22.991  22.265  1.00  0.00    -0.250 OA
BRANCH   4   6
ATOM      6  C   UNL A   1      34.477  23.434  24.706  1.00  0.00     0.194 C 
BRANCH   6   7
ATOM      7  C   UNL A   1      35.182  24.727  25.272  1.00  0.00     0.017 C 
ATOM      8  C   UNL A   1      34.277  25.883  25.680  1.00  0.00     0.010 C 
ATOM      9  C   UNL A   1      36.057  24.371  26.502  1.00  0.00     0.010 C 
ENDBRANCH   6   7
BRANCH   6  10
ATOM     10  N   UNL A   1      34.350  22.548  25.947  1.00  0.00    -0.341 N 
ATOM     11  C   UNL A   1      33.311  21.983  26.643  1.00  0.00     0.244 C 
ATOM     12  H   UNL A   1      35.225  22.331  26.342  1.00  0.00     0.164 HD
ATOM     13  O   UNL A   1      33.448  21.712  27.835  1.00  0.00    -0.273 OA
BRANCH  11  14
ATOM     14  C   UNL A   1      32.062  21.646  25.869  1.00  0.00     0.189 C 
BRANCH  14  15
ATOM     15  N   UNL A   1      31.331  22.997  25.684  1.00  0.00    -0.247 N 
ATOM     16  C   UNL A   1      30.504  23.586  26.624  1.00  0.00     0.329 A 
ATOM     17  C   UNL A   1      30.996  23.454  24.414  1.00  0.00     0.264 A 
ATOM     18  O   UNL A   1      29.732  23.027  27.396  1.00  0.00    -0.248 OA
ATOM     19  N   UNL A   1      30.494  24.956  26.640  1.00  0.00    -0.307 N 
ATOM     20  C   UNL A   1      30.802  24.949  24.298  1.00  0.00     0.064 A 
ATOM     21  O   UNL A   1      30.947  22.762  23.403  1.00  0.00    -0.268 OA
ATOM     22  C   UNL A   1      30.741  25.673  25.483  1.00  0.00     0.055 A 
ATOM     23  H   UNL A   1      30.308  25.434  27.479  1.00  0.00     0.171 HD
ATOM     24  C   UNL A   1      30.904  25.637  23.087  1.00  0.00     0.016 A 
ATOM     25  C   UNL A   1      30.871  27.059  25.507  1.00  0.00     0.027 A 
ATOM     26  C   UNL A   1      31.067  27.029  23.098  1.00  0.00     0.001 A 
ATOM     27  C   UNL A   1      31.080  27.733  24.307  1.00  0.00     0.002 A 
ENDBRANCH  14  15
BRANCH  14  28
ATOM     28  C   UNL A   1      32.719  20.519  24.804  1.00  0.00     0.071 C 
BRANCH  28  29
ATOM     29  C   UNL A   1      33.132  19.052  24.867  1.00  0.00    -0.045 A 
ATOM     30  C   UNL A   1      32.248  18.025  25.258  1.00  0.00     0.004 A 
ATOM     31  C   UNL A   1      34.354  18.629  24.378  1.00  0.00     0.004 A 
ATOM     32  C   UNL A   1      32.647  16.675  25.287  1.00  0.00     0.000 A 
ATOM     33  C   UNL A   1      34.793  17.300  24.454  1.00  0.00     0.000 A 
ATOM     34  C   UNL A   1      33.938  16.316  24.917  1.00  0.00     0.000 A 
ENDBRANCH  28  29
ENDBRANCH  14  28
ENDBRANCH  11  14
ENDBRANCH   6  10
ENDBRANCH   4   6
ENDBRANCH   3   4
ENDBRANCH   2   3
ENDBRANCH   1   2
BRANCH   1  35
ATOM     35  O   UNL A   1      38.029  19.827  24.736  1.00  0.00    -0.374 OA
BRANCH  35  36
ATOM     36  C   UNL A   1      39.147  20.171  25.544  1.00  0.00     0.202 C 
BRANCH  36  37
ATOM     37  C   UNL A   1      40.327  19.191  25.755  1.00  0.00     0.261 C 
BRANCH  37  38
ATOM     38  O   UNL A   1      41.230  19.747  26.745  1.00  0.00    -0.460 OA
BRANCH  38  39
ATOM     39  C   UNL A   1      42.242  20.527  26.248  1.00  0.00     0.338 C 
ATOM     40  O   UNL A   1      42.864  20.308  25.236  1.00  0.00    -0.246 OA
BRANCH  39  41
ATOM     41  C   UNL A   1      42.182  21.864  26.912  1.00  0.00     0.060 A 
ATOM     42  C   UNL A   1      41.952  22.944  26.053  1.00  0.00     0.016 A 
ATOM     43  C   UNL A   1      42.216  22.079  28.295  1.00  0.00     0.016 A 
ATOM     44  C   UNL A   1      41.745  24.231  26.559  1.00  0.00     0.010 A 
ATOM     45  C   UNL A   1      42.071  23.389  28.807  1.00  0.00     0.010 A 
ATOM     46  C   UNL A   1      41.865  24.475  27.934  1.00  0.00    -0.014 A 
BRANCH  46  47
ATOM     47  C   UNL A   1      42.156  25.884  28.329  1.00  0.00     0.031 A 
ATOM     48  C   UNL A   1      43.537  26.386  27.982  1.00  0.00     0.074 A 
ATOM     49  C   UNL A   1      41.242  26.736  28.836  1.00  0.00     0.049 A 
ATOM     50  N   UNL A   1      44.010  27.603  27.986  1.00  0.00    -0.248 NA
ATOM     51  C   UNL A   1      44.496  25.371  27.508  1.00  0.00     0.031 C 
ATOM     52  C   UNL A   1      39.858  26.407  29.165  1.00  0.00     0.029 A 
ATOM     53  N   UNL A   1      41.351  28.072  29.152  1.00  0.00    -0.354 N 
ATOM     54  C   UNL A   1      45.304  27.499  27.487  1.00  0.00     0.074 A 
ATOM     55  C   UNL A   1      45.545  26.107  27.190  1.00  0.00     0.031 C 
ATOM     56  C   UNL A   1      39.251  27.506  29.654  1.00  0.00     0.029 A 
ATOM     57  C   UNL A   1      40.202  28.619  29.678  1.00  0.00     0.049 A 
ATOM     58  H   UNL A   1      42.178  28.590  29.015  1.00  0.00     0.167 HD
ATOM     59  C   UNL A   1      46.222  28.470  27.288  1.00  0.00     0.034 A 
ATOM     60  C   UNL A   1      39.955  29.872  30.126  1.00  0.00     0.034 A 
ATOM     61  C   UNL A   1      46.033  29.835  27.670  1.00  0.00     0.049 A 
ATOM     62  C   UNL A   1      41.043  30.919  30.014  1.00  0.00     0.074 A 
ATOM     63  C   UNL A   1      46.935  30.879  27.607  1.00  0.00     0.029 A 
ATOM     64  N   UNL A   1      44.868  30.334  28.231  1.00  0.00    -0.354 N 
ATOM     65  N   UNL A   1      42.224  30.827  29.447  1.00  0.00    -0.248 NA
ATOM     66  C   UNL A   1      40.761  32.250  30.581  1.00  0.00     0.031 C 
ATOM     67  C   UNL A   1      46.324  32.007  28.162  1.00  0.00     0.029 A 
ATOM     68  C   UNL A   1      45.033  31.669  28.541  1.00  0.00     0.049 A 
ATOM     69  H   UNL A   1      44.046  29.814  28.387  1.00  0.00     0.167 HD
ATOM     70  C   UNL A   1      42.807  32.087  29.560  1.00  0.00     0.074 A 
ATOM     71  C   UNL A   1      41.845  32.932  30.236  1.00  0.00     0.031 C 
ATOM     72  C   UNL A   1      44.033  32.504  29.156  1.00  0.00     0.034 A 
BRANCH  59  73
ATOM     73  C   UNL A   1      47.519  28.050  26.662  1.00  0.00     0.023 A 
ATOM     74  C   UNL A   1      48.670  27.932  27.468  1.00  0.00     0.012 A 
ATOM     75  C   UNL A   1      47.612  27.823  25.277  1.00  0.00     0.148 A 
ATOM     76  C   UNL A   1      49.904  27.623  26.898  1.00  0.00     0.002 A 
ATOM     77  C   UNL A   1      48.839  27.489  24.720  1.00  0.00     0.091 A 
ATOM     78  F   UNL A   1      46.511  27.980  24.530  1.00  0.00    -0.205 F 
ATOM     79  C   UNL A   1      49.987  27.397  25.525  1.00  0.00     0.022 A 
BRANCH  77  80
ATOM     80  S   UNL A   1      49.043  27.155  22.968  1.00  0.00     0.127 S 
ATOM     81  O   UNL A   1      48.451  28.351  22.369  1.00  0.00    -0.237 OA
ATOM     82  O   UNL A   1      50.498  27.065  22.841  1.00  0.00    -0.237 OA
ATOM     83  O   UNL A   1      48.333  25.910  22.711  1.00  0.00    -0.744 OA
ENDBRANCH  77  80
ENDBRANCH  59  73
BRANCH  60  84
ATOM     84  C   UNL A   1      38.620  30.228  30.703  1.00  0.00     0.023 A 
ATOM     85  C   UNL A   1      38.287  29.828  32.013  1.00  0.00     0.012 A 
ATOM     86  C   UNL A   1      37.668  30.951  29.955  1.00  0.00     0.148 A 
ATOM     87  C   UNL A   1      37.032  30.119  32.556  1.00  0.00     0.002 A 
ATOM     88  C   UNL A   1      36.441  31.285  30.520  1.00  0.00     0.091 A 
ATOM     89  F   UNL A   1      37.975  31.289  28.695  1.00  0.00    -0.205 F 
ATOM     90  C   UNL A   1      36.114  30.858  31.814  1.00  0.00     0.022 A 
BRANCH  88  91
ATOM     91  S   UNL A   1      35.255  32.341  29.676  1.00  0.00     0.127 S 
ATOM     92  O   UNL A   1      34.757  31.457  28.627  1.00  0.00    -0.237 OA
ATOM     93  O   UNL A   1      34.295  32.637  30.740  1.00  0.00    -0.237 OA
ATOM     94  O   UNL A   1      36.020  33.498  29.227  1.00  0.00    -0.744 OA
ENDBRANCH  88  91
ENDBRANCH  60  84
BRANCH  72  95
ATOM     95  C   UNL A   1      44.420  33.938  29.398  1.00  0.00     0.023 A 
ATOM     96  C   UNL A   1      45.218  34.265  30.511  1.00  0.00     0.012 A 
ATOM     97  C   UNL A   1      44.135  34.924  28.431  1.00  0.00     0.148 A 
ATOM     98  C   UNL A   1      45.724  35.555  30.661  1.00  0.00     0.002 A 
ATOM     99  C   UNL A   1      44.681  36.195  28.565  1.00  0.00     0.091 A 
ATOM    100  F   UNL A   1      43.362  34.591  27.387  1.00  0.00    -0.205 F 
ATOM    101  C   UNL A   1      45.470  36.514  29.682  1.00  0.00     0.022 A 
BRANCH  99 102
ATOM    102  S   UNL A   1      44.496  37.457  27.300  1.00  0.00     0.127 S 
ATOM    103  O   UNL A   1      43.299  37.001  26.597  1.00  0.00    -0.237 OA
ATOM    104  O   UNL A   1      44.312  38.672  28.095  1.00  0.00    -0.237 OA
ATOM    105  O   UNL A   1      45.728  37.428  26.522  1.00  0.00    -0.744 OA
ENDBRANCH  99 102
ENDBRANCH  72  95
ENDBRANCH  46  47
ENDBRANCH  39  41
ENDBRANCH  38  39
ENDBRANCH  37  38
ENDBRANCH  36  37
ENDBRANCH  35  36
ENDBRANCH   1  35
TORSDOF 23
ENDMDL
MODEL 2
REMARK VINA RESULT:     -11.9      2.600      8.426
REMARK SMILES CC(C)[C@H](NC(=O)[C@H](Cc1ccccc1)n1c(=O)[nH]c2ccccc2c1=O)C(=O)OCCOCCOC(=O)c1ccc(-c2c3nc(c(-c4cccc(S(=O)(=O)[O-])c4F)c4ccc([nH]4)c(-c4cccc(S(=O)(=O)[O-])c4F)c4nc(c(-c5cccc(S(=O)(=O)[O-])c5F)c5ccc2[nH]5)C=C4)C=C3)cc1
REMARK SMILES IDX 32 1 31 2 30 3 28 4 29 5 4 6 2 7 1 8 3 9 5 10 6 11 7 13 8 14
REMARK SMILES IDX 16 15 17 16 26 17 18 18 19 19 25 20 27 21 20 22 24 24 21 25
REMARK SMILES IDX 23 26 22 27 9 28 10 29 11 30 15 31 12 32 14 33 13 34 33 35
REMARK SMILES IDX 34 36 35 37 36 38 37 39 38 40 39 41 40 42 101 43 41 44
REMARK SMILES IDX 100 45 42 46 43 47 44 48 94 49 45 50 99 51 93 52 95 53 46 54
REMARK SMILES IDX 98 55 92 56 91 57 47 59 79 60 59 61 78 62 60 63 63 64 77 65
REMARK SMILES IDX 96 66 61 67 62 68 76 70 97 71 64 72 48 73 49 74 57 75 50 76
REMARK SMILES IDX 52 77 58 78 51 79 53 80 54 81 55 82 56 83 80 84 81 85 89 86
REMARK SMILES IDX 82 87 84 88 90 89 83 90 85 91 86 92 87 93 88 94 65 95 66 96
REMARK SMILES IDX 74 97 67 98 69 99 75 100 68 101 70 102 71 103 72 104 73 105
REMARK H PARENT 5 12 19 23 95 58 63 69
REMARK Flexibility Score: inf
ROOT
ATOM      1  C   UNL A   1      34.723  23.937  23.900  1.00  0.00     0.202 C 
ENDROOT
BRANCH   1   2
ATOM      2  C   UNL A   1      33.744  23.622  22.700  1.00  0.00     0.261 C 
BRANCH   2   3
ATOM      3  O   UNL A   1      32.288  23.544  22.920  1.00  0.00    -0.462 OA
BRANCH   3   4
ATOM      4  C   UNL A   1      31.637  24.644  23.444  1.00  0.00     0.328 C 
ATOM      5  O   UNL A   1      30.985  25.387  22.708  1.00  0.00    -0.250 OA
BRANCH   4   6
ATOM      6  C   UNL A   1      31.589  24.819  25.085  1.00  0.00     0.194 C 
BRANCH   6   7
ATOM      7  C   UNL A   1      31.234  23.498  25.871  1.00  0.00     0.017 C 
ATOM      8  C   UNL A   1      32.336  22.890  26.730  1.00  0.00     0.010 C 
ATOM      9  C   UNL A   1      30.008  23.731  26.793  1.00  0.00     0.010 C 
ENDBRANCH   6   7
BRANCH   6  10
ATOM     10  N   UNL A   1      30.945  25.908  25.945  1.00  0.00    -0.341 N 
ATOM     11  C   UNL A   1      31.363  27.091  26.500  1.00  0.00     0.244 C 
ATOM     12  H   UNL A   1      30.002  25.713  26.150  1.00  0.00     0.164 HD
ATOM     13  O   UNL A   1      30.803  27.530  27.503  1.00  0.00    -0.273 OA
BRANCH  11  14
ATOM     14  C   UNL A   1      32.459  27.841  25.784  1.00  0.00     0.189 C 
BRANCH  14  15
ATOM     15  N   UNL A   1      31.746  28.576  24.624  1.00  0.00    -0.247 N 
ATOM     16  C   UNL A   1      32.001  28.369  23.279  1.00  0.00     0.329 A 
ATOM     17  C   UNL A   1      31.216  29.848  24.810  1.00  0.00     0.264 A 
ATOM     18  O   UNL A   1      33.081  28.129  22.751  1.00  0.00    -0.248 OA
ATOM     19  N   UNL A   1      30.932  28.527  22.435  1.00  0.00    -0.307 N 
ATOM     20  C   UNL A   1      30.114  30.233  23.849  1.00  0.00     0.064 A 
ATOM     21  O   UNL A   1      31.505  30.608  25.728  1.00  0.00    -0.268 OA
ATOM     22  C   UNL A   1      29.909  29.402  22.754  1.00  0.00     0.055 A 
ATOM     23  H   UNL A   1      30.893  28.016  21.596  1.00  0.00     0.171 HD
ATOM     24  C   UNL A   1      29.178  31.233  24.126  1.00  0.00     0.016 A 
ATOM     25  C   UNL A   1      28.754  29.473  21.981  1.00  0.00     0.027 A 
ATOM     26  C   UNL A   1      27.996  31.295  23.376  1.00  0.00     0.001 A 
ATOM     27  C   UNL A   1      27.773  30.398  22.325  1.00  0.00     0.002 A 
ENDBRANCH  14  15
BRANCH  14  28
ATOM     28  C   UNL A   1      33.335  28.355  27.127  1.00  0.00     0.071 C 
BRANCH  28  29
ATOM     29  C   UNL A   1      34.336  29.466  27.432  1.00  0.00    -0.045 A 
ATOM     30  C   UNL A   1      35.732  29.268  27.392  1.00  0.00     0.004 A 
ATOM     31  C   UNL A   1      33.926  30.775  27.598  1.00  0.00     0.004 A 
ATOM     32  C   UNL A   1      36.636  30.315  27.656  1.00  0.00     0.000 A 
ATOM     33  C   UNL A   1      34.803  31.819  27.920  1.00  0.00     0.000 A 
ATOM     34  C   UNL A   1      36.168  31.589  27.956  1.00  0.00     0.000 A 
ENDBRANCH  28  29
ENDBRANCH  14  28
ENDBRANCH  11  14
ENDBRANCH   6  10
ENDBRANCH   4   6
ENDBRANCH   3   4
ENDBRANCH   2   3
ENDBRANCH   1   2
BRANCH   1  35
ATOM     35  O   UNL A   1      35.975  23.266  24.151  1.00  0.00    -0.374 OA
BRANCH  35  36
ATOM     36  C   UNL A   1      35.944  21.857  24.340  1.00  0.00     0.202 C 
BRANCH  36  37
ATOM     37  C   UNL A   1      37.078  21.114  25.089  1.00  0.00     0.261 C 
BRANCH  37  38
ATOM     38  O   UNL A   1      37.813  22.069  25.896  1.00  0.00    -0.460 OA
BRANCH  38  39
ATOM     39  C   UNL A   1      39.067  21.673  26.283  1.00  0.00     0.338 C 
ATOM     40  O   UNL A   1      39.583  20.614  26.012  1.00  0.00    -0.246 OA
BRANCH  39  41
ATOM     41  C   UNL A   1      39.830  22.878  26.729  1.00  0.00     0.060 A 
ATOM     42  C   UNL A   1      39.448  24.080  26.123  1.00  0.00     0.016 A 
ATOM     43  C   UNL A   1      40.777  22.896  27.759  1.00  0.00     0.016 A 
ATOM     44  C   UNL A   1      39.992  25.298  26.543  1.00  0.00     0.010 A 
ATOM     45  C   UNL A   1      41.376  24.118  28.143  1.00  0.00     0.010 A 
ATOM     46  C   UNL A   1      41.004  25.321  27.512  1.00  0.00    -0.014 A 
BRANCH  46  47
ATOM     47  C   UNL A   1      41.876  26.532  27.523  1.00  0.00     0.031 A 
ATOM     48  C   UNL A   1      41.344  27.712  28.300  1.00  0.00     0.074 A 
ATOM     49  C   UNL A   1      43.121  26.576  27.008  1.00  0.00     0.049 A 
ATOM     50  N   UNL A   1      41.948  28.804  28.681  1.00  0.00    -0.248 NA
ATOM     51  C   UNL A   1      39.945  27.610  28.757  1.00  0.00     0.031 C 
ATOM     52  C   UNL A   1      43.786  25.496  26.286  1.00  0.00     0.029 A 
ATOM     53  N   UNL A   1      44.058  27.586  27.032  1.00  0.00    -0.354 N 
ATOM     54  C   UNL A   1      41.016  29.496  29.445  1.00  0.00     0.074 A 
ATOM     55  C   UNL A   1      39.807  28.708  29.477  1.00  0.00     0.031 C 
ATOM     56  C   UNL A   1      45.016  25.906  25.919  1.00  0.00     0.029 A 
ATOM     57  C   UNL A   1      45.229  27.281  26.375  1.00  0.00     0.049 A 
ATOM     58  H   UNL A   1      43.903  28.450  27.479  1.00  0.00     0.167 HD
ATOM     59  C   UNL A   1      41.143  30.687  30.073  1.00  0.00     0.034 A 
ATOM     60  C   UNL A   1      46.337  28.029  26.169  1.00  0.00     0.034 A 
ATOM     61  C   UNL A   1      42.297  31.524  29.968  1.00  0.00     0.049 A 
ATOM     62  C   UNL A   1      46.409  29.416  26.773  1.00  0.00     0.074 A 
ATOM     63  C   UNL A   1      42.489  32.792  30.480  1.00  0.00     0.029 A 
ATOM     64  N   UNL A   1      43.442  31.189  29.263  1.00  0.00    -0.354 N 
ATOM     65  N   UNL A   1      45.560  30.012  27.577  1.00  0.00    -0.248 NA
ATOM     66  C   UNL A   1      47.600  30.226  26.463  1.00  0.00     0.031 C 
ATOM     67  C   UNL A   1      43.743  33.240  30.055  1.00  0.00     0.029 A 
ATOM     68  C   UNL A   1      44.341  32.235  29.306  1.00  0.00     0.049 A 
ATOM     69  H   UNL A   1      43.592  30.333  28.800  1.00  0.00     0.167 HD
ATOM     70  C   UNL A   1      46.126  31.246  27.892  1.00  0.00     0.074 A 
ATOM     71  C   UNL A   1      47.399  31.308  27.205  1.00  0.00     0.031 C 
ATOM     72  C   UNL A   1      45.631  32.243  28.666  1.00  0.00     0.034 A 
BRANCH  59  73
ATOM     73  C   UNL A   1      39.968  31.143  30.889  1.00  0.00     0.023 A 
ATOM     74  C   UNL A   1      38.897  31.800  30.250  1.00  0.00     0.012 A 
ATOM     75  C   UNL A   1      39.949  30.971  32.284  1.00  0.00     0.148 A 
ATOM     76  C   UNL A   1      37.833  32.307  30.996  1.00  0.00     0.002 A 
ATOM     77  C   UNL A   1      38.873  31.454  33.018  1.00  0.00     0.091 A 
ATOM     78  F   UNL A   1      40.999  30.378  32.868  1.00  0.00    -0.205 F 
ATOM     79  C   UNL A   1      37.820  32.129  32.378  1.00  0.00     0.022 A 
BRANCH  77  80
ATOM     80  S   UNL A   1      38.752  31.253  34.797  1.00  0.00     0.127 S 
ATOM     81  O   UNL A   1      39.055  29.830  34.954  1.00  0.00    -0.237 OA
ATOM     82  O   UNL A   1      39.796  32.156  35.280  1.00  0.00    -0.237 OA
ATOM     83  O   UNL A   1      37.396  31.645  35.154  1.00  0.00    -0.744 OA
ENDBRANCH  77  80
ENDBRANCH  59  73
BRANCH  60  84
ATOM     84  C   UNL A   1      47.487  27.489  25.376  1.00  0.00     0.023 A 
ATOM     85  C   UNL A   1      48.402  26.599  25.973  1.00  0.00     0.012 A 
ATOM     86  C   UNL A   1      47.688  27.865  24.031  1.00  0.00     0.148 A 
ATOM     87  C   UNL A   1      49.502  26.114  25.260  1.00  0.00     0.002 A 
ATOM     88  C   UNL A   1      48.755  27.336  23.309  1.00  0.00     0.091 A 
ATOM     89  F   UNL A   1      46.840  28.745  23.484  1.00  0.00    -0.205 F 
ATOM     90  C   UNL A   1      49.672  26.472  23.924  1.00  0.00     0.022 A 
BRANCH  88  91
ATOM     91  S   UNL A   1      48.968  27.650  21.552  1.00  0.00     0.127 S 
ATOM     92  O   UNL A   1      49.953  26.639  21.182  1.00  0.00    -0.237 OA
ATOM     93  O   UNL A   1      47.620  27.415  21.032  1.00  0.00    -0.237 OA
ATOM     94  O   UNL A   1      49.408  29.036  21.458  1.00  0.00    -0.744 OA
ENDBRANCH  88  91
ENDBRANCH  60  84
BRANCH  72  95
ATOM     95  C   UNL A   1      46.457  33.488  28.850  1.00  0.00     0.023 A 
ATOM     96  C   UNL A   1      47.427  33.535  29.869  1.00  0.00     0.012 A 
ATOM     97  C   UNL A   1      46.386  34.534  27.908  1.00  0.00     0.148 A 
ATOM     98  C   UNL A   1      48.312  34.609  29.951  1.00  0.00     0.002 A 
ATOM     99  C   UNL A   1      47.301  35.578  27.969  1.00  0.00     0.091 A 
ATOM    100  F   UNL A   1      45.445  34.472  26.954  1.00  0.00    -0.205 F 
ATOM    101  C   UNL A   1      48.260  35.620  28.993  1.00  0.00     0.022 A 
BRANCH  99 102
ATOM    102  S   UNL A   1      47.378  36.863  26.716  1.00  0.00     0.127 S 
ATOM    103  O   UNL A   1      47.663  36.087  25.511  1.00  0.00    -0.237 OA
ATOM    104  O   UNL A   1      46.031  37.434  26.771  1.00  0.00    -0.237 OA
ATOM    105  O   UNL A   1      48.435  37.773  27.139  1.00  0.00    -0.744 OA
ENDBRANCH  99 102
ENDBRANCH  72  95
ENDBRANCH  46  47
ENDBRANCH  39  41
ENDBRANCH  38  39
ENDBRANCH  37  38
ENDBRANCH  36  37
ENDBRANCH  35  36
ENDBRANCH   1  35
TORSDOF 23
ENDMDL
MODEL 3
REMARK VINA RESULT:     -11.7      2.384      4.425
REMARK SMILES CC(C)[C@H](NC(=O)[C@H](Cc1ccccc1)n1c(=O)[nH]c2ccccc2c1=O)C(=O)OCCOCCOC(=O)c1ccc(-c2c3nc(c(-c4cccc(S(=O)(=O)[O-])c4F)c4ccc([nH]4)c(-c4cccc(S(=O)(=O)[O-])c4F)c4nc(c(-c5cccc(S(=O)(=O)[O-])c5F)c5ccc2[nH]5)C=C4)C=C3)cc1
REMARK SMILES IDX 32 1 31 2 30 3 28 4 29 5 4 6 2 7 1 8 3 9 5 10 6 11 7 13 8 14
REMARK SMILES IDX 16 15 17 16 26 17 18 18 19 19 25 20 27 21 20 22 24 24 21 25
REMARK SMILES IDX 23 26 22 27 9 28 10 29 11 30 15 31 12 32 14 33 13 34 33 35
REMARK SMILES IDX 34 36 35 37 36 38 37 39 38 40 39 41 40 42 101 43 41 44
REMARK SMILES IDX 100 45 42 46 43 47 44 48 94 49 45 50 99 51 93 52 95 53 46 54
REMARK SMILES IDX 98 55 92 56 91 57 47 59 79 60 59 61 78 62 60 63 63 64 77 65
REMARK SMILES IDX 96 66 61 67 62 68 76 70 97 71 64 72 48 73 49 74 57 75 50 76
REMARK SMILES IDX 52 77 58 78 51 79 53 80 54 81 55 82 56 83 80 84 81 85 89 86
REMARK SMILES IDX 82 87 84 88 90 89 83 90 85 91 86 92 87 93 88 94 65 95 66 96
REMARK SMILES IDX 74 97 67 98 69 99 75 100 68 101 70 102 71 103 72 104 73 105
REMARK H PARENT 5 12 19 23 95 58 63 69
REMARK Flexibility Score: inf
ROOT
ATOM      1  C   UNL A   1      36.590  22.171  23.956  1.00  0.00     0.202 C 
ENDROOT
BRANCH   1   2
ATOM      2  C   UNL A   1      35.354  23.037  24.425  1.00  0.00     0.261 C 
BRANCH   2   3
ATOM      3  O   UNL A   1      35.202  24.433  23.976  1.00  0.00    -0.462 OA
BRANCH   3   4
ATOM      4  C   UNL A   1      34.308  25.251  24.642  1.00  0.00     0.328 C 
ATOM      5  O   UNL A   1      34.390  25.391  25.863  1.00  0.00    -0.250 OA
BRANCH   4   6
ATOM      6  C   UNL A   1      33.274  26.175  23.748  1.00  0.00     0.194 C 
BRANCH   6   7
ATOM      7  C   UNL A   1      33.684  26.332  22.232  1.00  0.00     0.017 C 
ATOM      8  C   UNL A   1      32.810  25.623  21.205  1.00  0.00     0.010 C 
ATOM      9  C   UNL A   1      33.733  27.831  21.838  1.00  0.00     0.010 C 
ENDBRANCH   6   7
BRANCH   6  10
ATOM     10  N   UNL A   1      32.628  27.525  24.065  1.00  0.00    -0.341 N 
ATOM     11  C   UNL A   1      31.507  27.938  24.740  1.00  0.00     0.244 C 
ATOM     12  H   UNL A   1      33.141  28.280  23.695  1.00  0.00     0.164 HD
ATOM     13  O   UNL A   1      30.983  29.015  24.456  1.00  0.00    -0.273 OA
BRANCH  11  14
ATOM     14  C   UNL A   1      31.018  27.066  25.869  1.00  0.00     0.189 C 
BRANCH  14  15
ATOM     15  N   UNL A   1      30.756  25.686  25.220  1.00  0.00    -0.247 N 
ATOM     16  C   UNL A   1      29.902  25.460  24.155  1.00  0.00     0.329 A 
ATOM     17  C   UNL A   1      30.901  24.517  25.959  1.00  0.00     0.264 A 
ATOM     18  O   UNL A   1      28.834  26.015  23.921  1.00  0.00    -0.248 OA
ATOM     19  N   UNL A   1      30.260  24.446  23.305  1.00  0.00    -0.307 N 
ATOM     20  C   UNL A   1      31.157  23.269  25.145  1.00  0.00     0.064 A 
ATOM     21  O   UNL A   1      30.934  24.452  27.183  1.00  0.00    -0.268 OA
ATOM     22  C   UNL A   1      30.986  23.364  23.769  1.00  0.00     0.055 A 
ATOM     23  H   UNL A   1      29.997  24.487  22.357  1.00  0.00     0.171 HD
ATOM     24  C   UNL A   1      31.755  22.123  25.676  1.00  0.00     0.016 A 
ATOM     25  C   UNL A   1      31.475  22.396  22.897  1.00  0.00     0.027 A 
ATOM     26  C   UNL A   1      32.280  21.156  24.809  1.00  0.00     0.001 A 
ATOM     27  C   UNL A   1      32.165  21.308  23.422  1.00  0.00     0.002 A 
ENDBRANCH  14  15
BRANCH  14  28
ATOM     28  C   UNL A   1      32.057  27.609  27.078  1.00  0.00     0.071 C 
BRANCH  28  29
ATOM     29  C   UNL A   1      33.019  28.779  27.263  1.00  0.00    -0.045 A 
ATOM     30  C   UNL A   1      34.420  28.625  27.252  1.00  0.00     0.004 A 
ATOM     31  C   UNL A   1      32.565  30.085  27.280  1.00  0.00     0.004 A 
ATOM     32  C   UNL A   1      35.288  29.723  27.402  1.00  0.00     0.000 A 
ATOM     33  C   UNL A   1      33.406  31.186  27.488  1.00  0.00     0.000 A 
ATOM     34  C   UNL A   1      34.776  31.006  27.556  1.00  0.00     0.000 A 
ENDBRANCH  28  29
ENDBRANCH  14  28
ENDBRANCH  11  14
ENDBRANCH   6  10
ENDBRANCH   4   6
ENDBRANCH   3   4
ENDBRANCH   2   3
ENDBRANCH   1   2
BRANCH   1  35
ATOM     35  O   UNL A   1      37.106  21.015  24.647  1.00  0.00    -0.374 OA
BRANCH  35  36
ATOM     36  C   UNL A   1      38.312  21.167  25.383  1.00  0.00     0.202 C 
BRANCH  36  37
ATOM     37  C   UNL A   1      39.355  20.026  25.476  1.00  0.00     0.261 C 
BRANCH  37  38
ATOM     38  O   UNL A   1      40.199  20.254  26.634  1.00  0.00    -0.460 OA
BRANCH  38  39
ATOM     39  C   UNL A   1      41.483  20.649  26.359  1.00  0.00     0.338 C 
ATOM     40  O   UNL A   1      42.197  20.172  25.508  1.00  0.00    -0.246 OA
BRANCH  39  41
ATOM     41  C   UNL A   1      41.711  21.990  26.977  1.00  0.00     0.060 A 
ATOM     42  C   UNL A   1      41.271  23.078  26.215  1.00  0.00     0.016 A 
ATOM     43  C   UNL A   1      42.203  22.208  28.269  1.00  0.00     0.016 A 
ATOM     44  C   UNL A   1      41.307  24.376  26.732  1.00  0.00     0.010 A 
ATOM     45  C   UNL A   1      42.300  23.526  28.771  1.00  0.00     0.010 A 
ATOM     46  C   UNL A   1      41.878  24.618  27.989  1.00  0.00    -0.014 A 
BRANCH  46  47
ATOM     47  C   UNL A   1      42.355  26.011  28.236  1.00  0.00     0.031 A 
ATOM     48  C   UNL A   1      43.739  26.327  27.724  1.00  0.00     0.074 A 
ATOM     49  C   UNL A   1      41.591  26.995  28.753  1.00  0.00     0.049 A 
ATOM     50  N   UNL A   1      44.337  27.479  27.584  1.00  0.00    -0.248 NA
ATOM     51  C   UNL A   1      44.534  25.178  27.251  1.00  0.00     0.031 C 
ATOM     52  C   UNL A   1      40.220  26.849  29.233  1.00  0.00     0.029 A 
ATOM     53  N   UNL A   1      41.872  28.329  28.946  1.00  0.00    -0.354 N 
ATOM     54  C   UNL A   1      45.555  27.194  26.979  1.00  0.00     0.074 A 
ATOM     55  C   UNL A   1      45.618  25.766  26.779  1.00  0.00     0.031 C 
ATOM     56  C   UNL A   1      39.785  28.043  29.682  1.00  0.00     0.029 A 
ATOM     57  C   UNL A   1      40.845  29.040  29.527  1.00  0.00     0.049 A 
ATOM     58  H   UNL A   1      42.730  28.739  28.691  1.00  0.00     0.167 HD
ATOM     59  C   UNL A   1      46.546  28.039  26.618  1.00  0.00     0.034 A 
ATOM     60  C   UNL A   1      40.778  30.341  29.890  1.00  0.00     0.034 A 
ATOM     61  C   UNL A   1      46.541  29.440  26.900  1.00  0.00     0.049 A 
ATOM     62  C   UNL A   1      41.954  31.248  29.593  1.00  0.00     0.074 A 
ATOM     63  C   UNL A   1      47.537  30.368  26.668  1.00  0.00     0.029 A 
ATOM     64  N   UNL A   1      45.498  30.107  27.522  1.00  0.00    -0.354 N 
ATOM     65  N   UNL A   1      43.055  30.982  28.929  1.00  0.00    -0.248 NA
ATOM     66  C   UNL A   1      41.872  32.640  30.071  1.00  0.00     0.031 C 
ATOM     67  C   UNL A   1      47.108  31.595  27.182  1.00  0.00     0.029 A 
ATOM     68  C   UNL A   1      45.833  31.434  27.704  1.00  0.00     0.049 A 
ATOM     69  H   UNL A   1      44.646  29.696  27.795  1.00  0.00     0.167 HD
ATOM     70  C   UNL A   1      43.777  32.173  28.884  1.00  0.00     0.074 A 
ATOM     71  C   UNL A   1      42.982  33.169  29.573  1.00  0.00     0.031 C 
ATOM     72  C   UNL A   1      44.993  32.418  28.336  1.00  0.00     0.034 A 
BRANCH  59  73
ATOM     73  C   UNL A   1      47.723  27.430  25.912  1.00  0.00     0.023 A 
ATOM     74  C   UNL A   1      48.696  26.739  26.662  1.00  0.00     0.012 A 
ATOM     75  C   UNL A   1      47.892  27.585  24.525  1.00  0.00     0.148 A 
ATOM     76  C   UNL A   1      49.840  26.235  26.043  1.00  0.00     0.002 A 
ATOM     77  C   UNL A   1      49.020  27.057  23.911  1.00  0.00     0.091 A 
ATOM     78  F   UNL A   1      46.971  28.280  23.844  1.00  0.00    -0.205 F 
ATOM     79  C   UNL A   1      49.999  26.390  24.668  1.00  0.00     0.022 A 
BRANCH  77  80
ATOM     80  S   UNL A   1      49.303  27.183  22.142  1.00  0.00     0.127 S 
ATOM     81  O   UNL A   1      48.938  28.576  21.885  1.00  0.00    -0.237 OA
ATOM     82  O   UNL A   1      50.734  26.898  22.040  1.00  0.00    -0.237 OA
ATOM     83  O   UNL A   1      48.439  26.186  21.526  1.00  0.00    -0.744 OA
ENDBRANCH  77  80
ENDBRANCH  59  73
BRANCH  60  84
ATOM     84  C   UNL A   1      39.553  30.887  30.555  1.00  0.00     0.023 A 
ATOM     85  C   UNL A   1      38.452  31.303  29.779  1.00  0.00     0.012 A 
ATOM     86  C   UNL A   1      39.475  31.009  31.958  1.00  0.00     0.148 A 
ATOM     87  C   UNL A   1      37.314  31.849  30.380  1.00  0.00     0.002 A 
ATOM     88  C   UNL A   1      38.318  31.503  32.555  1.00  0.00     0.091 A 
ATOM     89  F   UNL A   1      40.541  30.653  32.687  1.00  0.00    -0.205 F 
ATOM     90  C   UNL A   1      37.241  31.937  31.768  1.00  0.00     0.022 A 
BRANCH  88  91
ATOM     91  S   UNL A   1      38.099  31.531  34.339  1.00  0.00     0.127 S 
ATOM     92  O   UNL A   1      38.166  30.112  34.674  1.00  0.00    -0.237 OA
ATOM     93  O   UNL A   1      39.250  32.322  34.777  1.00  0.00    -0.237 OA
ATOM     94  O   UNL A   1      36.814  32.181  34.561  1.00  0.00    -0.744 OA
ENDBRANCH  88  91
ENDBRANCH  60  84
BRANCH  72  95
ATOM     95  C   UNL A   1      45.552  33.814  28.422  1.00  0.00     0.023 A 
ATOM     96  C   UNL A   1      45.265  34.741  27.403  1.00  0.00     0.012 A 
ATOM     97  C   UNL A   1      46.213  34.244  29.590  1.00  0.00     0.148 A 
ATOM     98  C   UNL A   1      45.633  36.079  27.544  1.00  0.00     0.002 A 
ATOM     99  C   UNL A   1      46.535  35.587  29.742  1.00  0.00     0.091 A 
ATOM    100  F   UNL A   1      46.487  33.337  30.540  1.00  0.00    -0.205 F 
ATOM    101  C   UNL A   1      46.251  36.504  28.718  1.00  0.00     0.022 A 
BRANCH  99 102
ATOM    102  S   UNL A   1      47.233  36.241  31.263  1.00  0.00     0.127 S 
ATOM    103  O   UNL A   1      46.209  35.878  32.240  1.00  0.00    -0.237 OA
ATOM    104  O   UNL A   1      48.484  35.491  31.380  1.00  0.00    -0.237 OA
ATOM    105  O   UNL A   1      47.407  37.671  31.042  1.00  0.00    -0.744 OA
ENDBRANCH  99 102
ENDBRANCH  72  95
ENDBRANCH  46  47
ENDBRANCH  39  41
ENDBRANCH  38  39
ENDBRANCH  37  38
ENDBRANCH  36  37
ENDBRANCH  35  36
ENDBRANCH   1  35
TORSDOF 23
ENDMDL
