MODEL 1
REMARK VINA RESULT:     -11.2      0.000      0.000
REMARK SMILES O=C(OCCOCCOC(=O)c1ccc2c(=O)n(CCC[NH+]3CCOCC3)c(=O)[nH]c2c1)c1ccc(-c2c3nc(c(-c4cccc(S(=O)(=O)[O-])c4F)c4ccc([nH]4)c(-c4cccc(S(=O)(=O)[O-])c4F)c4nc(c(-c5cccc(S(=O)(=O)[O-])c5F)c5ccc2[nH]5)C=C4)C=C3)cc1
REMARK SMILES IDX 7 1 6 2 5 3 4 4 3 5 2 6 1 7 33 8 34 9 95 10 35 11 94 12
REMARK SMILES IDX 36 13 37 14 38 15 88 16 39 17 93 18 87 19 89 20 40 21 92 22
REMARK SMILES IDX 86 23 85 24 41 26 73 27 53 28 72 29 54 30 57 31 71 32 90 33
REMARK SMILES IDX 55 34 56 35 70 37 91 38 58 39 42 40 43 41 51 42 44 43 46 44
REMARK SMILES IDX 52 45 45 46 47 47 48 48 49 49 50 50 74 51 75 52 83 53 76 54
REMARK SMILES IDX 78 55 84 56 77 57 79 58 80 59 81 60 82 61 59 62 60 63 68 64
REMARK SMILES IDX 61 65 63 66 69 67 62 68 64 69 65 70 66 71 67 72 8 73 9 74
REMARK SMILES IDX 10 75 11 76 12 77 13 78 32 79 14 80 31 81 15 82 30 83 16 84
REMARK SMILES IDX 28 85 17 87 18 88 29 89 19 90 20 91 21 92 22 93 23 94 27 95
REMARK SMILES IDX 24 97 26 98 25 99
REMARK H PARENT 89 25 57 36 30 86 22 96
REMARK Flexibility Score: inf
ROOT
ATOM      1  C   UNL A   1      31.397  30.418  25.487  1.00  0.00     0.202 C 
ENDROOT
BRANCH   1   2
ATOM      2  O   UNL A   1      31.119  31.756  25.903  1.00  0.00    -0.374 OA
BRANCH   2   3
ATOM      3  C   UNL A   1      31.494  32.095  27.236  1.00  0.00     0.202 C 
BRANCH   3   4
ATOM      4  C   UNL A   1      32.740  32.973  27.353  1.00  0.00     0.261 C 
BRANCH   4   5
ATOM      5  O   UNL A   1      32.454  34.202  28.019  1.00  0.00    -0.460 OA
BRANCH   5   6
ATOM      6  C   UNL A   1      33.190  34.828  28.965  1.00  0.00     0.338 C 
ATOM      7  O   UNL A   1      32.918  36.008  29.193  1.00  0.00    -0.246 OA
BRANCH   6   8
ATOM      8  C   UNL A   1      34.331  34.217  29.734  1.00  0.00     0.060 A 
ATOM      9  C   UNL A   1      35.618  34.506  29.240  1.00  0.00     0.016 A 
ATOM     10  C   UNL A   1      34.243  33.323  30.805  1.00  0.00     0.016 A 
ATOM     11  C   UNL A   1      36.752  33.868  29.746  1.00  0.00     0.010 A 
ATOM     12  C   UNL A   1      35.360  32.658  31.296  1.00  0.00     0.010 A 
ATOM     13  C   UNL A   1      36.614  32.916  30.756  1.00  0.00    -0.014 A 
BRANCH  13  14
ATOM     14  C   UNL A   1      37.766  32.266  31.388  1.00  0.00     0.031 A 
ATOM     15  C   UNL A   1      38.432  31.091  30.750  1.00  0.00     0.074 A 
ATOM     16  C   UNL A   1      38.066  32.666  32.634  1.00  0.00     0.049 A 
ATOM     17  N   UNL A   1      39.434  30.383  31.193  1.00  0.00    -0.248 NA
ATOM     18  C   UNL A   1      37.894  30.636  29.457  1.00  0.00     0.031 C 
ATOM     19  C   UNL A   1      37.358  33.725  33.361  1.00  0.00     0.029 A 
ATOM     20  N   UNL A   1      38.993  32.206  33.522  1.00  0.00    -0.354 N 
ATOM     21  C   UNL A   1      39.663  29.407  30.232  1.00  0.00     0.074 A 
ATOM     22  C   UNL A   1      38.666  29.588  29.198  1.00  0.00     0.031 C 
ATOM     23  C   UNL A   1      37.866  33.819  34.596  1.00  0.00     0.029 A 
ATOM     24  C   UNL A   1      38.934  32.836  34.738  1.00  0.00     0.049 A 
ATOM     25  H   UNL A   1      39.639  31.493  33.311  1.00  0.00     0.167 HD
ATOM     26  C   UNL A   1      40.641  28.471  30.214  1.00  0.00     0.034 A 
ATOM     27  C   UNL A   1      39.673  32.649  35.843  1.00  0.00     0.034 A 
ATOM     28  C   UNL A   1      41.596  28.310  31.279  1.00  0.00     0.049 A 
ATOM     29  C   UNL A   1      40.773  31.636  35.791  1.00  0.00     0.074 A 
ATOM     30  C   UNL A   1      42.673  27.447  31.353  1.00  0.00     0.029 A 
ATOM     31  N   UNL A   1      41.572  29.023  32.472  1.00  0.00    -0.354 N 
ATOM     32  N   UNL A   1      41.088  30.824  34.810  1.00  0.00    -0.248 NA
ATOM     33  C   UNL A   1      41.644  31.543  36.965  1.00  0.00     0.031 C 
ATOM     34  C   UNL A   1      43.293  27.631  32.595  1.00  0.00     0.029 A 
ATOM     35  C   UNL A   1      42.614  28.621  33.290  1.00  0.00     0.049 A 
ATOM     36  H   UNL A   1      40.911  29.715  32.702  1.00  0.00     0.167 HD
ATOM     37  C   UNL A   1      42.206  30.124  35.239  1.00  0.00     0.074 A 
ATOM     38  C   UNL A   1      42.522  30.630  36.564  1.00  0.00     0.031 C 
ATOM     39  C   UNL A   1      42.901  29.150  34.601  1.00  0.00     0.034 A 
BRANCH  26  40
ATOM     40  C   UNL A   1      40.779  27.621  28.977  1.00  0.00     0.023 A 
ATOM     41  C   UNL A   1      39.900  26.531  28.806  1.00  0.00     0.012 A 
ATOM     42  C   UNL A   1      41.705  27.924  27.960  1.00  0.00     0.148 A 
ATOM     43  C   UNL A   1      39.951  25.744  27.655  1.00  0.00     0.002 A 
ATOM     44  C   UNL A   1      41.731  27.151  26.801  1.00  0.00     0.091 A 
ATOM     45  F   UNL A   1      42.541  28.956  28.143  1.00  0.00    -0.205 F 
ATOM     46  C   UNL A   1      40.860  26.059  26.651  1.00  0.00     0.022 A 
BRANCH  44  47
ATOM     47  S   UNL A   1      42.832  27.490  25.421  1.00  0.00     0.127 S 
ATOM     48  O   UNL A   1      42.820  26.210  24.714  1.00  0.00    -0.237 OA
ATOM     49  O   UNL A   1      42.131  28.573  24.731  1.00  0.00    -0.237 OA
ATOM     50  O   UNL A   1      44.111  27.863  26.007  1.00  0.00    -0.744 OA
ENDBRANCH  44  47
ENDBRANCH  26  40
BRANCH  27  51
ATOM     51  C   UNL A   1      39.445  33.557  36.994  1.00  0.00     0.023 A 
ATOM     52  C   UNL A   1      38.475  33.198  37.948  1.00  0.00     0.012 A 
ATOM     53  C   UNL A   1      40.313  34.635  37.255  1.00  0.00     0.148 A 
ATOM     54  C   UNL A   1      38.381  33.890  39.155  1.00  0.00     0.002 A 
ATOM     55  C   UNL A   1      40.233  35.301  38.472  1.00  0.00     0.091 A 
ATOM     56  F   UNL A   1      41.244  34.933  36.337  1.00  0.00    -0.205 F 
ATOM     57  C   UNL A   1      39.266  34.932  39.422  1.00  0.00     0.022 A 
BRANCH  55  58
ATOM     58  S   UNL A   1      41.400  36.576  38.962  1.00  0.00     0.127 S 
ATOM     59  O   UNL A   1      40.579  37.782  38.869  1.00  0.00    -0.237 OA
ATOM     60  O   UNL A   1      41.736  36.164  40.325  1.00  0.00    -0.237 OA
ATOM     61  O   UNL A   1      42.500  36.498  38.011  1.00  0.00    -0.744 OA
ENDBRANCH  55  58
ENDBRANCH  27  51
BRANCH  39  62
ATOM     62  C   UNL A   1      44.061  28.552  35.344  1.00  0.00     0.023 A 
ATOM     63  C   UNL A   1      45.359  29.045  35.106  1.00  0.00     0.012 A 
ATOM     64  C   UNL A   1      43.859  27.557  36.318  1.00  0.00     0.148 A 
ATOM     65  C   UNL A   1      46.446  28.537  35.815  1.00  0.00     0.002 A 
ATOM     66  C   UNL A   1      44.941  27.081  37.045  1.00  0.00     0.091 A 
ATOM     67  F   UNL A   1      42.613  27.100  36.513  1.00  0.00    -0.205 F 
ATOM     68  C   UNL A   1      46.236  27.563  36.789  1.00  0.00     0.022 A 
BRANCH  66  69
ATOM     69  S   UNL A   1      44.764  25.874  38.362  1.00  0.00     0.127 S 
ATOM     70  O   UNL A   1      44.021  24.809  37.689  1.00  0.00    -0.237 OA
ATOM     71  O   UNL A   1      46.157  25.545  38.668  1.00  0.00    -0.237 OA
ATOM     72  O   UNL A   1      44.048  26.548  39.436  1.00  0.00    -0.744 OA
ENDBRANCH  66  69
ENDBRANCH  39  62
ENDBRANCH  13  14
ENDBRANCH   6   8
ENDBRANCH   5   6
ENDBRANCH   4   5
ENDBRANCH   3   4
ENDBRANCH   2   3
ENDBRANCH   1   2
BRANCH   1  73
ATOM     73  C   UNL A   1      30.552  30.038  24.270  1.00  0.00     0.261 C 
BRANCH  73  74
ATOM     74  O   UNL A   1      31.341  29.243  23.372  1.00  0.00    -0.460 OA
BRANCH  74  75
ATOM     75  C   UNL A   1      30.655  28.237  22.782  1.00  0.00     0.338 C 
ATOM     76  O   UNL A   1      29.782  28.305  21.933  1.00  0.00    -0.246 OA
BRANCH  75  77
ATOM     77  C   UNL A   1      31.265  26.967  23.186  1.00  0.00     0.062 A 
ATOM     78  C   UNL A   1      32.023  26.228  22.272  1.00  0.00     0.016 A 
ATOM     79  C   UNL A   1      31.084  26.537  24.513  1.00  0.00     0.042 A 
ATOM     80  C   UNL A   1      32.729  25.130  22.736  1.00  0.00     0.017 A 
ATOM     81  C   UNL A   1      31.673  25.359  24.922  1.00  0.00     0.056 A 
ATOM     82  C   UNL A   1      32.575  24.751  24.071  1.00  0.00     0.064 A 
ATOM     83  N   UNL A   1      31.379  24.750  26.144  1.00  0.00    -0.307 N 
ATOM     84  C   UNL A   1      33.469  23.795  24.699  1.00  0.00     0.264 A 
ATOM     85  C   UNL A   1      31.894  23.523  26.507  1.00  0.00     0.328 A 
ATOM     86  H   UNL A   1      30.780  25.215  26.771  1.00  0.00     0.171 HD
ATOM     87  O   UNL A   1      34.642  23.815  24.354  1.00  0.00    -0.268 OA
ATOM     88  N   UNL A   1      32.909  23.025  25.701  1.00  0.00    -0.260 N 
ATOM     89  O   UNL A   1      31.463  22.957  27.510  1.00  0.00    -0.248 OA
BRANCH  88  90
ATOM     90  C   UNL A   1      33.590  21.786  26.055  1.00  0.00     0.137 C 
BRANCH  90  91
ATOM     91  C   UNL A   1      33.408  20.678  25.000  1.00  0.00     0.083 C 
BRANCH  91  92
ATOM     92  C   UNL A   1      33.627  19.234  25.492  1.00  0.00     0.264 C 
BRANCH  92  93
ATOM     93  N   UNL A   1      32.621  18.292  25.004  1.00  0.00    -0.331 N 
ATOM     94  C   UNL A   1      32.662  16.989  25.697  1.00  0.00     0.291 C 
ATOM     95  C   UNL A   1      32.617  18.061  23.556  1.00  0.00     0.291 C 
ATOM     96  H   UNL A   1      31.751  18.775  25.227  1.00  0.00     0.348 HD
ATOM     97  C   UNL A   1      33.792  16.076  25.204  1.00  0.00     0.221 C 
ATOM     98  C   UNL A   1      33.768  17.156  23.100  1.00  0.00     0.221 C 
ATOM     99  O   UNL A   1      33.747  15.894  23.781  1.00  0.00    -0.370 OA
ENDBRANCH  92  93
ENDBRANCH  91  92
ENDBRANCH  90  91
ENDBRANCH  88  90
ENDBRANCH  75  77
ENDBRANCH  74  75
ENDBRANCH  73  74
ENDBRANCH   1  73
TORSDOF 21
ENDMDL
MODEL 2
REMARK VINA RESULT:     -11.1      1.789      7.587
REMARK SMILES O=C(OCCOCCOC(=O)c1ccc2c(=O)n(CCC[NH+]3CCOCC3)c(=O)[nH]c2c1)c1ccc(-c2c3nc(c(-c4cccc(S(=O)(=O)[O-])c4F)c4ccc([nH]4)c(-c4cccc(S(=O)(=O)[O-])c4F)c4nc(c(-c5cccc(S(=O)(=O)[O-])c5F)c5ccc2[nH]5)C=C4)C=C3)cc1
REMARK SMILES IDX 7 1 6 2 5 3 4 4 3 5 2 6 1 7 33 8 34 9 95 10 35 11 94 12
REMARK SMILES IDX 36 13 37 14 38 15 88 16 39 17 93 18 87 19 89 20 40 21 92 22
REMARK SMILES IDX 86 23 85 24 41 26 73 27 53 28 72 29 54 30 57 31 71 32 90 33
REMARK SMILES IDX 55 34 56 35 70 37 91 38 58 39 42 40 43 41 51 42 44 43 46 44
REMARK SMILES IDX 52 45 45 46 47 47 48 48 49 49 50 50 74 51 75 52 83 53 76 54
REMARK SMILES IDX 78 55 84 56 77 57 79 58 80 59 81 60 82 61 59 62 60 63 68 64
REMARK SMILES IDX 61 65 63 66 69 67 62 68 64 69 65 70 66 71 67 72 8 73 9 74
REMARK SMILES IDX 10 75 11 76 12 77 13 78 32 79 14 80 31 81 15 82 30 83 16 84
REMARK SMILES IDX 28 85 17 87 18 88 29 89 19 90 20 91 21 92 22 93 23 94 27 95
REMARK SMILES IDX 24 97 26 98 25 99
REMARK H PARENT 89 25 57 36 30 86 22 96
REMARK Flexibility Score: inf
ROOT
ATOM      1  C   UNL A   1      32.147  29.872  26.651  1.00  0.00     0.202 C 
ENDROOT
BRANCH   1   2
ATOM      2  O   UNL A   1      32.655  31.057  27.265  1.00  0.00    -0.374 OA
BRANCH   2   3
ATOM      3  C   UNL A   1      31.839  32.222  27.164  1.00  0.00     0.202 C 
BRANCH   3   4
ATOM      4  C   UNL A   1      32.607  33.538  27.038  1.00  0.00     0.261 C 
BRANCH   4   5
ATOM      5  O   UNL A   1      32.195  34.482  28.025  1.00  0.00    -0.460 OA
BRANCH   5   6
ATOM      6  C   UNL A   1      32.946  35.061  28.989  1.00  0.00     0.338 C 
ATOM      7  O   UNL A   1      32.704  36.241  29.250  1.00  0.00    -0.246 OA
BRANCH   6   8
ATOM      8  C   UNL A   1      34.071  34.400  29.739  1.00  0.00     0.060 A 
ATOM      9  C   UNL A   1      35.345  34.519  29.151  1.00  0.00     0.016 A 
ATOM     10  C   UNL A   1      33.967  33.606  30.885  1.00  0.00     0.016 A 
ATOM     11  C   UNL A   1      36.443  33.811  29.643  1.00  0.00     0.010 A 
ATOM     12  C   UNL A   1      35.045  32.872  31.366  1.00  0.00     0.010 A 
ATOM     13  C   UNL A   1      36.280  32.960  30.735  1.00  0.00    -0.014 A 
BRANCH  13  14
ATOM     14  C   UNL A   1      37.404  32.248  31.353  1.00  0.00     0.031 A 
ATOM     15  C   UNL A   1      37.929  32.654  32.691  1.00  0.00     0.074 A 
ATOM     16  C   UNL A   1      38.035  31.349  30.581  1.00  0.00     0.049 A 
ATOM     17  N   UNL A   1      38.933  32.153  33.358  1.00  0.00    -0.248 NA
ATOM     18  C   UNL A   1      37.255  33.777  33.363  1.00  0.00     0.031 C 
ATOM     19  C   UNL A   1      37.643  31.009  29.209  1.00  0.00     0.029 A 
ATOM     20  N   UNL A   1      39.153  30.604  30.810  1.00  0.00    -0.354 N 
ATOM     21  C   UNL A   1      39.008  32.885  34.535  1.00  0.00     0.074 A 
ATOM     22  C   UNL A   1      37.971  33.894  34.475  1.00  0.00     0.031 C 
ATOM     23  C   UNL A   1      38.525  30.133  28.710  1.00  0.00     0.029 A 
ATOM     24  C   UNL A   1      39.529  29.850  29.728  1.00  0.00     0.049 A 
ATOM     25  H   UNL A   1      39.643  30.607  31.665  1.00  0.00     0.167 HD
ATOM     26  C   UNL A   1      39.853  32.700  35.577  1.00  0.00     0.034 A 
ATOM     27  C   UNL A   1      40.567  29.010  29.581  1.00  0.00     0.034 A 
ATOM     28  C   UNL A   1      40.889  31.700  35.582  1.00  0.00     0.049 A 
ATOM     29  C   UNL A   1      41.467  28.790  30.755  1.00  0.00     0.074 A 
ATOM     30  C   UNL A   1      41.765  31.366  36.597  1.00  0.00     0.029 A 
ATOM     31  N   UNL A   1      41.198  30.882  34.501  1.00  0.00    -0.354 N 
ATOM     32  N   UNL A   1      41.432  29.373  31.930  1.00  0.00    -0.248 NA
ATOM     33  C   UNL A   1      42.513  27.775  30.608  1.00  0.00     0.031 C 
ATOM     34  C   UNL A   1      42.611  30.354  36.126  1.00  0.00     0.029 A 
ATOM     35  C   UNL A   1      42.251  30.044  34.823  1.00  0.00     0.049 A 
ATOM     36  H   UNL A   1      40.734  30.895  33.633  1.00  0.00     0.167 HD
ATOM     37  C   UNL A   1      42.444  28.788  32.676  1.00  0.00     0.074 A 
ATOM     38  C   UNL A   1      43.059  27.789  31.819  1.00  0.00     0.031 C 
ATOM     39  C   UNL A   1      42.834  29.058  33.946  1.00  0.00     0.034 A 
BRANCH  26  40
ATOM     40  C   UNL A   1      39.633  33.527  36.817  1.00  0.00     0.023 A 
ATOM     41  C   UNL A   1      40.115  34.854  36.838  1.00  0.00     0.012 A 
ATOM     42  C   UNL A   1      38.903  33.044  37.920  1.00  0.00     0.148 A 
ATOM     43  C   UNL A   1      39.893  35.678  37.941  1.00  0.00     0.002 A 
ATOM     44  C   UNL A   1      38.660  33.882  39.006  1.00  0.00     0.091 A 
ATOM     45  F   UNL A   1      38.461  31.778  37.889  1.00  0.00    -0.205 F 
ATOM     46  C   UNL A   1      39.159  35.196  39.019  1.00  0.00     0.022 A 
BRANCH  44  47
ATOM     47  S   UNL A   1      37.690  33.382  40.434  1.00  0.00     0.127 S 
ATOM     48  O   UNL A   1      38.535  32.337  41.012  1.00  0.00    -0.237 OA
ATOM     49  O   UNL A   1      37.634  34.619  41.213  1.00  0.00    -0.237 OA
ATOM     50  O   UNL A   1      36.410  32.926  39.913  1.00  0.00    -0.744 OA
ENDBRANCH  44  47
ENDBRANCH  26  40
BRANCH  27  51
ATOM     51  C   UNL A   1      40.669  28.248  28.312  1.00  0.00     0.023 A 
ATOM     52  C   UNL A   1      41.327  28.846  27.222  1.00  0.00     0.012 A 
ATOM     53  C   UNL A   1      40.317  26.885  28.251  1.00  0.00     0.148 A 
ATOM     54  C   UNL A   1      41.649  28.095  26.092  1.00  0.00     0.002 A 
ATOM     55  C   UNL A   1      40.668  26.136  27.133  1.00  0.00     0.091 A 
ATOM     56  F   UNL A   1      39.716  26.339  29.317  1.00  0.00    -0.205 F 
ATOM     57  C   UNL A   1      41.331  26.739  26.053  1.00  0.00     0.022 A 
BRANCH  55  58
ATOM     58  S   UNL A   1      40.410  24.361  27.033  1.00  0.00     0.127 S 
ATOM     59  O   UNL A   1      38.954  24.277  26.926  1.00  0.00    -0.237 OA
ATOM     60  O   UNL A   1      41.137  24.024  25.809  1.00  0.00    -0.237 OA
ATOM     61  O   UNL A   1      40.976  23.805  28.253  1.00  0.00    -0.744 OA
ENDBRANCH  55  58
ENDBRANCH  27  51
BRANCH  39  62
ATOM     62  C   UNL A   1      43.999  28.271  34.476  1.00  0.00     0.023 A 
ATOM     63  C   UNL A   1      45.297  28.806  34.370  1.00  0.00     0.012 A 
ATOM     64  C   UNL A   1      43.800  27.043  35.136  1.00  0.00     0.148 A 
ATOM     65  C   UNL A   1      46.388  28.116  34.894  1.00  0.00     0.002 A 
ATOM     66  C   UNL A   1      44.888  26.379  35.686  1.00  0.00     0.091 A 
ATOM     67  F   UNL A   1      42.554  26.554  35.211  1.00  0.00    -0.205 F 
ATOM     68  C   UNL A   1      46.183  26.909  35.559  1.00  0.00     0.022 A 
BRANCH  66  69
ATOM     69  S   UNL A   1      44.717  24.852  36.614  1.00  0.00     0.127 S 
ATOM     70  O   UNL A   1      43.861  24.062  35.730  1.00  0.00    -0.237 OA
ATOM     71  O   UNL A   1      46.102  24.386  36.697  1.00  0.00    -0.237 OA
ATOM     72  O   UNL A   1      44.122  25.218  37.891  1.00  0.00    -0.744 OA
ENDBRANCH  66  69
ENDBRANCH  39  62
ENDBRANCH  13  14
ENDBRANCH   6   8
ENDBRANCH   5   6
ENDBRANCH   4   5
ENDBRANCH   3   4
ENDBRANCH   2   3
ENDBRANCH   1   2
BRANCH   1  73
ATOM     73  C   UNL A   1      33.141  29.316  25.630  1.00  0.00     0.261 C 
BRANCH  73  74
ATOM     74  O   UNL A   1      32.582  29.423  24.313  1.00  0.00    -0.460 OA
BRANCH  74  75
ATOM     75  C   UNL A   1      31.415  28.758  24.155  1.00  0.00     0.338 C 
ATOM     76  O   UNL A   1      30.316  29.203  23.868  1.00  0.00    -0.246 OA
BRANCH  75  77
ATOM     77  C   UNL A   1      31.698  27.320  24.196  1.00  0.00     0.062 A 
ATOM     78  C   UNL A   1      32.669  26.771  23.352  1.00  0.00     0.016 A 
ATOM     79  C   UNL A   1      30.985  26.529  25.116  1.00  0.00     0.042 A 
ATOM     80  C   UNL A   1      33.034  25.447  23.542  1.00  0.00     0.017 A 
ATOM     81  C   UNL A   1      31.256  25.179  25.189  1.00  0.00     0.056 A 
ATOM     82  C   UNL A   1      32.349  24.694  24.497  1.00  0.00     0.064 A 
ATOM     83  N   UNL A   1      30.462  24.286  25.912  1.00  0.00    -0.307 N 
ATOM     84  C   UNL A   1      32.838  23.403  24.943  1.00  0.00     0.264 A 
ATOM     85  C   UNL A   1      30.677  22.924  25.904  1.00  0.00     0.328 A 
ATOM     86  H   UNL A   1      29.719  24.644  26.449  1.00  0.00     0.171 HD
ATOM     87  O   UNL A   1      34.051  23.260  25.022  1.00  0.00    -0.268 OA
ATOM     88  N   UNL A   1      31.867  22.498  25.329  1.00  0.00    -0.260 N 
ATOM     89  O   UNL A   1      29.844  22.175  26.412  1.00  0.00    -0.248 OA
BRANCH  88  90
ATOM     90  C   UNL A   1      32.237  21.089  25.361  1.00  0.00     0.137 C 
BRANCH  90  91
ATOM     91  C   UNL A   1      32.426  20.486  23.956  1.00  0.00     0.083 C 
BRANCH  91  92
ATOM     92  C   UNL A   1      32.471  18.947  23.880  1.00  0.00     0.264 C 
BRANCH  92  93
ATOM     93  N   UNL A   1      33.389  18.342  24.843  1.00  0.00    -0.331 N 
ATOM     94  C   UNL A   1      34.558  17.702  24.207  1.00  0.00     0.291 C 
ATOM     95  C   UNL A   1      32.786  17.397  25.788  1.00  0.00     0.291 C 
ATOM     96  H   UNL A   1      33.691  19.150  25.386  1.00  0.00     0.348 HD
ATOM     97  C   UNL A   1      34.243  16.326  23.605  1.00  0.00     0.221 C 
ATOM     98  C   UNL A   1      32.473  16.040  25.147  1.00  0.00     0.221 C 
ATOM     99  O   UNL A   1      33.644  15.448  24.569  1.00  0.00    -0.370 OA
ENDBRANCH  92  93
ENDBRANCH  91  92
ENDBRANCH  90  91
ENDBRANCH  88  90
ENDBRANCH  75  77
ENDBRANCH  74  75
ENDBRANCH  73  74
ENDBRANCH   1  73
TORSDOF 21
ENDMDL
MODEL 3
REMARK VINA RESULT:     -11.1      3.134      8.288
REMARK SMILES O=C(OCCOCCOC(=O)c1ccc2c(=O)n(CCC[NH+]3CCOCC3)c(=O)[nH]c2c1)c1ccc(-c2c3nc(c(-c4cccc(S(=O)(=O)[O-])c4F)c4ccc([nH]4)c(-c4cccc(S(=O)(=O)[O-])c4F)c4nc(c(-c5cccc(S(=O)(=O)[O-])c5F)c5ccc2[nH]5)C=C4)C=C3)cc1
REMARK SMILES IDX 7 1 6 2 5 3 4 4 3 5 2 6 1 7 33 8 34 9 95 10 35 11 94 12
REMARK SMILES IDX 36 13 37 14 38 15 88 16 39 17 93 18 87 19 89 20 40 21 92 22
REMARK SMILES IDX 86 23 85 24 41 26 73 27 53 28 72 29 54 30 57 31 71 32 90 33
REMARK SMILES IDX 55 34 56 35 70 37 91 38 58 39 42 40 43 41 51 42 44 43 46 44
REMARK SMILES IDX 52 45 45 46 47 47 48 48 49 49 50 50 74 51 75 52 83 53 76 54
REMARK SMILES IDX 78 55 84 56 77 57 79 58 80 59 81 60 82 61 59 62 60 63 68 64
REMARK SMILES IDX 61 65 63 66 69 67 62 68 64 69 65 70 66 71 67 72 8 73 9 74
REMARK SMILES IDX 10 75 11 76 12 77 13 78 32 79 14 80 31 81 15 82 30 83 16 84
REMARK SMILES IDX 28 85 17 87 18 88 29 89 19 90 20 91 21 92 22 93 23 94 27 95
REMARK SMILES IDX 24 97 26 98 25 99
REMARK H PARENT 89 25 57 36 30 86 22 96
REMARK Flexibility Score: inf
ROOT
ATOM      1  C   UNL A   1      30.160  29.594  24.183  1.00  0.00     0.202 C 
ENDROOT
BRANCH   1   2
ATOM      2  O   UNL A   1      30.835  30.716  24.753  1.00  0.00    -0.374 OA
BRANCH   2   3
ATOM      3  C   UNL A   1      31.429  30.513  26.033  1.00  0.00     0.202 C 
BRANCH   3   4
ATOM      4  C   UNL A   1      32.870  30.003  26.002  1.00  0.00     0.261 C 
BRANCH   4   5
ATOM      5  O   UNL A   1      33.493  30.113  27.281  1.00  0.00    -0.460 OA
BRANCH   5   6
ATOM      6  C   UNL A   1      34.545  30.887  27.631  1.00  0.00     0.338 C 
ATOM      7  O   UNL A   1      34.484  32.080  27.330  1.00  0.00    -0.246 OA
BRANCH   6   8
ATOM      8  C   UNL A   1      35.793  30.408  28.322  1.00  0.00     0.060 A 
ATOM      9  C   UNL A   1      36.989  30.572  27.595  1.00  0.00     0.016 A 
ATOM     10  C   UNL A   1      35.875  29.734  29.544  1.00  0.00     0.016 A 
ATOM     11  C   UNL A   1      38.191  30.016  28.037  1.00  0.00     0.010 A 
ATOM     12  C   UNL A   1      37.059  29.150  29.979  1.00  0.00     0.010 A 
ATOM     13  C   UNL A   1      38.215  29.275  29.219  1.00  0.00    -0.014 A 
BRANCH  13  14
ATOM     14  C   UNL A   1      39.454  28.732  29.782  1.00  0.00     0.031 A 
ATOM     15  C   UNL A   1      40.131  29.398  30.936  1.00  0.00     0.074 A 
ATOM     16  C   UNL A   1      40.028  27.729  29.100  1.00  0.00     0.049 A 
ATOM     17  N   UNL A   1      41.247  29.067  31.526  1.00  0.00    -0.248 NA
ATOM     18  C   UNL A   1      39.487  30.601  31.487  1.00  0.00     0.031 C 
ATOM     19  C   UNL A   1      39.475  27.126  27.883  1.00  0.00     0.029 A 
ATOM     20  N   UNL A   1      41.212  27.080  29.293  1.00  0.00    -0.354 N 
ATOM     21  C   UNL A   1      41.436  30.007  32.530  1.00  0.00     0.074 A 
ATOM     22  C   UNL A   1      40.340  30.949  32.443  1.00  0.00     0.031 C 
ATOM     23  C   UNL A   1      40.333  26.205  27.426  1.00  0.00     0.029 A 
ATOM     24  C   UNL A   1      41.483  26.152  28.320  1.00  0.00     0.049 A 
ATOM     25  H   UNL A   1      41.813  27.260  30.052  1.00  0.00     0.167 HD
ATOM     26  C   UNL A   1      42.426  30.049  33.454  1.00  0.00     0.034 A 
ATOM     27  C   UNL A   1      42.541  25.338  28.175  1.00  0.00     0.034 A 
ATOM     28  C   UNL A   1      43.513  29.106  33.486  1.00  0.00     0.049 A 
ATOM     29  C   UNL A   1      43.606  25.373  29.226  1.00  0.00     0.074 A 
ATOM     30  C   UNL A   1      44.539  28.999  34.406  1.00  0.00     0.029 A 
ATOM     31  N   UNL A   1      43.722  28.113  32.536  1.00  0.00    -0.354 N 
ATOM     32  N   UNL A   1      43.695  26.163  30.270  1.00  0.00    -0.248 NA
ATOM     33  C   UNL A   1      44.682  24.387  29.111  1.00  0.00     0.031 C 
ATOM     34  C   UNL A   1      45.374  27.948  34.005  1.00  0.00     0.029 A 
ATOM     35  C   UNL A   1      44.859  27.389  32.845  1.00  0.00     0.049 A 
ATOM     36  H   UNL A   1      43.144  27.948  31.757  1.00  0.00     0.167 HD
ATOM     37  C   UNL A   1      44.834  25.763  30.952  1.00  0.00     0.074 A 
ATOM     38  C   UNL A   1      45.387  24.645  30.207  1.00  0.00     0.031 C 
ATOM     39  C   UNL A   1      45.377  26.278  32.083  1.00  0.00     0.034 A 
BRANCH  26  40
ATOM     40  C   UNL A   1      42.327  31.084  34.545  1.00  0.00     0.023 A 
ATOM     41  C   UNL A   1      41.657  30.744  35.740  1.00  0.00     0.012 A 
ATOM     42  C   UNL A   1      42.941  32.347  34.437  1.00  0.00     0.148 A 
ATOM     43  C   UNL A   1      41.581  31.646  36.800  1.00  0.00     0.002 A 
ATOM     44  C   UNL A   1      42.886  33.233  35.511  1.00  0.00     0.091 A 
ATOM     45  F   UNL A   1      43.563  32.660  33.292  1.00  0.00    -0.205 F 
ATOM     46  C   UNL A   1      42.203  32.886  36.689  1.00  0.00     0.022 A 
BRANCH  44  47
ATOM     47  S   UNL A   1      43.686  34.842  35.497  1.00  0.00     0.127 S 
ATOM     48  O   UNL A   1      45.057  34.485  35.131  1.00  0.00    -0.237 OA
ATOM     49  O   UNL A   1      42.941  35.544  34.452  1.00  0.00    -0.237 OA
ATOM     50  O   UNL A   1      43.524  35.386  36.837  1.00  0.00    -0.744 OA
ENDBRANCH  44  47
ENDBRANCH  26  40
BRANCH  27  51
ATOM     51  C   UNL A   1      42.515  24.358  27.062  1.00  0.00     0.023 A 
ATOM     52  C   UNL A   1      43.266  24.637  25.905  1.00  0.00     0.012 A 
ATOM     53  C   UNL A   1      41.942  23.082  27.228  1.00  0.00     0.148 A 
ATOM     54  C   UNL A   1      43.459  23.657  24.933  1.00  0.00     0.002 A 
ATOM     55  C   UNL A   1      42.163  22.100  26.269  1.00  0.00     0.091 A 
ATOM     56  F   UNL A   1      41.256  22.839  28.355  1.00  0.00    -0.205 F 
ATOM     57  C   UNL A   1      42.919  22.386  25.121  1.00  0.00     0.022 A 
BRANCH  55  58
ATOM     58  S   UNL A   1      41.613  20.402  26.471  1.00  0.00     0.127 S 
ATOM     59  O   UNL A   1      42.119  20.082  27.805  1.00  0.00    -0.237 OA
ATOM     60  O   UNL A   1      40.160  20.548  26.383  1.00  0.00    -0.237 OA
ATOM     61  O   UNL A   1      42.219  19.652  25.380  1.00  0.00    -0.744 OA
ENDBRANCH  55  58
ENDBRANCH  27  51
BRANCH  39  62
ATOM     62  C   UNL A   1      46.650  25.646  32.569  1.00  0.00     0.023 A 
ATOM     63  C   UNL A   1      47.884  26.122  32.085  1.00  0.00     0.012 A 
ATOM     64  C   UNL A   1      46.626  24.636  33.549  1.00  0.00     0.148 A 
ATOM     65  C   UNL A   1      49.080  25.583  32.554  1.00  0.00     0.002 A 
ATOM     66  C   UNL A   1      47.822  24.129  34.037  1.00  0.00     0.091 A 
ATOM     67  F   UNL A   1      45.436  24.196  33.982  1.00  0.00    -0.205 F 
ATOM     68  C   UNL A   1      49.050  24.594  33.535  1.00  0.00     0.022 A 
BRANCH  66  69
ATOM     69  S   UNL A   1      47.887  22.899  35.344  1.00  0.00     0.127 S 
ATOM     70  O   UNL A   1      47.177  23.579  36.426  1.00  0.00    -0.237 OA
ATOM     71  O   UNL A   1      47.161  21.777  34.747  1.00  0.00    -0.237 OA
ATOM     72  O   UNL A   1      49.300  22.646  35.591  1.00  0.00    -0.744 OA
ENDBRANCH  66  69
ENDBRANCH  39  62
ENDBRANCH  13  14
ENDBRANCH   6   8
ENDBRANCH   5   6
ENDBRANCH   4   5
ENDBRANCH   3   4
ENDBRANCH   2   3
ENDBRANCH   1   2
BRANCH   1  73
ATOM     73  C   UNL A   1      30.329  29.569  22.663  1.00  0.00     0.261 C 
BRANCH  73  74
ATOM     74  O   UNL A   1      30.851  28.293  22.263  1.00  0.00    -0.460 OA
BRANCH  74  75
ATOM     75  C   UNL A   1      32.164  28.124  22.546  1.00  0.00     0.338 C 
ATOM     76  O   UNL A   1      33.039  28.968  22.636  1.00  0.00    -0.246 OA
BRANCH  75  77
ATOM     77  C   UNL A   1      32.371  26.726  22.937  1.00  0.00     0.062 A 
ATOM     78  C   UNL A   1      31.482  25.736  22.506  1.00  0.00     0.016 A 
ATOM     79  C   UNL A   1      33.493  26.419  23.729  1.00  0.00     0.042 A 
ATOM     80  C   UNL A   1      31.807  24.409  22.745  1.00  0.00     0.017 A 
ATOM     81  C   UNL A   1      33.722  25.107  24.086  1.00  0.00     0.056 A 
ATOM     82  C   UNL A   1      32.953  24.125  23.490  1.00  0.00     0.064 A 
ATOM     83  N   UNL A   1      34.677  24.735  25.034  1.00  0.00    -0.307 N 
ATOM     84  C   UNL A   1      33.506  22.784  23.554  1.00  0.00     0.264 A 
ATOM     85  C   UNL A   1      34.836  23.433  25.459  1.00  0.00     0.328 A 
ATOM     86  H   UNL A   1      35.261  25.431  25.413  1.00  0.00     0.171 HD
ATOM     87  O   UNL A   1      33.423  22.095  22.547  1.00  0.00    -0.268 OA
ATOM     88  N   UNL A   1      34.160  22.466  24.729  1.00  0.00    -0.260 N 
ATOM     89  O   UNL A   1      35.567  23.194  26.420  1.00  0.00    -0.248 OA
BRANCH  88  90
ATOM     90  C   UNL A   1      34.342  21.052  25.034  1.00  0.00     0.137 C 
BRANCH  90  91
ATOM     91  C   UNL A   1      33.079  20.398  25.628  1.00  0.00     0.083 C 
BRANCH  91  92
ATOM     92  C   UNL A   1      33.178  18.891  25.934  1.00  0.00     0.264 C 
BRANCH  92  93
ATOM     93  N   UNL A   1      32.418  18.055  25.007  1.00  0.00    -0.331 N 
ATOM     94  C   UNL A   1      32.272  16.660  25.470  1.00  0.00     0.291 C 
ATOM     95  C   UNL A   1      32.893  18.049  23.620  1.00  0.00     0.291 C 
ATOM     96  H   UNL A   1      31.507  18.515  25.005  1.00  0.00     0.348 HD
ATOM     97  C   UNL A   1      33.530  15.812  25.240  1.00  0.00     0.221 C 
ATOM     98  C   UNL A   1      34.157  17.203  23.434  1.00  0.00     0.221 C 
ATOM     99  O   UNL A   1      33.956  15.852  23.871  1.00  0.00    -0.370 OA
ENDBRANCH  92  93
ENDBRANCH  91  92
ENDBRANCH  90  91
ENDBRANCH  88  90
ENDBRANCH  75  77
ENDBRANCH  74  75
ENDBRANCH  73  74
ENDBRANCH   1  73
TORSDOF 21
ENDMDL
