MODEL 1
REMARK VINA RESULT:     -12.0      0.000      0.000
REMARK SMILES Cc1cccc(CC(=O)N2CCC3(CCC(=O)N([C@H](C)C(=O)OCCOCCOC(=O)c4ccc(-c5c6nc(c(-c7cccc(S(=O)(=O)[O-])c7F)c7ccc([nH]7)c(-c7cccc(S(=O)(=O)[O-])c7F)c7nc(c(-c8cccc(S(=O)(=O)[O-])c8F)c8ccc5[nH]8)C=C7)C=C6)cc4)C3)CC2)c1
REMARK SMILES IDX 26 1 25 2 24 3 23 4 21 5 22 6 19 7 20 8 18 9 8 10 9 11 10 12
REMARK SMILES IDX 11 13 97 14 12 15 96 16 13 17 14 18 95 19 15 20 16 21 17 22
REMARK SMILES IDX 7 23 6 24 1 25 2 26 3 27 98 28 4 29 5 30 27 31 28 32 29 33
REMARK SMILES IDX 30 34 31 35 32 36 33 37 94 38 34 39 93 40 35 41 36 42 37 43
REMARK SMILES IDX 87 44 38 45 92 46 86 47 88 48 39 49 91 50 85 51 84 52 40 54
REMARK SMILES IDX 72 55 52 56 71 57 53 58 56 59 70 60 89 61 54 62 55 63 69 65
REMARK SMILES IDX 90 66 57 67 41 68 42 69 50 70 43 71 45 72 51 73 44 74 46 75
REMARK SMILES IDX 47 76 48 77 49 78 73 79 74 80 82 81 75 82 77 83 83 84 76 85
REMARK SMILES IDX 78 86 79 87 80 88 81 89 58 90 59 91 67 92 60 93 62 94 68 95
REMARK SMILES IDX 61 96 63 97 64 98 65 99 66 100
REMARK H PARENT 88 53 56 64
REMARK Flexibility Score: inf
ROOT
ATOM      1  O   UNL A   1      34.202  32.586  27.509  1.00  0.00    -0.374 OA
ENDROOT
BRANCH   1   2
ATOM      2  C   UNL A   1      34.348  31.212  27.806  1.00  0.00     0.202 C 
BRANCH   2   3
ATOM      3  C   UNL A   1      33.156  30.448  27.257  1.00  0.00     0.261 C 
BRANCH   3   4
ATOM      4  O   UNL A   1      33.105  30.202  25.840  1.00  0.00    -0.462 OA
BRANCH   4   5
ATOM      5  C   UNL A   1      33.502  29.042  25.276  1.00  0.00     0.328 C 
ATOM      6  O   UNL A   1      34.212  28.186  25.791  1.00  0.00    -0.250 OA
BRANCH   5   7
ATOM      7  C   UNL A   1      33.048  28.950  23.829  1.00  0.00     0.192 C 
ATOM      8  C   UNL A   1      34.190  28.753  22.836  1.00  0.00     0.044 C 
BRANCH   7   9
ATOM      9  N   UNL A   1      31.951  27.987  23.655  1.00  0.00    -0.329 N 
ATOM     10  C   UNL A   1      32.067  22.566  26.703  1.00  0.00     0.226 C 
ATOM     11  O   UNL A   1      31.914  22.730  27.921  1.00  0.00    -0.275 OA
ATOM     12  N   UNL A   1      31.447  23.406  25.790  1.00  0.00    -0.342 N 
ATOM     13  C   UNL A   1      31.006  24.711  26.252  1.00  0.00     0.120 C 
ATOM     14  C   UNL A   1      31.181  23.164  24.369  1.00  0.00     0.120 C 
ATOM     15  C   UNL A   1      31.719  25.776  25.431  1.00  0.00     0.030 C 
ATOM     16  C   UNL A   1      31.899  24.186  23.492  1.00  0.00     0.030 C 
ATOM     17  C   UNL A   1      31.487  25.613  23.897  1.00  0.00    -0.008 C 
ATOM     18  C   UNL A   1      30.040  25.883  23.442  1.00  0.00     0.019 C 
ATOM     19  C   UNL A   1      32.320  26.662  23.166  1.00  0.00     0.127 C 
ATOM     20  C   UNL A   1      29.572  27.275  23.804  1.00  0.00     0.101 C 
ATOM     21  C   UNL A   1      30.623  28.366  23.821  1.00  0.00     0.223 C 
ATOM     22  O   UNL A   1      30.255  29.502  24.124  1.00  0.00    -0.275 OA
BRANCH  10  23
ATOM     23  C   UNL A   1      33.114  21.559  26.242  1.00  0.00     0.135 C 
BRANCH  23  24
ATOM     24  C   UNL A   1      34.442  22.099  25.796  1.00  0.00    -0.038 A 
ATOM     25  C   UNL A   1      37.857  20.665  24.909  1.00  0.00     0.044 C 
ATOM     26  C   UNL A   1      36.759  21.645  25.201  1.00  0.00    -0.051 A 
ATOM     27  C   UNL A   1      37.045  23.007  25.350  1.00  0.00     0.003 A 
ATOM     28  C   UNL A   1      35.447  21.203  25.393  1.00  0.00     0.007 A 
ATOM     29  C   UNL A   1      36.036  23.914  25.683  1.00  0.00     0.001 A 
ATOM     30  C   UNL A   1      34.735  23.465  25.902  1.00  0.00     0.004 A 
ENDBRANCH  23  24
ENDBRANCH  10  23
ENDBRANCH   7   9
ENDBRANCH   5   7
ENDBRANCH   4   5
ENDBRANCH   3   4
ENDBRANCH   2   3
ENDBRANCH   1   2
BRANCH   1  31
ATOM     31  C   UNL A   1      32.904  33.140  27.604  1.00  0.00     0.202 C 
BRANCH  31  32
ATOM     32  C   UNL A   1      32.887  34.537  28.231  1.00  0.00     0.261 C 
BRANCH  32  33
ATOM     33  O   UNL A   1      34.157  34.819  28.850  1.00  0.00    -0.460 OA
BRANCH  33  34
ATOM     34  C   UNL A   1      34.246  34.447  30.159  1.00  0.00     0.338 C 
ATOM     35  O   UNL A   1      33.330  34.559  30.961  1.00  0.00    -0.246 OA
BRANCH  34  36
ATOM     36  C   UNL A   1      35.654  34.090  30.496  1.00  0.00     0.060 A 
ATOM     37  C   UNL A   1      36.621  33.959  29.482  1.00  0.00     0.016 A 
ATOM     38  C   UNL A   1      35.937  33.627  31.779  1.00  0.00     0.016 A 
ATOM     39  C   UNL A   1      37.805  33.240  29.720  1.00  0.00     0.010 A 
ATOM     40  C   UNL A   1      37.049  32.834  31.972  1.00  0.00     0.010 A 
ATOM     41  C   UNL A   1      37.983  32.609  30.946  1.00  0.00    -0.014 A 
BRANCH  41  42
ATOM     42  C   UNL A   1      39.062  31.694  31.323  1.00  0.00     0.031 A 
ATOM     43  C   UNL A   1      39.176  30.402  30.597  1.00  0.00     0.074 A 
ATOM     44  C   UNL A   1      40.139  32.107  32.029  1.00  0.00     0.049 A 
ATOM     45  N   UNL A   1      40.117  29.542  30.788  1.00  0.00    -0.248 NA
ATOM     46  C   UNL A   1      38.186  29.946  29.623  1.00  0.00     0.031 C 
ATOM     47  C   UNL A   1      41.526  31.702  31.781  1.00  0.00     0.029 A 
ATOM     48  N   UNL A   1      40.253  32.965  33.105  1.00  0.00    -0.354 N 
ATOM     49  C   UNL A   1      40.061  28.629  29.764  1.00  0.00     0.074 A 
ATOM     50  C   UNL A   1      38.767  28.833  29.166  1.00  0.00     0.031 C 
ATOM     51  C   UNL A   1      42.317  32.179  32.750  1.00  0.00     0.029 A 
ATOM     52  C   UNL A   1      41.467  32.768  33.761  1.00  0.00     0.049 A 
ATOM     53  H   UNL A   1      39.571  33.624  33.373  1.00  0.00     0.167 HD
ATOM     54  C   UNL A   1      41.184  27.914  29.475  1.00  0.00     0.034 A 
ATOM     55  C   UNL A   1      41.541  32.522  35.100  1.00  0.00     0.034 A 
ATOM     56  C   UNL A   1      42.216  28.108  30.518  1.00  0.00     0.049 A 
ATOM     57  C   UNL A   1      42.085  31.140  35.385  1.00  0.00     0.074 A 
ATOM     58  C   UNL A   1      43.422  28.788  30.562  1.00  0.00     0.029 A 
ATOM     59  N   UNL A   1      41.931  27.745  31.836  1.00  0.00    -0.354 N 
ATOM     60  N   UNL A   1      42.398  30.295  34.441  1.00  0.00    -0.248 NA
ATOM     61  C   UNL A   1      42.346  30.580  36.707  1.00  0.00     0.031 C 
ATOM     62  C   UNL A   1      43.823  28.886  31.926  1.00  0.00     0.029 A 
ATOM     63  C   UNL A   1      42.887  28.233  32.714  1.00  0.00     0.049 A 
ATOM     64  H   UNL A   1      41.150  27.210  32.107  1.00  0.00     0.167 HD
ATOM     65  C   UNL A   1      42.697  29.076  34.961  1.00  0.00     0.074 A 
ATOM     66  C   UNL A   1      42.746  29.331  36.393  1.00  0.00     0.031 C 
ATOM     67  C   UNL A   1      42.794  27.970  34.157  1.00  0.00     0.034 A 
BRANCH  54  68
ATOM     68  C   UNL A   1      41.462  27.159  28.176  1.00  0.00     0.023 A 
ATOM     69  C   UNL A   1      41.270  27.869  26.966  1.00  0.00     0.012 A 
ATOM     70  C   UNL A   1      41.820  25.794  28.027  1.00  0.00     0.148 A 
ATOM     71  C   UNL A   1      41.405  27.270  25.706  1.00  0.00     0.002 A 
ATOM     72  C   UNL A   1      42.003  25.206  26.769  1.00  0.00     0.091 A 
ATOM     73  F   UNL A   1      41.933  25.005  29.092  1.00  0.00    -0.205 F 
ATOM     74  C   UNL A   1      41.782  25.940  25.605  1.00  0.00     0.022 A 
BRANCH  72  75
ATOM     75  S   UNL A   1      42.515  23.486  26.562  1.00  0.00     0.127 S 
ATOM     76  O   UNL A   1      43.727  23.426  27.379  1.00  0.00    -0.237 OA
ATOM     77  O   UNL A   1      41.375  22.753  27.111  1.00  0.00    -0.237 OA
ATOM     78  O   UNL A   1      42.734  23.285  25.134  1.00  0.00    -0.744 OA
ENDBRANCH  72  75
ENDBRANCH  54  68
BRANCH  55  79
ATOM     79  C   UNL A   1      40.544  33.329  35.866  1.00  0.00     0.023 A 
ATOM     80  C   UNL A   1      39.361  32.629  36.216  1.00  0.00     0.012 A 
ATOM     81  C   UNL A   1      40.948  34.414  36.666  1.00  0.00     0.148 A 
ATOM     82  C   UNL A   1      38.696  32.889  37.414  1.00  0.00     0.002 A 
ATOM     83  C   UNL A   1      40.292  34.652  37.875  1.00  0.00     0.091 A 
ATOM     84  F   UNL A   1      42.021  35.122  36.288  1.00  0.00    -0.205 F 
ATOM     85  C   UNL A   1      39.188  33.872  38.264  1.00  0.00     0.022 A 
BRANCH  83  86
ATOM     86  S   UNL A   1      40.924  35.808  39.103  1.00  0.00     0.127 S 
ATOM     87  O   UNL A   1      39.876  35.763  40.119  1.00  0.00    -0.237 OA
ATOM     88  O   UNL A   1      42.188  35.179  39.497  1.00  0.00    -0.237 OA
ATOM     89  O   UNL A   1      41.082  37.073  38.403  1.00  0.00    -0.744 OA
ENDBRANCH  83  86
ENDBRANCH  55  79
BRANCH  67  90
ATOM     90  C   UNL A   1      42.785  26.539  34.657  1.00  0.00     0.023 A 
ATOM     91  C   UNL A   1      41.686  25.989  35.346  1.00  0.00     0.012 A 
ATOM     92  C   UNL A   1      43.824  25.638  34.307  1.00  0.00     0.148 A 
ATOM     93  C   UNL A   1      41.637  24.642  35.721  1.00  0.00     0.002 A 
ATOM     94  C   UNL A   1      43.715  24.276  34.572  1.00  0.00     0.091 A 
ATOM     95  F   UNL A   1      44.944  26.098  33.731  1.00  0.00    -0.205 F 
ATOM     96  C   UNL A   1      42.639  23.778  35.308  1.00  0.00     0.022 A 
BRANCH  94  97
ATOM     97  S   UNL A   1      44.852  23.095  33.832  1.00  0.00     0.127 S 
ATOM     98  O   UNL A   1      44.623  23.309  32.406  1.00  0.00    -0.237 OA
ATOM     99  O   UNL A   1      46.151  23.565  34.319  1.00  0.00    -0.237 OA
ATOM    100  O   UNL A   1      44.450  21.799  34.364  1.00  0.00    -0.744 OA
ENDBRANCH  94  97
ENDBRANCH  67  90
ENDBRANCH  41  42
ENDBRANCH  34  36
ENDBRANCH  33  34
ENDBRANCH  32  33
ENDBRANCH  31  32
ENDBRANCH   1  31
TORSDOF 20
ENDMDL
MODEL 2
REMARK VINA RESULT:     -11.6      1.720      2.061
REMARK SMILES Cc1cccc(CC(=O)N2CCC3(CCC(=O)N([C@H](C)C(=O)OCCOCCOC(=O)c4ccc(-c5c6nc(c(-c7cccc(S(=O)(=O)[O-])c7F)c7ccc([nH]7)c(-c7cccc(S(=O)(=O)[O-])c7F)c7nc(c(-c8cccc(S(=O)(=O)[O-])c8F)c8ccc5[nH]8)C=C7)C=C6)cc4)C3)CC2)c1
REMARK SMILES IDX 26 1 25 2 24 3 23 4 21 5 22 6 19 7 20 8 18 9 8 10 9 11 10 12
REMARK SMILES IDX 11 13 97 14 12 15 96 16 13 17 14 18 95 19 15 20 16 21 17 22
REMARK SMILES IDX 7 23 6 24 1 25 2 26 3 27 98 28 4 29 5 30 27 31 28 32 29 33
REMARK SMILES IDX 30 34 31 35 32 36 33 37 94 38 34 39 93 40 35 41 36 42 37 43
REMARK SMILES IDX 87 44 38 45 92 46 86 47 88 48 39 49 91 50 85 51 84 52 40 54
REMARK SMILES IDX 72 55 52 56 71 57 53 58 56 59 70 60 89 61 54 62 55 63 69 65
REMARK SMILES IDX 90 66 57 67 41 68 42 69 50 70 43 71 45 72 51 73 44 74 46 75
REMARK SMILES IDX 47 76 48 77 49 78 73 79 74 80 82 81 75 82 77 83 83 84 76 85
REMARK SMILES IDX 78 86 79 87 80 88 81 89 58 90 59 91 67 92 60 93 62 94 68 95
REMARK SMILES IDX 61 96 63 97 64 98 65 99 66 100
REMARK H PARENT 88 53 56 64
REMARK Flexibility Score: inf
ROOT
ATOM      1  O   UNL A   1      33.761  32.313  27.268  1.00  0.00    -0.374 OA
ENDROOT
BRANCH   1   2
ATOM      2  C   UNL A   1      33.456  31.026  27.768  1.00  0.00     0.202 C 
BRANCH   2   3
ATOM      3  C   UNL A   1      32.533  30.314  26.795  1.00  0.00     0.261 C 
BRANCH   3   4
ATOM      4  O   UNL A   1      32.959  30.191  25.427  1.00  0.00    -0.462 OA
BRANCH   4   5
ATOM      5  C   UNL A   1      33.420  29.039  24.896  1.00  0.00     0.328 C 
ATOM      6  O   UNL A   1      34.214  28.263  25.415  1.00  0.00    -0.250 OA
BRANCH   5   7
ATOM      7  C   UNL A   1      32.917  28.847  23.475  1.00  0.00     0.192 C 
ATOM      8  C   UNL A   1      34.023  28.573  22.461  1.00  0.00     0.044 C 
BRANCH   7   9
ATOM      9  N   UNL A   1      31.812  27.879  23.408  1.00  0.00    -0.329 N 
ATOM     10  C   UNL A   1      32.092  22.612  26.704  1.00  0.00     0.226 C 
ATOM     11  O   UNL A   1      32.005  22.835  27.919  1.00  0.00    -0.275 OA
ATOM     12  N   UNL A   1      31.423  23.408  25.786  1.00  0.00    -0.342 N 
ATOM     13  C   UNL A   1      31.008  24.736  26.207  1.00  0.00     0.120 C 
ATOM     14  C   UNL A   1      31.081  23.099  24.396  1.00  0.00     0.120 C 
ATOM     15  C   UNL A   1      31.676  25.757  25.299  1.00  0.00     0.030 C 
ATOM     16  C   UNL A   1      31.751  24.075  23.432  1.00  0.00     0.030 C 
ATOM     17  C   UNL A   1      31.361  25.521  23.789  1.00  0.00    -0.008 C 
ATOM     18  C   UNL A   1      29.892  25.773  23.401  1.00  0.00     0.019 C 
ATOM     19  C   UNL A   1      32.153  26.532  22.964  1.00  0.00     0.127 C 
ATOM     20  C   UNL A   1      29.444  27.182  23.720  1.00  0.00     0.101 C 
ATOM     21  C   UNL A   1      30.494  28.269  23.627  1.00  0.00     0.223 C 
ATOM     22  O   UNL A   1      30.144  29.420  23.894  1.00  0.00    -0.275 OA
BRANCH  10  23
ATOM     23  C   UNL A   1      33.113  21.581  26.237  1.00  0.00     0.135 C 
BRANCH  23  24
ATOM     24  C   UNL A   1      34.449  22.091  25.779  1.00  0.00    -0.038 A 
ATOM     25  C   UNL A   1      37.829  20.580  24.883  1.00  0.00     0.044 C 
ATOM     26  C   UNL A   1      36.752  21.585  25.174  1.00  0.00    -0.051 A 
ATOM     27  C   UNL A   1      37.067  22.941  25.311  1.00  0.00     0.003 A 
ATOM     28  C   UNL A   1      35.433  21.170  25.377  1.00  0.00     0.007 A 
ATOM     29  C   UNL A   1      36.079  23.871  25.643  1.00  0.00     0.001 A 
ATOM     30  C   UNL A   1      34.769  23.451  25.873  1.00  0.00     0.004 A 
ENDBRANCH  23  24
ENDBRANCH  10  23
ENDBRANCH   7   9
ENDBRANCH   5   7
ENDBRANCH   4   5
ENDBRANCH   3   4
ENDBRANCH   2   3
ENDBRANCH   1   2
BRANCH   1  31
ATOM     31  C   UNL A   1      32.944  33.388  27.688  1.00  0.00     0.202 C 
BRANCH  31  32
ATOM     32  C   UNL A   1      33.579  34.232  28.797  1.00  0.00     0.261 C 
BRANCH  32  33
ATOM     33  O   UNL A   1      34.898  33.741  29.102  1.00  0.00    -0.460 OA
BRANCH  33  34
ATOM     34  C   UNL A   1      35.022  33.176  30.337  1.00  0.00     0.338 C 
ATOM     35  O   UNL A   1      34.098  33.064  31.129  1.00  0.00    -0.246 OA
BRANCH  34  36
ATOM     36  C   UNL A   1      36.459  32.917  30.640  1.00  0.00     0.060 A 
ATOM     37  C   UNL A   1      37.425  32.969  29.619  1.00  0.00     0.016 A 
ATOM     38  C   UNL A   1      36.793  32.364  31.874  1.00  0.00     0.016 A 
ATOM     39  C   UNL A   1      38.672  32.340  29.788  1.00  0.00     0.010 A 
ATOM     40  C   UNL A   1      37.973  31.660  31.993  1.00  0.00     0.010 A 
ATOM     41  C   UNL A   1      38.915  31.617  30.951  1.00  0.00    -0.014 A 
BRANCH  41  42
ATOM     42  C   UNL A   1      40.074  30.771  31.240  1.00  0.00     0.031 A 
ATOM     43  C   UNL A   1      40.180  29.458  30.551  1.00  0.00     0.074 A 
ATOM     44  C   UNL A   1      41.197  31.265  31.812  1.00  0.00     0.049 A 
ATOM     45  N   UNL A   1      41.180  28.654  30.669  1.00  0.00    -0.248 NA
ATOM     46  C   UNL A   1      39.118  28.916  29.706  1.00  0.00     0.031 C 
ATOM     47  C   UNL A   1      42.569  30.919  31.431  1.00  0.00     0.029 A 
ATOM     48  N   UNL A   1      41.378  32.169  32.840  1.00  0.00    -0.354 N 
ATOM     49  C   UNL A   1      41.065  27.699  29.689  1.00  0.00     0.074 A 
ATOM     50  C   UNL A   1      39.705  27.816  29.228  1.00  0.00     0.031 C 
ATOM     51  C   UNL A   1      43.432  31.472  32.292  1.00  0.00     0.029 A 
ATOM     52  C   UNL A   1      42.664  32.058  33.367  1.00  0.00     0.049 A 
ATOM     53  H   UNL A   1      40.694  32.804  33.156  1.00  0.00     0.167 HD
ATOM     54  C   UNL A   1      42.187  27.029  29.306  1.00  0.00     0.034 A 
ATOM     55  C   UNL A   1      42.891  31.870  34.698  1.00  0.00     0.034 A 
ATOM     56  C   UNL A   1      43.311  27.315  30.226  1.00  0.00     0.049 A 
ATOM     57  C   UNL A   1      43.535  30.528  34.971  1.00  0.00     0.074 A 
ATOM     58  C   UNL A   1      44.478  28.054  30.116  1.00  0.00     0.029 A 
ATOM     59  N   UNL A   1      43.187  26.991  31.578  1.00  0.00    -0.354 N 
ATOM     60  N   UNL A   1      43.790  29.663  34.028  1.00  0.00    -0.248 NA
ATOM     61  C   UNL A   1      43.963  30.035  36.276  1.00  0.00     0.031 C 
ATOM     62  C   UNL A   1      45.015  28.226  31.425  1.00  0.00     0.029 A 
ATOM     63  C   UNL A   1      44.203  27.560  32.331  1.00  0.00     0.049 A 
ATOM     64  H   UNL A   1      42.468  26.430  31.950  1.00  0.00     0.167 HD
ATOM     65  C   UNL A   1      44.207  28.481  34.555  1.00  0.00     0.074 A 
ATOM     66  C   UNL A   1      44.393  28.796  35.963  1.00  0.00     0.031 C 
ATOM     67  C   UNL A   1      44.277  27.351  33.783  1.00  0.00     0.034 A 
BRANCH  54  68
ATOM     68  C   UNL A   1      42.366  26.237  28.012  1.00  0.00     0.023 A 
ATOM     69  C   UNL A   1      42.740  26.968  26.859  1.00  0.00     0.012 A 
ATOM     70  C   UNL A   1      42.126  24.855  27.801  1.00  0.00     0.148 A 
ATOM     71  C   UNL A   1      42.853  26.379  25.591  1.00  0.00     0.002 A 
ATOM     72  C   UNL A   1      42.284  24.254  26.547  1.00  0.00     0.091 A 
ATOM     73  F   UNL A   1      41.676  24.089  28.792  1.00  0.00    -0.205 F 
ATOM     74  C   UNL A   1      42.635  25.019  25.435  1.00  0.00     0.022 A 
BRANCH  72  75
ATOM     75  S   UNL A   1      42.039  22.486  26.274  1.00  0.00     0.127 S 
ATOM     76  O   UNL A   1      40.582  22.367  26.322  1.00  0.00    -0.237 OA
ATOM     77  O   UNL A   1      42.622  22.291  24.947  1.00  0.00    -0.237 OA
ATOM     78  O   UNL A   1      42.741  21.795  27.351  1.00  0.00    -0.744 OA
ENDBRANCH  72  75
ENDBRANCH  54  68
BRANCH  55  79
ATOM     79  C   UNL A   1      41.939  32.657  35.539  1.00  0.00     0.023 A 
ATOM     80  C   UNL A   1      41.924  34.049  35.268  1.00  0.00     0.012 A 
ATOM     81  C   UNL A   1      40.784  32.062  36.080  1.00  0.00     0.148 A 
ATOM     82  C   UNL A   1      40.748  34.792  35.371  1.00  0.00     0.002 A 
ATOM     83  C   UNL A   1      39.605  32.806  36.157  1.00  0.00     0.091 A 
ATOM     84  F   UNL A   1      40.828  30.764  36.408  1.00  0.00    -0.205 F 
ATOM     85  C   UNL A   1      39.579  34.160  35.773  1.00  0.00     0.022 A 
BRANCH  83  86
ATOM     86  S   UNL A   1      38.015  32.053  36.539  1.00  0.00     0.127 S 
ATOM     87  O   UNL A   1      37.106  33.186  36.381  1.00  0.00    -0.237 OA
ATOM     88  O   UNL A   1      37.901  31.026  35.500  1.00  0.00    -0.237 OA
ATOM     89  O   UNL A   1      38.147  31.524  37.887  1.00  0.00    -0.744 OA
ENDBRANCH  83  86
ENDBRANCH  55  79
BRANCH  67  90
ATOM     90  C   UNL A   1      44.396  25.942  34.331  1.00  0.00     0.023 A 
ATOM     91  C   UNL A   1      43.316  25.037  34.324  1.00  0.00     0.012 A 
ATOM     92  C   UNL A   1      45.654  25.419  34.727  1.00  0.00     0.148 A 
ATOM     93  C   UNL A   1      43.453  23.708  34.737  1.00  0.00     0.002 A 
ATOM     94  C   UNL A   1      45.811  24.066  35.018  1.00  0.00     0.091 A 
ATOM     95  F   UNL A   1      46.712  26.233  34.848  1.00  0.00    -0.205 F 
ATOM     96  C   UNL A   1      44.707  23.214  35.057  1.00  0.00     0.022 A 
BRANCH  94  97
ATOM     97  S   UNL A   1      47.448  23.338  35.180  1.00  0.00     0.127 S 
ATOM     98  O   UNL A   1      47.838  23.769  36.520  1.00  0.00    -0.237 OA
ATOM     99  O   UNL A   1      47.166  21.906  35.057  1.00  0.00    -0.237 OA
ATOM    100  O   UNL A   1      48.219  23.891  34.074  1.00  0.00    -0.744 OA
ENDBRANCH  94  97
ENDBRANCH  67  90
ENDBRANCH  41  42
ENDBRANCH  34  36
ENDBRANCH  33  34
ENDBRANCH  32  33
ENDBRANCH  31  32
ENDBRANCH   1  31
TORSDOF 20
ENDMDL
MODEL 3
REMARK VINA RESULT:     -11.5      4.677     10.610
REMARK SMILES Cc1cccc(CC(=O)N2CCC3(CCC(=O)N([C@H](C)C(=O)OCCOCCOC(=O)c4ccc(-c5c6nc(c(-c7cccc(S(=O)(=O)[O-])c7F)c7ccc([nH]7)c(-c7cccc(S(=O)(=O)[O-])c7F)c7nc(c(-c8cccc(S(=O)(=O)[O-])c8F)c8ccc5[nH]8)C=C7)C=C6)cc4)C3)CC2)c1
REMARK SMILES IDX 26 1 25 2 24 3 23 4 21 5 22 6 19 7 20 8 18 9 8 10 9 11 10 12
REMARK SMILES IDX 11 13 97 14 12 15 96 16 13 17 14 18 95 19 15 20 16 21 17 22
REMARK SMILES IDX 7 23 6 24 1 25 2 26 3 27 98 28 4 29 5 30 27 31 28 32 29 33
REMARK SMILES IDX 30 34 31 35 32 36 33 37 94 38 34 39 93 40 35 41 36 42 37 43
REMARK SMILES IDX 87 44 38 45 92 46 86 47 88 48 39 49 91 50 85 51 84 52 40 54
REMARK SMILES IDX 72 55 52 56 71 57 53 58 56 59 70 60 89 61 54 62 55 63 69 65
REMARK SMILES IDX 90 66 57 67 41 68 42 69 50 70 43 71 45 72 51 73 44 74 46 75
REMARK SMILES IDX 47 76 48 77 49 78 73 79 74 80 82 81 75 82 77 83 83 84 76 85
REMARK SMILES IDX 78 86 79 87 80 88 81 89 58 90 59 91 67 92 60 93 62 94 68 95
REMARK SMILES IDX 61 96 63 97 64 98 65 99 66 100
REMARK H PARENT 88 53 56 64
REMARK Flexibility Score: inf
ROOT
ATOM      1  O   UNL A   1      38.305  22.778  26.559  1.00  0.00    -0.374 OA
ENDROOT
BRANCH   1   2
ATOM      2  C   UNL A   1      37.878  23.981  25.951  1.00  0.00     0.202 C 
BRANCH   2   3
ATOM      3  C   UNL A   1      36.373  24.113  26.095  1.00  0.00     0.261 C 
BRANCH   3   4
ATOM      4  O   UNL A   1      35.543  23.148  25.425  1.00  0.00    -0.462 OA
BRANCH   4   5
ATOM      5  C   UNL A   1      35.258  21.932  25.940  1.00  0.00     0.328 C 
ATOM      6  O   UNL A   1      36.029  20.986  26.045  1.00  0.00    -0.250 OA
BRANCH   5   7
ATOM      7  C   UNL A   1      33.785  21.816  26.293  1.00  0.00     0.192 C 
ATOM      8  C   UNL A   1      33.385  22.605  27.535  1.00  0.00     0.044 C 
BRANCH   7   9
ATOM      9  N   UNL A   1      32.917  22.072  25.134  1.00  0.00    -0.329 N 
ATOM     10  C   UNL A   1      32.930  27.673  22.428  1.00  0.00     0.226 C 
ATOM     11  O   UNL A   1      34.002  27.891  21.847  1.00  0.00    -0.275 OA
ATOM     12  N   UNL A   1      32.412  26.388  22.504  1.00  0.00    -0.342 N 
ATOM     13  C   UNL A   1      33.323  25.272  22.312  1.00  0.00     0.120 C 
ATOM     14  C   UNL A   1      31.032  25.980  22.781  1.00  0.00     0.120 C 
ATOM     15  C   UNL A   1      33.307  24.418  23.571  1.00  0.00     0.030 C 
ATOM     16  C   UNL A   1      30.949  25.144  24.055  1.00  0.00     0.030 C 
ATOM     17  C   UNL A   1      31.877  23.920  23.946  1.00  0.00    -0.008 C 
ATOM     18  C   UNL A   1      31.279  22.904  22.955  1.00  0.00     0.019 C 
ATOM     19  C   UNL A   1      31.958  23.163  25.268  1.00  0.00     0.127 C 
ATOM     20  C   UNL A   1      32.140  21.670  22.805  1.00  0.00     0.101 C 
ATOM     21  C   UNL A   1      32.925  21.233  24.025  1.00  0.00     0.223 C 
ATOM     22  O   UNL A   1      33.638  20.234  23.912  1.00  0.00    -0.275 OA
BRANCH  10  23
ATOM     23  C   UNL A   1      32.306  28.808  23.231  1.00  0.00     0.135 C 
BRANCH  23  24
ATOM     24  C   UNL A   1      32.444  28.753  24.725  1.00  0.00    -0.038 A 
ATOM     25  C   UNL A   1      35.259  29.137  27.261  1.00  0.00     0.044 C 
ATOM     26  C   UNL A   1      33.908  28.866  26.667  1.00  0.00    -0.051 A 
ATOM     27  C   UNL A   1      32.896  28.289  27.441  1.00  0.00     0.003 A 
ATOM     28  C   UNL A   1      33.664  29.127  25.316  1.00  0.00     0.007 A 
ATOM     29  C   UNL A   1      31.657  27.978  26.876  1.00  0.00     0.001 A 
ATOM     30  C   UNL A   1      31.426  28.213  25.521  1.00  0.00     0.004 A 
ENDBRANCH  23  24
ENDBRANCH  10  23
ENDBRANCH   7   9
ENDBRANCH   5   7
ENDBRANCH   4   5
ENDBRANCH   3   4
ENDBRANCH   2   3
ENDBRANCH   1   2
BRANCH   1  31
ATOM     31  C   UNL A   1      39.694  22.515  26.584  1.00  0.00     0.202 C 
BRANCH  31  32
ATOM     32  C   UNL A   1      40.037  21.049  26.307  1.00  0.00     0.261 C 
BRANCH  32  33
ATOM     33  O   UNL A   1      41.290  20.956  25.602  1.00  0.00    -0.460 OA
BRANCH  33  34
ATOM     34  C   UNL A   1      42.352  20.596  26.377  1.00  0.00     0.338 C 
ATOM     35  O   UNL A   1      42.612  19.440  26.679  1.00  0.00    -0.246 OA
BRANCH  34  36
ATOM     36  C   UNL A   1      43.002  21.809  26.952  1.00  0.00     0.060 A 
ATOM     37  C   UNL A   1      42.882  22.103  28.323  1.00  0.00     0.016 A 
ATOM     38  C   UNL A   1      43.493  22.780  26.082  1.00  0.00     0.016 A 
ATOM     39  C   UNL A   1      43.118  23.407  28.792  1.00  0.00     0.010 A 
ATOM     40  C   UNL A   1      43.618  24.078  26.531  1.00  0.00     0.010 A 
ATOM     41  C   UNL A   1      43.411  24.414  27.880  1.00  0.00    -0.014 A 
BRANCH  41  42
ATOM     42  C   UNL A   1      43.530  25.848  28.153  1.00  0.00     0.031 A 
ATOM     43  C   UNL A   1      42.284  26.654  28.247  1.00  0.00     0.074 A 
ATOM     44  C   UNL A   1      44.660  26.389  28.663  1.00  0.00     0.049 A 
ATOM     45  N   UNL A   1      42.250  27.907  28.546  1.00  0.00    -0.248 NA
ATOM     46  C   UNL A   1      40.961  26.111  27.946  1.00  0.00     0.031 C 
ATOM     47  C   UNL A   1      44.716  27.425  29.699  1.00  0.00     0.029 A 
ATOM     48  N   UNL A   1      45.992  26.152  28.388  1.00  0.00    -0.354 N 
ATOM     49  C   UNL A   1      40.944  28.236  28.815  1.00  0.00     0.074 A 
ATOM     50  C   UNL A   1      40.178  27.139  28.282  1.00  0.00     0.031 C 
ATOM     51  C   UNL A   1      45.980  27.835  29.862  1.00  0.00     0.029 A 
ATOM     52  C   UNL A   1      46.779  27.215  28.829  1.00  0.00     0.049 A 
ATOM     53  H   UNL A   1      46.338  25.345  27.942  1.00  0.00     0.167 HD
ATOM     54  C   UNL A   1      40.701  29.336  29.580  1.00  0.00     0.034 A 
ATOM     55  C   UNL A   1      47.655  27.863  28.010  1.00  0.00     0.034 A 
ATOM     56  C   UNL A   1      41.939  30.121  29.784  1.00  0.00     0.049 A 
ATOM     57  C   UNL A   1      47.254  29.304  27.791  1.00  0.00     0.074 A 
ATOM     58  C   UNL A   1      42.776  30.331  30.868  1.00  0.00     0.029 A 
ATOM     59  N   UNL A   1      42.609  30.640  28.675  1.00  0.00    -0.354 N 
ATOM     60  N   UNL A   1      46.173  29.823  28.306  1.00  0.00    -0.248 NA
ATOM     61  C   UNL A   1      48.000  30.291  27.017  1.00  0.00     0.031 C 
ATOM     62  C   UNL A   1      43.980  30.920  30.387  1.00  0.00     0.029 A 
ATOM     63  C   UNL A   1      43.868  31.109  29.018  1.00  0.00     0.049 A 
ATOM     64  H   UNL A   1      42.235  30.670  27.765  1.00  0.00     0.167 HD
ATOM     65  C   UNL A   1      45.957  31.074  27.820  1.00  0.00     0.074 A 
ATOM     66  C   UNL A   1      47.182  31.361  27.091  1.00  0.00     0.031 C 
ATOM     67  C   UNL A   1      44.755  31.705  28.008  1.00  0.00     0.034 A 
BRANCH  54  68
ATOM     68  C   UNL A   1      39.396  29.656  30.309  1.00  0.00     0.023 A 
ATOM     69  C   UNL A   1      38.913  28.684  31.217  1.00  0.00     0.012 A 
ATOM     70  C   UNL A   1      38.558  30.786  30.129  1.00  0.00     0.148 A 
ATOM     71  C   UNL A   1      37.687  28.812  31.885  1.00  0.00     0.002 A 
ATOM     72  C   UNL A   1      37.356  30.940  30.830  1.00  0.00     0.091 A 
ATOM     73  F   UNL A   1      38.863  31.717  29.229  1.00  0.00    -0.205 F 
ATOM     74  C   UNL A   1      36.911  29.946  31.700  1.00  0.00     0.022 A 
BRANCH  72  75
ATOM     75  S   UNL A   1      36.306  32.400  30.657  1.00  0.00     0.127 S 
ATOM     76  O   UNL A   1      36.024  32.406  29.221  1.00  0.00    -0.237 OA
ATOM     77  O   UNL A   1      35.160  32.062  31.500  1.00  0.00    -0.237 OA
ATOM     78  O   UNL A   1      37.089  33.537  31.127  1.00  0.00    -0.744 OA
ENDBRANCH  72  75
ENDBRANCH  54  68
BRANCH  55  79
ATOM     79  C   UNL A   1      48.349  26.917  27.085  1.00  0.00     0.023 A 
ATOM     80  C   UNL A   1      47.732  26.772  25.815  1.00  0.00     0.012 A 
ATOM     81  C   UNL A   1      49.732  26.675  27.194  1.00  0.00     0.148 A 
ATOM     82  C   UNL A   1      48.490  26.562  24.663  1.00  0.00     0.002 A 
ATOM     83  C   UNL A   1      50.486  26.490  26.034  1.00  0.00     0.091 A 
ATOM     84  F   UNL A   1      50.296  26.735  28.408  1.00  0.00    -0.205 F 
ATOM     85  C   UNL A   1      49.871  26.464  24.769  1.00  0.00     0.022 A 
BRANCH  83  86
ATOM     86  S   UNL A   1      52.286  26.484  26.048  1.00  0.00     0.127 S 
ATOM     87  O   UNL A   1      52.592  26.238  24.641  1.00  0.00    -0.237 OA
ATOM     88  O   UNL A   1      52.597  27.837  26.516  1.00  0.00    -0.237 OA
ATOM     89  O   UNL A   1      52.666  25.431  26.977  1.00  0.00    -0.744 OA
ENDBRANCH  83  86
ENDBRANCH  55  79
BRANCH  67  90
ATOM     90  C   UNL A   1      44.296  32.928  27.238  1.00  0.00     0.023 A 
ATOM     91  C   UNL A   1      44.149  32.925  25.837  1.00  0.00     0.012 A 
ATOM     92  C   UNL A   1      43.836  34.086  27.918  1.00  0.00     0.148 A 
ATOM     93  C   UNL A   1      43.632  34.021  25.138  1.00  0.00     0.002 A 
ATOM     94  C   UNL A   1      43.208  35.122  27.230  1.00  0.00     0.091 A 
ATOM     95  F   UNL A   1      44.021  34.206  29.240  1.00  0.00    -0.205 F 
ATOM     96  C   UNL A   1      43.135  35.109  25.837  1.00  0.00     0.022 A 
BRANCH  94  97
ATOM     97  S   UNL A   1      42.324  36.416  28.112  1.00  0.00     0.127 S 
ATOM     98  O   UNL A   1      41.298  35.652  28.818  1.00  0.00    -0.237 OA
ATOM     99  O   UNL A   1      43.367  36.977  28.973  1.00  0.00    -0.237 OA
ATOM    100  O   UNL A   1      41.853  37.325  27.076  1.00  0.00    -0.744 OA
ENDBRANCH  94  97
ENDBRANCH  67  90
ENDBRANCH  41  42
ENDBRANCH  34  36
ENDBRANCH  33  34
ENDBRANCH  32  33
ENDBRANCH  31  32
ENDBRANCH   1  31
TORSDOF 20
ENDMDL
