MODEL 1
REMARK VINA RESULT:      -9.9      0.000      0.000
REMARK SMILES O=C(CC1(NS(=O)(=O)C[C@H]2CCCO2)CCC1)OCCOCCOC(=O)c1ccc(-c2c3nc(c(-c4cccc(S(=O)(=O)[O-])c4F)c4ccc([nH]4)c(-c4cccc(S(=O)(=O)[O-])c4F)c4nc(c(-c5cccc(S(=O)(=O)[O-])c5F)c5ccc2[nH]5)C=C4)C=C3)cc1
REMARK SMILES IDX 20 1 19 2 18 3 2 4 1 5 3 6 4 7 15 8 17 9 16 10 5 11 6 13
REMARK SMILES IDX 7 14 8 15 9 16 10 17 11 18 14 19 12 20 13 21 21 22 22 23
REMARK SMILES IDX 23 24 24 25 25 26 26 27 27 28 28 29 89 30 29 31 88 32 30 33
REMARK SMILES IDX 31 34 32 35 82 36 33 37 87 38 81 39 83 40 34 41 86 42 80 43
REMARK SMILES IDX 79 44 35 46 67 47 47 48 66 49 48 50 51 51 65 52 84 53 49 54
REMARK SMILES IDX 50 55 64 57 85 58 52 59 36 60 37 61 45 62 38 63 40 64 46 65
REMARK SMILES IDX 39 66 41 67 42 68 43 69 44 70 68 71 69 72 77 73 70 74 72 75
REMARK SMILES IDX 78 76 71 77 73 78 74 79 75 80 76 81 53 82 54 83 62 84 55 85
REMARK SMILES IDX 57 86 63 87 56 88 58 89 59 90 60 91 61 92
REMARK H PARENT 5 12 83 45 51 56
REMARK Flexibility Score: inf
ROOT
ATOM      1  C   UNL A   1      37.243  22.739  24.915  1.00  0.00     0.202 C 
ENDROOT
BRANCH   1   2
ATOM      2  C   UNL A   1      36.442  22.562  23.633  1.00  0.00     0.261 C 
BRANCH   2   3
ATOM      3  O   UNL A   1      35.000  22.638  23.700  1.00  0.00    -0.463 OA
BRANCH   3   4
ATOM      4  C   UNL A   1      34.070  22.146  24.531  1.00  0.00     0.307 C 
ATOM      5  O   UNL A   1      33.596  21.035  24.278  1.00  0.00    -0.252 OA
BRANCH   4   6
ATOM      6  C   UNL A   1      33.507  22.922  25.686  1.00  0.00     0.146 C 
BRANCH   6   7
ATOM      7  C   UNL A   1      32.397  23.951  25.493  1.00  0.00     0.043 C 
ATOM      8  C   UNL A   1      31.011  23.267  25.218  1.00  0.00     0.024 C 
ATOM      9  C   UNL A   1      31.704  24.568  26.759  1.00  0.00     0.024 C 
ATOM     10  C   UNL A   1      30.336  24.280  26.144  1.00  0.00     0.004 C 
BRANCH   7  11
ATOM     11  N   UNL A   1      32.848  24.977  24.460  1.00  0.00    -0.208 NA
ATOM     12  H   UNL A   1      32.084  25.002  23.785  1.00  0.00     0.141 HD
BRANCH  11  13
ATOM     13  S   UNL A   1      33.278  26.590  24.645  1.00  0.00     0.214 S 
ATOM     14  O   UNL A   1      33.962  26.721  25.916  1.00  0.00    -0.212 OA
ATOM     15  O   UNL A   1      33.945  26.995  23.426  1.00  0.00    -0.212 OA
BRANCH  13  16
ATOM     16  C   UNL A   1      31.763  27.518  24.799  1.00  0.00     0.185 C 
BRANCH  16  17
ATOM     17  C   UNL A   1      31.348  28.415  23.643  1.00  0.00     0.134 C 
ATOM     18  C   UNL A   1      30.432  27.746  22.617  1.00  0.00     0.035 C 
ATOM     19  O   UNL A   1      30.702  29.620  24.059  1.00  0.00    -0.377 OA
ATOM     20  C   UNL A   1      29.083  28.339  22.926  1.00  0.00     0.031 C 
ATOM     21  C   UNL A   1      29.450  29.736  23.369  1.00  0.00     0.160 C 
ENDBRANCH  16  17
ENDBRANCH  13  16
ENDBRANCH  11  13
ENDBRANCH   7  11
ENDBRANCH   6   7
ENDBRANCH   4   6
ENDBRANCH   3   4
ENDBRANCH   2   3
ENDBRANCH   1   2
BRANCH   1  22
ATOM     22  O   UNL A   1      37.455  21.568  25.673  1.00  0.00    -0.374 OA
BRANCH  22  23
ATOM     23  C   UNL A   1      37.756  20.366  24.976  1.00  0.00     0.202 C 
BRANCH  23  24
ATOM     24  C   UNL A   1      38.975  19.676  25.587  1.00  0.00     0.261 C 
BRANCH  24  25
ATOM     25  O   UNL A   1      40.040  20.627  25.647  1.00  0.00    -0.460 OA
BRANCH  25  26
ATOM     26  C   UNL A   1      40.812  20.581  26.757  1.00  0.00     0.338 C 
ATOM     27  O   UNL A   1      41.385  19.619  27.222  1.00  0.00    -0.246 OA
BRANCH  26  28
ATOM     28  C   UNL A   1      41.040  21.979  27.184  1.00  0.00     0.060 A 
ATOM     29  C   UNL A   1      40.449  23.002  26.430  1.00  0.00     0.016 A 
ATOM     30  C   UNL A   1      41.758  22.273  28.348  1.00  0.00     0.016 A 
ATOM     31  C   UNL A   1      40.621  24.326  26.813  1.00  0.00     0.010 A 
ATOM     32  C   UNL A   1      41.921  23.596  28.737  1.00  0.00     0.010 A 
ATOM     33  C   UNL A   1      41.394  24.624  27.942  1.00  0.00    -0.014 A 
BRANCH  33  34
ATOM     34  C   UNL A   1      41.825  26.012  28.184  1.00  0.00     0.031 A 
ATOM     35  C   UNL A   1      43.228  26.386  27.798  1.00  0.00     0.074 A 
ATOM     36  C   UNL A   1      40.984  26.901  28.735  1.00  0.00     0.049 A 
ATOM     37  N   UNL A   1      43.846  27.527  27.934  1.00  0.00    -0.248 NA
ATOM     38  C   UNL A   1      44.049  25.325  27.184  1.00  0.00     0.031 C 
ATOM     39  C   UNL A   1      39.613  26.619  29.160  1.00  0.00     0.029 A 
ATOM     40  N   UNL A   1      41.175  28.218  29.055  1.00  0.00    -0.354 N 
ATOM     41  C   UNL A   1      45.128  27.319  27.441  1.00  0.00     0.074 A 
ATOM     42  C   UNL A   1      45.214  25.936  27.034  1.00  0.00     0.031 C 
ATOM     43  C   UNL A   1      39.094  27.727  29.713  1.00  0.00     0.029 A 
ATOM     44  C   UNL A   1      40.102  28.784  29.701  1.00  0.00     0.049 A 
ATOM     45  H   UNL A   1      41.999  28.712  28.845  1.00  0.00     0.167 HD
ATOM     46  C   UNL A   1      46.135  28.212  27.312  1.00  0.00     0.034 A 
ATOM     47  C   UNL A   1      39.969  30.012  30.236  1.00  0.00     0.034 A 
ATOM     48  C   UNL A   1      46.029  29.585  27.719  1.00  0.00     0.049 A 
ATOM     49  C   UNL A   1      41.112  30.984  30.095  1.00  0.00     0.074 A 
ATOM     50  C   UNL A   1      46.973  30.589  27.620  1.00  0.00     0.029 A 
ATOM     51  N   UNL A   1      44.908  30.143  28.315  1.00  0.00    -0.354 N 
ATOM     52  N   UNL A   1      42.283  30.807  29.528  1.00  0.00    -0.248 NA
ATOM     53  C   UNL A   1      40.901  32.336  30.630  1.00  0.00     0.031 C 
ATOM     54  C   UNL A   1      46.431  31.750  28.181  1.00  0.00     0.029 A 
ATOM     55  C   UNL A   1      45.135  31.479  28.592  1.00  0.00     0.049 A 
ATOM     56  H   UNL A   1      44.073  29.661  28.512  1.00  0.00     0.167 HD
ATOM     57  C   UNL A   1      42.932  32.033  29.605  1.00  0.00     0.074 A 
ATOM     58  C   UNL A   1      42.012  32.949  30.248  1.00  0.00     0.031 C 
ATOM     59  C   UNL A   1      44.179  32.375  29.194  1.00  0.00     0.034 A 
BRANCH  46  60
ATOM     60  C   UNL A   1      47.416  27.733  26.682  1.00  0.00     0.023 A 
ATOM     61  C   UNL A   1      48.458  27.251  27.500  1.00  0.00     0.012 A 
ATOM     62  C   UNL A   1      47.577  27.724  25.283  1.00  0.00     0.148 A 
ATOM     63  C   UNL A   1      49.652  26.800  26.940  1.00  0.00     0.002 A 
ATOM     64  C   UNL A   1      48.750  27.228  24.729  1.00  0.00     0.091 A 
ATOM     65  F   UNL A   1      46.585  28.211  24.523  1.00  0.00    -0.205 F 
ATOM     66  C   UNL A   1      49.794  26.778  25.555  1.00  0.00     0.022 A 
BRANCH  64  67
ATOM     67  S   UNL A   1      49.005  27.087  22.957  1.00  0.00     0.127 S 
ATOM     68  O   UNL A   1      50.464  27.037  22.872  1.00  0.00    -0.237 OA
ATOM     69  O   UNL A   1      48.332  25.823  22.653  1.00  0.00    -0.237 OA
ATOM     70  O   UNL A   1      48.388  28.265  22.366  1.00  0.00    -0.744 OA
ENDBRANCH  64  67
ENDBRANCH  46  60
BRANCH  47  71
ATOM     71  C   UNL A   1      38.708  30.397  30.928  1.00  0.00     0.023 A 
ATOM     72  C   UNL A   1      38.531  30.091  32.291  1.00  0.00     0.012 A 
ATOM     73  C   UNL A   1      37.681  31.072  30.239  1.00  0.00     0.148 A 
ATOM     74  C   UNL A   1      37.341  30.413  32.944  1.00  0.00     0.002 A 
ATOM     75  C   UNL A   1      36.522  31.442  30.909  1.00  0.00     0.091 A 
ATOM     76  F   UNL A   1      37.862  31.343  28.938  1.00  0.00    -0.205 F 
ATOM     77  C   UNL A   1      36.339  31.096  32.257  1.00  0.00     0.022 A 
BRANCH  75  78
ATOM     78  S   UNL A   1      35.244  32.440  30.137  1.00  0.00     0.127 S 
ATOM     79  O   UNL A   1      36.006  33.601  29.684  1.00  0.00    -0.237 OA
ATOM     80  O   UNL A   1      34.775  31.555  29.071  1.00  0.00    -0.237 OA
ATOM     81  O   UNL A   1      34.261  32.693  31.181  1.00  0.00    -0.744 OA
ENDBRANCH  75  78
ENDBRANCH  47  71
BRANCH  59  82
ATOM     82  C   UNL A   1      44.600  33.808  29.385  1.00  0.00     0.023 A 
ATOM     83  C   UNL A   1      45.272  34.196  30.562  1.00  0.00     0.012 A 
ATOM     84  C   UNL A   1      44.374  34.758  28.371  1.00  0.00     0.148 A 
ATOM     85  C   UNL A   1      45.668  35.520  30.745  1.00  0.00     0.002 A 
ATOM     86  C   UNL A   1      44.823  36.062  28.536  1.00  0.00     0.091 A 
ATOM     87  F   UNL A   1      43.720  34.371  27.265  1.00  0.00    -0.205 F 
ATOM     88  C   UNL A   1      45.455  36.449  29.729  1.00  0.00     0.022 A 
BRANCH  86  89
ATOM     89  S   UNL A   1      44.684  37.297  27.241  1.00  0.00     0.127 S 
ATOM     90  O   UNL A   1      45.645  36.804  26.256  1.00  0.00    -0.237 OA
ATOM     91  O   UNL A   1      43.282  37.171  26.843  1.00  0.00    -0.237 OA
ATOM     92  O   UNL A   1      45.023  38.571  27.862  1.00  0.00    -0.744 OA
ENDBRANCH  86  89
ENDBRANCH  59  82
ENDBRANCH  33  34
ENDBRANCH  26  28
ENDBRANCH  25  26
ENDBRANCH  24  25
ENDBRANCH  23  24
ENDBRANCH  22  23
ENDBRANCH   1  22
TORSDOF 22
ENDMDL
MODEL 2
REMARK VINA RESULT:      -9.8      4.942     10.524
REMARK SMILES O=C(CC1(NS(=O)(=O)C[C@H]2CCCO2)CCC1)OCCOCCOC(=O)c1ccc(-c2c3nc(c(-c4cccc(S(=O)(=O)[O-])c4F)c4ccc([nH]4)c(-c4cccc(S(=O)(=O)[O-])c4F)c4nc(c(-c5cccc(S(=O)(=O)[O-])c5F)c5ccc2[nH]5)C=C4)C=C3)cc1
REMARK SMILES IDX 20 1 19 2 18 3 2 4 1 5 3 6 4 7 15 8 17 9 16 10 5 11 6 13
REMARK SMILES IDX 7 14 8 15 9 16 10 17 11 18 14 19 12 20 13 21 21 22 22 23
REMARK SMILES IDX 23 24 24 25 25 26 26 27 27 28 28 29 89 30 29 31 88 32 30 33
REMARK SMILES IDX 31 34 32 35 82 36 33 37 87 38 81 39 83 40 34 41 86 42 80 43
REMARK SMILES IDX 79 44 35 46 67 47 47 48 66 49 48 50 51 51 65 52 84 53 49 54
REMARK SMILES IDX 50 55 64 57 85 58 52 59 36 60 37 61 45 62 38 63 40 64 46 65
REMARK SMILES IDX 39 66 41 67 42 68 43 69 44 70 68 71 69 72 77 73 70 74 72 75
REMARK SMILES IDX 78 76 71 77 73 78 74 79 75 80 76 81 53 82 54 83 62 84 55 85
REMARK SMILES IDX 57 86 63 87 56 88 58 89 59 90 60 91 61 92
REMARK H PARENT 5 12 83 45 51 56
REMARK Flexibility Score: inf
ROOT
ATOM      1  C   UNL A   1      31.402  29.275  24.657  1.00  0.00     0.202 C 
ENDROOT
BRANCH   1   2
ATOM      2  C   UNL A   1      30.969  28.263  23.607  1.00  0.00     0.261 C 
BRANCH   2   3
ATOM      3  O   UNL A   1      31.426  26.897  23.730  1.00  0.00    -0.463 OA
BRANCH   3   4
ATOM      4  C   UNL A   1      30.930  25.787  24.295  1.00  0.00     0.307 C 
ATOM      5  O   UNL A   1      30.301  25.903  25.350  1.00  0.00    -0.252 OA
BRANCH   4   6
ATOM      6  C   UNL A   1      31.193  24.408  23.764  1.00  0.00     0.146 C 
BRANCH   6   7
ATOM      7  C   UNL A   1      32.578  23.770  23.842  1.00  0.00     0.043 C 
ATOM      8  C   UNL A   1      32.772  22.666  22.743  1.00  0.00     0.024 C 
ATOM      9  C   UNL A   1      33.788  24.495  23.155  1.00  0.00     0.024 C 
ATOM     10  C   UNL A   1      34.189  23.181  22.488  1.00  0.00     0.004 C 
BRANCH   7  11
ATOM     11  N   UNL A   1      32.839  23.331  25.279  1.00  0.00    -0.208 NA
ATOM     12  H   UNL A   1      32.164  23.864  25.828  1.00  0.00     0.141 HD
BRANCH  11  13
ATOM     13  S   UNL A   1      32.808  21.800  25.970  1.00  0.00     0.214 S 
ATOM     14  O   UNL A   1      32.933  21.962  27.404  1.00  0.00    -0.212 OA
ATOM     15  O   UNL A   1      31.659  21.110  25.422  1.00  0.00    -0.212 OA
BRANCH  13  16
ATOM     16  C   UNL A   1      34.285  20.957  25.434  1.00  0.00     0.185 C 
BRANCH  16  17
ATOM     17  C   UNL A   1      35.630  21.506  25.883  1.00  0.00     0.134 C 
ATOM     18  C   UNL A   1      36.771  21.288  24.887  1.00  0.00     0.035 C 
ATOM     19  O   UNL A   1      35.603  22.903  26.189  1.00  0.00    -0.377 OA
ATOM     20  C   UNL A   1      36.961  22.653  24.282  1.00  0.00     0.031 C 
ATOM     21  C   UNL A   1      36.639  23.560  25.447  1.00  0.00     0.160 C 
ENDBRANCH  16  17
ENDBRANCH  13  16
ENDBRANCH  11  13
ENDBRANCH   7  11
ENDBRANCH   6   7
ENDBRANCH   4   6
ENDBRANCH   3   4
ENDBRANCH   2   3
ENDBRANCH   1   2
BRANCH   1  22
ATOM     22  O   UNL A   1      30.487  30.315  24.924  1.00  0.00    -0.374 OA
BRANCH  22  23
ATOM     23  C   UNL A   1      31.000  31.542  25.431  1.00  0.00     0.202 C 
BRANCH  23  24
ATOM     24  C   UNL A   1      31.648  31.333  26.799  1.00  0.00     0.261 C 
BRANCH  24  25
ATOM     25  O   UNL A   1      33.049  31.585  26.670  1.00  0.00    -0.460 OA
BRANCH  25  26
ATOM     26  C   UNL A   1      33.572  32.479  27.540  1.00  0.00     0.338 C 
ATOM     27  O   UNL A   1      33.041  33.471  27.992  1.00  0.00    -0.246 OA
BRANCH  26  28
ATOM     28  C   UNL A   1      34.839  31.904  28.042  1.00  0.00     0.060 A 
ATOM     29  C   UNL A   1      34.895  30.519  28.251  1.00  0.00     0.016 A 
ATOM     30  C   UNL A   1      35.973  32.701  28.230  1.00  0.00     0.016 A 
ATOM     31  C   UNL A   1      36.075  29.938  28.700  1.00  0.00     0.010 A 
ATOM     32  C   UNL A   1      37.155  32.120  28.668  1.00  0.00     0.010 A 
ATOM     33  C   UNL A   1      37.191  30.746  28.950  1.00  0.00    -0.014 A 
BRANCH  33  34
ATOM     34  C   UNL A   1      38.335  30.196  29.697  1.00  0.00     0.031 A 
ATOM     35  C   UNL A   1      38.564  30.696  31.095  1.00  0.00     0.074 A 
ATOM     36  C   UNL A   1      39.142  29.283  29.134  1.00  0.00     0.049 A 
ATOM     37  N   UNL A   1      39.511  30.389  31.939  1.00  0.00    -0.248 NA
ATOM     38  C   UNL A   1      37.598  31.686  31.608  1.00  0.00     0.031 C 
ATOM     39  C   UNL A   1      39.007  28.758  27.776  1.00  0.00     0.029 A 
ATOM     40  N   UNL A   1      40.252  28.656  29.632  1.00  0.00    -0.354 N 
ATOM     41  C   UNL A   1      39.266  31.155  33.071  1.00  0.00     0.074 A 
ATOM     42  C   UNL A   1      38.105  31.969  32.798  1.00  0.00     0.031 C 
ATOM     43  C   UNL A   1      40.018  27.906  27.538  1.00  0.00     0.029 A 
ATOM     44  C   UNL A   1      40.878  27.845  28.717  1.00  0.00     0.049 A 
ATOM     45  H   UNL A   1      40.572  28.775  30.555  1.00  0.00     0.167 HD
ATOM     46  C   UNL A   1      39.936  31.158  34.246  1.00  0.00     0.034 A 
ATOM     47  C   UNL A   1      42.029  27.155  28.824  1.00  0.00     0.034 A 
ATOM     48  C   UNL A   1      41.088  30.338  34.500  1.00  0.00     0.049 A 
ATOM     49  C   UNL A   1      42.766  27.187  30.137  1.00  0.00     0.074 A 
ATOM     50  C   UNL A   1      41.837  30.238  35.656  1.00  0.00     0.029 A 
ATOM     51  N   UNL A   1      41.662  29.482  33.572  1.00  0.00    -0.354 N 
ATOM     52  N   UNL A   1      42.464  27.834  31.239  1.00  0.00    -0.248 NA
ATOM     53  C   UNL A   1      43.979  26.364  30.236  1.00  0.00     0.031 C 
ATOM     54  C   UNL A   1      42.882  29.340  35.418  1.00  0.00     0.029 A 
ATOM     55  C   UNL A   1      42.759  28.850  34.127  1.00  0.00     0.049 A 
ATOM     56  H   UNL A   1      41.337  29.345  32.653  1.00  0.00     0.167 HD
ATOM     57  C   UNL A   1      43.427  27.466  32.172  1.00  0.00     0.074 A 
ATOM     58  C   UNL A   1      44.303  26.520  31.512  1.00  0.00     0.031 C 
ATOM     59  C   UNL A   1      43.585  27.878  33.455  1.00  0.00     0.034 A 
BRANCH  46  60
ATOM     60  C   UNL A   1      39.417  32.050  35.342  1.00  0.00     0.023 A 
ATOM     61  C   UNL A   1      38.445  31.559  36.239  1.00  0.00     0.012 A 
ATOM     62  C   UNL A   1      39.914  33.357  35.511  1.00  0.00     0.148 A 
ATOM     63  C   UNL A   1      37.952  32.364  37.264  1.00  0.00     0.002 A 
ATOM     64  C   UNL A   1      39.452  34.137  36.564  1.00  0.00     0.091 A 
ATOM     65  F   UNL A   1      40.818  33.815  34.633  1.00  0.00    -0.205 F 
ATOM     66  C   UNL A   1      38.463  33.648  37.433  1.00  0.00     0.022 A 
BRANCH  64  67
ATOM     67  S   UNL A   1      40.098  35.775  36.915  1.00  0.00     0.127 S 
ATOM     68  O   UNL A   1      39.668  36.521  35.732  1.00  0.00    -0.237 OA
ATOM     69  O   UNL A   1      39.389  36.124  38.147  1.00  0.00    -0.237 OA
ATOM     70  O   UNL A   1      41.537  35.620  37.061  1.00  0.00    -0.744 OA
ENDBRANCH  64  67
ENDBRANCH  46  60
BRANCH  47  71
ATOM     71  C   UNL A   1      42.538  26.361  27.671  1.00  0.00     0.023 A 
ATOM     72  C   UNL A   1      43.472  26.929  26.783  1.00  0.00     0.012 A 
ATOM     73  C   UNL A   1      42.102  25.039  27.453  1.00  0.00     0.148 A 
ATOM     74  C   UNL A   1      43.930  26.211  25.678  1.00  0.00     0.002 A 
ATOM     75  C   UNL A   1      42.607  24.308  26.385  1.00  0.00     0.091 A 
ATOM     76  F   UNL A   1      41.203  24.520  28.302  1.00  0.00    -0.205 F 
ATOM     77  C   UNL A   1      43.505  24.898  25.483  1.00  0.00     0.022 A 
BRANCH  75  78
ATOM     78  S   UNL A   1      42.217  22.573  26.140  1.00  0.00     0.127 S 
ATOM     79  O   UNL A   1      42.909  22.286  24.887  1.00  0.00    -0.237 OA
ATOM     80  O   UNL A   1      42.811  21.961  27.328  1.00  0.00    -0.237 OA
ATOM     81  O   UNL A   1      40.763  22.502  26.093  1.00  0.00    -0.744 OA
ENDBRANCH  75  78
ENDBRANCH  47  71
BRANCH  59  82
ATOM     82  C   UNL A   1      44.718  27.272  34.239  1.00  0.00     0.023 A 
ATOM     83  C   UNL A   1      45.999  27.856  34.196  1.00  0.00     0.012 A 
ATOM     84  C   UNL A   1      44.495  26.151  35.063  1.00  0.00     0.148 A 
ATOM     85  C   UNL A   1      47.053  27.303  34.922  1.00  0.00     0.002 A 
ATOM     86  C   UNL A   1      45.535  25.641  35.828  1.00  0.00     0.091 A 
ATOM     87  F   UNL A   1      43.271  25.602  35.079  1.00  0.00    -0.205 F 
ATOM     88  C   UNL A   1      46.819  26.205  35.746  1.00  0.00     0.022 A 
BRANCH  86  89
ATOM     89  S   UNL A   1      45.300  24.296  36.993  1.00  0.00     0.127 S 
ATOM     90  O   UNL A   1      44.102  24.728  37.709  1.00  0.00    -0.237 OA
ATOM     91  O   UNL A   1      45.103  23.149  36.106  1.00  0.00    -0.237 OA
ATOM     92  O   UNL A   1      46.519  24.238  37.792  1.00  0.00    -0.744 OA
ENDBRANCH  86  89
ENDBRANCH  59  82
ENDBRANCH  33  34
ENDBRANCH  26  28
ENDBRANCH  25  26
ENDBRANCH  24  25
ENDBRANCH  23  24
ENDBRANCH  22  23
ENDBRANCH   1  22
TORSDOF 22
ENDMDL
MODEL 3
REMARK VINA RESULT:      -9.4      1.760      2.478
REMARK SMILES O=C(CC1(NS(=O)(=O)C[C@H]2CCCO2)CCC1)OCCOCCOC(=O)c1ccc(-c2c3nc(c(-c4cccc(S(=O)(=O)[O-])c4F)c4ccc([nH]4)c(-c4cccc(S(=O)(=O)[O-])c4F)c4nc(c(-c5cccc(S(=O)(=O)[O-])c5F)c5ccc2[nH]5)C=C4)C=C3)cc1
REMARK SMILES IDX 20 1 19 2 18 3 2 4 1 5 3 6 4 7 15 8 17 9 16 10 5 11 6 13
REMARK SMILES IDX 7 14 8 15 9 16 10 17 11 18 14 19 12 20 13 21 21 22 22 23
REMARK SMILES IDX 23 24 24 25 25 26 26 27 27 28 28 29 89 30 29 31 88 32 30 33
REMARK SMILES IDX 31 34 32 35 82 36 33 37 87 38 81 39 83 40 34 41 86 42 80 43
REMARK SMILES IDX 79 44 35 46 67 47 47 48 66 49 48 50 51 51 65 52 84 53 49 54
REMARK SMILES IDX 50 55 64 57 85 58 52 59 36 60 37 61 45 62 38 63 40 64 46 65
REMARK SMILES IDX 39 66 41 67 42 68 43 69 44 70 68 71 69 72 77 73 70 74 72 75
REMARK SMILES IDX 78 76 71 77 73 78 74 79 75 80 76 81 53 82 54 83 62 84 55 85
REMARK SMILES IDX 57 86 63 87 56 88 58 89 59 90 60 91 61 92
REMARK H PARENT 5 12 83 45 51 56
REMARK Flexibility Score: inf
ROOT
ATOM      1  C   UNL A   1      33.599  20.357  24.789  1.00  0.00     0.202 C 
ENDROOT
BRANCH   1   2
ATOM      2  C   UNL A   1      33.110  21.587  25.540  1.00  0.00     0.261 C 
BRANCH   2   3
ATOM      3  O   UNL A   1      32.635  22.720  24.778  1.00  0.00    -0.463 OA
BRANCH   3   4
ATOM      4  C   UNL A   1      32.671  24.050  24.949  1.00  0.00     0.307 C 
ATOM      5  O   UNL A   1      32.825  24.484  26.093  1.00  0.00    -0.252 OA
BRANCH   4   6
ATOM      6  C   UNL A   1      32.428  25.027  23.836  1.00  0.00     0.146 C 
BRANCH   6   7
ATOM      7  C   UNL A   1      31.231  25.974  23.849  1.00  0.00     0.043 C 
ATOM      8  C   UNL A   1      29.888  25.218  23.551  1.00  0.00     0.024 C 
ATOM      9  C   UNL A   1      30.573  26.348  25.224  1.00  0.00     0.024 C 
ATOM     10  C   UNL A   1      29.196  26.032  24.645  1.00  0.00     0.004 C 
BRANCH   7  11
ATOM     11  N   UNL A   1      31.535  27.168  22.951  1.00  0.00    -0.208 NA
ATOM     12  H   UNL A   1      30.782  27.159  22.263  1.00  0.00     0.141 HD
BRANCH  11  13
ATOM     13  S   UNL A   1      31.722  28.793  23.329  1.00  0.00     0.214 S 
ATOM     14  O   UNL A   1      32.035  29.498  22.102  1.00  0.00    -0.212 OA
ATOM     15  O   UNL A   1      30.565  29.184  24.107  1.00  0.00    -0.212 OA
BRANCH  13  16
ATOM     16  C   UNL A   1      33.170  28.924  24.361  1.00  0.00     0.185 C 
BRANCH  16  17
ATOM     17  C   UNL A   1      32.974  29.028  25.866  1.00  0.00     0.134 C 
ATOM     18  C   UNL A   1      34.100  28.411  26.698  1.00  0.00     0.035 C 
ATOM     19  O   UNL A   1      32.800  30.370  26.327  1.00  0.00    -0.377 OA
ATOM     20  C   UNL A   1      34.852  29.614  27.201  1.00  0.00     0.031 C 
ATOM     21  C   UNL A   1      33.744  30.625  27.377  1.00  0.00     0.160 C 
ENDBRANCH  16  17
ENDBRANCH  13  16
ENDBRANCH  11  13
ENDBRANCH   7  11
ENDBRANCH   6   7
ENDBRANCH   4   6
ENDBRANCH   3   4
ENDBRANCH   2   3
ENDBRANCH   1   2
BRANCH   1  22
ATOM     22  O   UNL A   1      34.998  20.241  24.643  1.00  0.00    -0.374 OA
BRANCH  22  23
ATOM     23  C   UNL A   1      35.781  21.423  24.758  1.00  0.00     0.202 C 
BRANCH  23  24
ATOM     24  C   UNL A   1      36.855  21.258  25.833  1.00  0.00     0.261 C 
BRANCH  24  25
ATOM     25  O   UNL A   1      38.125  21.536  25.239  1.00  0.00    -0.460 OA
BRANCH  25  26
ATOM     26  C   UNL A   1      39.208  21.271  26.005  1.00  0.00     0.338 C 
ATOM     27  O   UNL A   1      39.826  20.231  26.079  1.00  0.00    -0.246 OA
BRANCH  26  28
ATOM     28  C   UNL A   1      39.665  22.560  26.568  1.00  0.00     0.060 A 
ATOM     29  C   UNL A   1      39.007  23.728  26.158  1.00  0.00     0.016 A 
ATOM     30  C   UNL A   1      40.671  22.610  27.539  1.00  0.00     0.016 A 
ATOM     31  C   UNL A   1      39.393  24.955  26.682  1.00  0.00     0.010 A 
ATOM     32  C   UNL A   1      41.049  23.835  28.072  1.00  0.00     0.010 A 
ATOM     33  C   UNL A   1      40.444  25.012  27.607  1.00  0.00    -0.014 A 
BRANCH  33  34
ATOM     34  C   UNL A   1      41.051  26.313  27.939  1.00  0.00     0.031 A 
ATOM     35  C   UNL A   1      42.454  26.570  27.470  1.00  0.00     0.074 A 
ATOM     36  C   UNL A   1      40.363  27.226  28.642  1.00  0.00     0.049 A 
ATOM     37  N   UNL A   1      43.210  27.617  27.659  1.00  0.00    -0.248 NA
ATOM     38  C   UNL A   1      43.098  25.495  26.690  1.00  0.00     0.031 C 
ATOM     39  C   UNL A   1      39.005  27.052  29.156  1.00  0.00     0.029 A 
ATOM     40  N   UNL A   1      40.730  28.474  29.068  1.00  0.00    -0.354 N 
ATOM     41  C   UNL A   1      44.418  27.323  27.039  1.00  0.00     0.074 A 
ATOM     42  C   UNL A   1      44.312  25.988  26.499  1.00  0.00     0.031 C 
ATOM     43  C   UNL A   1      38.662  28.147  29.855  1.00  0.00     0.029 A 
ATOM     44  C   UNL A   1      39.782  29.084  29.854  1.00  0.00     0.049 A 
ATOM     45  H   UNL A   1      41.589  28.895  28.834  1.00  0.00     0.167 HD
ATOM     46  C   UNL A   1      45.510  28.109  26.909  1.00  0.00     0.034 A 
ATOM     47  C   UNL A   1      39.835  30.257  30.512  1.00  0.00     0.034 A 
ATOM     48  C   UNL A   1      45.596  29.437  27.451  1.00  0.00     0.049 A 
ATOM     49  C   UNL A   1      41.069  31.108  30.365  1.00  0.00     0.074 A 
ATOM     50  C   UNL A   1      46.641  30.337  27.365  1.00  0.00     0.029 A 
ATOM     51  N   UNL A   1      44.596  30.049  28.192  1.00  0.00    -0.354 N 
ATOM     52  N   UNL A   1      42.165  30.864  29.685  1.00  0.00    -0.248 NA
ATOM     53  C   UNL A   1      41.059  32.412  31.040  1.00  0.00     0.031 C 
ATOM     54  C   UNL A   1      46.281  31.486  28.078  1.00  0.00     0.029 A 
ATOM     55  C   UNL A   1      44.997  31.316  28.572  1.00  0.00     0.049 A 
ATOM     56  H   UNL A   1      43.728  29.642  28.414  1.00  0.00     0.167 HD
ATOM     57  C   UNL A   1      42.958  31.999  29.819  1.00  0.00     0.074 A 
ATOM     58  C   UNL A   1      42.201  32.938  30.623  1.00  0.00     0.031 C 
ATOM     59  C   UNL A   1      44.201  32.243  29.336  1.00  0.00     0.034 A 
BRANCH  46  60
ATOM     60  C   UNL A   1      46.675  27.562  26.127  1.00  0.00     0.023 A 
ATOM     61  C   UNL A   1      46.723  27.745  24.729  1.00  0.00     0.012 A 
ATOM     62  C   UNL A   1      47.737  26.901  26.774  1.00  0.00     0.148 A 
ATOM     63  C   UNL A   1      47.792  27.250  23.983  1.00  0.00     0.002 A 
ATOM     64  C   UNL A   1      48.822  26.453  26.031  1.00  0.00     0.091 A 
ATOM     65  F   UNL A   1      47.660  26.714  28.099  1.00  0.00    -0.205 F 
ATOM     66  C   UNL A   1      48.846  26.614  24.635  1.00  0.00     0.022 A 
BRANCH  64  67
ATOM     67  S   UNL A   1      50.263  25.689  26.780  1.00  0.00     0.127 S 
ATOM     68  O   UNL A   1      50.656  26.699  27.762  1.00  0.00    -0.237 OA
ATOM     69  O   UNL A   1      49.696  24.468  27.354  1.00  0.00    -0.237 OA
ATOM     70  O   UNL A   1      51.213  25.472  25.699  1.00  0.00    -0.744 OA
ENDBRANCH  64  67
ENDBRANCH  46  60
BRANCH  47  71
ATOM     71  C   UNL A   1      38.683  30.703  31.344  1.00  0.00     0.023 A 
ATOM     72  C   UNL A   1      38.650  30.405  32.720  1.00  0.00     0.012 A 
ATOM     73  C   UNL A   1      37.618  31.430  30.776  1.00  0.00     0.148 A 
ATOM     74  C   UNL A   1      37.561  30.784  33.505  1.00  0.00     0.002 A 
ATOM     75  C   UNL A   1      36.564  31.856  31.574  1.00  0.00     0.091 A 
ATOM     76  F   UNL A   1      37.661  31.694  29.462  1.00  0.00    -0.205 F 
ATOM     77  C   UNL A   1      36.522  31.517  32.935  1.00  0.00     0.022 A 
BRANCH  75  78
ATOM     78  S   UNL A   1      35.257  32.918  30.951  1.00  0.00     0.127 S 
ATOM     79  O   UNL A   1      34.255  32.809  32.008  1.00  0.00    -0.237 OA
ATOM     80  O   UNL A   1      35.933  34.212  30.871  1.00  0.00    -0.237 OA
ATOM     81  O   UNL A   1      34.881  32.358  29.660  1.00  0.00    -0.744 OA
ENDBRANCH  75  78
ENDBRANCH  47  71
BRANCH  59  82
ATOM     82  C   UNL A   1      44.799  33.595  29.624  1.00  0.00     0.023 A 
ATOM     83  C   UNL A   1      45.574  33.792  30.785  1.00  0.00     0.012 A 
ATOM     84  C   UNL A   1      44.635  34.656  28.713  1.00  0.00     0.148 A 
ATOM     85  C   UNL A   1      46.135  35.038  31.057  1.00  0.00     0.002 A 
ATOM     86  C   UNL A   1      45.245  35.878  28.961  1.00  0.00     0.091 A 
ATOM     87  F   UNL A   1      43.882  34.451  27.621  1.00  0.00    -0.205 F 
ATOM     88  C   UNL A   1      45.980  36.077  30.141  1.00  0.00     0.022 A 
BRANCH  86  89
ATOM     89  S   UNL A   1      45.186  37.237  27.790  1.00  0.00     0.127 S 
ATOM     90  O   UNL A   1      45.962  38.262  28.485  1.00  0.00    -0.237 OA
ATOM     91  O   UNL A   1      45.843  36.663  26.617  1.00  0.00    -0.237 OA
ATOM     92  O   UNL A   1      43.773  37.544  27.601  1.00  0.00    -0.744 OA
ENDBRANCH  86  89
ENDBRANCH  59  82
ENDBRANCH  33  34
ENDBRANCH  26  28
ENDBRANCH  25  26
ENDBRANCH  24  25
ENDBRANCH  23  24
ENDBRANCH  22  23
ENDBRANCH   1  22
TORSDOF 22
ENDMDL
