MODEL 1
REMARK VINA RESULT:     -12.2      0.000      0.000
REMARK SMILES CN1C(=O)c2ccc(NC(=O)C[C@@](C)(C(=O)OCCOCCOC(=O)c3ccc(-c4c5nc(c(-c6cccc(S(=O)(=O)[O-])c6F)c6ccc([nH]6)c(-c6cccc(S(=O)(=O)[O-])c6F)c6nc(c(-c7cccc(S(=O)(=O)[O-])c7F)c7ccc4[nH]7)C=C6)C=C5)cc3)c3ccccc3)cc2C1=O
REMARK SMILES IDX 20 1 19 2 18 3 17 4 15 5 16 6 13 7 14 8 12 9 10 10 9 11
REMARK SMILES IDX 11 13 8 14 1 15 2 16 3 17 97 18 4 19 5 20 96 21 98 22 6 23
REMARK SMILES IDX 95 24 7 25 89 26 90 27 94 28 91 29 93 30 92 31 21 32 22 33
REMARK SMILES IDX 23 34 24 35 25 36 26 37 27 38 88 39 28 40 87 41 29 42 30 43
REMARK SMILES IDX 31 44 81 45 32 46 86 47 80 48 82 49 33 50 85 51 79 52 78 53
REMARK SMILES IDX 34 55 66 56 46 57 65 58 47 59 50 60 64 61 83 62 48 63 49 64
REMARK SMILES IDX 63 66 84 67 51 68 35 69 36 70 44 71 37 72 39 73 45 74 38 75
REMARK SMILES IDX 40 76 41 77 42 78 43 79 67 80 68 81 76 82 69 83 71 84 77 85
REMARK SMILES IDX 70 86 72 87 73 88 74 89 75 90 52 91 53 92 61 93 54 94 56 95
REMARK SMILES IDX 62 96 55 97 57 98 58 99 59 100 60 101
REMARK H PARENT 9 12 82 54 50 65
REMARK Flexibility Score: inf
ROOT
ATOM      1  O   UNL A   1      37.357  19.761  24.902  1.00  0.00    -0.374 OA
ENDROOT
BRANCH   1   2
ATOM      2  C   UNL A   1      36.242  20.643  25.010  1.00  0.00     0.202 C 
BRANCH   2   3
ATOM      3  C   UNL A   1      34.828  20.055  24.969  1.00  0.00     0.261 C 
BRANCH   3   4
ATOM      4  O   UNL A   1      33.929  20.649  25.920  1.00  0.00    -0.463 OA
BRANCH   4   5
ATOM      5  C   UNL A   1      32.645  20.820  25.492  1.00  0.00     0.316 C 
ATOM      6  O   UNL A   1      32.007  19.955  24.901  1.00  0.00    -0.251 OA
BRANCH   5   7
ATOM      7  C   UNL A   1      32.117  22.261  25.755  1.00  0.00     0.099 C 
ATOM      8  C   UNL A   1      32.730  22.532  27.144  1.00  0.00     0.029 C 
BRANCH   7   9
ATOM      9  C   UNL A   1      30.556  22.314  25.733  1.00  0.00     0.123 C 
BRANCH   9  10
ATOM     10  C   UNL A   1      29.859  23.108  26.832  1.00  0.00     0.225 C 
ATOM     11  N   UNL A   1      29.815  24.477  26.864  1.00  0.00    -0.326 N 
ATOM     12  H   UNL A   1      29.327  24.849  27.634  1.00  0.00     0.169 HD
ATOM     13  O   UNL A   1      29.254  22.506  27.727  1.00  0.00    -0.275 OA
BRANCH  11  14
ATOM     14  C   UNL A   1      30.344  25.441  25.992  1.00  0.00     0.042 A 
ATOM     15  C   UNL A   1      29.512  30.442  22.907  1.00  0.00     0.157 C 
ATOM     16  N   UNL A   1      30.000  29.231  23.518  1.00  0.00    -0.277 N 
ATOM     17  C   UNL A   1      31.093  29.183  24.344  1.00  0.00     0.261 C 
ATOM     18  C   UNL A   1      29.327  28.043  23.491  1.00  0.00     0.261 C 
ATOM     19  O   UNL A   1      31.801  30.085  24.749  1.00  0.00    -0.269 OA
ATOM     20  C   UNL A   1      31.160  27.815  24.858  1.00  0.00     0.053 A 
ATOM     21  C   UNL A   1      30.071  27.130  24.355  1.00  0.00     0.055 A 
ATOM     22  O   UNL A   1      28.246  27.770  22.997  1.00  0.00    -0.269 OA
ATOM     23  C   UNL A   1      31.961  27.275  25.845  1.00  0.00     0.017 A 
ATOM     24  C   UNL A   1      29.660  25.916  24.874  1.00  0.00     0.040 A 
ATOM     25  C   UNL A   1      31.553  26.056  26.401  1.00  0.00     0.027 A 
ENDBRANCH  11  14
ENDBRANCH   9  10
ENDBRANCH   7   9
BRANCH   7  26
ATOM     26  C   UNL A   1      32.706  23.211  24.683  1.00  0.00    -0.030 A 
ATOM     27  C   UNL A   1      33.927  23.872  24.915  1.00  0.00     0.005 A 
ATOM     28  C   UNL A   1      32.017  23.533  23.502  1.00  0.00     0.005 A 
ATOM     29  C   UNL A   1      34.388  24.878  24.064  1.00  0.00     0.000 A 
ATOM     30  C   UNL A   1      32.478  24.538  22.647  1.00  0.00     0.000 A 
ATOM     31  C   UNL A   1      33.651  25.225  22.940  1.00  0.00     0.000 A 
ENDBRANCH   7  26
ENDBRANCH   5   7
ENDBRANCH   4   5
ENDBRANCH   3   4
ENDBRANCH   2   3
ENDBRANCH   1   2
BRANCH   1  32
ATOM     32  C   UNL A   1      38.622  20.234  25.350  1.00  0.00     0.202 C 
BRANCH  32  33
ATOM     33  C   UNL A   1      39.723  19.225  25.693  1.00  0.00     0.261 C 
BRANCH  33  34
ATOM     34  O   UNL A   1      41.046  19.752  25.516  1.00  0.00    -0.460 OA
BRANCH  34  35
ATOM     35  C   UNL A   1      41.723  19.926  26.678  1.00  0.00     0.338 C 
ATOM     36  O   UNL A   1      42.371  19.090  27.285  1.00  0.00    -0.246 OA
BRANCH  35  37
ATOM     37  C   UNL A   1      41.729  21.350  27.047  1.00  0.00     0.060 A 
ATOM     38  C   UNL A   1      41.455  22.278  26.035  1.00  0.00     0.016 A 
ATOM     39  C   UNL A   1      42.084  21.771  28.329  1.00  0.00     0.016 A 
ATOM     40  C   UNL A   1      41.590  23.639  26.286  1.00  0.00     0.010 A 
ATOM     41  C   UNL A   1      42.228  23.139  28.576  1.00  0.00     0.010 A 
ATOM     42  C   UNL A   1      42.019  24.073  27.545  1.00  0.00    -0.014 A 
BRANCH  42  43
ATOM     43  C   UNL A   1      42.384  25.495  27.742  1.00  0.00     0.031 A 
ATOM     44  C   UNL A   1      43.750  25.963  27.321  1.00  0.00     0.074 A 
ATOM     45  C   UNL A   1      41.500  26.356  28.276  1.00  0.00     0.049 A 
ATOM     46  N   UNL A   1      44.304  27.137  27.470  1.00  0.00    -0.248 NA
ATOM     47  C   UNL A   1      44.607  24.974  26.645  1.00  0.00     0.031 C 
ATOM     48  C   UNL A   1      40.141  26.019  28.700  1.00  0.00     0.029 A 
ATOM     49  N   UNL A   1      41.629  27.688  28.581  1.00  0.00    -0.354 N 
ATOM     50  C   UNL A   1      45.579  27.024  26.927  1.00  0.00     0.074 A 
ATOM     51  C   UNL A   1      45.725  25.663  26.463  1.00  0.00     0.031 C 
ATOM     52  C   UNL A   1      39.575  27.108  29.246  1.00  0.00     0.029 A 
ATOM     53  C   UNL A   1      40.541  28.203  29.244  1.00  0.00     0.049 A 
ATOM     54  H   UNL A   1      42.423  28.222  28.347  1.00  0.00     0.167 HD
ATOM     55  C   UNL A   1      46.535  27.976  26.808  1.00  0.00     0.034 A 
ATOM     56  C   UNL A   1      40.367  29.408  29.822  1.00  0.00     0.034 A 
ATOM     57  C   UNL A   1      46.379  29.331  27.264  1.00  0.00     0.049 A 
ATOM     58  C   UNL A   1      41.471  30.431  29.731  1.00  0.00     0.074 A 
ATOM     59  C   UNL A   1      47.280  30.378  27.176  1.00  0.00     0.029 A 
ATOM     60  N   UNL A   1      45.251  29.827  27.899  1.00  0.00    -0.354 N 
ATOM     61  N   UNL A   1      42.636  30.340  29.135  1.00  0.00    -0.248 NA
ATOM     62  C   UNL A   1      41.226  31.734  30.368  1.00  0.00     0.031 C 
ATOM     63  C   UNL A   1      46.708  31.498  27.785  1.00  0.00     0.029 A 
ATOM     64  C   UNL A   1      45.437  31.161  28.218  1.00  0.00     0.049 A 
ATOM     65  H   UNL A   1      44.438  29.307  28.095  1.00  0.00     0.167 HD
ATOM     66  C   UNL A   1      43.243  31.581  29.293  1.00  0.00     0.074 A 
ATOM     67  C   UNL A   1      42.309  32.414  30.019  1.00  0.00     0.031 C 
ATOM     68  C   UNL A   1      44.471  31.992  28.888  1.00  0.00     0.034 A 
BRANCH  55  69
ATOM     69  C   UNL A   1      47.827  27.598  26.134  1.00  0.00     0.023 A 
ATOM     70  C   UNL A   1      48.891  27.089  26.906  1.00  0.00     0.012 A 
ATOM     71  C   UNL A   1      47.965  27.673  24.734  1.00  0.00     0.148 A 
ATOM     72  C   UNL A   1      50.080  26.686  26.300  1.00  0.00     0.002 A 
ATOM     73  C   UNL A   1      49.136  27.228  24.132  1.00  0.00     0.091 A 
ATOM     74  F   UNL A   1      46.948  28.175  24.019  1.00  0.00    -0.205 F 
ATOM     75  C   UNL A   1      50.198  26.745  24.915  1.00  0.00     0.022 A 
BRANCH  73  76
ATOM     76  S   UNL A   1      49.361  27.188  22.351  1.00  0.00     0.127 S 
ATOM     77  O   UNL A   1      48.949  28.539  21.972  1.00  0.00    -0.237 OA
ATOM     78  O   UNL A   1      50.796  26.931  22.230  1.00  0.00    -0.237 OA
ATOM     79  O   UNL A   1      48.504  26.119  21.858  1.00  0.00    -0.744 OA
ENDBRANCH  73  76
ENDBRANCH  55  69
BRANCH  56  80
ATOM     80  C   UNL A   1      39.104  29.718  30.550  1.00  0.00     0.023 A 
ATOM     81  C   UNL A   1      38.886  29.189  31.837  1.00  0.00     0.012 A 
ATOM     82  C   UNL A   1      38.108  30.524  29.962  1.00  0.00     0.148 A 
ATOM     83  C   UNL A   1      37.681  29.414  32.502  1.00  0.00     0.002 A 
ATOM     84  C   UNL A   1      36.938  30.798  30.659  1.00  0.00     0.091 A 
ATOM     85  F   UNL A   1      38.323  31.005  28.730  1.00  0.00    -0.205 F 
ATOM     86  C   UNL A   1      36.711  30.225  31.919  1.00  0.00     0.022 A 
BRANCH  84  87
ATOM     87  S   UNL A   1      35.708  31.951  30.040  1.00  0.00     0.127 S 
ATOM     88  O   UNL A   1      34.804  32.065  31.180  1.00  0.00    -0.237 OA
ATOM     89  O   UNL A   1      36.518  33.140  29.771  1.00  0.00    -0.237 OA
ATOM     90  O   UNL A   1      35.153  31.328  28.845  1.00  0.00    -0.744 OA
ENDBRANCH  84  87
ENDBRANCH  56  80
BRANCH  68  91
ATOM     91  C   UNL A   1      44.861  33.420  29.172  1.00  0.00     0.023 A 
ATOM     92  C   UNL A   1      45.554  33.738  30.357  1.00  0.00     0.012 A 
ATOM     93  C   UNL A   1      44.611  34.431  28.223  1.00  0.00     0.148 A 
ATOM     94  C   UNL A   1      45.964  35.048  30.607  1.00  0.00     0.002 A 
ATOM     95  C   UNL A   1      45.069  35.722  28.454  1.00  0.00     0.091 A 
ATOM     96  F   UNL A   1      43.939  34.107  27.108  1.00  0.00    -0.205 F 
ATOM     97  C   UNL A   1      45.732  36.035  29.651  1.00  0.00     0.022 A 
BRANCH  95  98
ATOM     98  S   UNL A   1      44.904  37.038  27.243  1.00  0.00     0.127 S 
ATOM     99  O   UNL A   1      43.537  36.832  26.765  1.00  0.00    -0.237 OA
ATOM    100  O   UNL A   1      45.088  38.235  28.065  1.00  0.00    -0.237 OA
ATOM    101  O   UNL A   1      45.948  36.812  26.254  1.00  0.00    -0.744 OA
ENDBRANCH  95  98
ENDBRANCH  68  91
ENDBRANCH  42  43
ENDBRANCH  35  37
ENDBRANCH  34  35
ENDBRANCH  33  34
ENDBRANCH  32  33
ENDBRANCH   1  32
TORSDOF 21
ENDMDL
MODEL 2
REMARK VINA RESULT:     -11.2      1.163      7.236
REMARK SMILES CN1C(=O)c2ccc(NC(=O)C[C@@](C)(C(=O)OCCOCCOC(=O)c3ccc(-c4c5nc(c(-c6cccc(S(=O)(=O)[O-])c6F)c6ccc([nH]6)c(-c6cccc(S(=O)(=O)[O-])c6F)c6nc(c(-c7cccc(S(=O)(=O)[O-])c7F)c7ccc4[nH]7)C=C6)C=C5)cc3)c3ccccc3)cc2C1=O
REMARK SMILES IDX 20 1 19 2 18 3 17 4 15 5 16 6 13 7 14 8 12 9 10 10 9 11
REMARK SMILES IDX 11 13 8 14 1 15 2 16 3 17 97 18 4 19 5 20 96 21 98 22 6 23
REMARK SMILES IDX 95 24 7 25 89 26 90 27 94 28 91 29 93 30 92 31 21 32 22 33
REMARK SMILES IDX 23 34 24 35 25 36 26 37 27 38 88 39 28 40 87 41 29 42 30 43
REMARK SMILES IDX 31 44 81 45 32 46 86 47 80 48 82 49 33 50 85 51 79 52 78 53
REMARK SMILES IDX 34 55 66 56 46 57 65 58 47 59 50 60 64 61 83 62 48 63 49 64
REMARK SMILES IDX 63 66 84 67 51 68 35 69 36 70 44 71 37 72 39 73 45 74 38 75
REMARK SMILES IDX 40 76 41 77 42 78 43 79 67 80 68 81 76 82 69 83 71 84 77 85
REMARK SMILES IDX 70 86 72 87 73 88 74 89 75 90 52 91 53 92 61 93 54 94 56 95
REMARK SMILES IDX 62 96 55 97 57 98 58 99 59 100 60 101
REMARK H PARENT 9 12 82 54 50 65
REMARK Flexibility Score: inf
ROOT
ATOM      1  O   UNL A   1      37.445  20.736  24.536  1.00  0.00    -0.374 OA
ENDROOT
BRANCH   1   2
ATOM      2  C   UNL A   1      36.317  21.094  25.331  1.00  0.00     0.202 C 
BRANCH   2   3
ATOM      3  C   UNL A   1      34.950  20.495  24.988  1.00  0.00     0.261 C 
BRANCH   3   4
ATOM      4  O   UNL A   1      33.952  20.719  25.998  1.00  0.00    -0.463 OA
BRANCH   4   5
ATOM      5  C   UNL A   1      32.679  20.892  25.541  1.00  0.00     0.316 C 
ATOM      6  O   UNL A   1      32.054  20.029  24.931  1.00  0.00    -0.251 OA
BRANCH   5   7
ATOM      7  C   UNL A   1      32.143  22.331  25.800  1.00  0.00     0.099 C 
ATOM      8  C   UNL A   1      32.731  22.598  27.200  1.00  0.00     0.029 C 
BRANCH   7   9
ATOM      9  C   UNL A   1      30.583  22.381  25.750  1.00  0.00     0.123 C 
BRANCH   9  10
ATOM     10  C   UNL A   1      29.864  23.164  26.843  1.00  0.00     0.225 C 
ATOM     11  N   UNL A   1      29.801  24.532  26.876  1.00  0.00    -0.326 N 
ATOM     12  H   UNL A   1      29.301  24.897  27.641  1.00  0.00     0.169 HD
ATOM     13  O   UNL A   1      29.259  22.553  27.731  1.00  0.00    -0.275 OA
BRANCH  11  14
ATOM     14  C   UNL A   1      30.326  25.504  26.010  1.00  0.00     0.042 A 
ATOM     15  C   UNL A   1      29.428  30.442  22.842  1.00  0.00     0.157 C 
ATOM     16  N   UNL A   1      29.936  29.255  23.482  1.00  0.00    -0.277 N 
ATOM     17  C   UNL A   1      31.002  29.252  24.343  1.00  0.00     0.261 C 
ATOM     18  C   UNL A   1      29.304  28.044  23.447  1.00  0.00     0.261 C 
ATOM     19  O   UNL A   1      31.666  30.182  24.760  1.00  0.00    -0.269 OA
ATOM     20  C   UNL A   1      31.098  27.892  24.874  1.00  0.00     0.053 A 
ATOM     21  C   UNL A   1      30.049  27.166  24.345  1.00  0.00     0.055 A 
ATOM     22  O   UNL A   1      28.249  27.730  22.922  1.00  0.00    -0.269 OA
ATOM     23  C   UNL A   1      31.884  27.390  25.892  1.00  0.00     0.017 A 
ATOM     24  C   UNL A   1      29.663  25.945  24.865  1.00  0.00     0.040 A 
ATOM     25  C   UNL A   1      31.500  26.164  26.450  1.00  0.00     0.027 A 
ENDBRANCH  11  14
ENDBRANCH   9  10
ENDBRANCH   7   9
BRANCH   7  26
ATOM     26  C   UNL A   1      32.749  23.286  24.741  1.00  0.00    -0.030 A 
ATOM     27  C   UNL A   1      33.882  24.062  25.052  1.00  0.00     0.005 A 
ATOM     28  C   UNL A   1      32.152  23.496  23.488  1.00  0.00     0.005 A 
ATOM     29  C   UNL A   1      34.334  25.070  24.200  1.00  0.00     0.000 A 
ATOM     30  C   UNL A   1      32.606  24.504  22.631  1.00  0.00     0.000 A 
ATOM     31  C   UNL A   1      33.682  25.304  22.997  1.00  0.00     0.000 A 
ENDBRANCH   7  26
ENDBRANCH   5   7
ENDBRANCH   4   5
ENDBRANCH   3   4
ENDBRANCH   2   3
ENDBRANCH   1   2
BRANCH   1  32
ATOM     32  C   UNL A   1      38.239  19.637  24.968  1.00  0.00     0.202 C 
BRANCH  32  33
ATOM     33  C   UNL A   1      39.407  19.885  25.927  1.00  0.00     0.261 C 
BRANCH  33  34
ATOM     34  O   UNL A   1      40.688  19.806  25.287  1.00  0.00    -0.460 OA
BRANCH  34  35
ATOM     35  C   UNL A   1      41.709  19.544  26.141  1.00  0.00     0.338 C 
ATOM     36  O   UNL A   1      42.079  18.450  26.533  1.00  0.00    -0.246 OA
BRANCH  35  37
ATOM     37  C   UNL A   1      42.463  20.777  26.415  1.00  0.00     0.060 A 
ATOM     38  C   UNL A   1      42.648  21.134  27.757  1.00  0.00     0.016 A 
ATOM     39  C   UNL A   1      42.899  21.612  25.385  1.00  0.00     0.016 A 
ATOM     40  C   UNL A   1      43.222  22.359  28.076  1.00  0.00     0.010 A 
ATOM     41  C   UNL A   1      43.466  22.846  25.709  1.00  0.00     0.010 A 
ATOM     42  C   UNL A   1      43.594  23.239  27.054  1.00  0.00    -0.014 A 
BRANCH  42  43
ATOM     43  C   UNL A   1      43.986  24.627  27.392  1.00  0.00     0.031 A 
ATOM     44  C   UNL A   1      42.947  25.566  27.941  1.00  0.00     0.074 A 
ATOM     45  C   UNL A   1      45.256  25.035  27.222  1.00  0.00     0.049 A 
ATOM     46  N   UNL A   1      43.051  26.836  28.230  1.00  0.00    -0.248 NA
ATOM     47  C   UNL A   1      41.613  24.997  28.196  1.00  0.00     0.031 C 
ATOM     48  C   UNL A   1      46.351  24.205  26.718  1.00  0.00     0.029 A 
ATOM     49  N   UNL A   1      45.831  26.264  27.428  1.00  0.00    -0.354 N 
ATOM     50  C   UNL A   1      41.795  27.225  28.680  1.00  0.00     0.074 A 
ATOM     51  C   UNL A   1      40.938  26.062  28.608  1.00  0.00     0.031 C 
ATOM     52  C   UNL A   1      47.457  24.961  26.618  1.00  0.00     0.029 A 
ATOM     53  C   UNL A   1      47.139  26.331  27.013  1.00  0.00     0.049 A 
ATOM     54  H   UNL A   1      45.352  27.022  27.835  1.00  0.00     0.167 HD
ATOM     55  C   UNL A   1      41.396  28.437  29.132  1.00  0.00     0.034 A 
ATOM     56  C   UNL A   1      47.968  27.389  26.923  1.00  0.00     0.034 A 
ATOM     57  C   UNL A   1      42.256  29.587  29.210  1.00  0.00     0.049 A 
ATOM     58  C   UNL A   1      47.481  28.743  27.373  1.00  0.00     0.074 A 
ATOM     59  C   UNL A   1      41.955  30.858  29.669  1.00  0.00     0.029 A 
ATOM     60  N   UNL A   1      43.584  29.609  28.814  1.00  0.00    -0.354 N 
ATOM     61  N   UNL A   1      46.319  29.076  27.881  1.00  0.00    -0.248 NA
ATOM     62  C   UNL A   1      48.429  29.862  27.264  1.00  0.00     0.031 C 
ATOM     63  C   UNL A   1      43.093  31.656  29.521  1.00  0.00     0.029 A 
ATOM     64  C   UNL A   1      44.113  30.874  29.007  1.00  0.00     0.049 A 
ATOM     65  H   UNL A   1      44.078  28.840  28.449  1.00  0.00     0.167 HD
ATOM     66  C   UNL A   1      46.410  30.430  28.186  1.00  0.00     0.074 A 
ATOM     67  C   UNL A   1      47.748  30.850  27.829  1.00  0.00     0.031 C 
ATOM     68  C   UNL A   1      45.467  31.258  28.702  1.00  0.00     0.034 A 
BRANCH  55  69
ATOM     69  C   UNL A   1      39.974  28.581  29.606  1.00  0.00     0.023 A 
ATOM     70  C   UNL A   1      39.627  28.154  30.904  1.00  0.00     0.012 A 
ATOM     71  C   UNL A   1      39.000  29.203  28.801  1.00  0.00     0.148 A 
ATOM     72  C   UNL A   1      38.329  28.320  31.384  1.00  0.00     0.002 A 
ATOM     73  C   UNL A   1      37.719  29.406  29.301  1.00  0.00     0.091 A 
ATOM     74  F   UNL A   1      39.344  29.587  27.563  1.00  0.00    -0.205 F 
ATOM     75  C   UNL A   1      37.379  28.955  30.588  1.00  0.00     0.022 A 
BRANCH  73  76
ATOM     76  S   UNL A   1      36.444  30.282  28.390  1.00  0.00     0.127 S 
ATOM     77  O   UNL A   1      35.262  30.020  29.210  1.00  0.00    -0.237 OA
ATOM     78  O   UNL A   1      36.927  31.662  28.437  1.00  0.00    -0.237 OA
ATOM     79  O   UNL A   1      36.417  29.688  27.060  1.00  0.00    -0.744 OA
ENDBRANCH  73  76
ENDBRANCH  55  69
BRANCH  56  80
ATOM     80  C   UNL A   1      49.344  27.222  26.374  1.00  0.00     0.023 A 
ATOM     81  C   UNL A   1      50.384  26.768  27.208  1.00  0.00     0.012 A 
ATOM     82  C   UNL A   1      49.628  27.528  25.028  1.00  0.00     0.148 A 
ATOM     83  C   UNL A   1      51.689  26.671  26.726  1.00  0.00     0.002 A 
ATOM     84  C   UNL A   1      50.918  27.366  24.538  1.00  0.00     0.091 A 
ATOM     85  F   UNL A   1      48.632  27.977  24.252  1.00  0.00    -0.205 F 
ATOM     86  C   UNL A   1      51.956  26.961  25.390  1.00  0.00     0.022 A 
BRANCH  84  87
ATOM     87  S   UNL A   1      51.310  27.575  22.797  1.00  0.00     0.127 S 
ATOM     88  O   UNL A   1      51.237  29.025  22.646  1.00  0.00    -0.237 OA
ATOM     89  O   UNL A   1      52.659  27.012  22.724  1.00  0.00    -0.237 OA
ATOM     90  O   UNL A   1      50.305  26.806  22.074  1.00  0.00    -0.744 OA
ENDBRANCH  84  87
ENDBRANCH  56  80
BRANCH  68  91
ATOM     91  C   UNL A   1      45.857  32.690  28.961  1.00  0.00     0.023 A 
ATOM     92  C   UNL A   1      46.516  33.035  30.158  1.00  0.00     0.012 A 
ATOM     93  C   UNL A   1      45.641  33.679  27.980  1.00  0.00     0.148 A 
ATOM     94  C   UNL A   1      46.925  34.349  30.387  1.00  0.00     0.002 A 
ATOM     95  C   UNL A   1      46.098  34.973  28.193  1.00  0.00     0.091 A 
ATOM     96  F   UNL A   1      45.000  33.330  26.855  1.00  0.00    -0.205 F 
ATOM     97  C   UNL A   1      46.727  35.313  29.401  1.00  0.00     0.022 A 
BRANCH  95  98
ATOM     98  S   UNL A   1      45.977  36.259  26.945  1.00  0.00     0.127 S 
ATOM     99  O   UNL A   1      44.558  36.200  26.594  1.00  0.00    -0.237 OA
ATOM    100  O   UNL A   1      46.369  37.452  27.696  1.00  0.00    -0.237 OA
ATOM    101  O   UNL A   1      46.895  35.879  25.881  1.00  0.00    -0.744 OA
ENDBRANCH  95  98
ENDBRANCH  68  91
ENDBRANCH  42  43
ENDBRANCH  35  37
ENDBRANCH  34  35
ENDBRANCH  33  34
ENDBRANCH  32  33
ENDBRANCH   1  32
TORSDOF 21
ENDMDL
MODEL 3
REMARK VINA RESULT:     -10.8      5.039     10.856
REMARK SMILES CN1C(=O)c2ccc(NC(=O)C[C@@](C)(C(=O)OCCOCCOC(=O)c3ccc(-c4c5nc(c(-c6cccc(S(=O)(=O)[O-])c6F)c6ccc([nH]6)c(-c6cccc(S(=O)(=O)[O-])c6F)c6nc(c(-c7cccc(S(=O)(=O)[O-])c7F)c7ccc4[nH]7)C=C6)C=C5)cc3)c3ccccc3)cc2C1=O
REMARK SMILES IDX 20 1 19 2 18 3 17 4 15 5 16 6 13 7 14 8 12 9 10 10 9 11
REMARK SMILES IDX 11 13 8 14 1 15 2 16 3 17 97 18 4 19 5 20 96 21 98 22 6 23
REMARK SMILES IDX 95 24 7 25 89 26 90 27 94 28 91 29 93 30 92 31 21 32 22 33
REMARK SMILES IDX 23 34 24 35 25 36 26 37 27 38 88 39 28 40 87 41 29 42 30 43
REMARK SMILES IDX 31 44 81 45 32 46 86 47 80 48 82 49 33 50 85 51 79 52 78 53
REMARK SMILES IDX 34 55 66 56 46 57 65 58 47 59 50 60 64 61 83 62 48 63 49 64
REMARK SMILES IDX 63 66 84 67 51 68 35 69 36 70 44 71 37 72 39 73 45 74 38 75
REMARK SMILES IDX 40 76 41 77 42 78 43 79 67 80 68 81 76 82 69 83 71 84 77 85
REMARK SMILES IDX 70 86 72 87 73 88 74 89 75 90 52 91 53 92 61 93 54 94 56 95
REMARK SMILES IDX 62 96 55 97 57 98 58 99 59 100 60 101
REMARK H PARENT 9 12 82 54 50 65
REMARK Flexibility Score: inf
ROOT
ATOM      1  O   UNL A   1      32.284  30.452  26.015  1.00  0.00    -0.374 OA
ENDROOT
BRANCH   1   2
ATOM      2  C   UNL A   1      33.465  29.719  26.334  1.00  0.00     0.202 C 
BRANCH   2   3
ATOM      3  C   UNL A   1      33.346  28.221  26.638  1.00  0.00     0.261 C 
BRANCH   3   4
ATOM      4  O   UNL A   1      33.612  27.380  25.503  1.00  0.00    -0.463 OA
BRANCH   4   5
ATOM      5  C   UNL A   1      32.533  27.084  24.724  1.00  0.00     0.316 C 
ATOM      6  O   UNL A   1      31.433  27.610  24.859  1.00  0.00    -0.251 OA
BRANCH   5   7
ATOM      7  C   UNL A   1      32.829  25.942  23.707  1.00  0.00     0.099 C 
ATOM      8  C   UNL A   1      33.508  26.744  22.579  1.00  0.00     0.029 C 
BRANCH   7   9
ATOM      9  C   UNL A   1      31.520  25.213  23.264  1.00  0.00     0.123 C 
BRANCH   9  10
ATOM     10  C   UNL A   1      30.650  24.596  24.352  1.00  0.00     0.225 C 
ATOM     11  N   UNL A   1      30.723  23.280  24.724  1.00  0.00    -0.326 N 
ATOM     12  H   UNL A   1      30.101  23.025  25.442  1.00  0.00     0.169 HD
ATOM     13  O   UNL A   1      29.862  25.313  24.980  1.00  0.00    -0.275 OA
BRANCH  11  14
ATOM     14  C   UNL A   1      31.531  22.230  24.258  1.00  0.00     0.042 A 
ATOM     15  C   UNL A   1      32.800  16.433  24.336  1.00  0.00     0.157 C 
ATOM     16  N   UNL A   1      32.744  17.858  24.125  1.00  0.00    -0.277 N 
ATOM     17  C   UNL A   1      32.556  18.439  22.898  1.00  0.00     0.261 C 
ATOM     18  C   UNL A   1      32.688  18.773  25.137  1.00  0.00     0.261 C 
ATOM     19  O   UNL A   1      32.361  17.920  21.815  1.00  0.00    -0.269 OA
ATOM     20  C   UNL A   1      32.418  19.874  23.139  1.00  0.00     0.053 A 
ATOM     21  C   UNL A   1      32.475  20.072  24.505  1.00  0.00     0.055 A 
ATOM     22  O   UNL A   1      32.659  18.601  26.344  1.00  0.00    -0.269 OA
ATOM     23  C   UNL A   1      32.052  20.888  22.276  1.00  0.00     0.017 A 
ATOM     24  C   UNL A   1      32.077  21.258  25.095  1.00  0.00     0.040 A 
ATOM     25  C   UNL A   1      31.624  22.092  22.851  1.00  0.00     0.027 A 
ENDBRANCH  11  14
ENDBRANCH   9  10
ENDBRANCH   7   9
BRANCH   7  26
ATOM     26  C   UNL A   1      33.813  24.938  24.358  1.00  0.00    -0.030 A 
ATOM     27  C   UNL A   1      34.627  24.119  23.551  1.00  0.00     0.005 A 
ATOM     28  C   UNL A   1      33.866  24.728  25.745  1.00  0.00     0.005 A 
ATOM     29  C   UNL A   1      35.376  23.073  24.093  1.00  0.00     0.000 A 
ATOM     30  C   UNL A   1      34.618  23.683  26.289  1.00  0.00     0.000 A 
ATOM     31  C   UNL A   1      35.355  22.843  25.462  1.00  0.00     0.000 A 
ENDBRANCH   7  26
ENDBRANCH   5   7
ENDBRANCH   4   5
ENDBRANCH   3   4
ENDBRANCH   2   3
ENDBRANCH   1   2
BRANCH   1  32
ATOM     32  C   UNL A   1      31.889  31.491  26.903  1.00  0.00     0.202 C 
BRANCH  32  33
ATOM     33  C   UNL A   1      32.610  32.842  26.846  1.00  0.00     0.261 C 
BRANCH  33  34
ATOM     34  O   UNL A   1      32.293  33.697  27.953  1.00  0.00    -0.460 OA
BRANCH  34  35
ATOM     35  C   UNL A   1      33.342  34.439  28.387  1.00  0.00     0.338 C 
ATOM     36  O   UNL A   1      33.349  35.633  28.633  1.00  0.00    -0.246 OA
BRANCH  35  37
ATOM     37  C   UNL A   1      34.478  33.561  28.709  1.00  0.00     0.060 A 
ATOM     38  C   UNL A   1      34.204  32.391  29.428  1.00  0.00     0.016 A 
ATOM     39  C   UNL A   1      35.790  33.919  28.395  1.00  0.00     0.016 A 
ATOM     40  C   UNL A   1      35.249  31.598  29.888  1.00  0.00     0.010 A 
ATOM     41  C   UNL A   1      36.839  33.125  28.867  1.00  0.00     0.010 A 
ATOM     42  C   UNL A   1      36.572  31.985  29.647  1.00  0.00    -0.014 A 
BRANCH  42  43
ATOM     43  C   UNL A   1      37.677  31.273  30.329  1.00  0.00     0.031 A 
ATOM     44  C   UNL A   1      37.993  31.616  31.759  1.00  0.00     0.074 A 
ATOM     45  C   UNL A   1      38.377  30.325  29.682  1.00  0.00     0.049 A 
ATOM     46  N   UNL A   1      38.959  31.175  32.521  1.00  0.00    -0.248 NA
ATOM     47  C   UNL A   1      37.101  32.586  32.418  1.00  0.00     0.031 C 
ATOM     48  C   UNL A   1      38.145  29.895  28.303  1.00  0.00     0.029 A 
ATOM     49  N   UNL A   1      39.449  29.573  30.095  1.00  0.00    -0.354 N 
ATOM     50  C   UNL A   1      38.807  31.828  33.739  1.00  0.00     0.074 A 
ATOM     51  C   UNL A   1      37.668  32.709  33.610  1.00  0.00     0.031 C 
ATOM     52  C   UNL A   1      39.074  28.982  27.971  1.00  0.00     0.029 A 
ATOM     53  C   UNL A   1      39.984  28.793  29.097  1.00  0.00     0.049 A 
ATOM     54  H   UNL A   1      39.799  29.590  31.015  1.00  0.00     0.167 HD
ATOM     55  C   UNL A   1      39.540  31.690  34.869  1.00  0.00     0.034 A 
ATOM     56  C   UNL A   1      41.106  28.047  29.086  1.00  0.00     0.034 A 
ATOM     57  C   UNL A   1      40.666  30.805  34.993  1.00  0.00     0.049 A 
ATOM     58  C   UNL A   1      41.940  27.959  30.339  1.00  0.00     0.074 A 
ATOM     59  C   UNL A   1      41.465  30.578  36.100  1.00  0.00     0.029 A 
ATOM     60  N   UNL A   1      41.158  30.005  33.974  1.00  0.00    -0.354 N 
ATOM     61  N   UNL A   1      41.734  28.511  31.510  1.00  0.00    -0.248 NA
ATOM     62  C   UNL A   1      43.149  27.123  30.277  1.00  0.00     0.031 C 
ATOM     63  C   UNL A   1      42.459  29.664  35.740  1.00  0.00     0.029 A 
ATOM     64  C   UNL A   1      42.256  29.291  34.422  1.00  0.00     0.049 A 
ATOM     65  H   UNL A   1      40.782  29.952  33.066  1.00  0.00     0.167 HD
ATOM     66  C   UNL A   1      42.761  28.059  32.332  1.00  0.00     0.074 A 
ATOM     67  C   UNL A   1      43.575  27.170  31.531  1.00  0.00     0.031 C 
ATOM     68  C   UNL A   1      43.019  28.364  33.628  1.00  0.00     0.034 A 
BRANCH  55  69
ATOM     69  C   UNL A   1      39.132  32.494  36.076  1.00  0.00     0.023 A 
ATOM     70  C   UNL A   1      38.242  31.933  37.015  1.00  0.00     0.012 A 
ATOM     71  C   UNL A   1      39.683  33.766  36.321  1.00  0.00     0.148 A 
ATOM     72  C   UNL A   1      37.886  32.637  38.165  1.00  0.00     0.002 A 
ATOM     73  C   UNL A   1      39.359  34.444  37.491  1.00  0.00     0.091 A 
ATOM     74  F   UNL A   1      40.514  34.289  35.409  1.00  0.00    -0.205 F 
ATOM     75  C   UNL A   1      38.453  33.885  38.408  1.00  0.00     0.022 A 
BRANCH  73  76
ATOM     76  S   UNL A   1      40.092  36.021  37.938  1.00  0.00     0.127 S 
ATOM     77  O   UNL A   1      39.834  36.816  36.738  1.00  0.00    -0.237 OA
ATOM     78  O   UNL A   1      39.301  36.406  39.107  1.00  0.00    -0.237 OA
ATOM     79  O   UNL A   1      41.497  35.752  38.211  1.00  0.00    -0.744 OA
ENDBRANCH  73  76
ENDBRANCH  55  69
BRANCH  56  80
ATOM     80  C   UNL A   1      41.520  27.330  27.847  1.00  0.00     0.023 A 
ATOM     81  C   UNL A   1      42.037  28.054  26.755  1.00  0.00     0.012 A 
ATOM     82  C   UNL A   1      41.387  25.931  27.741  1.00  0.00     0.148 A 
ATOM     83  C   UNL A   1      42.365  27.405  25.565  1.00  0.00     0.002 A 
ATOM     84  C   UNL A   1      41.778  25.284  26.576  1.00  0.00     0.091 A 
ATOM     85  F   UNL A   1      40.876  25.259  28.782  1.00  0.00    -0.205 F 
ATOM     86  C   UNL A   1      42.245  26.020  25.477  1.00  0.00     0.022 A 
BRANCH  84  87
ATOM     87  S   UNL A   1      41.793  23.493  26.439  1.00  0.00     0.127 S 
ATOM     88  O   UNL A   1      40.367  23.183  26.410  1.00  0.00    -0.237 OA
ATOM     89  O   UNL A   1      42.497  23.294  25.171  1.00  0.00    -0.237 OA
ATOM     90  O   UNL A   1      42.526  23.017  27.605  1.00  0.00    -0.744 OA
ENDBRANCH  84  87
ENDBRANCH  56  80
BRANCH  68  91
ATOM     91  C   UNL A   1      44.199  27.695  34.284  1.00  0.00     0.023 A 
ATOM     92  C   UNL A   1      45.465  28.315  34.258  1.00  0.00     0.012 A 
ATOM     93  C   UNL A   1      44.033  26.490  34.997  1.00  0.00     0.148 A 
ATOM     94  C   UNL A   1      46.553  27.729  34.904  1.00  0.00     0.002 A 
ATOM     95  C   UNL A   1      45.109  25.941  35.681  1.00  0.00     0.091 A 
ATOM     96  F   UNL A   1      42.823  25.912  34.997  1.00  0.00    -0.205 F 
ATOM     97  C   UNL A   1      46.372  26.550  35.625  1.00  0.00     0.022 A 
BRANCH  95  98
ATOM     98  S   UNL A   1      44.953  24.479  36.715  1.00  0.00     0.127 S 
ATOM     99  O   UNL A   1      43.877  24.871  37.623  1.00  0.00    -0.237 OA
ATOM    100  O   UNL A   1      44.584  23.453  35.739  1.00  0.00    -0.237 OA
ATOM    101  O   UNL A   1      46.253  24.285  37.341  1.00  0.00    -0.744 OA
ENDBRANCH  95  98
ENDBRANCH  68  91
ENDBRANCH  42  43
ENDBRANCH  35  37
ENDBRANCH  34  35
ENDBRANCH  33  34
ENDBRANCH  32  33
ENDBRANCH   1  32
TORSDOF 21
ENDMDL
