MODEL 1
REMARK VINA RESULT:     -11.6      0.000      0.000
REMARK SMILES CC(C)Cc1cc2c(cc1Cl)C=C(C(=O)OCCOCCOC(=O)c1ccc(-c3c4nc(c(-c5cccc(S(=O)(=O)[O-])c5F)c5ccc([nH]5)c(-c5cccc(S(=O)(=O)[O-])c5F)c5nc(c(-c6cccc(S(=O)(=O)[O-])c6F)c6ccc3[nH]6)C=C5)C=C4)cc1)[C@H](C(F)(F)F)O2
REMARK SMILES IDX 20 1 19 2 18 3 17 4 16 5 14 6 15 7 13 8 5 9 6 10 10 11 7 12
REMARK SMILES IDX 9 13 11 14 8 15 93 16 12 17 88 18 4 19 2 20 1 21 3 22 89 23
REMARK SMILES IDX 90 24 91 25 92 26 21 27 22 28 23 29 24 30 25 31 26 32 87 33
REMARK SMILES IDX 27 34 86 35 28 36 29 37 30 38 80 39 31 40 85 41 79 42 81 43
REMARK SMILES IDX 32 44 84 45 78 46 77 47 33 49 65 50 45 51 64 52 46 53 49 54
REMARK SMILES IDX 63 55 82 56 47 57 48 58 62 60 83 61 50 62 34 63 35 64 43 65
REMARK SMILES IDX 36 66 38 67 44 68 37 69 39 70 40 71 41 72 42 73 66 74 67 75
REMARK SMILES IDX 75 76 68 77 70 78 76 79 69 80 71 81 72 82 73 83 74 84 51 85
REMARK SMILES IDX 52 86 60 87 53 88 55 89 61 90 54 91 56 92 57 93 58 94 59 95
REMARK H PARENT 81 48 49 59
REMARK Flexibility Score: inf
ROOT
ATOM      1  C   UNL A   1      37.713  19.913  24.993  1.00  0.00     0.202 C 
ENDROOT
BRANCH   1   2
ATOM      2  O   UNL A   1      37.476  21.084  24.206  1.00  0.00    -0.374 OA
BRANCH   2   3
ATOM      3  C   UNL A   1      36.224  21.743  24.380  1.00  0.00     0.202 C 
BRANCH   3   4
ATOM      4  C   UNL A   1      35.303  21.196  25.474  1.00  0.00     0.261 C 
BRANCH   4   5
ATOM      5  O   UNL A   1      35.172  22.122  26.564  1.00  0.00    -0.460 OA
BRANCH   5   6
ATOM      6  C   UNL A   1      33.950  22.128  27.140  1.00  0.00     0.338 C 
ATOM      7  O   UNL A   1      33.545  21.361  27.999  1.00  0.00    -0.246 OA
BRANCH   6   8
ATOM      8  C   UNL A   1      33.175  23.285  26.666  1.00  0.00     0.087 C 
ATOM      9  C   UNL A   1      31.894  27.891  25.138  1.00  0.00    -0.025 A 
ATOM     10  C   UNL A   1      31.306  26.916  25.964  1.00  0.00     0.052 A 
ATOM     11  C   UNL A   1      33.145  27.612  24.566  1.00  0.00     0.045 A 
ATOM     12  C   UNL A   1      31.926  25.691  26.184  1.00  0.00     0.128 A 
ATOM     13  C   UNL A   1      33.792  26.399  24.826  1.00  0.00     0.032 A 
ATOM     14  Cl  UNL A   1      33.966  28.743  23.548  1.00  0.00    -0.084 Cl
ATOM     15  C   UNL A   1      33.182  25.439  25.637  1.00  0.00     0.019 A 
ATOM     16  O   UNL A   1      31.269  24.811  26.998  1.00  0.00    -0.475 OA
ATOM     17  C   UNL A   1      33.877  24.222  26.013  1.00  0.00     0.027 C 
ATOM     18  C   UNL A   1      31.701  23.419  26.946  1.00  0.00     0.316 C 
BRANCH   9  19
ATOM     19  C   UNL A   1      31.140  29.183  24.913  1.00  0.00     0.040 C 
BRANCH  19  20
ATOM     20  C   UNL A   1      31.741  30.398  25.650  1.00  0.00    -0.013 C 
ATOM     21  C   UNL A   1      30.779  31.588  25.727  1.00  0.00     0.008 C 
ATOM     22  C   UNL A   1      32.138  29.985  27.070  1.00  0.00     0.008 C 
ENDBRANCH  19  20
ENDBRANCH   9  19
BRANCH  18  23
ATOM     23  C   UNL A   1      30.798  22.616  25.981  1.00  0.00     0.430 C 
ATOM     24  F   UNL A   1      31.389  21.463  25.580  1.00  0.00    -0.167 F 
ATOM     25  F   UNL A   1      29.617  22.267  26.544  1.00  0.00    -0.167 F 
ATOM     26  F   UNL A   1      30.521  23.318  24.858  1.00  0.00    -0.167 F 
ENDBRANCH  18  23
ENDBRANCH   6   8
ENDBRANCH   5   6
ENDBRANCH   4   5
ENDBRANCH   3   4
ENDBRANCH   2   3
ENDBRANCH   1   2
BRANCH   1  27
ATOM     27  C   UNL A   1      39.174  19.570  25.319  1.00  0.00     0.261 C 
BRANCH  27  28
ATOM     28  O   UNL A   1      39.580  20.125  26.584  1.00  0.00    -0.460 OA
BRANCH  28  29
ATOM     29  C   UNL A   1      40.918  20.275  26.753  1.00  0.00     0.338 C 
ATOM     30  O   UNL A   1      41.790  19.490  26.418  1.00  0.00    -0.246 OA
BRANCH  29  31
ATOM     31  C   UNL A   1      41.189  21.661  27.186  1.00  0.00     0.060 A 
ATOM     32  C   UNL A   1      41.848  21.944  28.383  1.00  0.00     0.016 A 
ATOM     33  C   UNL A   1      40.756  22.701  26.351  1.00  0.00     0.016 A 
ATOM     34  C   UNL A   1      42.101  23.276  28.728  1.00  0.00     0.010 A 
ATOM     35  C   UNL A   1      40.999  24.027  26.704  1.00  0.00     0.010 A 
ATOM     36  C   UNL A   1      41.694  24.326  27.885  1.00  0.00    -0.014 A 
BRANCH  36  37
ATOM     37  C   UNL A   1      42.128  25.721  28.138  1.00  0.00     0.031 A 
ATOM     38  C   UNL A   1      41.205  26.742  28.736  1.00  0.00     0.074 A 
ATOM     39  C   UNL A   1      43.364  26.082  27.741  1.00  0.00     0.049 A 
ATOM     40  N   UNL A   1      41.438  28.004  28.986  1.00  0.00    -0.248 NA
ATOM     41  C   UNL A   1      39.850  26.298  29.093  1.00  0.00     0.031 C 
ATOM     42  C   UNL A   1      44.330  25.189  27.095  1.00  0.00     0.029 A 
ATOM     43  N   UNL A   1      44.008  27.290  27.796  1.00  0.00    -0.354 N 
ATOM     44  C   UNL A   1      40.263  28.513  29.521  1.00  0.00     0.074 A 
ATOM     45  C   UNL A   1      39.309  27.422  29.549  1.00  0.00     0.031 C 
ATOM     46  C   UNL A   1      45.444  25.881  26.816  1.00  0.00     0.029 A 
ATOM     47  C   UNL A   1      45.264  27.268  27.236  1.00  0.00     0.049 A 
ATOM     48  H   UNL A   1      43.611  28.097  28.198  1.00  0.00     0.167 HD
ATOM     49  C   UNL A   1      40.011  29.768  29.963  1.00  0.00     0.034 A 
ATOM     50  C   UNL A   1      46.170  28.250  27.068  1.00  0.00     0.034 A 
ATOM     51  C   UNL A   1      40.963  30.848  29.940  1.00  0.00     0.049 A 
ATOM     52  C   UNL A   1      45.864  29.631  27.567  1.00  0.00     0.074 A 
ATOM     53  C   UNL A   1      40.803  32.139  30.415  1.00  0.00     0.029 A 
ATOM     54  N   UNL A   1      42.239  30.775  29.406  1.00  0.00    -0.354 N 
ATOM     55  N   UNL A   1      44.784  30.065  28.168  1.00  0.00    -0.248 NA
ATOM     56  C   UNL A   1      46.910  30.649  27.397  1.00  0.00     0.031 C 
ATOM     57  C   UNL A   1      41.976  32.852  30.153  1.00  0.00     0.029 A 
ATOM     58  C   UNL A   1      42.877  31.997  29.540  1.00  0.00     0.049 A 
ATOM     59  H   UNL A   1      42.634  29.973  28.993  1.00  0.00     0.167 HD
ATOM     60  C   UNL A   1      45.032  31.396  28.480  1.00  0.00     0.074 A 
ATOM     61  C   UNL A   1      46.365  31.698  28.002  1.00  0.00     0.031 C 
ATOM     62  C   UNL A   1      44.221  32.281  29.106  1.00  0.00     0.034 A 
BRANCH  49  63
ATOM     63  C   UNL A   1      38.664  30.054  30.570  1.00  0.00     0.023 A 
ATOM     64  C   UNL A   1      38.408  29.643  31.892  1.00  0.00     0.012 A 
ATOM     65  C   UNL A   1      37.716  30.845  29.890  1.00  0.00     0.148 A 
ATOM     66  C   UNL A   1      37.224  30.010  32.531  1.00  0.00     0.002 A 
ATOM     67  C   UNL A   1      36.550  31.229  30.543  1.00  0.00     0.091 A 
ATOM     68  F   UNL A   1      37.982  31.218  28.631  1.00  0.00    -0.205 F 
ATOM     69  C   UNL A   1      36.303  30.812  31.862  1.00  0.00     0.022 A 
BRANCH  67  70
ATOM     70  S   UNL A   1      35.322  32.305  29.794  1.00  0.00     0.127 S 
ATOM     71  O   UNL A   1      36.138  33.458  29.412  1.00  0.00    -0.237 OA
ATOM     72  O   UNL A   1      34.847  31.497  28.673  1.00  0.00    -0.237 OA
ATOM     73  O   UNL A   1      34.329  32.566  30.827  1.00  0.00    -0.744 OA
ENDBRANCH  67  70
ENDBRANCH  49  63
BRANCH  50  74
ATOM     74  C   UNL A   1      47.482  27.922  26.454  1.00  0.00     0.023 A 
ATOM     75  C   UNL A   1      48.563  27.577  27.288  1.00  0.00     0.012 A 
ATOM     76  C   UNL A   1      47.638  27.865  25.056  1.00  0.00     0.148 A 
ATOM     77  C   UNL A   1      49.782  27.185  26.738  1.00  0.00     0.002 A 
ATOM     78  C   UNL A   1      48.844  27.437  24.515  1.00  0.00     0.091 A 
ATOM     79  F   UNL A   1      46.589  28.194  24.290  1.00  0.00    -0.205 F 
ATOM     80  C   UNL A   1      49.919  27.105  25.354  1.00  0.00     0.022 A 
BRANCH  78  81
ATOM     81  S   UNL A   1      49.089  27.211  22.752  1.00  0.00     0.127 S 
ATOM     82  O   UNL A   1      50.543  27.089  22.666  1.00  0.00    -0.237 OA
ATOM     83  O   UNL A   1      48.351  25.972  22.506  1.00  0.00    -0.237 OA
ATOM     84  O   UNL A   1      48.526  28.393  22.115  1.00  0.00    -0.744 OA
ENDBRANCH  78  81
ENDBRANCH  50  74
BRANCH  62  85
ATOM     85  C   UNL A   1      44.748  33.666  29.367  1.00  0.00     0.023 A 
ATOM     86  C   UNL A   1      45.485  33.926  30.538  1.00  0.00     0.012 A 
ATOM     87  C   UNL A   1      44.609  34.673  28.392  1.00  0.00     0.148 A 
ATOM     88  C   UNL A   1      46.072  35.175  30.738  1.00  0.00     0.002 A 
ATOM     89  C   UNL A   1      45.226  35.904  28.583  1.00  0.00     0.091 A 
ATOM     90  F   UNL A   1      43.892  34.402  27.292  1.00  0.00    -0.205 F 
ATOM     91  C   UNL A   1      45.953  36.159  29.757  1.00  0.00     0.022 A 
BRANCH  89  92
ATOM     92  S   UNL A   1      45.189  37.206  27.345  1.00  0.00     0.127 S 
ATOM     93  O   UNL A   1      45.735  38.340  28.091  1.00  0.00    -0.237 OA
ATOM     94  O   UNL A   1      46.076  36.673  26.311  1.00  0.00    -0.237 OA
ATOM     95  O   UNL A   1      43.797  37.344  26.942  1.00  0.00    -0.744 OA
ENDBRANCH  89  92
ENDBRANCH  62  85
ENDBRANCH  36  37
ENDBRANCH  29  31
ENDBRANCH  28  29
ENDBRANCH  27  28
ENDBRANCH   1  27
TORSDOF 20
ENDMDL
MODEL 2
REMARK VINA RESULT:     -11.5      5.146     10.397
REMARK SMILES CC(C)Cc1cc2c(cc1Cl)C=C(C(=O)OCCOCCOC(=O)c1ccc(-c3c4nc(c(-c5cccc(S(=O)(=O)[O-])c5F)c5ccc([nH]5)c(-c5cccc(S(=O)(=O)[O-])c5F)c5nc(c(-c6cccc(S(=O)(=O)[O-])c6F)c6ccc3[nH]6)C=C5)C=C4)cc1)[C@H](C(F)(F)F)O2
REMARK SMILES IDX 20 1 19 2 18 3 17 4 16 5 14 6 15 7 13 8 5 9 6 10 10 11 7 12
REMARK SMILES IDX 9 13 11 14 8 15 93 16 12 17 88 18 4 19 2 20 1 21 3 22 89 23
REMARK SMILES IDX 90 24 91 25 92 26 21 27 22 28 23 29 24 30 25 31 26 32 87 33
REMARK SMILES IDX 27 34 86 35 28 36 29 37 30 38 80 39 31 40 85 41 79 42 81 43
REMARK SMILES IDX 32 44 84 45 78 46 77 47 33 49 65 50 45 51 64 52 46 53 49 54
REMARK SMILES IDX 63 55 82 56 47 57 48 58 62 60 83 61 50 62 34 63 35 64 43 65
REMARK SMILES IDX 36 66 38 67 44 68 37 69 39 70 40 71 41 72 42 73 66 74 67 75
REMARK SMILES IDX 75 76 68 77 70 78 76 79 69 80 71 81 72 82 73 83 74 84 51 85
REMARK SMILES IDX 52 86 60 87 53 88 55 89 61 90 54 91 56 92 57 93 58 94 59 95
REMARK H PARENT 81 48 49 59
REMARK Flexibility Score: inf
ROOT
ATOM      1  C   UNL A   1      32.383  29.277  25.013  1.00  0.00     0.202 C 
ENDROOT
BRANCH   1   2
ATOM      2  O   UNL A   1      31.835  28.883  23.751  1.00  0.00    -0.374 OA
BRANCH   2   3
ATOM      3  C   UNL A   1      30.419  28.740  23.672  1.00  0.00     0.202 C 
BRANCH   3   4
ATOM      4  C   UNL A   1      29.869  27.311  23.677  1.00  0.00     0.261 C 
BRANCH   4   5
ATOM      5  O   UNL A   1      30.918  26.343  23.837  1.00  0.00    -0.460 OA
BRANCH   5   6
ATOM      6  C   UNL A   1      30.894  25.694  25.021  1.00  0.00     0.338 C 
ATOM      7  O   UNL A   1      30.182  25.949  25.978  1.00  0.00    -0.246 OA
BRANCH   6   8
ATOM      8  C   UNL A   1      31.789  24.527  24.974  1.00  0.00     0.087 C 
ATOM      9  C   UNL A   1      33.557  19.868  24.372  1.00  0.00    -0.025 A 
ATOM     10  C   UNL A   1      33.760  20.898  25.310  1.00  0.00     0.052 A 
ATOM     11  C   UNL A   1      32.654  20.093  23.321  1.00  0.00     0.045 A 
ATOM     12  C   UNL A   1      33.111  22.121  25.185  1.00  0.00     0.128 A 
ATOM     13  C   UNL A   1      31.965  21.307  23.223  1.00  0.00     0.032 A 
ATOM     14  Cl  UNL A   1      32.317  18.894  22.123  1.00  0.00    -0.084 Cl
ATOM     15  C   UNL A   1      32.193  22.321  24.157  1.00  0.00     0.019 A 
ATOM     16  O   UNL A   1      33.380  23.056  26.146  1.00  0.00    -0.475 OA
ATOM     17  C   UNL A   1      31.412  23.543  24.145  1.00  0.00     0.027 C 
ATOM     18  C   UNL A   1      33.017  24.435  25.842  1.00  0.00     0.316 C 
BRANCH   9  19
ATOM     19  C   UNL A   1      34.329  18.580  24.551  1.00  0.00     0.040 C 
BRANCH  19  20
ATOM     20  C   UNL A   1      33.440  17.322  24.638  1.00  0.00    -0.013 C 
ATOM     21  C   UNL A   1      34.240  16.016  24.566  1.00  0.00     0.008 C 
ATOM     22  C   UNL A   1      32.649  17.349  25.948  1.00  0.00     0.008 C 
ENDBRANCH  19  20
ENDBRANCH   9  19
BRANCH  18  23
ATOM     23  C   UNL A   1      34.242  25.200  25.289  1.00  0.00     0.430 C 
ATOM     24  F   UNL A   1      34.239  26.500  25.675  1.00  0.00    -0.167 F 
ATOM     25  F   UNL A   1      35.416  24.676  25.712  1.00  0.00    -0.167 F 
ATOM     26  F   UNL A   1      34.259  25.201  23.936  1.00  0.00    -0.167 F 
ENDBRANCH  18  23
ENDBRANCH   6   8
ENDBRANCH   5   6
ENDBRANCH   4   5
ENDBRANCH   3   4
ENDBRANCH   2   3
ENDBRANCH   1   2
BRANCH   1  27
ATOM     27  C   UNL A   1      31.725  30.470  25.722  1.00  0.00     0.261 C 
BRANCH  27  28
ATOM     28  O   UNL A   1      32.270  30.669  27.040  1.00  0.00    -0.460 OA
BRANCH  28  29
ATOM     29  C   UNL A   1      32.993  31.805  27.207  1.00  0.00     0.338 C 
ATOM     30  O   UNL A   1      32.580  32.951  27.145  1.00  0.00    -0.246 OA
BRANCH  29  31
ATOM     31  C   UNL A   1      34.327  31.445  27.732  1.00  0.00     0.060 A 
ATOM     32  C   UNL A   1      35.316  32.405  27.951  1.00  0.00     0.016 A 
ATOM     33  C   UNL A   1      34.577  30.093  28.004  1.00  0.00     0.016 A 
ATOM     34  C   UNL A   1      36.551  32.009  28.475  1.00  0.00     0.010 A 
ATOM     35  C   UNL A   1      35.813  29.700  28.515  1.00  0.00     0.010 A 
ATOM     36  C   UNL A   1      36.803  30.658  28.776  1.00  0.00    -0.014 A 
BRANCH  36  37
ATOM     37  C   UNL A   1      38.026  30.255  29.513  1.00  0.00     0.031 A 
ATOM     38  C   UNL A   1      39.008  29.276  28.942  1.00  0.00     0.074 A 
ATOM     39  C   UNL A   1      38.200  30.733  30.760  1.00  0.00     0.049 A 
ATOM     40  N   UNL A   1      40.103  28.810  29.483  1.00  0.00    -0.248 NA
ATOM     41  C   UNL A   1      38.729  28.747  27.599  1.00  0.00     0.031 C 
ATOM     42  C   UNL A   1      37.281  31.647  31.443  1.00  0.00     0.029 A 
ATOM     43  N   UNL A   1      39.187  30.501  31.682  1.00  0.00    -0.354 N 
ATOM     44  C   UNL A   1      40.643  27.927  28.558  1.00  0.00     0.074 A 
ATOM     45  C   UNL A   1      39.747  27.912  27.421  1.00  0.00     0.031 C 
ATOM     46  C   UNL A   1      37.749  31.899  32.674  1.00  0.00     0.029 A 
ATOM     47  C   UNL A   1      38.983  31.146  32.879  1.00  0.00     0.049 A 
ATOM     48  H   UNL A   1      39.969  29.927  31.504  1.00  0.00     0.167 HD
ATOM     49  C   UNL A   1      41.789  27.210  28.645  1.00  0.00     0.034 A 
ATOM     50  C   UNL A   1      39.700  31.131  34.019  1.00  0.00     0.034 A 
ATOM     51  C   UNL A   1      42.682  27.232  29.775  1.00  0.00     0.049 A 
ATOM     52  C   UNL A   1      40.964  30.329  34.088  1.00  0.00     0.074 A 
ATOM     53  C   UNL A   1      43.891  26.573  29.923  1.00  0.00     0.029 A 
ATOM     54  N   UNL A   1      42.464  27.932  30.950  1.00  0.00    -0.354 N 
ATOM     55  N   UNL A   1      41.513  29.583  33.161  1.00  0.00    -0.248 NA
ATOM     56  C   UNL A   1      41.727  30.389  35.343  1.00  0.00     0.031 C 
ATOM     57  C   UNL A   1      44.395  26.859  31.194  1.00  0.00     0.029 A 
ATOM     58  C   UNL A   1      43.515  27.720  31.827  1.00  0.00     0.049 A 
ATOM     59  H   UNL A   1      41.678  28.496  31.135  1.00  0.00     0.167 HD
ATOM     60  C   UNL A   1      42.701  29.113  33.706  1.00  0.00     0.074 A 
ATOM     61  C   UNL A   1      42.795  29.659  35.044  1.00  0.00     0.031 C 
ATOM     62  C   UNL A   1      43.627  28.302  33.141  1.00  0.00     0.034 A 
BRANCH  49  63
ATOM     63  C   UNL A   1      42.196  26.368  27.467  1.00  0.00     0.023 A 
ATOM     64  C   UNL A   1      43.020  26.933  26.474  1.00  0.00     0.012 A 
ATOM     65  C   UNL A   1      41.885  24.994  27.415  1.00  0.00     0.148 A 
ATOM     66  C   UNL A   1      43.526  26.144  25.441  1.00  0.00     0.002 A 
ATOM     67  C   UNL A   1      42.415  24.209  26.398  1.00  0.00     0.091 A 
ATOM     68  F   UNL A   1      41.095  24.483  28.369  1.00  0.00    -0.205 F 
ATOM     69  C   UNL A   1      43.234  24.783  25.411  1.00  0.00     0.022 A 
BRANCH  67  70
ATOM     70  S   UNL A   1      42.148  22.436  26.294  1.00  0.00     0.127 S 
ATOM     71  O   UNL A   1      42.774  21.973  27.532  1.00  0.00    -0.237 OA
ATOM     72  O   UNL A   1      40.689  22.345  26.277  1.00  0.00    -0.237 OA
ATOM     73  O   UNL A   1      42.805  22.000  25.069  1.00  0.00    -0.744 OA
ENDBRANCH  67  70
ENDBRANCH  49  63
BRANCH  50  74
ATOM     74  C   UNL A   1      39.253  31.971  35.160  1.00  0.00     0.023 A 
ATOM     75  C   UNL A   1      38.410  31.409  36.137  1.00  0.00     0.012 A 
ATOM     76  C   UNL A   1      39.729  33.285  35.327  1.00  0.00     0.148 A 
ATOM     77  C   UNL A   1      38.041  32.146  37.261  1.00  0.00     0.002 A 
ATOM     78  C   UNL A   1      39.388  34.001  36.467  1.00  0.00     0.091 A 
ATOM     79  F   UNL A   1      40.534  33.790  34.382  1.00  0.00    -0.205 F 
ATOM     80  C   UNL A   1      38.537  33.436  37.431  1.00  0.00     0.022 A 
BRANCH  78  81
ATOM     81  S   UNL A   1      40.050  35.631  36.824  1.00  0.00     0.127 S 
ATOM     82  O   UNL A   1      39.500  36.423  35.726  1.00  0.00    -0.237 OA
ATOM     83  O   UNL A   1      39.467  35.907  38.137  1.00  0.00    -0.237 OA
ATOM     84  O   UNL A   1      41.498  35.482  36.819  1.00  0.00    -0.744 OA
ENDBRANCH  78  81
ENDBRANCH  50  74
BRANCH  62  85
ATOM     85  C   UNL A   1      44.863  27.974  33.933  1.00  0.00     0.023 A 
ATOM     86  C   UNL A   1      45.975  28.836  33.887  1.00  0.00     0.012 A 
ATOM     87  C   UNL A   1      44.870  26.872  34.812  1.00  0.00     0.148 A 
ATOM     88  C   UNL A   1      47.082  28.600  34.702  1.00  0.00     0.002 A 
ATOM     89  C   UNL A   1      45.962  26.664  35.645  1.00  0.00     0.091 A 
ATOM     90  F   UNL A   1      43.802  26.062  34.827  1.00  0.00    -0.205 F 
ATOM     91  C   UNL A   1      47.072  27.524  35.588  1.00  0.00     0.022 A 
BRANCH  89  92
ATOM     92  S   UNL A   1      46.009  25.349  36.869  1.00  0.00     0.127 S 
ATOM     93  O   UNL A   1      46.309  24.183  36.039  1.00  0.00    -0.237 OA
ATOM     94  O   UNL A   1      47.104  25.777  37.739  1.00  0.00    -0.237 OA
ATOM     95  O   UNL A   1      44.698  25.337  37.501  1.00  0.00    -0.744 OA
ENDBRANCH  89  92
ENDBRANCH  62  85
ENDBRANCH  36  37
ENDBRANCH  29  31
ENDBRANCH  28  29
ENDBRANCH  27  28
ENDBRANCH   1  27
TORSDOF 20
ENDMDL
MODEL 3
REMARK VINA RESULT:     -11.4      1.650      7.582
REMARK SMILES CC(C)Cc1cc2c(cc1Cl)C=C(C(=O)OCCOCCOC(=O)c1ccc(-c3c4nc(c(-c5cccc(S(=O)(=O)[O-])c5F)c5ccc([nH]5)c(-c5cccc(S(=O)(=O)[O-])c5F)c5nc(c(-c6cccc(S(=O)(=O)[O-])c6F)c6ccc3[nH]6)C=C5)C=C4)cc1)[C@H](C(F)(F)F)O2
REMARK SMILES IDX 20 1 19 2 18 3 17 4 16 5 14 6 15 7 13 8 5 9 6 10 10 11 7 12
REMARK SMILES IDX 9 13 11 14 8 15 93 16 12 17 88 18 4 19 2 20 1 21 3 22 89 23
REMARK SMILES IDX 90 24 91 25 92 26 21 27 22 28 23 29 24 30 25 31 26 32 87 33
REMARK SMILES IDX 27 34 86 35 28 36 29 37 30 38 80 39 31 40 85 41 79 42 81 43
REMARK SMILES IDX 32 44 84 45 78 46 77 47 33 49 65 50 45 51 64 52 46 53 49 54
REMARK SMILES IDX 63 55 82 56 47 57 48 58 62 60 83 61 50 62 34 63 35 64 43 65
REMARK SMILES IDX 36 66 38 67 44 68 37 69 39 70 40 71 41 72 42 73 66 74 67 75
REMARK SMILES IDX 75 76 68 77 70 78 76 79 69 80 71 81 72 82 73 83 74 84 51 85
REMARK SMILES IDX 52 86 60 87 53 88 55 89 61 90 54 91 56 92 57 93 58 94 59 95
REMARK H PARENT 81 48 49 59
REMARK Flexibility Score: inf
ROOT
ATOM      1  C   UNL A   1      35.403  20.686  24.981  1.00  0.00     0.202 C 
ENDROOT
BRANCH   1   2
ATOM      2  O   UNL A   1      34.585  19.579  24.591  1.00  0.00    -0.374 OA
BRANCH   2   3
ATOM      3  C   UNL A   1      33.180  19.806  24.499  1.00  0.00     0.202 C 
BRANCH   3   4
ATOM      4  C   UNL A   1      32.502  20.433  25.721  1.00  0.00     0.261 C 
BRANCH   4   5
ATOM      5  O   UNL A   1      31.632  21.512  25.344  1.00  0.00    -0.460 OA
BRANCH   5   6
ATOM      6  C   UNL A   1      31.772  22.623  26.099  1.00  0.00     0.338 C 
ATOM      7  O   UNL A   1      32.118  22.672  27.268  1.00  0.00    -0.246 OA
BRANCH   6   8
ATOM      8  C   UNL A   1      31.552  23.823  25.276  1.00  0.00     0.087 C 
ATOM      9  C   UNL A   1      30.433  28.495  23.824  1.00  0.00    -0.025 A 
ATOM     10  C   UNL A   1      30.210  27.209  23.300  1.00  0.00     0.052 A 
ATOM     11  C   UNL A   1      31.111  28.607  25.048  1.00  0.00     0.045 A 
ATOM     12  C   UNL A   1      30.677  26.075  23.955  1.00  0.00     0.128 A 
ATOM     13  C   UNL A   1      31.538  27.464  25.732  1.00  0.00     0.032 A 
ATOM     14  Cl  UNL A   1      31.425  30.137  25.791  1.00  0.00    -0.084 Cl
ATOM     15  C   UNL A   1      31.319  26.197  25.185  1.00  0.00     0.019 A 
ATOM     16  O   UNL A   1      30.412  24.872  23.361  1.00  0.00    -0.475 OA
ATOM     17  C   UNL A   1      31.650  24.993  25.924  1.00  0.00     0.027 C 
ATOM     18  C   UNL A   1      31.191  23.728  23.817  1.00  0.00     0.316 C 
BRANCH   9  19
ATOM     19  C   UNL A   1      29.931  29.683  23.033  1.00  0.00     0.040 C 
BRANCH  19  20
ATOM     20  C   UNL A   1      28.623  29.416  22.260  1.00  0.00    -0.013 C 
ATOM     21  C   UNL A   1      27.401  29.290  23.176  1.00  0.00     0.008 C 
ATOM     22  C   UNL A   1      28.382  30.551  21.261  1.00  0.00     0.008 C 
ENDBRANCH  19  20
ENDBRANCH   9  19
BRANCH  18  23
ATOM     23  C   UNL A   1      32.400  23.497  22.880  1.00  0.00     0.430 C 
ATOM     24  F   UNL A   1      32.316  22.308  22.234  1.00  0.00    -0.167 F 
ATOM     25  F   UNL A   1      32.504  24.449  21.922  1.00  0.00    -0.167 F 
ATOM     26  F   UNL A   1      33.566  23.481  23.566  1.00  0.00    -0.167 F 
ENDBRANCH  18  23
ENDBRANCH   6   8
ENDBRANCH   5   6
ENDBRANCH   4   5
ENDBRANCH   3   4
ENDBRANCH   2   3
ENDBRANCH   1   2
BRANCH   1  27
ATOM     27  C   UNL A   1      36.921  20.462  25.010  1.00  0.00     0.261 C 
BRANCH  27  28
ATOM     28  O   UNL A   1      37.598  21.509  25.731  1.00  0.00    -0.460 OA
BRANCH  28  29
ATOM     29  C   UNL A   1      38.899  21.265  26.031  1.00  0.00     0.338 C 
ATOM     30  O   UNL A   1      39.539  20.265  25.752  1.00  0.00    -0.246 OA
BRANCH  29  31
ATOM     31  C   UNL A   1      39.511  22.512  26.535  1.00  0.00     0.060 A 
ATOM     32  C   UNL A   1      40.633  22.499  27.364  1.00  0.00     0.016 A 
ATOM     33  C   UNL A   1      38.922  23.727  26.156  1.00  0.00     0.016 A 
ATOM     34  C   UNL A   1      41.186  23.712  27.788  1.00  0.00     0.010 A 
ATOM     35  C   UNL A   1      39.468  24.933  26.591  1.00  0.00     0.010 A 
ATOM     36  C   UNL A   1      40.618  24.937  27.392  1.00  0.00    -0.014 A 
BRANCH  36  37
ATOM     37  C   UNL A   1      41.305  26.222  27.669  1.00  0.00     0.031 A 
ATOM     38  C   UNL A   1      42.727  26.466  27.256  1.00  0.00     0.074 A 
ATOM     39  C   UNL A   1      40.643  27.154  28.382  1.00  0.00     0.049 A 
ATOM     40  N   UNL A   1      43.464  27.526  27.457  1.00  0.00    -0.248 NA
ATOM     41  C   UNL A   1      43.412  25.385  26.532  1.00  0.00     0.031 C 
ATOM     42  C   UNL A   1      39.276  27.006  28.888  1.00  0.00     0.029 A 
ATOM     43  N   UNL A   1      41.032  28.390  28.826  1.00  0.00    -0.354 N 
ATOM     44  C   UNL A   1      44.702  27.245  26.896  1.00  0.00     0.074 A 
ATOM     45  C   UNL A   1      44.622  25.905  26.354  1.00  0.00     0.031 C 
ATOM     46  C   UNL A   1      38.941  28.110  29.571  1.00  0.00     0.029 A 
ATOM     47  C   UNL A   1      40.074  29.031  29.576  1.00  0.00     0.049 A 
ATOM     48  H   UNL A   1      41.914  28.784  28.627  1.00  0.00     0.167 HD
ATOM     49  C   UNL A   1      45.796  28.040  26.826  1.00  0.00     0.034 A 
ATOM     50  C   UNL A   1      40.101  30.221  30.206  1.00  0.00     0.034 A 
ATOM     51  C   UNL A   1      45.871  29.376  27.361  1.00  0.00     0.049 A 
ATOM     52  C   UNL A   1      41.326  31.081  30.112  1.00  0.00     0.074 A 
ATOM     53  C   UNL A   1      46.928  30.268  27.288  1.00  0.00     0.029 A 
ATOM     54  N   UNL A   1      44.866  30.006  28.074  1.00  0.00    -0.354 N 
ATOM     55  N   UNL A   1      42.450  30.839  29.484  1.00  0.00    -0.248 NA
ATOM     56  C   UNL A   1      41.278  32.388  30.782  1.00  0.00     0.031 C 
ATOM     57  C   UNL A   1      46.568  31.431  27.973  1.00  0.00     0.029 A 
ATOM     58  C   UNL A   1      45.276  31.275  28.447  1.00  0.00     0.049 A 
ATOM     59  H   UNL A   1      43.988  29.612  28.285  1.00  0.00     0.167 HD
ATOM     60  C   UNL A   1      43.230  31.976  29.652  1.00  0.00     0.074 A 
ATOM     61  C   UNL A   1      42.451  32.908  30.440  1.00  0.00     0.031 C 
ATOM     62  C   UNL A   1      44.481  32.218  29.192  1.00  0.00     0.034 A 
BRANCH  49  63
ATOM     63  C   UNL A   1      47.008  27.525  26.098  1.00  0.00     0.023 A 
ATOM     64  C   UNL A   1      47.863  26.616  26.751  1.00  0.00     0.012 A 
ATOM     65  C   UNL A   1      47.219  27.824  24.737  1.00  0.00     0.148 A 
ATOM     66  C   UNL A   1      48.916  26.015  26.062  1.00  0.00     0.002 A 
ATOM     67  C   UNL A   1      48.254  27.200  24.050  1.00  0.00     0.091 A 
ATOM     68  F   UNL A   1      46.394  28.697  24.141  1.00  0.00    -0.205 F 
ATOM     69  C   UNL A   1      49.103  26.297  24.711  1.00  0.00     0.022 A 
BRANCH  67  70
ATOM     70  S   UNL A   1      48.551  27.450  22.297  1.00  0.00     0.127 S 
ATOM     71  O   UNL A   1      49.830  28.160  22.315  1.00  0.00    -0.237 OA
ATOM     72  O   UNL A   1      48.622  26.078  21.798  1.00  0.00    -0.237 OA
ATOM     73  O   UNL A   1      47.421  28.225  21.802  1.00  0.00    -0.744 OA
ENDBRANCH  67  70
ENDBRANCH  49  63
BRANCH  50  74
ATOM     74  C   UNL A   1      38.884  30.683  30.922  1.00  0.00     0.023 A 
ATOM     75  C   UNL A   1      38.816  30.544  32.321  1.00  0.00     0.012 A 
ATOM     76  C   UNL A   1      37.841  31.336  30.238  1.00  0.00     0.148 A 
ATOM     77  C   UNL A   1      37.724  31.042  33.029  1.00  0.00     0.002 A 
ATOM     78  C   UNL A   1      36.774  31.864  30.953  1.00  0.00     0.091 A 
ATOM     79  F   UNL A   1      37.938  31.458  28.907  1.00  0.00    -0.205 F 
ATOM     80  C   UNL A   1      36.709  31.710  32.348  1.00  0.00     0.022 A 
BRANCH  78  81
ATOM     81  S   UNL A   1      35.467  32.822  30.180  1.00  0.00     0.127 S 
ATOM     82  O   UNL A   1      35.323  32.144  28.894  1.00  0.00    -0.237 OA
ATOM     83  O   UNL A   1      34.358  32.617  31.113  1.00  0.00    -0.237 OA
ATOM     84  O   UNL A   1      35.962  34.189  30.111  1.00  0.00    -0.744 OA
ENDBRANCH  78  81
ENDBRANCH  50  74
BRANCH  62  85
ATOM     85  C   UNL A   1      45.095  33.561  29.475  1.00  0.00     0.023 A 
ATOM     86  C   UNL A   1      45.837  33.758  30.656  1.00  0.00     0.012 A 
ATOM     87  C   UNL A   1      45.034  34.587  28.512  1.00  0.00     0.148 A 
ATOM     88  C   UNL A   1      46.503  34.963  30.877  1.00  0.00     0.002 A 
ATOM     89  C   UNL A   1      45.728  35.772  28.723  1.00  0.00     0.091 A 
ATOM     90  F   UNL A   1      44.312  34.377  27.402  1.00  0.00    -0.205 F 
ATOM     91  C   UNL A   1      46.460  35.964  29.907  1.00  0.00     0.022 A 
BRANCH  89  92
ATOM     92  S   UNL A   1      45.791  37.088  27.502  1.00  0.00     0.127 S 
ATOM     93  O   UNL A   1      44.392  37.511  27.450  1.00  0.00    -0.237 OA
ATOM     94  O   UNL A   1      46.697  38.050  28.130  1.00  0.00    -0.237 OA
ATOM     95  O   UNL A   1      46.299  36.482  26.278  1.00  0.00    -0.744 OA
ENDBRANCH  89  92
ENDBRANCH  62  85
ENDBRANCH  36  37
ENDBRANCH  29  31
ENDBRANCH  28  29
ENDBRANCH  27  28
ENDBRANCH   1  27
TORSDOF 20
ENDMDL
