MODEL 1
REMARK VINA RESULT:     -11.5      0.000      0.000
REMARK SMILES CC(C)(C)c1cc2c(cc1Cl)C=C(C(=O)OCCOCCOC(=O)c1ccc(-c3c4nc(c(-c5cccc(S(=O)(=O)[O-])c5F)c5ccc([nH]5)c(-c5cccc(S(=O)(=O)[O-])c5F)c5nc(c(-c6cccc(S(=O)(=O)[O-])c6F)c6ccc3[nH]6)C=C5)C=C4)cc1)[C@@H](C(F)(F)F)O2
REMARK SMILES IDX 20 1 19 2 18 3 17 4 16 5 14 6 15 7 13 8 5 9 6 10 10 11 7 12
REMARK SMILES IDX 9 13 11 14 8 15 93 16 12 17 88 18 2 19 1 20 3 21 4 22 89 23
REMARK SMILES IDX 90 24 91 25 92 26 21 27 22 28 23 29 24 30 25 31 26 32 87 33
REMARK SMILES IDX 27 34 86 35 28 36 29 37 30 38 80 39 31 40 85 41 79 42 81 43
REMARK SMILES IDX 32 44 84 45 78 46 77 47 33 49 65 50 45 51 64 52 46 53 49 54
REMARK SMILES IDX 63 55 82 56 47 57 48 58 62 60 83 61 50 62 34 63 35 64 43 65
REMARK SMILES IDX 36 66 38 67 44 68 37 69 39 70 40 71 41 72 42 73 66 74 67 75
REMARK SMILES IDX 75 76 68 77 70 78 76 79 69 80 71 81 72 82 73 83 74 84 51 85
REMARK SMILES IDX 52 86 60 87 53 88 55 89 61 90 54 91 56 92 57 93 58 94 59 95
REMARK H PARENT 81 48 49 59
REMARK Flexibility Score: inf
ROOT
ATOM      1  C   UNL A   1      38.352  19.983  25.075  1.00  0.00     0.202 C 
ENDROOT
BRANCH   1   2
ATOM      2  O   UNL A   1      37.029  19.456  24.984  1.00  0.00    -0.374 OA
BRANCH   2   3
ATOM      3  C   UNL A   1      35.933  20.367  25.034  1.00  0.00     0.202 C 
BRANCH   3   4
ATOM      4  C   UNL A   1      34.551  19.833  24.646  1.00  0.00     0.261 C 
BRANCH   4   5
ATOM      5  O   UNL A   1      33.663  20.881  24.233  1.00  0.00    -0.460 OA
BRANCH   5   6
ATOM      6  C   UNL A   1      32.479  20.894  24.886  1.00  0.00     0.338 C 
ATOM      7  O   UNL A   1      31.802  19.928  25.202  1.00  0.00    -0.246 OA
BRANCH   6   8
ATOM      8  C   UNL A   1      32.156  22.267  25.318  1.00  0.00     0.087 C 
ATOM      9  C   UNL A   1      31.900  27.305  25.369  1.00  0.00    -0.020 A 
ATOM     10  C   UNL A   1      31.812  26.279  26.346  1.00  0.00     0.053 A 
ATOM     11  C   UNL A   1      31.903  26.879  24.020  1.00  0.00     0.045 A 
ATOM     12  C   UNL A   1      31.803  24.919  26.009  1.00  0.00     0.128 A 
ATOM     13  C   UNL A   1      31.857  25.518  23.687  1.00  0.00     0.032 A 
ATOM     14  Cl  UNL A   1      32.040  27.930  22.652  1.00  0.00    -0.084 Cl
ATOM     15  C   UNL A   1      31.849  24.541  24.678  1.00  0.00     0.019 A 
ATOM     16  O   UNL A   1      31.767  24.027  27.045  1.00  0.00    -0.475 OA
ATOM     17  C   UNL A   1      31.989  23.145  24.321  1.00  0.00     0.027 C 
ATOM     18  C   UNL A   1      32.081  22.626  26.776  1.00  0.00     0.316 C 
BRANCH   9  19
ATOM     19  C   UNL A   1      32.093  28.777  25.820  1.00  0.00    -0.012 C 
ATOM     20  C   UNL A   1      33.532  29.312  25.582  1.00  0.00     0.016 C 
ATOM     21  C   UNL A   1      31.826  29.002  27.325  1.00  0.00     0.016 C 
ATOM     22  C   UNL A   1      31.150  29.667  24.979  1.00  0.00     0.016 C 
ENDBRANCH   9  19
BRANCH  18  23
ATOM     23  C   UNL A   1      33.362  22.254  27.539  1.00  0.00     0.430 C 
ATOM     24  F   UNL A   1      33.509  20.910  27.623  1.00  0.00    -0.167 F 
ATOM     25  F   UNL A   1      34.467  22.732  26.925  1.00  0.00    -0.167 F 
ATOM     26  F   UNL A   1      33.353  22.741  28.801  1.00  0.00    -0.167 F 
ENDBRANCH  18  23
ENDBRANCH   6   8
ENDBRANCH   5   6
ENDBRANCH   4   5
ENDBRANCH   3   4
ENDBRANCH   2   3
ENDBRANCH   1   2
BRANCH   1  27
ATOM     27  C   UNL A   1      39.368  19.252  25.962  1.00  0.00     0.261 C 
BRANCH  27  28
ATOM     28  O   UNL A   1      40.722  19.445  25.522  1.00  0.00    -0.460 OA
BRANCH  28  29
ATOM     29  C   UNL A   1      41.641  19.570  26.515  1.00  0.00     0.338 C 
ATOM     30  O   UNL A   1      42.315  18.682  27.009  1.00  0.00    -0.246 OA
BRANCH  29  31
ATOM     31  C   UNL A   1      41.861  21.004  26.772  1.00  0.00     0.060 A 
ATOM     32  C   UNL A   1      42.249  21.453  28.034  1.00  0.00     0.016 A 
ATOM     33  C   UNL A   1      41.682  21.909  25.716  1.00  0.00     0.016 A 
ATOM     34  C   UNL A   1      42.467  22.817  28.236  1.00  0.00     0.010 A 
ATOM     35  C   UNL A   1      41.897  23.271  25.922  1.00  0.00     0.010 A 
ATOM     36  C   UNL A   1      42.301  23.734  27.182  1.00  0.00    -0.014 A 
BRANCH  36  37
ATOM     37  C   UNL A   1      42.670  25.156  27.379  1.00  0.00     0.031 A 
ATOM     38  C   UNL A   1      41.729  26.132  28.019  1.00  0.00     0.074 A 
ATOM     39  C   UNL A   1      43.883  25.564  26.958  1.00  0.00     0.049 A 
ATOM     40  N   UNL A   1      41.948  27.379  28.348  1.00  0.00    -0.248 NA
ATOM     41  C   UNL A   1      40.373  25.657  28.331  1.00  0.00     0.031 C 
ATOM     42  C   UNL A   1      44.858  24.719  26.264  1.00  0.00     0.029 A 
ATOM     43  N   UNL A   1      44.504  26.783  27.051  1.00  0.00    -0.354 N 
ATOM     44  C   UNL A   1      40.762  27.842  28.900  1.00  0.00     0.074 A 
ATOM     45  C   UNL A   1      39.816  26.748  28.846  1.00  0.00     0.031 C 
ATOM     46  C   UNL A   1      45.962  25.439  26.015  1.00  0.00     0.029 A 
ATOM     47  C   UNL A   1      45.768  26.798  26.514  1.00  0.00     0.049 A 
ATOM     48  H   UNL A   1      44.083  27.573  27.463  1.00  0.00     0.167 HD
ATOM     49  C   UNL A   1      40.499  29.061  29.427  1.00  0.00     0.034 A 
ATOM     50  C   UNL A   1      46.677  27.788  26.438  1.00  0.00     0.034 A 
ATOM     51  C   UNL A   1      41.447  30.141  29.492  1.00  0.00     0.049 A 
ATOM     52  C   UNL A   1      46.362  29.127  27.037  1.00  0.00     0.074 A 
ATOM     53  C   UNL A   1      41.284  31.389  30.068  1.00  0.00     0.029 A 
ATOM     54  N   UNL A   1      42.724  30.112  28.956  1.00  0.00    -0.354 N 
ATOM     55  N   UNL A   1      45.284  29.503  27.680  1.00  0.00    -0.248 NA
ATOM     56  C   UNL A   1      47.393  30.170  26.928  1.00  0.00     0.031 C 
ATOM     57  C   UNL A   1      42.455  32.123  29.862  1.00  0.00     0.029 A 
ATOM     58  C   UNL A   1      43.355  31.324  29.176  1.00  0.00     0.049 A 
ATOM     59  H   UNL A   1      43.123  29.344  28.487  1.00  0.00     0.167 HD
ATOM     60  C   UNL A   1      45.512  30.817  28.070  1.00  0.00     0.074 A 
ATOM     61  C   UNL A   1      46.837  31.169  27.602  1.00  0.00     0.031 C 
ATOM     62  C   UNL A   1      44.688  31.655  28.744  1.00  0.00     0.034 A 
BRANCH  49  63
ATOM     63  C   UNL A   1      39.146  29.295  30.039  1.00  0.00     0.023 A 
ATOM     64  C   UNL A   1      38.881  28.784  31.325  1.00  0.00     0.012 A 
ATOM     65  C   UNL A   1      38.197  30.125  29.412  1.00  0.00     0.148 A 
ATOM     66  C   UNL A   1      37.688  29.091  31.978  1.00  0.00     0.002 A 
ATOM     67  C   UNL A   1      37.023  30.451  30.080  1.00  0.00     0.091 A 
ATOM     68  F   UNL A   1      38.471  30.593  28.186  1.00  0.00    -0.205 F 
ATOM     69  C   UNL A   1      36.766  29.934  31.361  1.00  0.00     0.022 A 
BRANCH  67  70
ATOM     70  S   UNL A   1      35.791  31.567  29.400  1.00  0.00     0.127 S 
ATOM     71  O   UNL A   1      35.132  30.712  28.413  1.00  0.00    -0.237 OA
ATOM     72  O   UNL A   1      34.979  31.880  30.575  1.00  0.00    -0.237 OA
ATOM     73  O   UNL A   1      36.528  32.693  28.845  1.00  0.00    -0.744 OA
ENDBRANCH  67  70
ENDBRANCH  49  63
BRANCH  50  74
ATOM     74  C   UNL A   1      48.002  27.508  25.823  1.00  0.00     0.023 A 
ATOM     75  C   UNL A   1      49.047  27.022  26.631  1.00  0.00     0.012 A 
ATOM     76  C   UNL A   1      48.200  27.640  24.436  1.00  0.00     0.148 A 
ATOM     77  C   UNL A   1      50.275  26.677  26.065  1.00  0.00     0.002 A 
ATOM     78  C   UNL A   1      49.412  27.258  23.874  1.00  0.00     0.091 A 
ATOM     79  F   UNL A   1      47.185  28.103  23.693  1.00  0.00    -0.205 F 
ATOM     80  C   UNL A   1      50.453  26.785  24.688  1.00  0.00     0.022 A 
BRANCH  78  81
ATOM     81  S   UNL A   1      49.704  27.268  22.103  1.00  0.00     0.127 S 
ATOM     82  O   UNL A   1      51.107  26.863  22.031  1.00  0.00    -0.237 OA
ATOM     83  O   UNL A   1      48.748  26.263  21.639  1.00  0.00    -0.237 OA
ATOM     84  O   UNL A   1      49.424  28.626  21.660  1.00  0.00    -0.744 OA
ENDBRANCH  78  81
ENDBRANCH  50  74
BRANCH  62  85
ATOM     85  C   UNL A   1      45.177  33.046  29.040  1.00  0.00     0.023 A 
ATOM     86  C   UNL A   1      45.932  33.279  30.205  1.00  0.00     0.012 A 
ATOM     87  C   UNL A   1      45.008  34.081  28.099  1.00  0.00     0.148 A 
ATOM     88  C   UNL A   1      46.507  34.529  30.434  1.00  0.00     0.002 A 
ATOM     89  C   UNL A   1      45.612  35.313  28.317  1.00  0.00     0.091 A 
ATOM     90  F   UNL A   1      44.280  33.831  27.001  1.00  0.00    -0.205 F 
ATOM     91  C   UNL A   1      46.359  35.540  29.486  1.00  0.00     0.022 A 
BRANCH  89  92
ATOM     92  S   UNL A   1      45.540  36.655  27.125  1.00  0.00     0.127 S 
ATOM     93  O   UNL A   1      46.310  36.104  26.011  1.00  0.00    -0.237 OA
ATOM     94  O   UNL A   1      44.102  36.767  26.877  1.00  0.00    -0.237 OA
ATOM     95  O   UNL A   1      46.139  37.811  27.779  1.00  0.00    -0.744 OA
ENDBRANCH  89  92
ENDBRANCH  62  85
ENDBRANCH  36  37
ENDBRANCH  29  31
ENDBRANCH  28  29
ENDBRANCH  27  28
ENDBRANCH   1  27
TORSDOF 19
ENDMDL
MODEL 2
REMARK VINA RESULT:     -11.3      2.156      7.860
REMARK SMILES CC(C)(C)c1cc2c(cc1Cl)C=C(C(=O)OCCOCCOC(=O)c1ccc(-c3c4nc(c(-c5cccc(S(=O)(=O)[O-])c5F)c5ccc([nH]5)c(-c5cccc(S(=O)(=O)[O-])c5F)c5nc(c(-c6cccc(S(=O)(=O)[O-])c6F)c6ccc3[nH]6)C=C5)C=C4)cc1)[C@@H](C(F)(F)F)O2
REMARK SMILES IDX 20 1 19 2 18 3 17 4 16 5 14 6 15 7 13 8 5 9 6 10 10 11 7 12
REMARK SMILES IDX 9 13 11 14 8 15 93 16 12 17 88 18 2 19 1 20 3 21 4 22 89 23
REMARK SMILES IDX 90 24 91 25 92 26 21 27 22 28 23 29 24 30 25 31 26 32 87 33
REMARK SMILES IDX 27 34 86 35 28 36 29 37 30 38 80 39 31 40 85 41 79 42 81 43
REMARK SMILES IDX 32 44 84 45 78 46 77 47 33 49 65 50 45 51 64 52 46 53 49 54
REMARK SMILES IDX 63 55 82 56 47 57 48 58 62 60 83 61 50 62 34 63 35 64 43 65
REMARK SMILES IDX 36 66 38 67 44 68 37 69 39 70 40 71 41 72 42 73 66 74 67 75
REMARK SMILES IDX 75 76 68 77 70 78 76 79 69 80 71 81 72 82 73 83 74 84 51 85
REMARK SMILES IDX 52 86 60 87 53 88 55 89 61 90 54 91 56 92 57 93 58 94 59 95
REMARK H PARENT 81 48 49 59
REMARK Flexibility Score: inf
ROOT
ATOM      1  C   UNL A   1      35.336  21.096  24.606  1.00  0.00     0.202 C 
ENDROOT
BRANCH   1   2
ATOM      2  O   UNL A   1      34.171  20.348  24.949  1.00  0.00    -0.374 OA
BRANCH   2   3
ATOM      3  C   UNL A   1      33.285  20.888  25.927  1.00  0.00     0.202 C 
BRANCH   3   4
ATOM      4  C   UNL A   1      32.006  21.567  25.425  1.00  0.00     0.261 C 
BRANCH   4   5
ATOM      5  O   UNL A   1      32.191  22.973  25.207  1.00  0.00    -0.460 OA
BRANCH   5   6
ATOM      6  C   UNL A   1      31.926  23.377  23.944  1.00  0.00     0.338 C 
ATOM      7  O   UNL A   1      31.869  22.677  22.944  1.00  0.00    -0.246 OA
BRANCH   6   8
ATOM      8  C   UNL A   1      31.558  24.805  23.938  1.00  0.00     0.087 C 
ATOM      9  C   UNL A   1      28.887  29.030  23.260  1.00  0.00    -0.020 A 
ATOM     10  C   UNL A   1      30.266  28.715  23.378  1.00  0.00     0.053 A 
ATOM     11  C   UNL A   1      27.983  27.981  23.548  1.00  0.00     0.045 A 
ATOM     12  C   UNL A   1      30.718  27.426  23.688  1.00  0.00     0.128 A 
ATOM     13  C   UNL A   1      28.440  26.701  23.893  1.00  0.00     0.032 A 
ATOM     14  Cl  UNL A   1      26.260  28.103  23.438  1.00  0.00    -0.084 Cl
ATOM     15  C   UNL A   1      29.801  26.414  23.923  1.00  0.00     0.019 A 
ATOM     16  O   UNL A   1      32.072  27.239  23.723  1.00  0.00    -0.475 OA
ATOM     17  C   UNL A   1      30.251  25.050  24.098  1.00  0.00     0.027 C 
ATOM     18  C   UNL A   1      32.592  25.873  23.716  1.00  0.00     0.316 C 
BRANCH   9  19
ATOM     19  C   UNL A   1      28.464  30.427  22.733  1.00  0.00    -0.012 C 
ATOM     20  C   UNL A   1      29.642  31.434  22.636  1.00  0.00     0.016 C 
ATOM     21  C   UNL A   1      27.410  31.129  23.618  1.00  0.00     0.016 C 
ATOM     22  C   UNL A   1      27.916  30.255  21.298  1.00  0.00     0.016 C 
ENDBRANCH   9  19
BRANCH  18  23
ATOM     23  C   UNL A   1      33.390  25.657  22.421  1.00  0.00     0.430 C 
ATOM     24  F   UNL A   1      33.982  26.805  22.013  1.00  0.00    -0.167 F 
ATOM     25  F   UNL A   1      34.373  24.745  22.585  1.00  0.00    -0.167 F 
ATOM     26  F   UNL A   1      32.599  25.228  21.410  1.00  0.00    -0.167 F 
ENDBRANCH  18  23
ENDBRANCH   6   8
ENDBRANCH   5   6
ENDBRANCH   4   5
ENDBRANCH   3   4
ENDBRANCH   2   3
ENDBRANCH   1   2
BRANCH   1  27
ATOM     27  C   UNL A   1      36.685  20.652  25.188  1.00  0.00     0.261 C 
BRANCH  27  28
ATOM     28  O   UNL A   1      37.554  21.759  25.471  1.00  0.00    -0.460 OA
BRANCH  28  29
ATOM     29  C   UNL A   1      38.772  21.426  25.972  1.00  0.00     0.338 C 
ATOM     30  O   UNL A   1      39.360  20.367  25.832  1.00  0.00    -0.246 OA
BRANCH  29  31
ATOM     31  C   UNL A   1      39.388  22.634  26.551  1.00  0.00     0.060 A 
ATOM     32  C   UNL A   1      40.537  22.544  27.336  1.00  0.00     0.016 A 
ATOM     33  C   UNL A   1      38.799  23.878  26.285  1.00  0.00     0.016 A 
ATOM     34  C   UNL A   1      41.103  23.711  27.851  1.00  0.00     0.010 A 
ATOM     35  C   UNL A   1      39.365  25.041  26.805  1.00  0.00     0.010 A 
ATOM     36  C   UNL A   1      40.528  24.967  27.583  1.00  0.00    -0.014 A 
BRANCH  36  37
ATOM     37  C   UNL A   1      41.221  26.202  28.023  1.00  0.00     0.031 A 
ATOM     38  C   UNL A   1      42.651  26.472  27.664  1.00  0.00     0.074 A 
ATOM     39  C   UNL A   1      40.533  27.088  28.770  1.00  0.00     0.049 A 
ATOM     40  N   UNL A   1      43.359  27.548  27.891  1.00  0.00    -0.248 NA
ATOM     41  C   UNL A   1      43.385  25.405  26.966  1.00  0.00     0.031 C 
ATOM     42  C   UNL A   1      39.155  26.902  29.233  1.00  0.00     0.029 A 
ATOM     43  N   UNL A   1      40.891  28.314  29.267  1.00  0.00    -0.354 N 
ATOM     44  C   UNL A   1      44.619  27.293  27.370  1.00  0.00     0.074 A 
ATOM     45  C   UNL A   1      44.589  25.950  26.831  1.00  0.00     0.031 C 
ATOM     46  C   UNL A   1      38.779  27.987  29.928  1.00  0.00     0.029 A 
ATOM     47  C   UNL A   1      39.889  28.934  29.974  1.00  0.00     0.049 A 
ATOM     48  H   UNL A   1      41.782  28.713  29.131  1.00  0.00     0.167 HD
ATOM     49  C   UNL A   1      45.694  28.116  27.325  1.00  0.00     0.034 A 
ATOM     50  C   UNL A   1      39.860  30.134  30.585  1.00  0.00     0.034 A 
ATOM     51  C   UNL A   1      45.714  29.455  27.849  1.00  0.00     0.049 A 
ATOM     52  C   UNL A   1      41.062  31.029  30.511  1.00  0.00     0.074 A 
ATOM     53  C   UNL A   1      46.741  30.382  27.787  1.00  0.00     0.029 A 
ATOM     54  N   UNL A   1      44.675  30.056  28.540  1.00  0.00    -0.354 N 
ATOM     55  N   UNL A   1      42.199  30.824  29.893  1.00  0.00    -0.248 NA
ATOM     56  C   UNL A   1      40.972  32.329  31.193  1.00  0.00     0.031 C 
ATOM     57  C   UNL A   1      46.330  31.536  28.460  1.00  0.00     0.029 A 
ATOM     58  C   UNL A   1      45.039  31.335  28.922  1.00  0.00     0.049 A 
ATOM     59  H   UNL A   1      43.806  29.635  28.733  1.00  0.00     0.167 HD
ATOM     60  C   UNL A   1      42.952  31.974  30.092  1.00  0.00     0.074 A 
ATOM     61  C   UNL A   1      42.138  32.878  30.879  1.00  0.00     0.031 C 
ATOM     62  C   UNL A   1      44.210  32.245  29.669  1.00  0.00     0.034 A 
BRANCH  49  63
ATOM     63  C   UNL A   1      46.935  27.629  26.632  1.00  0.00     0.023 A 
ATOM     64  C   UNL A   1      47.831  26.802  27.337  1.00  0.00     0.012 A 
ATOM     65  C   UNL A   1      47.145  27.871  25.260  1.00  0.00     0.148 A 
ATOM     66  C   UNL A   1      48.923  26.225  26.689  1.00  0.00     0.002 A 
ATOM     67  C   UNL A   1      48.218  27.270  24.614  1.00  0.00     0.091 A 
ATOM     68  F   UNL A   1      46.281  28.666  24.614  1.00  0.00    -0.205 F 
ATOM     69  C   UNL A   1      49.109  26.449  25.327  1.00  0.00     0.022 A 
BRANCH  67  70
ATOM     70  S   UNL A   1      48.521  27.449  22.853  1.00  0.00     0.127 S 
ATOM     71  O   UNL A   1      48.584  26.052  22.422  1.00  0.00    -0.237 OA
ATOM     72  O   UNL A   1      47.329  28.171  22.408  1.00  0.00    -0.237 OA
ATOM     73  O   UNL A   1      49.769  28.188  22.729  1.00  0.00    -0.744 OA
ENDBRANCH  67  70
ENDBRANCH  49  63
BRANCH  50  74
ATOM     74  C   UNL A   1      38.608  30.572  31.256  1.00  0.00     0.023 A 
ATOM     75  C   UNL A   1      38.463  30.374  32.642  1.00  0.00     0.012 A 
ATOM     76  C   UNL A   1      37.605  31.256  30.544  1.00  0.00     0.148 A 
ATOM     77  C   UNL A   1      37.333  30.847  33.309  1.00  0.00     0.002 A 
ATOM     78  C   UNL A   1      36.500  31.758  31.221  1.00  0.00     0.091 A 
ATOM     79  F   UNL A   1      37.772  31.432  29.226  1.00  0.00    -0.205 F 
ATOM     80  C   UNL A   1      36.358  31.547  32.602  1.00  0.00     0.022 A 
BRANCH  78  81
ATOM     81  S   UNL A   1      35.242  32.755  30.417  1.00  0.00     0.127 S 
ATOM     82  O   UNL A   1      34.297  32.978  31.510  1.00  0.00    -0.237 OA
ATOM     83  O   UNL A   1      36.009  33.933  30.015  1.00  0.00    -0.237 OA
ATOM     84  O   UNL A   1      34.740  31.949  29.314  1.00  0.00    -0.744 OA
ENDBRANCH  78  81
ENDBRANCH  50  74
BRANCH  62  85
ATOM     85  C   UNL A   1      44.808  33.577  30.028  1.00  0.00     0.023 A 
ATOM     86  C   UNL A   1      45.594  33.692  31.190  1.00  0.00     0.012 A 
ATOM     87  C   UNL A   1      44.705  34.671  29.145  1.00  0.00     0.148 A 
ATOM     88  C   UNL A   1      46.267  34.880  31.473  1.00  0.00     0.002 A 
ATOM     89  C   UNL A   1      45.405  35.840  29.416  1.00  0.00     0.091 A 
ATOM     90  F   UNL A   1      43.946  34.535  28.049  1.00  0.00    -0.205 F 
ATOM     91  C   UNL A   1      46.183  35.948  30.582  1.00  0.00     0.022 A 
BRANCH  89  92
ATOM     92  S   UNL A   1      45.419  37.245  28.296  1.00  0.00     0.127 S 
ATOM     93  O   UNL A   1      46.295  38.179  29.002  1.00  0.00    -0.237 OA
ATOM     94  O   UNL A   1      45.996  36.665  27.083  1.00  0.00    -0.237 OA
ATOM     95  O   UNL A   1      44.033  37.675  28.168  1.00  0.00    -0.744 OA
ENDBRANCH  89  92
ENDBRANCH  62  85
ENDBRANCH  36  37
ENDBRANCH  29  31
ENDBRANCH  28  29
ENDBRANCH  27  28
ENDBRANCH   1  27
TORSDOF 19
ENDMDL
MODEL 3
REMARK VINA RESULT:     -11.2      5.228      8.659
REMARK SMILES CC(C)(C)c1cc2c(cc1Cl)C=C(C(=O)OCCOCCOC(=O)c1ccc(-c3c4nc(c(-c5cccc(S(=O)(=O)[O-])c5F)c5ccc([nH]5)c(-c5cccc(S(=O)(=O)[O-])c5F)c5nc(c(-c6cccc(S(=O)(=O)[O-])c6F)c6ccc3[nH]6)C=C5)C=C4)cc1)[C@@H](C(F)(F)F)O2
REMARK SMILES IDX 20 1 19 2 18 3 17 4 16 5 14 6 15 7 13 8 5 9 6 10 10 11 7 12
REMARK SMILES IDX 9 13 11 14 8 15 93 16 12 17 88 18 2 19 1 20 3 21 4 22 89 23
REMARK SMILES IDX 90 24 91 25 92 26 21 27 22 28 23 29 24 30 25 31 26 32 87 33
REMARK SMILES IDX 27 34 86 35 28 36 29 37 30 38 80 39 31 40 85 41 79 42 81 43
REMARK SMILES IDX 32 44 84 45 78 46 77 47 33 49 65 50 45 51 64 52 46 53 49 54
REMARK SMILES IDX 63 55 82 56 47 57 48 58 62 60 83 61 50 62 34 63 35 64 43 65
REMARK SMILES IDX 36 66 38 67 44 68 37 69 39 70 40 71 41 72 42 73 66 74 67 75
REMARK SMILES IDX 75 76 68 77 70 78 76 79 69 80 71 81 72 82 73 83 74 84 51 85
REMARK SMILES IDX 52 86 60 87 53 88 55 89 61 90 54 91 56 92 57 93 58 94 59 95
REMARK H PARENT 81 48 49 59
REMARK Flexibility Score: inf
ROOT
ATOM      1  C   UNL A   1      31.330  29.834  24.985  1.00  0.00     0.202 C 
ENDROOT
BRANCH   1   2
ATOM      2  O   UNL A   1      31.114  28.427  24.888  1.00  0.00    -0.374 OA
BRANCH   2   3
ATOM      3  C   UNL A   1      32.107  27.553  25.421  1.00  0.00     0.202 C 
BRANCH   3   4
ATOM      4  C   UNL A   1      32.815  26.608  24.444  1.00  0.00     0.261 C 
BRANCH   4   5
ATOM      5  O   UNL A   1      31.886  25.846  23.661  1.00  0.00    -0.460 OA
BRANCH   5   6
ATOM      6  C   UNL A   1      31.226  24.893  24.357  1.00  0.00     0.338 C 
ATOM      7  O   UNL A   1      30.084  24.951  24.785  1.00  0.00    -0.246 OA
BRANCH   6   8
ATOM      8  C   UNL A   1      32.037  23.662  24.418  1.00  0.00     0.087 C 
ATOM      9  C   UNL A   1      33.424  18.843  23.875  1.00  0.00    -0.020 A 
ATOM     10  C   UNL A   1      33.798  19.911  24.731  1.00  0.00     0.053 A 
ATOM     11  C   UNL A   1      32.581  19.182  22.791  1.00  0.00     0.045 A 
ATOM     12  C   UNL A   1      33.309  21.213  24.567  1.00  0.00     0.128 A 
ATOM     13  C   UNL A   1      32.123  20.494  22.609  1.00  0.00     0.032 A 
ATOM     14  Cl  UNL A   1      31.959  18.056  21.634  1.00  0.00    -0.084 Cl
ATOM     15  C   UNL A   1      32.452  21.497  23.516  1.00  0.00     0.019 A 
ATOM     16  O   UNL A   1      33.704  22.142  25.488  1.00  0.00    -0.475 OA
ATOM     17  C   UNL A   1      31.824  22.797  23.419  1.00  0.00     0.027 C 
ATOM     18  C   UNL A   1      32.983  23.411  25.560  1.00  0.00     0.316 C 
BRANCH   9  19
ATOM     19  C   UNL A   1      33.855  17.394  24.226  1.00  0.00    -0.012 C 
ATOM     20  C   UNL A   1      35.148  17.325  25.083  1.00  0.00     0.016 C 
ATOM     21  C   UNL A   1      34.149  16.519  22.987  1.00  0.00     0.016 C 
ATOM     22  C   UNL A   1      32.734  16.749  25.072  1.00  0.00     0.016 C 
ENDBRANCH   9  19
BRANCH  18  23
ATOM     23  C   UNL A   1      32.290  23.507  26.928  1.00  0.00     0.430 C 
ATOM     24  F   UNL A   1      32.072  24.797  27.277  1.00  0.00    -0.167 F 
ATOM     25  F   UNL A   1      31.086  22.893  26.923  1.00  0.00    -0.167 F 
ATOM     26  F   UNL A   1      33.033  22.941  27.907  1.00  0.00    -0.167 F 
ENDBRANCH  18  23
ENDBRANCH   6   8
ENDBRANCH   5   6
ENDBRANCH   4   5
ENDBRANCH   3   4
ENDBRANCH   2   3
ENDBRANCH   1   2
BRANCH   1  27
ATOM     27  C   UNL A   1      31.803  30.409  26.327  1.00  0.00     0.261 C 
BRANCH  27  28
ATOM     28  O   UNL A   1      33.223  30.624  26.364  1.00  0.00    -0.460 OA
BRANCH  28  29
ATOM     29  C   UNL A   1      33.640  31.589  27.225  1.00  0.00     0.338 C 
ATOM     30  O   UNL A   1      32.999  32.548  27.621  1.00  0.00    -0.246 OA
BRANCH  29  31
ATOM     31  C   UNL A   1      34.940  31.184  27.787  1.00  0.00     0.060 A 
ATOM     32  C   UNL A   1      35.956  32.120  27.986  1.00  0.00     0.016 A 
ATOM     33  C   UNL A   1      35.133  29.838  28.130  1.00  0.00     0.016 A 
ATOM     34  C   UNL A   1      37.168  31.704  28.539  1.00  0.00     0.010 A 
ATOM     35  C   UNL A   1      36.346  29.425  28.678  1.00  0.00     0.010 A 
ATOM     36  C   UNL A   1      37.369  30.358  28.897  1.00  0.00    -0.014 A 
BRANCH  36  37
ATOM     37  C   UNL A   1      38.609  29.963  29.608  1.00  0.00     0.031 A 
ATOM     38  C   UNL A   1      38.944  30.507  30.965  1.00  0.00     0.074 A 
ATOM     39  C   UNL A   1      39.446  29.101  29.000  1.00  0.00     0.049 A 
ATOM     40  N   UNL A   1      39.937  30.181  31.750  1.00  0.00    -0.248 NA
ATOM     41  C   UNL A   1      38.060  31.547  31.513  1.00  0.00     0.031 C 
ATOM     42  C   UNL A   1      39.256  28.556  27.654  1.00  0.00     0.029 A 
ATOM     43  N   UNL A   1      40.618  28.532  29.429  1.00  0.00    -0.354 N 
ATOM     44  C   UNL A   1      39.805  30.973  32.882  1.00  0.00     0.074 A 
ATOM     45  C   UNL A   1      38.645  31.813  32.676  1.00  0.00     0.031 C 
ATOM     46  C   UNL A   1      40.263  27.713  27.378  1.00  0.00     0.029 A 
ATOM     47  C   UNL A   1      41.177  27.672  28.515  1.00  0.00     0.049 A 
ATOM     48  H   UNL A   1      41.019  28.721  30.308  1.00  0.00     0.167 HD
ATOM     49  C   UNL A   1      40.570  30.977  34.000  1.00  0.00     0.034 A 
ATOM     50  C   UNL A   1      42.295  26.924  28.585  1.00  0.00     0.034 A 
ATOM     51  C   UNL A   1      41.713  30.130  34.207  1.00  0.00     0.049 A 
ATOM     52  C   UNL A   1      43.118  26.942  29.839  1.00  0.00     0.074 A 
ATOM     53  C   UNL A   1      42.506  30.023  35.337  1.00  0.00     0.029 A 
ATOM     54  N   UNL A   1      42.238  29.258  33.267  1.00  0.00    -0.354 N 
ATOM     55  N   UNL A   1      42.898  27.595  30.954  1.00  0.00    -0.248 NA
ATOM     56  C   UNL A   1      44.326  26.104  29.860  1.00  0.00     0.031 C 
ATOM     57  C   UNL A   1      43.523  29.102  35.073  1.00  0.00     0.029 A 
ATOM     58  C   UNL A   1      43.350  28.619  33.786  1.00  0.00     0.049 A 
ATOM     59  H   UNL A   1      41.874  29.114  32.363  1.00  0.00     0.167 HD
ATOM     60  C   UNL A   1      43.925  27.233  31.816  1.00  0.00     0.074 A 
ATOM     61  C   UNL A   1      44.763  26.293  31.099  1.00  0.00     0.031 C 
ATOM     62  C   UNL A   1      44.156  27.654  33.082  1.00  0.00     0.034 A 
BRANCH  49  63
ATOM     63  C   UNL A   1      40.171  31.884  35.131  1.00  0.00     0.023 A 
ATOM     64  C   UNL A   1      40.618  33.219  35.126  1.00  0.00     0.012 A 
ATOM     65  C   UNL A   1      39.254  31.460  36.114  1.00  0.00     0.148 A 
ATOM     66  C   UNL A   1      40.163  34.122  36.086  1.00  0.00     0.002 A 
ATOM     67  C   UNL A   1      38.783  32.373  37.050  1.00  0.00     0.091 A 
ATOM     68  F   UNL A   1      38.849  30.183  36.100  1.00  0.00    -0.205 F 
ATOM     69  C   UNL A   1      39.237  33.703  37.038  1.00  0.00     0.022 A 
BRANCH  67  70
ATOM     70  S   UNL A   1      37.552  31.952  38.288  1.00  0.00     0.127 S 
ATOM     71  O   UNL A   1      36.502  32.930  38.001  1.00  0.00    -0.237 OA
ATOM     72  O   UNL A   1      37.215  30.574  37.930  1.00  0.00    -0.237 OA
ATOM     73  O   UNL A   1      38.205  32.110  39.579  1.00  0.00    -0.744 OA
ENDBRANCH  67  70
ENDBRANCH  49  63
BRANCH  50  74
ATOM     74  C   UNL A   1      42.647  26.042  27.440  1.00  0.00     0.023 A 
ATOM     75  C   UNL A   1      43.533  26.514  26.454  1.00  0.00     0.012 A 
ATOM     76  C   UNL A   1      42.174  24.718  27.375  1.00  0.00     0.148 A 
ATOM     77  C   UNL A   1      43.940  25.679  25.413  1.00  0.00     0.002 A 
ATOM     78  C   UNL A   1      42.614  23.880  26.357  1.00  0.00     0.091 A 
ATOM     79  F   UNL A   1      41.334  24.297  28.330  1.00  0.00    -0.205 F 
ATOM     80  C   UNL A   1      43.490  24.361  25.370  1.00  0.00     0.022 A 
BRANCH  78  81
ATOM     81  S   UNL A   1      42.169  22.143  26.272  1.00  0.00     0.127 S 
ATOM     82  O   UNL A   1      42.938  21.696  25.112  1.00  0.00    -0.237 OA
ATOM     83  O   UNL A   1      42.653  21.649  27.560  1.00  0.00    -0.237 OA
ATOM     84  O   UNL A   1      40.723  22.110  26.112  1.00  0.00    -0.744 OA
ENDBRANCH  78  81
ENDBRANCH  50  74
BRANCH  62  85
ATOM     85  C   UNL A   1      45.355  27.108  33.805  1.00  0.00     0.023 A 
ATOM     86  C   UNL A   1      46.563  27.830  33.784  1.00  0.00     0.012 A 
ATOM     87  C   UNL A   1      45.244  25.958  34.613  1.00  0.00     0.148 A 
ATOM     88  C   UNL A   1      47.649  27.413  34.554  1.00  0.00     0.002 A 
ATOM     89  C   UNL A   1      46.318  25.567  35.403  1.00  0.00     0.091 A 
ATOM     90  F   UNL A   1      44.083  25.288  34.609  1.00  0.00    -0.205 F 
ATOM     91  C   UNL A   1      47.522  26.291  35.372  1.00  0.00     0.022 A 
BRANCH  89  92
ATOM     92  S   UNL A   1      46.231  24.181  36.542  1.00  0.00     0.127 S 
ATOM     93  O   UNL A   1      45.767  23.106  35.666  1.00  0.00    -0.237 OA
ATOM     94  O   UNL A   1      47.622  24.056  36.979  1.00  0.00    -0.237 OA
ATOM     95  O   UNL A   1      45.296  24.573  37.588  1.00  0.00    -0.744 OA
ENDBRANCH  89  92
ENDBRANCH  62  85
ENDBRANCH  36  37
ENDBRANCH  29  31
ENDBRANCH  28  29
ENDBRANCH  27  28
ENDBRANCH   1  27
TORSDOF 19
ENDMDL
