MODEL 1
REMARK VINA RESULT:      -8.4      0.000      0.000
REMARK SMILES O=C(OCCOCCOC(=O)c1ccc(-c2c3nc(c(-c4cccc(S(=O)(=O)[O-])c4F)c4ccc([nH]4)c(-c4cccc(S(=O)(=O)[O-])c4F)c4nc(c(-c5cccc(S(=O)(=O)[O-])c5F)c5ccc2[nH]5)C=C4)C=C3)cc1)C1=Cc2cc(Cl)cc(-c3ccc(O)cc3)c2O[C@@H]1C(F)(F)F
REMARK SMILES IDX 7 1 6 2 5 3 4 4 3 5 2 6 1 7 75 8 76 9 92 10 77 11 91 12
REMARK SMILES IDX 78 13 90 14 79 15 82 16 80 17 81 18 93 19 94 20 95 21 96 22
REMARK SMILES IDX 83 23 84 24 89 25 85 26 88 27 86 28 87 29 8 31 9 32 10 33
REMARK SMILES IDX 11 34 12 35 13 36 74 37 14 38 73 39 15 40 16 41 17 42 67 43
REMARK SMILES IDX 18 44 72 45 66 46 68 47 19 48 71 49 65 50 64 51 20 53 52 54
REMARK SMILES IDX 32 55 51 56 33 57 36 58 50 59 69 60 34 61 35 62 49 64 70 65
REMARK SMILES IDX 37 66 21 67 22 68 30 69 23 70 25 71 31 72 24 73 26 74 27 75
REMARK SMILES IDX 28 76 29 77 53 78 54 79 62 80 55 81 57 82 63 83 56 84 58 85
REMARK SMILES IDX 59 86 60 87 61 88 38 89 39 90 47 91 40 92 42 93 48 94 41 95
REMARK SMILES IDX 43 96 44 97 45 98 46 99
REMARK H PARENT 87 30 68 52 36 63
REMARK Flexibility Score: inf
ROOT
ATOM      1  C   UNL A   1      41.209  21.765  25.871  1.00  0.00     0.202 C 
ENDROOT
BRANCH   1   2
ATOM      2  O   UNL A   1      42.393  20.937  25.730  1.00  0.00    -0.374 OA
BRANCH   2   3
ATOM      3  C   UNL A   1      43.830  21.158  24.974  1.00  0.00     0.202 C 
BRANCH   3   4
ATOM      4  C   UNL A   1      45.765  21.717  25.800  1.00  0.00     0.261 C 
BRANCH   4   5
ATOM      5  O   UNL A   1      45.977  22.631  27.072  1.00  0.00    -0.460 OA
BRANCH   5   6
ATOM      6  C   UNL A   1      46.386  23.871  26.783  1.00  0.00     0.338 C 
ATOM      7  O   UNL A   1      47.478  24.323  26.553  1.00  0.00    -0.246 OA
BRANCH   6   8
ATOM      8  C   UNL A   1      45.140  24.486  27.145  1.00  0.00     0.087 C 
ATOM      9  C   UNL A   1      44.629  23.906  28.392  1.00  0.00     0.027 C 
ATOM     10  C   UNL A   1      45.671  26.336  26.917  1.00  0.00     0.316 C 
ATOM     11  C   UNL A   1      44.610  24.792  29.963  1.00  0.00     0.019 A 
ATOM     12  O   UNL A   1      45.653  27.304  28.611  1.00  0.00    -0.475 OA
ATOM     13  C   UNL A   1      44.362  24.009  31.057  1.00  0.00     0.032 A 
ATOM     14  C   UNL A   1      45.160  26.445  30.153  1.00  0.00     0.135 A 
ATOM     15  C   UNL A   1      44.662  24.602  32.277  1.00  0.00     0.042 A 
ATOM     16  C   UNL A   1      45.314  26.990  31.462  1.00  0.00     0.026 A 
ATOM     17  Cl  UNL A   1      44.430  23.639  33.700  1.00  0.00    -0.084 Cl
ATOM     18  C   UNL A   1      45.141  25.956  32.450  1.00  0.00     0.033 A 
BRANCH  10  19
ATOM     19  C   UNL A   1      44.921  26.540  25.513  1.00  0.00     0.430 C 
ATOM     20  F   UNL A   1      44.462  27.787  25.286  1.00  0.00    -0.167 F 
ATOM     21  F   UNL A   1      45.831  26.333  24.512  1.00  0.00    -0.167 F 
ATOM     22  F   UNL A   1      43.934  25.652  25.249  1.00  0.00    -0.167 F 
ENDBRANCH  10  19
BRANCH  16  23
ATOM     23  C   UNL A   1      45.610  28.482  31.993  1.00  0.00    -0.014 A 
ATOM     24  C   UNL A   1      43.987  29.150  32.449  1.00  0.00     0.012 A 
ATOM     25  C   UNL A   1      47.222  29.556  32.641  1.00  0.00     0.012 A 
ATOM     26  C   UNL A   1      43.898  30.618  33.425  1.00  0.00     0.047 A 
ATOM     27  C   UNL A   1      46.966  31.029  33.637  1.00  0.00     0.047 A 
ATOM     28  C   UNL A   1      45.329  31.495  33.986  1.00  0.00     0.115 A 
BRANCH  28  29
ATOM     29  O   UNL A   1      45.123  32.640  34.704  1.00  0.00    -0.508 OA
ATOM     30  H   UNL A   1      45.526  32.746  35.543  1.00  0.00     0.293 HD
ENDBRANCH  28  29
ENDBRANCH  16  23
ENDBRANCH   6   8
ENDBRANCH   5   6
ENDBRANCH   4   5
ENDBRANCH   3   4
ENDBRANCH   2   3
ENDBRANCH   1   2
BRANCH   1  31
ATOM     31  C   UNL A   1      41.271  22.884  26.908  1.00  0.00     0.261 C 
BRANCH  31  32
ATOM     32  O   UNL A   1      41.479  24.111  26.256  1.00  0.00    -0.460 OA
BRANCH  32  33
ATOM     33  C   UNL A   1      40.487  24.988  26.493  1.00  0.00     0.338 C 
ATOM     34  O   UNL A   1      39.284  24.855  26.377  1.00  0.00    -0.246 OA
BRANCH  33  35
ATOM     35  C   UNL A   1      41.155  26.152  27.013  1.00  0.00     0.060 A 
ATOM     36  C   UNL A   1      41.699  26.191  28.702  1.00  0.00     0.016 A 
ATOM     37  C   UNL A   1      41.269  27.665  26.024  1.00  0.00     0.016 A 
ATOM     38  C   UNL A   1      42.315  27.676  29.486  1.00  0.00     0.010 A 
ATOM     39  C   UNL A   1      41.995  29.310  26.958  1.00  0.00     0.010 A 
ATOM     40  C   UNL A   1      42.467  29.222  28.671  1.00  0.00    -0.014 A 
BRANCH  40  41
ATOM     41  C   UNL A   1      42.704  30.559  29.292  1.00  0.00     0.031 A 
ATOM     42  C   UNL A   1      44.112  31.109  29.455  1.00  0.00     0.074 A 
ATOM     43  C   UNL A   1      41.727  31.071  30.063  1.00  0.00     0.049 A 
ATOM     44  N   UNL A   1      44.537  32.128  30.165  1.00  0.00    -0.248 NA
ATOM     45  C   UNL A   1      45.198  30.383  28.781  1.00  0.00     0.031 C 
ATOM     46  C   UNL A   1      40.386  30.505  30.199  1.00  0.00     0.029 A 
ATOM     47  N   UNL A   1      41.736  32.117  30.956  1.00  0.00    -0.354 N 
ATOM     48  C   UNL A   1      45.929  32.138  30.051  1.00  0.00     0.074 A 
ATOM     49  C   UNL A   1      46.282  30.994  29.244  1.00  0.00     0.031 C 
ATOM     50  C   UNL A   1      39.716  31.176  31.147  1.00  0.00     0.029 A 
ATOM     51  C   UNL A   1      40.577  32.219  31.692  1.00  0.00     0.049 A 
ATOM     52  H   UNL A   1      42.498  32.731  31.060  1.00  0.00     0.167 HD
ATOM     53  C   UNL A   1      46.829  33.031  30.538  1.00  0.00     0.034 A 
ATOM     54  C   UNL A   1      40.242  33.048  32.700  1.00  0.00     0.034 A 
ATOM     55  C   UNL A   1      46.468  34.180  31.326  1.00  0.00     0.049 A 
ATOM     56  C   UNL A   1      41.219  34.104  33.141  1.00  0.00     0.074 A 
ATOM     57  C   UNL A   1      47.257  35.254  31.704  1.00  0.00     0.029 A 
ATOM     58  N   UNL A   1      45.221  34.385  31.891  1.00  0.00    -0.354 N 
ATOM     59  N   UNL A   1      42.460  34.291  32.765  1.00  0.00    -0.248 NA
ATOM     60  C   UNL A   1      40.727  35.105  34.100  1.00  0.00     0.031 C 
ATOM     61  C   UNL A   1      46.497  36.086  32.533  1.00  0.00     0.029 A 
ATOM     62  C   UNL A   1      45.222  35.554  32.631  1.00  0.00     0.049 A 
ATOM     63  H   UNL A   1      44.447  33.787  31.781  1.00  0.00     0.167 HD
ATOM     64  C   UNL A   1      42.877  35.456  33.399  1.00  0.00     0.074 A 
ATOM     65  C   UNL A   1      41.752  35.942  34.166  1.00  0.00     0.031 C 
ATOM     66  C   UNL A   1      44.089  36.063  33.356  1.00  0.00     0.034 A 
BRANCH  53  67
ATOM     67  C   UNL A   1      48.288  32.886  30.155  1.00  0.00     0.023 A 
ATOM     68  C   UNL A   1      49.150  32.162  31.006  1.00  0.00     0.012 A 
ATOM     69  C   UNL A   1      48.777  33.328  28.906  1.00  0.00     0.148 A 
ATOM     70  C   UNL A   1      50.472  31.908  30.643  1.00  0.00     0.002 A 
ATOM     71  C   UNL A   1      50.085  33.031  28.529  1.00  0.00     0.091 A 
ATOM     72  F   UNL A   1      47.952  34.014  28.103  1.00  0.00    -0.205 F 
ATOM     73  C   UNL A   1      50.935  32.331  29.401  1.00  0.00     0.022 A 
BRANCH  71  74
ATOM     74  S   UNL A   1      50.766  33.452  26.920  1.00  0.00     0.127 S 
ATOM     75  O   UNL A   1      49.867  32.729  26.022  1.00  0.00    -0.237 OA
ATOM     76  O   UNL A   1      50.612  34.907  26.894  1.00  0.00    -0.237 OA
ATOM     77  O   UNL A   1      52.144  32.980  26.927  1.00  0.00    -0.744 OA
ENDBRANCH  71  74
ENDBRANCH  53  67
BRANCH  54  78
ATOM     78  C   UNL A   1      38.872  32.997  33.284  1.00  0.00     0.023 A 
ATOM     79  C   UNL A   1      38.668  32.262  34.468  1.00  0.00     0.012 A 
ATOM     80  C   UNL A   1      37.782  33.663  32.691  1.00  0.00     0.148 A 
ATOM     81  C   UNL A   1      37.395  32.133  35.018  1.00  0.00     0.002 A 
ATOM     82  C   UNL A   1      36.523  33.575  33.275  1.00  0.00     0.091 A 
ATOM     83  F   UNL A   1      37.999  34.371  31.575  1.00  0.00    -0.205 F 
ATOM     84  C   UNL A   1      36.323  32.792  34.425  1.00  0.00     0.022 A 
BRANCH  82  85
ATOM     85  S   UNL A   1      35.101  34.482  32.659  1.00  0.00     0.127 S 
ATOM     86  O   UNL A   1      33.998  33.798  33.328  1.00  0.00    -0.237 OA
ATOM     87  O   UNL A   1      35.374  35.835  33.146  1.00  0.00    -0.237 OA
ATOM     88  O   UNL A   1      35.144  34.344  31.209  1.00  0.00    -0.744 OA
ENDBRANCH  82  85
ENDBRANCH  54  78
BRANCH  66  89
ATOM     89  C   UNL A   1      44.258  37.353  34.116  1.00  0.00     0.023 A 
ATOM     90  C   UNL A   1      44.814  37.345  35.411  1.00  0.00     0.012 A 
ATOM     91  C   UNL A   1      43.919  38.583  33.517  1.00  0.00     0.148 A 
ATOM     92  C   UNL A   1      44.991  38.537  36.112  1.00  0.00     0.002 A 
ATOM     93  C   UNL A   1      44.152  39.770  34.199  1.00  0.00     0.091 A 
ATOM     94  F   UNL A   1      43.377  38.569  32.290  1.00  0.00    -0.205 F 
ATOM     95  C   UNL A   1      44.672  39.747  35.504  1.00  0.00     0.022 A 
BRANCH  93  96
ATOM     96  S   UNL A   1      43.866  41.381  33.461  1.00  0.00     0.127 S 
ATOM     97  O   UNL A   1      44.268  42.280  34.543  1.00  0.00    -0.237 OA
ATOM     98  O   UNL A   1      44.775  41.360  32.315  1.00  0.00    -0.237 OA
ATOM     99  O   UNL A   1      42.452  41.422  33.114  1.00  0.00    -0.744 OA
ENDBRANCH  93  96
ENDBRANCH  66  89
ENDBRANCH  40  41
ENDBRANCH  33  35
ENDBRANCH  32  33
ENDBRANCH  31  32
ENDBRANCH   1  31
TORSDOF 20
ENDMDL
MODEL 2
REMARK VINA RESULT:      -7.9      5.533      8.389
REMARK SMILES O=C(OCCOCCOC(=O)c1ccc(-c2c3nc(c(-c4cccc(S(=O)(=O)[O-])c4F)c4ccc([nH]4)c(-c4cccc(S(=O)(=O)[O-])c4F)c4nc(c(-c5cccc(S(=O)(=O)[O-])c5F)c5ccc2[nH]5)C=C4)C=C3)cc1)C1=Cc2cc(Cl)cc(-c3ccc(O)cc3)c2O[C@@H]1C(F)(F)F
REMARK SMILES IDX 7 1 6 2 5 3 4 4 3 5 2 6 1 7 75 8 76 9 92 10 77 11 91 12
REMARK SMILES IDX 78 13 90 14 79 15 82 16 80 17 81 18 93 19 94 20 95 21 96 22
REMARK SMILES IDX 83 23 84 24 89 25 85 26 88 27 86 28 87 29 8 31 9 32 10 33
REMARK SMILES IDX 11 34 12 35 13 36 74 37 14 38 73 39 15 40 16 41 17 42 67 43
REMARK SMILES IDX 18 44 72 45 66 46 68 47 19 48 71 49 65 50 64 51 20 53 52 54
REMARK SMILES IDX 32 55 51 56 33 57 36 58 50 59 69 60 34 61 35 62 49 64 70 65
REMARK SMILES IDX 37 66 21 67 22 68 30 69 23 70 25 71 31 72 24 73 26 74 27 75
REMARK SMILES IDX 28 76 29 77 53 78 54 79 62 80 55 81 57 82 63 83 56 84 58 85
REMARK SMILES IDX 59 86 60 87 61 88 38 89 39 90 47 91 40 92 42 93 48 94 41 95
REMARK SMILES IDX 43 96 44 97 45 98 46 99
REMARK H PARENT 87 30 68 52 36 63
REMARK Flexibility Score: inf
ROOT
ATOM      1  C   UNL A   1      40.798  21.802  27.605  1.00  0.00     0.202 C 
ENDROOT
BRANCH   1   2
ATOM      2  O   UNL A   1      40.177  23.110  27.690  1.00  0.00    -0.374 OA
BRANCH   2   3
ATOM      3  C   UNL A   1      39.254  23.981  26.652  1.00  0.00     0.202 C 
BRANCH   3   4
ATOM      4  C   UNL A   1      37.952  23.306  25.045  1.00  0.00     0.261 C 
BRANCH   4   5
ATOM      5  O   UNL A   1      36.607  24.014  24.611  1.00  0.00    -0.460 OA
BRANCH   5   6
ATOM      6  C   UNL A   1      35.784  23.228  23.909  1.00  0.00     0.338 C 
ATOM      7  O   UNL A   1      35.817  22.849  22.767  1.00  0.00    -0.246 OA
BRANCH   6   8
ATOM      8  C   UNL A   1      34.735  23.262  24.889  1.00  0.00     0.087 C 
ATOM      9  C   UNL A   1      34.892  24.430  25.762  1.00  0.00     0.027 C 
ATOM     10  C   UNL A   1      33.237  22.961  23.697  1.00  0.00     0.316 C 
ATOM     11  C   UNL A   1      33.801  25.866  25.704  1.00  0.00     0.019 A 
ATOM     12  O   UNL A   1      32.050  24.508  23.628  1.00  0.00    -0.475 OA
ATOM     13  C   UNL A   1      34.261  26.960  26.386  1.00  0.00     0.032 A 
ATOM     14  C   UNL A   1      32.422  25.996  24.632  1.00  0.00     0.135 A 
ATOM     15  C   UNL A   1      33.608  28.149  26.086  1.00  0.00     0.042 A 
ATOM     16  C   UNL A   1      31.750  27.246  24.497  1.00  0.00     0.026 A 
ATOM     17  Cl  UNL A   1      34.184  29.584  26.869  1.00  0.00    -0.084 Cl
ATOM     18  C   UNL A   1      32.485  28.278  25.183  1.00  0.00     0.033 A 
BRANCH  10  19
ATOM     19  C   UNL A   1      33.031  21.420  24.094  1.00  0.00     0.430 C 
ATOM     20  F   UNL A   1      34.128  20.804  24.580  1.00  0.00    -0.167 F 
ATOM     21  F   UNL A   1      32.133  21.363  25.124  1.00  0.00    -0.167 F 
ATOM     22  F   UNL A   1      32.479  20.643  23.133  1.00  0.00    -0.167 F 
ENDBRANCH  10  19
BRANCH  16  23
ATOM     23  C   UNL A   1      30.377  27.672  23.768  1.00  0.00    -0.014 A 
ATOM     24  C   UNL A   1      29.161  26.434  24.295  1.00  0.00     0.012 A 
ATOM     25  C   UNL A   1      29.612  29.328  22.850  1.00  0.00     0.012 A 
ATOM     26  C   UNL A   1      27.443  26.739  24.027  1.00  0.00     0.047 A 
ATOM     27  C   UNL A   1      27.834  29.498  22.660  1.00  0.00     0.047 A 
ATOM     28  C   UNL A   1      26.831  28.207  23.252  1.00  0.00     0.115 A 
BRANCH  28  29
ATOM     29  O   UNL A   1      25.480  28.306  23.071  1.00  0.00    -0.508 OA
ATOM     30  H   UNL A   1      24.988  27.560  22.789  1.00  0.00     0.293 HD
ENDBRANCH  28  29
ENDBRANCH  16  23
ENDBRANCH   6   8
ENDBRANCH   5   6
ENDBRANCH   4   5
ENDBRANCH   3   4
ENDBRANCH   2   3
ENDBRANCH   1   2
BRANCH   1  31
ATOM     31  C   UNL A   1      41.428  21.424  26.266  1.00  0.00     0.261 C 
BRANCH  31  32
ATOM     32  O   UNL A   1      42.088  22.542  25.731  1.00  0.00    -0.460 OA
BRANCH  32  33
ATOM     33  C   UNL A   1      43.415  22.502  25.946  1.00  0.00     0.338 C 
ATOM     34  O   UNL A   1      44.185  21.563  25.897  1.00  0.00    -0.246 OA
BRANCH  33  35
ATOM     35  C   UNL A   1      43.781  23.873  26.183  1.00  0.00     0.060 A 
ATOM     36  C   UNL A   1      44.260  24.402  27.809  1.00  0.00     0.016 A 
ATOM     37  C   UNL A   1      43.564  25.120  24.888  1.00  0.00     0.016 A 
ATOM     38  C   UNL A   1      44.494  26.123  28.236  1.00  0.00     0.010 A 
ATOM     39  C   UNL A   1      43.865  27.050  25.424  1.00  0.00     0.010 A 
ATOM     40  C   UNL A   1      44.303  27.448  27.102  1.00  0.00    -0.014 A 
BRANCH  40  41
ATOM     41  C   UNL A   1      44.208  28.906  27.412  1.00  0.00     0.031 A 
ATOM     42  C   UNL A   1      45.442  29.794  27.388  1.00  0.00     0.074 A 
ATOM     43  C   UNL A   1      43.132  29.327  28.102  1.00  0.00     0.049 A 
ATOM     44  N   UNL A   1      45.605  31.014  27.845  1.00  0.00    -0.248 NA
ATOM     45  C   UNL A   1      46.674  29.216  26.834  1.00  0.00     0.031 C 
ATOM     46  C   UNL A   1      41.966  28.505  28.418  1.00  0.00     0.029 A 
ATOM     47  N   UNL A   1      42.884  30.515  28.750  1.00  0.00    -0.354 N 
ATOM     48  C   UNL A   1      46.954  31.327  27.666  1.00  0.00     0.074 A 
ATOM     49  C   UNL A   1      47.576  30.151  27.105  1.00  0.00     0.031 C 
ATOM     50  C   UNL A   1      41.148  29.189  29.232  1.00  0.00     0.029 A 
ATOM     51  C   UNL A   1      41.730  30.498  29.501  1.00  0.00     0.049 A 
ATOM     52  H   UNL A   1      43.475  31.299  28.685  1.00  0.00     0.167 HD
ATOM     53  C   UNL A   1      47.610  32.492  27.908  1.00  0.00     0.034 A 
ATOM     54  C   UNL A   1      41.200  31.424  30.324  1.00  0.00     0.034 A 
ATOM     55  C   UNL A   1      46.978  33.666  28.450  1.00  0.00     0.049 A 
ATOM     56  C   UNL A   1      41.892  32.751  30.484  1.00  0.00     0.074 A 
ATOM     57  C   UNL A   1      47.484  34.952  28.553  1.00  0.00     0.029 A 
ATOM     58  N   UNL A   1      45.716  33.689  29.016  1.00  0.00    -0.354 N 
ATOM     59  N   UNL A   1      43.053  33.139  30.019  1.00  0.00    -0.248 NA
ATOM     60  C   UNL A   1      41.167  33.791  31.230  1.00  0.00     0.031 C 
ATOM     61  C   UNL A   1      46.541  35.741  29.222  1.00  0.00     0.029 A 
ATOM     62  C   UNL A   1      45.431  34.958  29.490  1.00  0.00     0.049 A 
ATOM     63  H   UNL A   1      45.109  32.916  29.073  1.00  0.00     0.167 HD
ATOM     64  C   UNL A   1      43.174  34.478  30.370  1.00  0.00     0.074 A 
ATOM     65  C   UNL A   1      41.961  34.841  31.069  1.00  0.00     0.031 C 
ATOM     66  C   UNL A   1      44.204  35.330  30.142  1.00  0.00     0.034 A 
BRANCH  53  67
ATOM     67  C   UNL A   1      49.063  32.615  27.497  1.00  0.00     0.023 A 
ATOM     68  C   UNL A   1      49.376  33.237  26.270  1.00  0.00     0.012 A 
ATOM     69  C   UNL A   1      50.116  32.257  28.367  1.00  0.00     0.148 A 
ATOM     70  C   UNL A   1      50.700  33.472  25.900  1.00  0.00     0.002 A 
ATOM     71  C   UNL A   1      51.434  32.536  28.013  1.00  0.00     0.091 A 
ATOM     72  F   UNL A   1      49.810  31.667  29.531  1.00  0.00    -0.205 F 
ATOM     73  C   UNL A   1      51.727  33.133  26.776  1.00  0.00     0.022 A 
BRANCH  71  74
ATOM     74  S   UNL A   1      52.833  32.220  29.095  1.00  0.00     0.127 S 
ATOM     75  O   UNL A   1      53.910  32.919  28.395  1.00  0.00    -0.237 OA
ATOM     76  O   UNL A   1      52.405  32.855  30.342  1.00  0.00    -0.237 OA
ATOM     77  O   UNL A   1      52.977  30.772  29.162  1.00  0.00    -0.744 OA
ENDBRANCH  71  74
ENDBRANCH  53  67
BRANCH  54  78
ATOM     78  C   UNL A   1      39.879  31.180  30.970  1.00  0.00     0.023 A 
ATOM     79  C   UNL A   1      39.836  30.423  32.156  1.00  0.00     0.012 A 
ATOM     80  C   UNL A   1      38.680  31.685  30.431  1.00  0.00     0.148 A 
ATOM     81  C   UNL A   1      38.620  30.116  32.763  1.00  0.00     0.002 A 
ATOM     82  C   UNL A   1      37.474  31.420  31.071  1.00  0.00     0.091 A 
ATOM     83  F   UNL A   1      38.744  32.417  29.311  1.00  0.00    -0.205 F 
ATOM     84  C   UNL A   1      37.440  30.617  32.223  1.00  0.00     0.022 A 
BRANCH  82  85
ATOM     85  S   UNL A   1      35.911  32.117  30.525  1.00  0.00     0.127 S 
ATOM     86  O   UNL A   1      35.556  31.226  29.424  1.00  0.00    -0.237 OA
ATOM     87  O   UNL A   1      35.085  31.975  31.725  1.00  0.00    -0.237 OA
ATOM     88  O   UNL A   1      36.203  33.495  30.155  1.00  0.00    -0.744 OA
ENDBRANCH  82  85
ENDBRANCH  54  78
BRANCH  66  89
ATOM     89  C   UNL A   1      44.054  36.757  30.602  1.00  0.00     0.023 A 
ATOM     90  C   UNL A   1      44.394  37.116  31.921  1.00  0.00     0.012 A 
ATOM     91  C   UNL A   1      43.630  37.755  29.700  1.00  0.00     0.148 A 
ATOM     92  C   UNL A   1      44.275  38.439  32.347  1.00  0.00     0.002 A 
ATOM     93  C   UNL A   1      43.570  39.079  30.116  1.00  0.00     0.091 A 
ATOM     94  F   UNL A   1      43.297  37.391  28.454  1.00  0.00    -0.205 F 
ATOM     95  C   UNL A   1      43.876  39.420  31.444  1.00  0.00     0.022 A 
BRANCH  93  96
ATOM     96  S   UNL A   1      43.163  40.425  29.000  1.00  0.00     0.127 S 
ATOM     97  O   UNL A   1      44.142  40.232  27.931  1.00  0.00    -0.237 OA
ATOM     98  O   UNL A   1      41.783  40.109  28.628  1.00  0.00    -0.237 OA
ATOM     99  O   UNL A   1      43.318  41.651  29.770  1.00  0.00    -0.744 OA
ENDBRANCH  93  96
ENDBRANCH  66  89
ENDBRANCH  40  41
ENDBRANCH  33  35
ENDBRANCH  32  33
ENDBRANCH  31  32
ENDBRANCH   1  31
TORSDOF 20
ENDMDL
MODEL 3
REMARK VINA RESULT:      -7.9      3.967     10.974
REMARK SMILES O=C(OCCOCCOC(=O)c1ccc(-c2c3nc(c(-c4cccc(S(=O)(=O)[O-])c4F)c4ccc([nH]4)c(-c4cccc(S(=O)(=O)[O-])c4F)c4nc(c(-c5cccc(S(=O)(=O)[O-])c5F)c5ccc2[nH]5)C=C4)C=C3)cc1)C1=Cc2cc(Cl)cc(-c3ccc(O)cc3)c2O[C@@H]1C(F)(F)F
REMARK SMILES IDX 7 1 6 2 5 3 4 4 3 5 2 6 1 7 75 8 76 9 92 10 77 11 91 12
REMARK SMILES IDX 78 13 90 14 79 15 82 16 80 17 81 18 93 19 94 20 95 21 96 22
REMARK SMILES IDX 83 23 84 24 89 25 85 26 88 27 86 28 87 29 8 31 9 32 10 33
REMARK SMILES IDX 11 34 12 35 13 36 74 37 14 38 73 39 15 40 16 41 17 42 67 43
REMARK SMILES IDX 18 44 72 45 66 46 68 47 19 48 71 49 65 50 64 51 20 53 52 54
REMARK SMILES IDX 32 55 51 56 33 57 36 58 50 59 69 60 34 61 35 62 49 64 70 65
REMARK SMILES IDX 37 66 21 67 22 68 30 69 23 70 25 71 31 72 24 73 26 74 27 75
REMARK SMILES IDX 28 76 29 77 53 78 54 79 62 80 55 81 57 82 63 83 56 84 58 85
REMARK SMILES IDX 59 86 60 87 61 88 38 89 39 90 47 91 40 92 42 93 48 94 41 95
REMARK SMILES IDX 43 96 44 97 45 98 46 99
REMARK H PARENT 87 30 68 52 36 63
REMARK Flexibility Score: inf
ROOT
ATOM      1  C   UNL A   1      34.597  33.811  29.471  1.00  0.00     0.202 C 
ENDROOT
BRANCH   1   2
ATOM      2  O   UNL A   1      34.686  32.977  30.655  1.00  0.00    -0.374 OA
BRANCH   2   3
ATOM      3  C   UNL A   1      34.915  33.309  32.244  1.00  0.00     0.202 C 
BRANCH   3   4
ATOM      4  C   UNL A   1      35.782  35.069  33.187  1.00  0.00     0.261 C 
BRANCH   4   5
ATOM      5  O   UNL A   1      37.080  35.066  34.089  1.00  0.00    -0.460 OA
BRANCH   5   6
ATOM      6  C   UNL A   1      38.090  34.354  33.579  1.00  0.00     0.338 C 
ATOM      7  O   UNL A   1      38.549  34.293  32.468  1.00  0.00    -0.246 OA
BRANCH   6   8
ATOM      8  C   UNL A   1      38.211  33.497  34.725  1.00  0.00     0.087 C 
ATOM      9  C   UNL A   1      37.755  32.142  34.398  1.00  0.00     0.027 C 
ATOM     10  C   UNL A   1      40.023  33.967  35.228  1.00  0.00     0.316 C 
ATOM     11  C   UNL A   1      38.871  30.735  34.221  1.00  0.00     0.019 A 
ATOM     12  O   UNL A   1      41.238  32.452  35.041  1.00  0.00    -0.475 OA
ATOM     13  C   UNL A   1      38.307  29.628  33.648  1.00  0.00     0.032 A 
ATOM     14  C   UNL A   1      40.604  30.833  34.461  1.00  0.00     0.135 A 
ATOM     15  C   UNL A   1      39.215  28.671  33.214  1.00  0.00     0.042 A 
ATOM     16  C   UNL A   1      41.429  29.732  34.088  1.00  0.00     0.026 A 
ATOM     17  Cl  UNL A   1      38.568  27.272  32.421  1.00  0.00    -0.084 Cl
ATOM     18  C   UNL A   1      40.650  28.748  33.380  1.00  0.00     0.033 A 
BRANCH  10  19
ATOM     19  C   UNL A   1      39.603  34.908  36.458  1.00  0.00     0.430 C 
ATOM     20  F   UNL A   1      40.527  35.021  37.433  1.00  0.00    -0.167 F 
ATOM     21  F   UNL A   1      39.459  36.185  35.985  1.00  0.00    -0.167 F 
ATOM     22  F   UNL A   1      38.403  34.629  37.018  1.00  0.00    -0.167 F 
ENDBRANCH  10  19
BRANCH  16  23
ATOM     23  C   UNL A   1      42.990  29.410  34.328  1.00  0.00    -0.014 A 
ATOM     24  C   UNL A   1      43.344  30.020  35.999  1.00  0.00     0.012 A 
ATOM     25  C   UNL A   1      44.424  28.214  33.501  1.00  0.00     0.012 A 
ATOM     26  C   UNL A   1      44.839  29.532  36.800  1.00  0.00     0.047 A 
ATOM     27  C   UNL A   1      45.891  27.799  34.451  1.00  0.00     0.047 A 
ATOM     28  C   UNL A   1      46.036  28.468  36.048  1.00  0.00     0.115 A 
BRANCH  28  29
ATOM     29  O   UNL A   1      47.170  28.195  36.761  1.00  0.00    -0.508 OA
ATOM     30  H   UNL A   1      47.914  28.761  36.696  1.00  0.00     0.293 HD
ENDBRANCH  28  29
ENDBRANCH  16  23
ENDBRANCH   6   8
ENDBRANCH   5   6
ENDBRANCH   4   5
ENDBRANCH   3   4
ENDBRANCH   2   3
ENDBRANCH   1   2
BRANCH   1  31
ATOM     31  C   UNL A   1      33.946  33.189  28.237  1.00  0.00     0.261 C 
BRANCH  31  32
ATOM     32  O   UNL A   1      34.875  32.355  27.593  1.00  0.00    -0.460 OA
BRANCH  32  33
ATOM     33  C   UNL A   1      34.496  31.065  27.607  1.00  0.00     0.338 C 
ATOM     34  O   UNL A   1      33.427  30.563  27.320  1.00  0.00    -0.246 OA
BRANCH  33  35
ATOM     35  C   UNL A   1      35.688  30.345  27.972  1.00  0.00     0.060 A 
ATOM     36  C   UNL A   1      35.942  29.831  29.651  1.00  0.00     0.016 A 
ATOM     37  C   UNL A   1      37.035  30.133  26.780  1.00  0.00     0.016 A 
ATOM     38  C   UNL A   1      37.492  29.150  30.230  1.00  0.00     0.010 A 
ATOM     39  C   UNL A   1      38.758  29.337  27.488  1.00  0.00     0.010 A 
ATOM     40  C   UNL A   1      38.895  28.900  29.207  1.00  0.00    -0.014 A 
BRANCH  40  41
ATOM     41  C   UNL A   1      40.293  28.604  29.636  1.00  0.00     0.031 A 
ATOM     42  C   UNL A   1      41.239  29.720  30.053  1.00  0.00     0.074 A 
ATOM     43  C   UNL A   1      40.825  27.425  29.261  1.00  0.00     0.049 A 
ATOM     44  N   UNL A   1      42.539  29.693  30.233  1.00  0.00    -0.248 NA
ATOM     45  C   UNL A   1      40.659  31.059  30.230  1.00  0.00     0.031 C 
ATOM     46  C   UNL A   1      40.084  26.341  28.618  1.00  0.00     0.029 A 
ATOM     47  N   UNL A   1      42.125  26.978  29.268  1.00  0.00    -0.354 N 
ATOM     48  C   UNL A   1      42.928  31.005  30.506  1.00  0.00     0.074 A 
ATOM     49  C   UNL A   1      41.734  31.814  30.419  1.00  0.00     0.031 C 
ATOM     50  C   UNL A   1      40.940  25.375  28.254  1.00  0.00     0.029 A 
ATOM     51  C   UNL A   1      42.292  25.769  28.631  1.00  0.00     0.049 A 
ATOM     52  H   UNL A   1      42.864  27.475  29.687  1.00  0.00     0.167 HD
ATOM     53  C   UNL A   1      44.153  31.492  30.836  1.00  0.00     0.034 A 
ATOM     54  C   UNL A   1      43.405  25.058  28.367  1.00  0.00     0.034 A 
ATOM     55  C   UNL A   1      45.335  30.678  30.940  1.00  0.00     0.049 A 
ATOM     56  C   UNL A   1      44.738  25.569  28.845  1.00  0.00     0.074 A 
ATOM     57  C   UNL A   1      46.577  31.015  31.454  1.00  0.00     0.029 A 
ATOM     58  N   UNL A   1      45.432  29.374  30.486  1.00  0.00    -0.354 N 
ATOM     59  N   UNL A   1      45.029  26.714  29.410  1.00  0.00    -0.248 NA
ATOM     60  C   UNL A   1      45.885  24.659  28.709  1.00  0.00     0.031 C 
ATOM     61  C   UNL A   1      47.436  29.926  31.270  1.00  0.00     0.029 A 
ATOM     62  C   UNL A   1      46.716  28.897  30.687  1.00  0.00     0.049 A 
ATOM     63  H   UNL A   1      44.696  28.861  30.081  1.00  0.00     0.167 HD
ATOM     64  C   UNL A   1      46.377  26.641  29.742  1.00  0.00     0.074 A 
ATOM     65  C   UNL A   1      46.840  25.333  29.334  1.00  0.00     0.031 C 
ATOM     66  C   UNL A   1      47.164  27.579  30.324  1.00  0.00     0.034 A 
BRANCH  53  67
ATOM     67  C   UNL A   1      44.283  32.953  31.219  1.00  0.00     0.023 A 
ATOM     68  C   UNL A   1      44.410  33.919  30.198  1.00  0.00     0.012 A 
ATOM     69  C   UNL A   1      44.137  33.388  32.554  1.00  0.00     0.148 A 
ATOM     70  C   UNL A   1      44.422  35.282  30.496  1.00  0.00     0.002 A 
ATOM     71  C   UNL A   1      44.104  34.751  32.840  1.00  0.00     0.091 A 
ATOM     72  F   UNL A   1      44.016  32.464  33.518  1.00  0.00    -0.205 F 
ATOM     73  C   UNL A   1      44.256  35.697  31.814  1.00  0.00     0.022 A 
BRANCH  71  74
ATOM     74  S   UNL A   1      43.813  35.405  34.489  1.00  0.00     0.127 S 
ATOM     75  O   UNL A   1      43.861  34.189  35.300  1.00  0.00    -0.237 OA
ATOM     76  O   UNL A   1      44.955  36.302  34.668  1.00  0.00    -0.237 OA
ATOM     77  O   UNL A   1      42.516  36.064  34.441  1.00  0.00    -0.744 OA
ENDBRANCH  71  74
ENDBRANCH  53  67
BRANCH  54  78
ATOM     78  C   UNL A   1      43.300  23.720  27.717  1.00  0.00     0.023 A 
ATOM     79  C   UNL A   1      42.517  22.727  28.336  1.00  0.00     0.012 A 
ATOM     80  C   UNL A   1      43.957  23.425  26.507  1.00  0.00     0.148 A 
ATOM     81  C   UNL A   1      42.438  21.444  27.801  1.00  0.00     0.002 A 
ATOM     82  C   UNL A   1      43.830  22.157  25.948  1.00  0.00     0.091 A 
ATOM     83  F   UNL A   1      44.683  24.388  25.925  1.00  0.00    -0.205 F 
ATOM     84  C   UNL A   1      43.091  21.160  26.605  1.00  0.00     0.022 A 
BRANCH  82  85
ATOM     85  S   UNL A   1      44.532  21.724  24.353  1.00  0.00     0.127 S 
ATOM     86  O   UNL A   1      44.232  20.297  24.273  1.00  0.00    -0.237 OA
ATOM     87  O   UNL A   1      43.757  22.570  23.445  1.00  0.00    -0.237 OA
ATOM     88  O   UNL A   1      45.945  22.070  24.438  1.00  0.00    -0.744 OA
ENDBRANCH  82  85
ENDBRANCH  54  78
BRANCH  66  89
ATOM     89  C   UNL A   1      48.598  27.217  30.610  1.00  0.00     0.023 A 
ATOM     90  C   UNL A   1      49.623  27.642  29.741  1.00  0.00     0.012 A 
ATOM     91  C   UNL A   1      48.935  26.505  31.779  1.00  0.00     0.148 A 
ATOM     92  C   UNL A   1      50.954  27.327  30.009  1.00  0.00     0.002 A 
ATOM     93  C   UNL A   1      50.268  26.245  32.069  1.00  0.00     0.091 A 
ATOM     94  F   UNL A   1      47.944  26.097  32.586  1.00  0.00    -0.205 F 
ATOM     95  C   UNL A   1      51.278  26.641  31.176  1.00  0.00     0.022 A 
BRANCH  93  96
ATOM     96  S   UNL A   1      50.789  25.455  33.594  1.00  0.00     0.127 S 
ATOM     97  O   UNL A   1      50.250  26.369  34.601  1.00  0.00    -0.237 OA
ATOM     98  O   UNL A   1      50.111  24.161  33.518  1.00  0.00    -0.237 OA
ATOM     99  O   UNL A   1      52.243  25.384  33.538  1.00  0.00    -0.744 OA
ENDBRANCH  93  96
ENDBRANCH  66  89
ENDBRANCH  40  41
ENDBRANCH  33  35
ENDBRANCH  32  33
ENDBRANCH  31  32
ENDBRANCH   1  31
TORSDOF 20
ENDMDL
