MODEL 1
REMARK VINA RESULT:     -12.3      0.000      0.000
REMARK SMILES O=C(OCCOCCOC(=O)c1cc(Br)cc2c1N[C@H](c1cccc([N+](=O)[O-])c1)[C@H]1CC=C[C@H]21)c1ccc(-c2c3nc(c(-c4cccc(S(=O)(=O)[O-])c4F)c4ccc([nH]4)c(-c4cccc(S(=O)(=O)[O-])c4F)c4nc(c(-c5cccc(S(=O)(=O)[O-])c5F)c5ccc2[nH]5)C=C4)C=C3)cc1
REMARK SMILES IDX 5 1 4 2 3 3 2 4 1 5 35 6 36 7 97 8 37 9 96 10 38 11 39 12
REMARK SMILES IDX 40 13 90 14 41 15 95 16 89 17 91 18 42 19 94 20 88 21 87 22
REMARK SMILES IDX 43 24 75 25 55 26 74 27 56 28 59 29 73 30 92 31 57 32 58 33
REMARK SMILES IDX 72 35 93 36 60 37 44 38 45 39 53 40 46 41 48 42 54 43 47 44
REMARK SMILES IDX 49 45 50 46 51 47 52 48 76 49 77 50 85 51 78 52 80 53 86 54
REMARK SMILES IDX 79 55 81 56 82 57 83 58 84 59 61 60 62 61 70 62 63 63 65 64
REMARK SMILES IDX 71 65 64 66 66 67 67 68 68 69 69 70 6 71 7 72 8 73 9 74
REMARK SMILES IDX 10 75 11 76 12 77 13 78 18 79 14 80 17 81 19 82 15 83 16 84
REMARK SMILES IDX 34 85 20 86 30 88 33 89 31 90 32 91 21 92 22 93 29 94 23 95
REMARK SMILES IDX 25 96 24 97 26 98 27 99 28 100
REMARK H PARENT 91 23 59 34 19 87
REMARK Flexibility Score: inf
ROOT
ATOM      1  C   UNL A   1      33.076  31.984  27.206  1.00  0.00     0.202 C 
ENDROOT
BRANCH   1   2
ATOM      2  C   UNL A   1      32.220  33.245  27.115  1.00  0.00     0.261 C 
BRANCH   2   3
ATOM      3  O   UNL A   1      32.307  34.083  28.274  1.00  0.00    -0.460 OA
BRANCH   3   4
ATOM      4  C   UNL A   1      33.436  34.660  28.757  1.00  0.00     0.338 C 
ATOM      5  O   UNL A   1      33.600  35.869  28.608  1.00  0.00    -0.246 OA
BRANCH   4   6
ATOM      6  C   UNL A   1      34.586  33.835  29.234  1.00  0.00     0.060 A 
ATOM      7  C   UNL A   1      35.862  34.208  28.773  1.00  0.00     0.016 A 
ATOM      8  C   UNL A   1      34.486  32.731  30.084  1.00  0.00     0.016 A 
ATOM      9  C   UNL A   1      36.994  33.461  29.112  1.00  0.00     0.010 A 
ATOM     10  C   UNL A   1      35.592  31.935  30.355  1.00  0.00     0.010 A 
ATOM     11  C   UNL A   1      36.854  32.311  29.893  1.00  0.00    -0.014 A 
BRANCH  11  12
ATOM     12  C   UNL A   1      38.015  31.629  30.486  1.00  0.00     0.031 A 
ATOM     13  C   UNL A   1      38.800  30.604  29.736  1.00  0.00     0.074 A 
ATOM     14  C   UNL A   1      38.230  31.867  31.793  1.00  0.00     0.049 A 
ATOM     15  N   UNL A   1      39.876  29.973  30.122  1.00  0.00    -0.248 NA
ATOM     16  C   UNL A   1      38.323  30.223  28.397  1.00  0.00     0.031 C 
ATOM     17  C   UNL A   1      37.403  32.751  32.626  1.00  0.00     0.029 A 
ATOM     18  N   UNL A   1      39.149  31.355  32.662  1.00  0.00    -0.354 N 
ATOM     19  C   UNL A   1      40.227  29.141  29.069  1.00  0.00     0.074 A 
ATOM     20  C   UNL A   1      39.229  29.318  28.037  1.00  0.00     0.031 C 
ATOM     21  C   UNL A   1      37.824  32.679  33.894  1.00  0.00     0.029 A 
ATOM     22  C   UNL A   1      38.971  31.783  33.956  1.00  0.00     0.049 A 
ATOM     23  H   UNL A   1      39.868  30.740  32.390  1.00  0.00     0.167 HD
ATOM     24  C   UNL A   1      41.310  28.334  28.983  1.00  0.00     0.034 A 
ATOM     25  C   UNL A   1      39.675  31.504  35.066  1.00  0.00     0.034 A 
ATOM     26  C   UNL A   1      42.266  28.177  30.049  1.00  0.00     0.049 A 
ATOM     27  C   UNL A   1      40.904  30.663  34.928  1.00  0.00     0.074 A 
ATOM     28  C   UNL A   1      43.454  27.470  30.039  1.00  0.00     0.029 A 
ATOM     29  N   UNL A   1      42.129  28.718  31.318  1.00  0.00    -0.354 N 
ATOM     30  N   UNL A   1      41.355  30.056  33.857  1.00  0.00    -0.248 NA
ATOM     31  C   UNL A   1      41.752  30.511  36.115  1.00  0.00     0.031 C 
ATOM     32  C   UNL A   1      44.030  27.573  31.307  1.00  0.00     0.029 A 
ATOM     33  C   UNL A   1      43.207  28.356  32.103  1.00  0.00     0.049 A 
ATOM     34  H   UNL A   1      41.375  29.276  31.617  1.00  0.00     0.167 HD
ATOM     35  C   UNL A   1      42.556  29.473  34.229  1.00  0.00     0.074 A 
ATOM     36  C   UNL A   1      42.763  29.803  35.626  1.00  0.00     0.031 C 
ATOM     37  C   UNL A   1      43.403  28.728  33.481  1.00  0.00     0.034 A 
BRANCH  24  38
ATOM     38  C   UNL A   1      41.607  27.646  27.678  1.00  0.00     0.023 A 
ATOM     39  C   UNL A   1      41.885  28.448  26.552  1.00  0.00     0.012 A 
ATOM     40  C   UNL A   1      41.800  26.253  27.601  1.00  0.00     0.148 A 
ATOM     41  C   UNL A   1      42.355  27.877  25.370  1.00  0.00     0.002 A 
ATOM     42  C   UNL A   1      42.292  25.692  26.425  1.00  0.00     0.091 A 
ATOM     43  F   UNL A   1      41.533  25.510  28.684  1.00  0.00    -0.205 F 
ATOM     44  C   UNL A   1      42.569  26.503  25.311  1.00  0.00     0.022 A 
BRANCH  42  45
ATOM     45  S   UNL A   1      42.661  23.942  26.251  1.00  0.00     0.127 S 
ATOM     46  O   UNL A   1      43.186  23.886  24.886  1.00  0.00    -0.237 OA
ATOM     47  O   UNL A   1      43.663  23.736  27.296  1.00  0.00    -0.237 OA
ATOM     48  O   UNL A   1      41.403  23.240  26.455  1.00  0.00    -0.744 OA
ENDBRANCH  42  45
ENDBRANCH  24  38
BRANCH  25  49
ATOM     49  C   UNL A   1      39.280  32.162  36.336  1.00  0.00     0.023 A 
ATOM     50  C   UNL A   1      39.770  33.450  36.619  1.00  0.00     0.012 A 
ATOM     51  C   UNL A   1      38.299  31.592  37.171  1.00  0.00     0.148 A 
ATOM     52  C   UNL A   1      39.294  34.161  37.720  1.00  0.00     0.002 A 
ATOM     53  C   UNL A   1      37.805  32.319  38.248  1.00  0.00     0.091 A 
ATOM     54  F   UNL A   1      37.838  30.371  36.864  1.00  0.00    -0.205 F 
ATOM     55  C   UNL A   1      38.306  33.602  38.527  1.00  0.00     0.022 A 
BRANCH  53  56
ATOM     56  S   UNL A   1      36.452  31.733  39.273  1.00  0.00     0.127 S 
ATOM     57  O   UNL A   1      36.297  30.359  38.803  1.00  0.00    -0.237 OA
ATOM     58  O   UNL A   1      37.012  31.864  40.618  1.00  0.00    -0.237 OA
ATOM     59  O   UNL A   1      35.331  32.623  38.998  1.00  0.00    -0.744 OA
ENDBRANCH  53  56
ENDBRANCH  25  49
BRANCH  37  60
ATOM     60  C   UNL A   1      44.644  28.204  34.140  1.00  0.00     0.023 A 
ATOM     61  C   UNL A   1      45.790  29.019  34.184  1.00  0.00     0.012 A 
ATOM     62  C   UNL A   1      44.614  26.992  34.855  1.00  0.00     0.148 A 
ATOM     63  C   UNL A   1      46.894  28.635  34.941  1.00  0.00     0.002 A 
ATOM     64  C   UNL A   1      45.704  26.633  35.634  1.00  0.00     0.091 A 
ATOM     65  F   UNL A   1      43.505  26.241  34.790  1.00  0.00    -0.205 F 
ATOM     66  C   UNL A   1      46.846  27.452  35.676  1.00  0.00     0.022 A 
BRANCH  64  67
ATOM     67  S   UNL A   1      45.711  25.171  36.675  1.00  0.00     0.127 S 
ATOM     68  O   UNL A   1      47.071  25.195  37.212  1.00  0.00    -0.237 OA
ATOM     69  O   UNL A   1      44.664  25.483  37.648  1.00  0.00    -0.237 OA
ATOM     70  O   UNL A   1      45.419  24.045  35.799  1.00  0.00    -0.744 OA
ENDBRANCH  64  67
ENDBRANCH  37  60
ENDBRANCH  11  12
ENDBRANCH   4   6
ENDBRANCH   3   4
ENDBRANCH   2   3
ENDBRANCH   1   2
BRANCH   1  71
ATOM     71  O   UNL A   1      32.394  30.733  27.197  1.00  0.00    -0.374 OA
BRANCH  71  72
ATOM     72  C   UNL A   1      32.020  30.245  25.906  1.00  0.00     0.202 C 
BRANCH  72  73
ATOM     73  C   UNL A   1      33.094  29.382  25.234  1.00  0.00     0.261 C 
BRANCH  73  74
ATOM     74  O   UNL A   1      33.156  29.636  23.823  1.00  0.00    -0.460 OA
BRANCH  74  75
ATOM     75  C   UNL A   1      32.997  28.531  23.038  1.00  0.00     0.340 C 
ATOM     76  O   UNL A   1      33.755  28.120  22.189  1.00  0.00    -0.246 OA
BRANCH  75  77
ATOM     77  C   UNL A   1      31.812  27.772  23.507  1.00  0.00     0.084 A 
ATOM     78  C   UNL A   1      30.558  28.300  23.164  1.00  0.00     0.033 A 
ATOM     79  C   UNL A   1      31.922  26.597  24.270  1.00  0.00     0.053 A 
ATOM     80  C   UNL A   1      29.402  27.646  23.568  1.00  0.00     0.019 A 
ATOM     81  C   UNL A   1      30.733  26.051  24.804  1.00  0.00    -0.016 A 
ATOM     82  N   UNL A   1      33.154  26.028  24.568  1.00  0.00    -0.377 N 
ATOM     83  Br  UNL A   1      27.717  28.280  22.996  1.00  0.00    -0.051 Br
ATOM     84  C   UNL A   1      29.480  26.545  24.415  1.00  0.00     0.022 A 
ATOM     85  C   UNL A   1      30.917  25.068  25.918  1.00  0.00     0.049 C 
ATOM     86  C   UNL A   1      33.361  24.869  25.442  1.00  0.00     0.114 C 
ATOM     87  H   UNL A   1      33.951  26.435  24.159  1.00  0.00     0.161 HD
ATOM     88  C   UNL A   1      32.046  24.094  25.564  1.00  0.00     0.031 C 
ATOM     89  C   UNL A   1      29.850  24.112  26.342  1.00  0.00    -0.023 C 
ATOM     90  C   UNL A   1      31.916  23.038  26.666  1.00  0.00     0.034 C 
ATOM     91  C   UNL A   1      30.418  22.991  26.816  1.00  0.00    -0.030 C 
BRANCH  86  92
ATOM     92  C   UNL A   1      34.573  24.089  24.924  1.00  0.00    -0.019 A 
ATOM     93  C   UNL A   1      34.561  23.615  23.594  1.00  0.00     0.006 A 
ATOM     94  C   UNL A   1      35.713  23.819  25.697  1.00  0.00     0.091 A 
ATOM     95  C   UNL A   1      35.634  22.892  23.061  1.00  0.00     0.007 A 
ATOM     96  C   UNL A   1      36.807  23.127  25.147  1.00  0.00     0.269 A 
ATOM     97  C   UNL A   1      36.768  22.654  23.832  1.00  0.00     0.085 A 
BRANCH  96  98
ATOM     98  N   UNL A   1      38.020  22.930  25.953  1.00  0.00     0.062 N 
ATOM     99  O   UNL A   1      38.351  23.834  26.734  1.00  0.00    -0.258 OA
ATOM    100  O   UNL A   1      38.630  21.858  25.824  1.00  0.00    -0.258 OA
ENDBRANCH  96  98
ENDBRANCH  86  92
ENDBRANCH  75  77
ENDBRANCH  74  75
ENDBRANCH  73  74
ENDBRANCH  72  73
ENDBRANCH  71  72
ENDBRANCH   1  71
TORSDOF 19
ENDMDL
MODEL 2
REMARK VINA RESULT:     -12.2      1.306      7.264
REMARK SMILES O=C(OCCOCCOC(=O)c1cc(Br)cc2c1N[C@H](c1cccc([N+](=O)[O-])c1)[C@H]1CC=C[C@H]21)c1ccc(-c2c3nc(c(-c4cccc(S(=O)(=O)[O-])c4F)c4ccc([nH]4)c(-c4cccc(S(=O)(=O)[O-])c4F)c4nc(c(-c5cccc(S(=O)(=O)[O-])c5F)c5ccc2[nH]5)C=C4)C=C3)cc1
REMARK SMILES IDX 5 1 4 2 3 3 2 4 1 5 35 6 36 7 97 8 37 9 96 10 38 11 39 12
REMARK SMILES IDX 40 13 90 14 41 15 95 16 89 17 91 18 42 19 94 20 88 21 87 22
REMARK SMILES IDX 43 24 75 25 55 26 74 27 56 28 59 29 73 30 92 31 57 32 58 33
REMARK SMILES IDX 72 35 93 36 60 37 44 38 45 39 53 40 46 41 48 42 54 43 47 44
REMARK SMILES IDX 49 45 50 46 51 47 52 48 76 49 77 50 85 51 78 52 80 53 86 54
REMARK SMILES IDX 79 55 81 56 82 57 83 58 84 59 61 60 62 61 70 62 63 63 65 64
REMARK SMILES IDX 71 65 64 66 66 67 67 68 68 69 69 70 6 71 7 72 8 73 9 74
REMARK SMILES IDX 10 75 11 76 12 77 13 78 18 79 14 80 17 81 19 82 15 83 16 84
REMARK SMILES IDX 34 85 20 86 30 88 33 89 31 90 32 91 21 92 22 93 29 94 23 95
REMARK SMILES IDX 25 96 24 97 26 98 27 99 28 100
REMARK H PARENT 91 23 59 34 19 87
REMARK Flexibility Score: inf
ROOT
ATOM      1  C   UNL A   1      33.225  31.627  27.340  1.00  0.00     0.202 C 
ENDROOT
BRANCH   1   2
ATOM      2  C   UNL A   1      32.526  32.980  27.232  1.00  0.00     0.261 C 
BRANCH   2   3
ATOM      3  O   UNL A   1      32.638  33.782  28.414  1.00  0.00    -0.460 OA
BRANCH   3   4
ATOM      4  C   UNL A   1      33.769  34.375  28.871  1.00  0.00     0.338 C 
ATOM      5  O   UNL A   1      33.947  35.572  28.652  1.00  0.00    -0.246 OA
BRANCH   4   6
ATOM      6  C   UNL A   1      34.908  33.568  29.403  1.00  0.00     0.060 A 
ATOM      7  C   UNL A   1      36.168  33.798  28.822  1.00  0.00     0.016 A 
ATOM      8  C   UNL A   1      34.810  32.609  30.414  1.00  0.00     0.016 A 
ATOM      9  C   UNL A   1      37.284  33.050  29.208  1.00  0.00     0.010 A 
ATOM     10  C   UNL A   1      35.893  31.802  30.741  1.00  0.00     0.010 A 
ATOM     11  C   UNL A   1      37.140  32.036  30.160  1.00  0.00    -0.014 A 
BRANCH  11  12
ATOM     12  C   UNL A   1      38.303  31.387  30.785  1.00  0.00     0.031 A 
ATOM     13  C   UNL A   1      38.912  31.899  32.048  1.00  0.00     0.074 A 
ATOM     14  C   UNL A   1      38.880  30.405  30.069  1.00  0.00     0.049 A 
ATOM     15  N   UNL A   1      39.900  31.387  32.731  1.00  0.00    -0.248 NA
ATOM     16  C   UNL A   1      38.365  33.141  32.617  1.00  0.00     0.031 C 
ATOM     17  C   UNL A   1      38.418  29.953  28.749  1.00  0.00     0.029 A 
ATOM     18  N   UNL A   1      39.997  29.656  30.305  1.00  0.00    -0.354 N 
ATOM     19  C   UNL A   1      40.079  32.221  33.825  1.00  0.00     0.074 A 
ATOM     20  C   UNL A   1      39.122  33.298  33.699  1.00  0.00     0.031 C 
ATOM     21  C   UNL A   1      39.275  29.042  28.273  1.00  0.00     0.029 A 
ATOM     22  C   UNL A   1      40.315  28.814  29.267  1.00  0.00     0.049 A 
ATOM     23  H   UNL A   1      40.523  29.714  31.135  1.00  0.00     0.167 HD
ATOM     24  C   UNL A   1      40.952  32.062  34.847  1.00  0.00     0.034 A 
ATOM     25  C   UNL A   1      41.323  27.933  29.142  1.00  0.00     0.034 A 
ATOM     26  C   UNL A   1      41.902  30.981  34.915  1.00  0.00     0.049 A 
ATOM     27  C   UNL A   1      42.231  27.733  30.313  1.00  0.00     0.074 A 
ATOM     28  C   UNL A   1      42.763  30.660  35.948  1.00  0.00     0.029 A 
ATOM     29  N   UNL A   1      42.127  30.063  33.901  1.00  0.00    -0.354 N 
ATOM     30  N   UNL A   1      42.247  28.388  31.449  1.00  0.00    -0.248 NA
ATOM     31  C   UNL A   1      43.216  26.649  30.223  1.00  0.00     0.031 C 
ATOM     32  C   UNL A   1      43.520  29.554  35.553  1.00  0.00     0.029 A 
ATOM     33  C   UNL A   1      43.119  29.178  34.279  1.00  0.00     0.049 A 
ATOM     34  H   UNL A   1      41.653  30.045  33.039  1.00  0.00     0.167 HD
ATOM     35  C   UNL A   1      43.220  27.779  32.224  1.00  0.00     0.074 A 
ATOM     36  C   UNL A   1      43.771  26.699  31.428  1.00  0.00     0.031 C 
ATOM     37  C   UNL A   1      43.623  28.091  33.478  1.00  0.00     0.034 A 
BRANCH  24  38
ATOM     38  C   UNL A   1      40.866  32.985  36.032  1.00  0.00     0.023 A 
ATOM     39  C   UNL A   1      41.578  34.201  35.979  1.00  0.00     0.012 A 
ATOM     40  C   UNL A   1      39.960  32.759  37.086  1.00  0.00     0.148 A 
ATOM     41  C   UNL A   1      41.387  35.181  36.953  1.00  0.00     0.002 A 
ATOM     42  C   UNL A   1      39.757  33.750  38.041  1.00  0.00     0.091 A 
ATOM     43  F   UNL A   1      39.292  31.597  37.114  1.00  0.00    -0.205 F 
ATOM     44  C   UNL A   1      40.469  34.961  37.975  1.00  0.00     0.022 A 
BRANCH  42  45
ATOM     45  S   UNL A   1      38.558  33.601  39.372  1.00  0.00     0.127 S 
ATOM     46  O   UNL A   1      37.309  33.434  38.627  1.00  0.00    -0.237 OA
ATOM     47  O   UNL A   1      39.018  32.397  40.064  1.00  0.00    -0.237 OA
ATOM     48  O   UNL A   1      38.653  34.830  40.144  1.00  0.00    -0.744 OA
ENDBRANCH  42  45
ENDBRANCH  24  38
BRANCH  25  49
ATOM     49  C   UNL A   1      41.389  27.106  27.912  1.00  0.00     0.023 A 
ATOM     50  C   UNL A   1      42.070  27.608  26.788  1.00  0.00     0.012 A 
ATOM     51  C   UNL A   1      40.933  25.773  27.910  1.00  0.00     0.148 A 
ATOM     52  C   UNL A   1      42.292  26.798  25.675  1.00  0.00     0.002 A 
ATOM     53  C   UNL A   1      41.186  24.961  26.811  1.00  0.00     0.091 A 
ATOM     54  F   UNL A   1      40.305  25.319  29.004  1.00  0.00    -0.205 F 
ATOM     55  C   UNL A   1      41.860  25.473  25.690  1.00  0.00     0.022 A 
BRANCH  53  56
ATOM     56  S   UNL A   1      40.773  23.213  26.784  1.00  0.00     0.127 S 
ATOM     57  O   UNL A   1      39.320  23.253  26.635  1.00  0.00    -0.237 OA
ATOM     58  O   UNL A   1      41.501  22.748  25.603  1.00  0.00    -0.237 OA
ATOM     59  O   UNL A   1      41.261  22.670  28.045  1.00  0.00    -0.744 OA
ENDBRANCH  53  56
ENDBRANCH  25  49
BRANCH  37  60
ATOM     60  C   UNL A   1      44.716  27.267  34.090  1.00  0.00     0.023 A 
ATOM     61  C   UNL A   1      46.044  27.723  34.004  1.00  0.00     0.012 A 
ATOM     62  C   UNL A   1      44.405  26.149  34.886  1.00  0.00     0.148 A 
ATOM     63  C   UNL A   1      47.053  27.077  34.713  1.00  0.00     0.002 A 
ATOM     64  C   UNL A   1      45.410  25.532  35.616  1.00  0.00     0.091 A 
ATOM     65  F   UNL A   1      43.128  25.743  34.944  1.00  0.00    -0.205 F 
ATOM     66  C   UNL A   1      46.735  25.993  35.529  1.00  0.00     0.022 A 
BRANCH  64  67
ATOM     67  S   UNL A   1      45.091  24.179  36.753  1.00  0.00     0.127 S 
ATOM     68  O   UNL A   1      46.427  23.919  37.288  1.00  0.00    -0.237 OA
ATOM     69  O   UNL A   1      44.160  24.790  37.701  1.00  0.00    -0.237 OA
ATOM     70  O   UNL A   1      44.532  23.098  35.953  1.00  0.00    -0.744 OA
ENDBRANCH  64  67
ENDBRANCH  37  60
ENDBRANCH  11  12
ENDBRANCH   4   6
ENDBRANCH   3   4
ENDBRANCH   2   3
ENDBRANCH   1   2
BRANCH   1  71
ATOM     71  O   UNL A   1      32.422  30.464  27.161  1.00  0.00    -0.374 OA
BRANCH  71  72
ATOM     72  C   UNL A   1      32.148  30.108  25.803  1.00  0.00     0.202 C 
BRANCH  72  73
ATOM     73  C   UNL A   1      33.285  29.336  25.123  1.00  0.00     0.261 C 
BRANCH  73  74
ATOM     74  O   UNL A   1      33.138  29.343  23.696  1.00  0.00    -0.460 OA
BRANCH  74  75
ATOM     75  C   UNL A   1      33.027  28.107  23.129  1.00  0.00     0.340 C 
ATOM     76  O   UNL A   1      33.851  27.535  22.452  1.00  0.00    -0.246 OA
BRANCH  75  77
ATOM     77  C   UNL A   1      31.788  27.458  23.623  1.00  0.00     0.084 A 
ATOM     78  C   UNL A   1      30.578  28.070  23.260  1.00  0.00     0.033 A 
ATOM     79  C   UNL A   1      31.807  26.306  24.426  1.00  0.00     0.053 A 
ATOM     80  C   UNL A   1      29.376  27.522  23.685  1.00  0.00     0.019 A 
ATOM     81  C   UNL A   1      30.580  25.872  24.976  1.00  0.00    -0.016 A 
ATOM     82  N   UNL A   1      32.992  25.653  24.744  1.00  0.00    -0.377 N 
ATOM     83  Br  UNL A   1      27.744  28.265  23.088  1.00  0.00    -0.051 Br
ATOM     84  C   UNL A   1      29.369  26.448  24.568  1.00  0.00     0.022 A 
ATOM     85  C   UNL A   1      30.689  24.916  26.124  1.00  0.00     0.049 C 
ATOM     86  C   UNL A   1      33.110  24.512  25.658  1.00  0.00     0.114 C 
ATOM     87  H   UNL A   1      33.818  25.983  24.322  1.00  0.00     0.161 HD
ATOM     88  C   UNL A   1      31.739  23.846  25.804  1.00  0.00     0.031 C 
ATOM     89  C   UNL A   1      29.551  24.061  26.578  1.00  0.00    -0.023 C 
ATOM     90  C   UNL A   1      31.528  22.842  26.941  1.00  0.00     0.034 C 
ATOM     91  C   UNL A   1      30.032  22.917  27.091  1.00  0.00    -0.030 C 
BRANCH  86  92
ATOM     92  C   UNL A   1      34.257  23.623  25.168  1.00  0.00    -0.019 A 
ATOM     93  C   UNL A   1      35.441  24.234  24.702  1.00  0.00     0.006 A 
ATOM     94  C   UNL A   1      34.205  22.220  25.161  1.00  0.00     0.091 A 
ATOM     95  C   UNL A   1      36.524  23.479  24.237  1.00  0.00     0.007 A 
ATOM     96  C   UNL A   1      35.310  21.463  24.731  1.00  0.00     0.269 A 
ATOM     97  C   UNL A   1      36.467  22.088  24.259  1.00  0.00     0.085 A 
BRANCH  96  98
ATOM     98  N   UNL A   1      35.258  19.996  24.811  1.00  0.00     0.062 N 
ATOM     99  O   UNL A   1      34.153  19.448  24.699  1.00  0.00    -0.258 OA
ATOM    100  O   UNL A   1      36.329  19.389  24.962  1.00  0.00    -0.258 OA
ENDBRANCH  96  98
ENDBRANCH  86  92
ENDBRANCH  75  77
ENDBRANCH  74  75
ENDBRANCH  73  74
ENDBRANCH  72  73
ENDBRANCH  71  72
ENDBRANCH   1  71
TORSDOF 19
ENDMDL
MODEL 3
REMARK VINA RESULT:     -12.1      2.179      2.595
REMARK SMILES O=C(OCCOCCOC(=O)c1cc(Br)cc2c1N[C@H](c1cccc([N+](=O)[O-])c1)[C@H]1CC=C[C@H]21)c1ccc(-c2c3nc(c(-c4cccc(S(=O)(=O)[O-])c4F)c4ccc([nH]4)c(-c4cccc(S(=O)(=O)[O-])c4F)c4nc(c(-c5cccc(S(=O)(=O)[O-])c5F)c5ccc2[nH]5)C=C4)C=C3)cc1
REMARK SMILES IDX 5 1 4 2 3 3 2 4 1 5 35 6 36 7 97 8 37 9 96 10 38 11 39 12
REMARK SMILES IDX 40 13 90 14 41 15 95 16 89 17 91 18 42 19 94 20 88 21 87 22
REMARK SMILES IDX 43 24 75 25 55 26 74 27 56 28 59 29 73 30 92 31 57 32 58 33
REMARK SMILES IDX 72 35 93 36 60 37 44 38 45 39 53 40 46 41 48 42 54 43 47 44
REMARK SMILES IDX 49 45 50 46 51 47 52 48 76 49 77 50 85 51 78 52 80 53 86 54
REMARK SMILES IDX 79 55 81 56 82 57 83 58 84 59 61 60 62 61 70 62 63 63 65 64
REMARK SMILES IDX 71 65 64 66 66 67 67 68 68 69 69 70 6 71 7 72 8 73 9 74
REMARK SMILES IDX 10 75 11 76 12 77 13 78 18 79 14 80 17 81 19 82 15 83 16 84
REMARK SMILES IDX 34 85 20 86 30 88 33 89 31 90 32 91 21 92 22 93 29 94 23 95
REMARK SMILES IDX 25 96 24 97 26 98 27 99 28 100
REMARK H PARENT 91 23 59 34 19 87
REMARK Flexibility Score: inf
ROOT
ATOM      1  C   UNL A   1      33.216  31.515  27.685  1.00  0.00     0.202 C 
ENDROOT
BRANCH   1   2
ATOM      2  C   UNL A   1      32.819  32.854  27.068  1.00  0.00     0.261 C 
BRANCH   2   3
ATOM      3  O   UNL A   1      32.464  33.850  28.035  1.00  0.00    -0.460 OA
BRANCH   3   4
ATOM      4  C   UNL A   1      33.328  34.642  28.719  1.00  0.00     0.338 C 
ATOM      5  O   UNL A   1      33.264  35.861  28.574  1.00  0.00    -0.246 OA
BRANCH   4   6
ATOM      6  C   UNL A   1      34.506  34.066  29.435  1.00  0.00     0.060 A 
ATOM      7  C   UNL A   1      34.234  33.346  30.613  1.00  0.00     0.016 A 
ATOM      8  C   UNL A   1      35.836  34.198  29.032  1.00  0.00     0.016 A 
ATOM      9  C   UNL A   1      35.272  32.821  31.388  1.00  0.00     0.010 A 
ATOM     10  C   UNL A   1      36.876  33.756  29.840  1.00  0.00     0.010 A 
ATOM     11  C   UNL A   1      36.599  33.042  31.007  1.00  0.00    -0.014 A 
BRANCH  11  12
ATOM     12  C   UNL A   1      37.717  32.318  31.631  1.00  0.00     0.031 A 
ATOM     13  C   UNL A   1      38.346  31.127  30.990  1.00  0.00     0.074 A 
ATOM     14  C   UNL A   1      38.034  32.697  32.883  1.00  0.00     0.049 A 
ATOM     15  N   UNL A   1      39.372  30.435  31.405  1.00  0.00    -0.248 NA
ATOM     16  C   UNL A   1      37.752  30.632  29.737  1.00  0.00     0.031 C 
ATOM     17  C   UNL A   1      37.355  33.766  33.628  1.00  0.00     0.029 A 
ATOM     18  N   UNL A   1      38.947  32.202  33.770  1.00  0.00    -0.354 N 
ATOM     19  C   UNL A   1      39.571  29.442  30.457  1.00  0.00     0.074 A 
ATOM     20  C   UNL A   1      38.536  29.594  29.459  1.00  0.00     0.031 C 
ATOM     21  C   UNL A   1      37.842  33.810  34.874  1.00  0.00     0.029 A 
ATOM     22  C   UNL A   1      38.893  32.809  35.001  1.00  0.00     0.049 A 
ATOM     23  H   UNL A   1      39.580  31.482  33.549  1.00  0.00     0.167 HD
ATOM     24  C   UNL A   1      40.559  28.516  30.430  1.00  0.00     0.034 A 
ATOM     25  C   UNL A   1      39.629  32.598  36.105  1.00  0.00     0.034 A 
ATOM     26  C   UNL A   1      41.556  28.392  31.462  1.00  0.00     0.049 A 
ATOM     27  C   UNL A   1      40.754  31.616  36.023  1.00  0.00     0.074 A 
ATOM     28  C   UNL A   1      42.662  27.564  31.491  1.00  0.00     0.029 A 
ATOM     29  N   UNL A   1      41.552  29.103  32.653  1.00  0.00    -0.354 N 
ATOM     30  N   UNL A   1      41.075  30.831  35.023  1.00  0.00    -0.248 NA
ATOM     31  C   UNL A   1      41.653  31.525  37.180  1.00  0.00     0.031 C 
ATOM     32  C   UNL A   1      43.320  27.763  32.706  1.00  0.00     0.029 A 
ATOM     33  C   UNL A   1      42.633  28.728  33.428  1.00  0.00     0.049 A 
ATOM     34  H   UNL A   1      40.879  29.774  32.909  1.00  0.00     0.167 HD
ATOM     35  C   UNL A   1      42.230  30.172  35.414  1.00  0.00     0.074 A 
ATOM     36  C   UNL A   1      42.554  30.653  36.743  1.00  0.00     0.031 C 
ATOM     37  C   UNL A   1      42.949  29.249  34.733  1.00  0.00     0.034 A 
BRANCH  24  38
ATOM     38  C   UNL A   1      40.703  27.638  29.217  1.00  0.00     0.023 A 
ATOM     39  C   UNL A   1      39.803  26.564  29.063  1.00  0.00     0.012 A 
ATOM     40  C   UNL A   1      41.572  27.970  28.159  1.00  0.00     0.148 A 
ATOM     41  C   UNL A   1      39.759  25.836  27.874  1.00  0.00     0.002 A 
ATOM     42  C   UNL A   1      41.507  27.255  26.967  1.00  0.00     0.091 A 
ATOM     43  F   UNL A   1      42.418  28.997  28.326  1.00  0.00    -0.205 F 
ATOM     44  C   UNL A   1      40.601  26.189  26.824  1.00  0.00     0.022 A 
BRANCH  42  45
ATOM     45  S   UNL A   1      42.503  27.655  25.526  1.00  0.00     0.127 S 
ATOM     46  O   UNL A   1      43.846  27.723  26.104  1.00  0.00    -0.237 OA
ATOM     47  O   UNL A   1      42.271  26.496  24.663  1.00  0.00    -0.237 OA
ATOM     48  O   UNL A   1      41.990  28.917  25.015  1.00  0.00    -0.744 OA
ENDBRANCH  42  45
ENDBRANCH  24  38
BRANCH  25  49
ATOM     49  C   UNL A   1      39.382  33.452  37.293  1.00  0.00     0.023 A 
ATOM     50  C   UNL A   1      38.392  33.068  38.216  1.00  0.00     0.012 A 
ATOM     51  C   UNL A   1      40.229  34.538  37.592  1.00  0.00     0.148 A 
ATOM     52  C   UNL A   1      38.244  33.755  39.420  1.00  0.00     0.002 A 
ATOM     53  C   UNL A   1      40.097  35.197  38.808  1.00  0.00     0.091 A 
ATOM     54  F   UNL A   1      41.174  34.867  36.701  1.00  0.00    -0.205 F 
ATOM     55  C   UNL A   1      39.101  34.811  39.721  1.00  0.00     0.022 A 
BRANCH  53  56
ATOM     56  S   UNL A   1      41.227  36.490  39.336  1.00  0.00     0.127 S 
ATOM     57  O   UNL A   1      42.378  35.712  39.786  1.00  0.00    -0.237 OA
ATOM     58  O   UNL A   1      41.434  37.236  38.094  1.00  0.00    -0.237 OA
ATOM     59  O   UNL A   1      40.524  37.232  40.375  1.00  0.00    -0.744 OA
ENDBRANCH  53  56
ENDBRANCH  25  49
BRANCH  37  60
ATOM     60  C   UNL A   1      44.167  28.680  35.398  1.00  0.00     0.023 A 
ATOM     61  C   UNL A   1      45.410  29.307  35.196  1.00  0.00     0.012 A 
ATOM     62  C   UNL A   1      44.044  27.645  36.344  1.00  0.00     0.148 A 
ATOM     63  C   UNL A   1      46.521  28.913  35.938  1.00  0.00     0.002 A 
ATOM     64  C   UNL A   1      45.147  27.282  37.103  1.00  0.00     0.091 A 
ATOM     65  F   UNL A   1      42.844  27.071  36.509  1.00  0.00    -0.205 F 
ATOM     66  C   UNL A   1      46.387  27.913  36.900  1.00  0.00     0.022 A 
BRANCH  64  67
ATOM     67  S   UNL A   1      45.061  26.061  38.416  1.00  0.00     0.127 S 
ATOM     68  O   UNL A   1      44.057  26.648  39.303  1.00  0.00    -0.237 OA
ATOM     69  O   UNL A   1      44.617  24.868  37.695  1.00  0.00    -0.237 OA
ATOM     70  O   UNL A   1      46.400  25.975  38.982  1.00  0.00    -0.744 OA
ENDBRANCH  64  67
ENDBRANCH  37  60
ENDBRANCH  11  12
ENDBRANCH   4   6
ENDBRANCH   3   4
ENDBRANCH   2   3
ENDBRANCH   1   2
BRANCH   1  71
ATOM     71  O   UNL A   1      32.372  30.400  27.415  1.00  0.00    -0.374 OA
BRANCH  71  72
ATOM     72  C   UNL A   1      32.145  30.120  26.031  1.00  0.00     0.202 C 
BRANCH  72  73
ATOM     73  C   UNL A   1      33.391  29.627  25.286  1.00  0.00     0.261 C 
BRANCH  73  74
ATOM     74  O   UNL A   1      33.135  29.488  23.880  1.00  0.00    -0.460 OA
BRANCH  74  75
ATOM     75  C   UNL A   1      33.178  28.205  23.418  1.00  0.00     0.340 C 
ATOM     76  O   UNL A   1      34.119  27.643  22.905  1.00  0.00    -0.246 OA
BRANCH  75  77
ATOM     77  C   UNL A   1      31.927  27.509  23.806  1.00  0.00     0.084 A 
ATOM     78  C   UNL A   1      30.729  28.081  23.352  1.00  0.00     0.033 A 
ATOM     79  C   UNL A   1      31.923  26.349  24.600  1.00  0.00     0.053 A 
ATOM     80  C   UNL A   1      29.517  27.488  23.676  1.00  0.00     0.019 A 
ATOM     81  C   UNL A   1      30.673  25.867  25.047  1.00  0.00    -0.016 A 
ATOM     82  N   UNL A   1      33.102  25.735  25.007  1.00  0.00    -0.377 N 
ATOM     83  Br  UNL A   1      27.912  28.179  22.956  1.00  0.00    -0.051 Br
ATOM     84  C   UNL A   1      29.478  26.406  24.549  1.00  0.00     0.022 A 
ATOM     85  C   UNL A   1      30.724  24.905  26.193  1.00  0.00     0.049 C 
ATOM     86  C   UNL A   1      33.187  24.590  25.919  1.00  0.00     0.114 C 
ATOM     87  H   UNL A   1      33.947  26.098  24.655  1.00  0.00     0.161 HD
ATOM     88  C   UNL A   1      31.833  23.875  25.950  1.00  0.00     0.031 C 
ATOM     89  C   UNL A   1      29.585  24.005  26.549  1.00  0.00    -0.023 C 
ATOM     90  C   UNL A   1      31.569  22.853  27.060  1.00  0.00     0.034 C 
ATOM     91  C   UNL A   1      30.063  22.874  27.090  1.00  0.00    -0.030 C 
BRANCH  86  92
ATOM     92  C   UNL A   1      34.400  23.746  25.516  1.00  0.00    -0.019 A 
ATOM     93  C   UNL A   1      35.644  24.387  25.329  1.00  0.00     0.006 A 
ATOM     94  C   UNL A   1      34.353  22.357  25.325  1.00  0.00     0.091 A 
ATOM     95  C   UNL A   1      36.790  23.675  24.956  1.00  0.00     0.007 A 
ATOM     96  C   UNL A   1      35.514  21.637  24.990  1.00  0.00     0.269 A 
ATOM     97  C   UNL A   1      36.732  22.294  24.795  1.00  0.00     0.085 A 
BRANCH  96  98
ATOM     98  N   UNL A   1      35.452  20.173  24.876  1.00  0.00     0.062 N 
ATOM     99  O   UNL A   1      34.335  19.645  24.781  1.00  0.00    -0.258 OA
ATOM    100  O   UNL A   1      36.524  19.551  24.858  1.00  0.00    -0.258 OA
ENDBRANCH  96  98
ENDBRANCH  86  92
ENDBRANCH  75  77
ENDBRANCH  74  75
ENDBRANCH  73  74
ENDBRANCH  72  73
ENDBRANCH  71  72
ENDBRANCH   1  71
TORSDOF 19
ENDMDL
