MODEL 1
REMARK VINA RESULT:     -10.2      0.000      0.000
REMARK SMILES CO[C@H]1C[C@@H](C(=O)OCCOCCOC(=O)c2ccc(-c3c4nc(c(-c5cccc(S(=O)(=O)[O-])c5F)c5ccc([nH]5)c(-c5cccc(S(=O)(=O)[O-])c5F)c5nc(c(-c6cccc(S(=O)(=O)[O-])c6F)c6ccc3[nH]6)C=C5)C=C4)cc2)N(C(=O)CSc2cccs2)C1
REMARK SMILES IDX 10 1 9 2 8 3 6 4 7 5 5 6 3 7 4 8 90 9 80 10 2 11 1 12 81 13
REMARK SMILES IDX 82 14 83 15 84 16 85 17 86 18 89 19 87 20 88 21 11 22 12 23
REMARK SMILES IDX 13 24 14 25 15 26 16 27 17 28 18 29 79 30 19 31 78 32 20 33
REMARK SMILES IDX 21 34 22 35 72 36 23 37 77 38 71 39 73 40 24 41 76 42 70 43
REMARK SMILES IDX 69 44 25 46 57 47 37 48 56 49 38 50 41 51 55 52 74 53 39 54
REMARK SMILES IDX 40 55 54 57 75 58 42 59 26 60 27 61 35 62 28 63 30 64 36 65
REMARK SMILES IDX 29 66 31 67 32 68 33 69 34 70 58 71 59 72 67 73 60 74 62 75
REMARK SMILES IDX 68 76 61 77 63 78 64 79 65 80 66 81 43 82 44 83 52 84 45 85
REMARK SMILES IDX 47 86 53 87 46 88 48 89 49 90 50 91 51 92
REMARK H PARENT 73 45 41 56
REMARK Flexibility Score: inf
ROOT
ATOM      1  C   UNL A   1      33.164  29.930  26.320  1.00  0.00     0.202 C 
ENDROOT
BRANCH   1   2
ATOM      2  C   UNL A   1      33.938  28.689  26.770  1.00  0.00     0.261 C 
BRANCH   2   3
ATOM      3  O   UNL A   1      33.163  27.500  26.587  1.00  0.00    -0.462 OA
BRANCH   3   4
ATOM      4  C   UNL A   1      33.568  26.704  25.566  1.00  0.00     0.329 C 
ATOM      5  O   UNL A   1      33.941  27.118  24.475  1.00  0.00    -0.250 OA
BRANCH   4   6
ATOM      6  C   UNL A   1      33.618  25.221  25.940  1.00  0.00     0.197 C 
ATOM      7  C   UNL A   1      34.413  23.017  25.527  1.00  0.00     0.140 C 
ATOM      8  C   UNL A   1      34.601  24.450  25.049  1.00  0.00     0.071 C 
ATOM      9  C   UNL A   1      32.898  22.944  25.744  1.00  0.00     0.152 C 
ATOM     10  N   UNL A   1      32.440  24.322  25.934  1.00  0.00    -0.325 N 
BRANCH   7  11
ATOM     11  O   UNL A   1      34.875  22.103  24.541  1.00  0.00    -0.380 OA
ATOM     12  C   UNL A   1      35.394  22.767  23.395  1.00  0.00     0.195 C 
ENDBRANCH   7  11
BRANCH  10  13
ATOM     13  C   UNL A   1      31.153  24.509  26.407  1.00  0.00     0.233 C 
ATOM     14  O   UNL A   1      30.691  23.746  27.267  1.00  0.00    -0.274 OA
BRANCH  13  15
ATOM     15  C   UNL A   1      30.219  25.501  25.738  1.00  0.00     0.175 C 
BRANCH  15  16
ATOM     16  S   UNL A   1      30.287  25.560  23.948  1.00  0.00    -0.105 SA
BRANCH  16  17
ATOM     17  C   UNL A   1      29.672  27.140  23.571  1.00  0.00     0.060 A 
ATOM     18  C   UNL A   1      28.352  27.496  23.406  1.00  0.00     0.027 A 
ATOM     19  S   UNL A   1      30.735  28.442  23.278  1.00  0.00    -0.137 S 
ATOM     20  C   UNL A   1      28.219  28.857  23.002  1.00  0.00     0.013 A 
ATOM     21  C   UNL A   1      29.441  29.485  22.891  1.00  0.00     0.066 A 
ENDBRANCH  16  17
ENDBRANCH  15  16
ENDBRANCH  13  15
ENDBRANCH  10  13
ENDBRANCH   4   6
ENDBRANCH   3   4
ENDBRANCH   2   3
ENDBRANCH   1   2
BRANCH   1  22
ATOM     22  O   UNL A   1      32.825  30.912  27.299  1.00  0.00    -0.374 OA
BRANCH  22  23
ATOM     23  C   UNL A   1      31.934  31.968  26.937  1.00  0.00     0.202 C 
BRANCH  23  24
ATOM     24  C   UNL A   1      32.383  33.424  27.048  1.00  0.00     0.261 C 
BRANCH  24  25
ATOM     25  O   UNL A   1      32.434  33.888  28.398  1.00  0.00    -0.460 OA
BRANCH  25  26
ATOM     26  C   UNL A   1      33.533  34.628  28.685  1.00  0.00     0.338 C 
ATOM     27  O   UNL A   1      33.588  35.830  28.873  1.00  0.00    -0.246 OA
BRANCH  26  28
ATOM     28  C   UNL A   1      34.654  33.718  28.960  1.00  0.00     0.060 A 
ATOM     29  C   UNL A   1      34.371  32.530  29.646  1.00  0.00     0.016 A 
ATOM     30  C   UNL A   1      35.959  34.050  28.593  1.00  0.00     0.016 A 
ATOM     31  C   UNL A   1      35.407  31.688  30.023  1.00  0.00     0.010 A 
ATOM     32  C   UNL A   1      36.999  33.211  28.983  1.00  0.00     0.010 A 
ATOM     33  C   UNL A   1      36.726  32.055  29.736  1.00  0.00    -0.014 A 
BRANCH  33  34
ATOM     34  C   UNL A   1      37.830  31.322  30.383  1.00  0.00     0.031 A 
ATOM     35  C   UNL A   1      38.164  31.647  31.809  1.00  0.00     0.074 A 
ATOM     36  C   UNL A   1      38.514  30.390  29.702  1.00  0.00     0.049 A 
ATOM     37  N   UNL A   1      39.114  31.169  32.566  1.00  0.00    -0.248 NA
ATOM     38  C   UNL A   1      37.318  32.657  32.470  1.00  0.00     0.031 C 
ATOM     39  C   UNL A   1      38.261  30.008  28.313  1.00  0.00     0.029 A 
ATOM     40  N   UNL A   1      39.582  29.620  30.080  1.00  0.00    -0.354 N 
ATOM     41  C   UNL A   1      39.007  31.845  33.774  1.00  0.00     0.074 A 
ATOM     42  C   UNL A   1      37.907  32.773  33.650  1.00  0.00     0.031 C 
ATOM     43  C   UNL A   1      39.181  29.103  27.940  1.00  0.00     0.029 A 
ATOM     44  C   UNL A   1      40.097  28.868  29.054  1.00  0.00     0.049 A 
ATOM     45  H   UNL A   1      39.944  29.609  30.995  1.00  0.00     0.167 HD
ATOM     46  C   UNL A   1      39.757  31.694  34.891  1.00  0.00     0.034 A 
ATOM     47  C   UNL A   1      41.207  28.106  29.014  1.00  0.00     0.034 A 
ATOM     48  C   UNL A   1      40.841  30.757  34.999  1.00  0.00     0.049 A 
ATOM     49  C   UNL A   1      42.030  27.960  30.264  1.00  0.00     0.074 A 
ATOM     50  C   UNL A   1      41.630  30.476  36.098  1.00  0.00     0.029 A 
ATOM     51  N   UNL A   1      41.303  29.964  33.958  1.00  0.00    -0.354 N 
ATOM     52  N   UNL A   1      41.848  28.510  31.441  1.00  0.00    -0.248 NA
ATOM     53  C   UNL A   1      43.190  27.062  30.193  1.00  0.00     0.031 C 
ATOM     54  C   UNL A   1      42.598  29.542  35.710  1.00  0.00     0.029 A 
ATOM     55  C   UNL A   1      42.381  29.207  34.382  1.00  0.00     0.049 A 
ATOM     56  H   UNL A   1      40.921  29.943  33.051  1.00  0.00     0.167 HD
ATOM     57  C   UNL A   1      42.848  28.000  32.261  1.00  0.00     0.074 A 
ATOM     58  C   UNL A   1      43.622  27.083  31.448  1.00  0.00     0.031 C 
ATOM     59  C   UNL A   1      43.111  28.271  33.564  1.00  0.00     0.034 A 
BRANCH  46  60
ATOM     60  C   UNL A   1      39.427  32.564  36.075  1.00  0.00     0.023 A 
ATOM     61  C   UNL A   1      39.972  33.861  36.175  1.00  0.00     0.012 A 
ATOM     62  C   UNL A   1      38.555  32.103  37.081  1.00  0.00     0.148 A 
ATOM     63  C   UNL A   1      39.686  34.669  37.276  1.00  0.00     0.002 A 
ATOM     64  C   UNL A   1      38.235  32.933  38.149  1.00  0.00     0.091 A 
ATOM     65  F   UNL A   1      38.069  30.857  36.985  1.00  0.00    -0.205 F 
ATOM     66  C   UNL A   1      38.811  34.209  38.256  1.00  0.00     0.022 A 
BRANCH  64  67
ATOM     67  S   UNL A   1      37.056  32.461  39.419  1.00  0.00     0.127 S 
ATOM     68  O   UNL A   1      37.363  33.421  40.478  1.00  0.00    -0.237 OA
ATOM     69  O   UNL A   1      35.776  32.684  38.746  1.00  0.00    -0.237 OA
ATOM     70  O   UNL A   1      37.341  31.069  39.735  1.00  0.00    -0.744 OA
ENDBRANCH  64  67
ENDBRANCH  46  60
BRANCH  47  71
ATOM     71  C   UNL A   1      41.581  27.420  27.747  1.00  0.00     0.023 A 
ATOM     72  C   UNL A   1      42.015  28.174  26.642  1.00  0.00     0.012 A 
ATOM     73  C   UNL A   1      41.554  26.014  27.656  1.00  0.00     0.148 A 
ATOM     74  C   UNL A   1      42.391  27.541  25.456  1.00  0.00     0.002 A 
ATOM     75  C   UNL A   1      41.984  25.388  26.492  1.00  0.00     0.091 A 
ATOM     76  F   UNL A   1      41.128  25.317  28.718  1.00  0.00    -0.205 F 
ATOM     77  C   UNL A   1      42.386  26.149  25.386  1.00  0.00     0.022 A 
BRANCH  75  78
ATOM     78  S   UNL A   1      42.141  23.603  26.361  1.00  0.00     0.127 S 
ATOM     79  O   UNL A   1      40.832  23.226  25.833  1.00  0.00    -0.237 OA
ATOM     80  O   UNL A   1      43.249  23.470  25.415  1.00  0.00    -0.237 OA
ATOM     81  O   UNL A   1      42.439  23.131  27.707  1.00  0.00    -0.744 OA
ENDBRANCH  75  78
ENDBRANCH  47  71
BRANCH  59  82
ATOM     82  C   UNL A   1      44.259  27.539  34.209  1.00  0.00     0.023 A 
ATOM     83  C   UNL A   1      45.572  28.033  34.084  1.00  0.00     0.012 A 
ATOM     84  C   UNL A   1      44.020  26.399  35.002  1.00  0.00     0.148 A 
ATOM     85  C   UNL A   1      46.634  27.384  34.712  1.00  0.00     0.002 A 
ATOM     86  C   UNL A   1      45.074  25.789  35.668  1.00  0.00     0.091 A 
ATOM     87  F   UNL A   1      42.764  25.936  35.094  1.00  0.00    -0.205 F 
ATOM     88  C   UNL A   1      46.385  26.271  35.513  1.00  0.00     0.022 A 
BRANCH  86  89
ATOM     89  S   UNL A   1      44.834  24.417  36.802  1.00  0.00     0.127 S 
ATOM     90  O   UNL A   1      44.391  23.358  35.896  1.00  0.00    -0.237 OA
ATOM     91  O   UNL A   1      46.178  24.229  37.349  1.00  0.00    -0.237 OA
ATOM     92  O   UNL A   1      43.843  24.863  37.770  1.00  0.00    -0.744 OA
ENDBRANCH  86  89
ENDBRANCH  59  82
ENDBRANCH  33  34
ENDBRANCH  26  28
ENDBRANCH  25  26
ENDBRANCH  24  25
ENDBRANCH  23  24
ENDBRANCH  22  23
ENDBRANCH   1  22
TORSDOF 22
ENDMDL
MODEL 2
REMARK VINA RESULT:      -9.9      5.785      9.778
REMARK SMILES CO[C@H]1C[C@@H](C(=O)OCCOCCOC(=O)c2ccc(-c3c4nc(c(-c5cccc(S(=O)(=O)[O-])c5F)c5ccc([nH]5)c(-c5cccc(S(=O)(=O)[O-])c5F)c5nc(c(-c6cccc(S(=O)(=O)[O-])c6F)c6ccc3[nH]6)C=C5)C=C4)cc2)N(C(=O)CSc2cccs2)C1
REMARK SMILES IDX 10 1 9 2 8 3 6 4 7 5 5 6 3 7 4 8 90 9 80 10 2 11 1 12 81 13
REMARK SMILES IDX 82 14 83 15 84 16 85 17 86 18 89 19 87 20 88 21 11 22 12 23
REMARK SMILES IDX 13 24 14 25 15 26 16 27 17 28 18 29 79 30 19 31 78 32 20 33
REMARK SMILES IDX 21 34 22 35 72 36 23 37 77 38 71 39 73 40 24 41 76 42 70 43
REMARK SMILES IDX 69 44 25 46 57 47 37 48 56 49 38 50 41 51 55 52 74 53 39 54
REMARK SMILES IDX 40 55 54 57 75 58 42 59 26 60 27 61 35 62 28 63 30 64 36 65
REMARK SMILES IDX 29 66 31 67 32 68 33 69 34 70 58 71 59 72 67 73 60 74 62 75
REMARK SMILES IDX 68 76 61 77 63 78 64 79 65 80 66 81 43 82 44 83 52 84 45 85
REMARK SMILES IDX 47 86 53 87 46 88 48 89 49 90 50 91 51 92
REMARK H PARENT 73 45 41 56
REMARK Flexibility Score: inf
ROOT
ATOM      1  C   UNL A   1      37.497  23.523  25.571  1.00  0.00     0.202 C 
ENDROOT
BRANCH   1   2
ATOM      2  C   UNL A   1      36.017  23.782  25.865  1.00  0.00     0.261 C 
BRANCH   2   3
ATOM      3  O   UNL A   1      35.543  22.938  26.919  1.00  0.00    -0.462 OA
BRANCH   3   4
ATOM      4  C   UNL A   1      34.241  22.571  26.816  1.00  0.00     0.329 C 
ATOM      5  O   UNL A   1      33.689  21.770  27.560  1.00  0.00    -0.250 OA
BRANCH   4   6
ATOM      6  C   UNL A   1      33.482  23.340  25.733  1.00  0.00     0.197 C 
ATOM      7  C   UNL A   1      31.890  24.997  25.113  1.00  0.00     0.140 C 
ATOM      8  C   UNL A   1      32.608  24.447  26.338  1.00  0.00     0.071 C 
ATOM      9  C   UNL A   1      31.587  23.723  24.316  1.00  0.00     0.152 C 
ATOM     10  N   UNL A   1      32.547  22.713  24.769  1.00  0.00    -0.325 N 
BRANCH   7  11
ATOM     11  O   UNL A   1      30.717  25.698  25.501  1.00  0.00    -0.380 OA
ATOM     12  C   UNL A   1      30.865  27.107  25.374  1.00  0.00     0.195 C 
ENDBRANCH   7  11
BRANCH  10  13
ATOM     13  C   UNL A   1      32.656  21.554  24.022  1.00  0.00     0.233 C 
ATOM     14  O   UNL A   1      32.907  21.618  22.810  1.00  0.00    -0.274 OA
BRANCH  13  15
ATOM     15  C   UNL A   1      32.263  20.212  24.612  1.00  0.00     0.175 C 
BRANCH  15  16
ATOM     16  S   UNL A   1      32.323  18.813  23.494  1.00  0.00    -0.105 SA
BRANCH  16  17
ATOM     17  C   UNL A   1      33.378  17.694  24.301  1.00  0.00     0.060 A 
ATOM     18  C   UNL A   1      34.755  17.695  24.285  1.00  0.00     0.027 A 
ATOM     19  S   UNL A   1      32.742  16.370  25.169  1.00  0.00    -0.137 S 
ATOM     20  C   UNL A   1      35.292  16.569  24.974  1.00  0.00     0.013 A 
ATOM     21  C   UNL A   1      34.304  15.765  25.499  1.00  0.00     0.066 A 
ENDBRANCH  16  17
ENDBRANCH  15  16
ENDBRANCH  13  15
ENDBRANCH  10  13
ENDBRANCH   4   6
ENDBRANCH   3   4
ENDBRANCH   2   3
ENDBRANCH   1   2
BRANCH   1  22
ATOM     22  O   UNL A   1      38.073  22.296  26.017  1.00  0.00    -0.374 OA
BRANCH  22  23
ATOM     23  C   UNL A   1      38.060  21.169  25.139  1.00  0.00     0.202 C 
BRANCH  23  24
ATOM     24  C   UNL A   1      38.897  19.932  25.463  1.00  0.00     0.261 C 
BRANCH  24  25
ATOM     25  O   UNL A   1      39.758  20.125  26.587  1.00  0.00    -0.460 OA
BRANCH  25  26
ATOM     26  C   UNL A   1      41.061  19.848  26.335  1.00  0.00     0.338 C 
ATOM     27  O   UNL A   1      41.525  18.822  25.872  1.00  0.00    -0.246 OA
BRANCH  26  28
ATOM     28  C   UNL A   1      41.844  21.081  26.502  1.00  0.00     0.060 A 
ATOM     29  C   UNL A   1      42.351  21.358  27.778  1.00  0.00     0.016 A 
ATOM     30  C   UNL A   1      42.033  21.965  25.439  1.00  0.00     0.016 A 
ATOM     31  C   UNL A   1      43.006  22.559  28.013  1.00  0.00     0.010 A 
ATOM     32  C   UNL A   1      42.678  23.175  25.679  1.00  0.00     0.010 A 
ATOM     33  C   UNL A   1      43.123  23.490  26.976  1.00  0.00    -0.014 A 
BRANCH  33  34
ATOM     34  C   UNL A   1      43.550  24.865  27.293  1.00  0.00     0.031 A 
ATOM     35  C   UNL A   1      42.550  25.799  27.909  1.00  0.00     0.074 A 
ATOM     36  C   UNL A   1      44.804  25.262  27.029  1.00  0.00     0.049 A 
ATOM     37  N   UNL A   1      42.682  27.057  28.230  1.00  0.00    -0.248 NA
ATOM     38  C   UNL A   1      41.216  25.240  28.193  1.00  0.00     0.031 C 
ATOM     39  C   UNL A   1      45.844  24.425  26.431  1.00  0.00     0.029 A 
ATOM     40  N   UNL A   1      45.404  26.481  27.203  1.00  0.00    -0.354 N 
ATOM     41  C   UNL A   1      41.442  27.452  28.715  1.00  0.00     0.074 A 
ATOM     42  C   UNL A   1      40.567  26.304  28.638  1.00  0.00     0.031 C 
ATOM     43  C   UNL A   1      46.946  25.171  26.247  1.00  0.00     0.029 A 
ATOM     44  C   UNL A   1      46.675  26.538  26.687  1.00  0.00     0.049 A 
ATOM     45  H   UNL A   1      44.966  27.241  27.651  1.00  0.00     0.167 HD
ATOM     46  C   UNL A   1      41.073  28.664  29.191  1.00  0.00     0.034 A 
ATOM     47  C   UNL A   1      47.508  27.587  26.556  1.00  0.00     0.034 A 
ATOM     48  C   UNL A   1      41.962  29.790  29.270  1.00  0.00     0.049 A 
ATOM     49  C   UNL A   1      47.073  28.927  27.083  1.00  0.00     0.074 A 
ATOM     50  C   UNL A   1      41.715  31.048  29.788  1.00  0.00     0.029 A 
ATOM     51  N   UNL A   1      43.265  29.800  28.793  1.00  0.00    -0.354 N 
ATOM     52  N   UNL A   1      45.940  29.262  27.655  1.00  0.00    -0.248 NA
ATOM     53  C   UNL A   1      48.043  30.026  26.983  1.00  0.00     0.031 C 
ATOM     54  C   UNL A   1      42.856  31.831  29.587  1.00  0.00     0.029 A 
ATOM     55  C   UNL A   1      43.830  31.048  28.985  1.00  0.00     0.049 A 
ATOM     56  H   UNL A   1      43.721  29.032  28.377  1.00  0.00     0.167 HD
ATOM     57  C   UNL A   1      46.071  30.598  28.012  1.00  0.00     0.074 A 
ATOM     58  C   UNL A   1      47.403  31.005  27.608  1.00  0.00     0.031 C 
ATOM     59  C   UNL A   1      45.172  31.419  28.610  1.00  0.00     0.034 A 
BRANCH  46  60
ATOM     60  C   UNL A   1      39.650  28.826  29.658  1.00  0.00     0.023 A 
ATOM     61  C   UNL A   1      39.284  28.429  30.961  1.00  0.00     0.012 A 
ATOM     62  C   UNL A   1      38.679  29.397  28.812  1.00  0.00     0.148 A 
ATOM     63  C   UNL A   1      37.965  28.560  31.399  1.00  0.00     0.002 A 
ATOM     64  C   UNL A   1      37.380  29.569  29.273  1.00  0.00     0.091 A 
ATOM     65  F   UNL A   1      39.039  29.741  27.568  1.00  0.00    -0.205 F 
ATOM     66  C   UNL A   1      37.018  29.139  30.559  1.00  0.00     0.022 A 
BRANCH  64  67
ATOM     67  S   UNL A   1      36.108  30.378  28.296  1.00  0.00     0.127 S 
ATOM     68  O   UNL A   1      35.041  30.546  29.280  1.00  0.00    -0.237 OA
ATOM     69  O   UNL A   1      36.772  31.621  27.898  1.00  0.00    -0.237 OA
ATOM     70  O   UNL A   1      35.809  29.471  27.197  1.00  0.00    -0.744 OA
ENDBRANCH  64  67
ENDBRANCH  46  60
BRANCH  47  71
ATOM     71  C   UNL A   1      48.835  27.395  25.909  1.00  0.00     0.023 A 
ATOM     72  C   UNL A   1      49.939  26.989  26.680  1.00  0.00     0.012 A 
ATOM     73  C   UNL A   1      48.989  27.568  24.519  1.00  0.00     0.148 A 
ATOM     74  C   UNL A   1      51.183  26.783  26.082  1.00  0.00     0.002 A 
ATOM     75  C   UNL A   1      50.216  27.305  23.922  1.00  0.00     0.091 A 
ATOM     76  F   UNL A   1      47.926  27.965  23.806  1.00  0.00    -0.205 F 
ATOM     77  C   UNL A   1      51.318  26.930  24.703  1.00  0.00     0.022 A 
BRANCH  75  78
ATOM     78  S   UNL A   1      50.445  27.335  22.140  1.00  0.00     0.127 S 
ATOM     79  O   UNL A   1      50.260  28.753  21.839  1.00  0.00    -0.237 OA
ATOM     80  O   UNL A   1      51.819  26.851  22.008  1.00  0.00    -0.237 OA
ATOM     81  O   UNL A   1      49.435  26.438  21.595  1.00  0.00    -0.744 OA
ENDBRANCH  75  78
ENDBRANCH  47  71
BRANCH  59  82
ATOM     82  C   UNL A   1      45.606  32.831  28.904  1.00  0.00     0.023 A 
ATOM     83  C   UNL A   1      46.334  33.118  30.075  1.00  0.00     0.012 A 
ATOM     84  C   UNL A   1      45.352  33.861  27.976  1.00  0.00     0.148 A 
ATOM     85  C   UNL A   1      46.773  34.415  30.335  1.00  0.00     0.002 A 
ATOM     86  C   UNL A   1      45.839  35.139  28.215  1.00  0.00     0.091 A 
ATOM     87  F   UNL A   1      44.642  33.570  26.876  1.00  0.00    -0.205 F 
ATOM     88  C   UNL A   1      46.537  35.422  29.400  1.00  0.00     0.022 A 
BRANCH  86  89
ATOM     89  S   UNL A   1      45.673  36.472  27.022  1.00  0.00     0.127 S 
ATOM     90  O   UNL A   1      46.436  35.952  25.888  1.00  0.00    -0.237 OA
ATOM     91  O   UNL A   1      44.226  36.522  26.814  1.00  0.00    -0.237 OA
ATOM     92  O   UNL A   1      46.234  37.655  27.660  1.00  0.00    -0.744 OA
ENDBRANCH  86  89
ENDBRANCH  59  82
ENDBRANCH  33  34
ENDBRANCH  26  28
ENDBRANCH  25  26
ENDBRANCH  24  25
ENDBRANCH  23  24
ENDBRANCH  22  23
ENDBRANCH   1  22
TORSDOF 22
ENDMDL
MODEL 3
REMARK VINA RESULT:      -9.9      1.539      1.790
REMARK SMILES CO[C@H]1C[C@@H](C(=O)OCCOCCOC(=O)c2ccc(-c3c4nc(c(-c5cccc(S(=O)(=O)[O-])c5F)c5ccc([nH]5)c(-c5cccc(S(=O)(=O)[O-])c5F)c5nc(c(-c6cccc(S(=O)(=O)[O-])c6F)c6ccc3[nH]6)C=C5)C=C4)cc2)N(C(=O)CSc2cccs2)C1
REMARK SMILES IDX 10 1 9 2 8 3 6 4 7 5 5 6 3 7 4 8 90 9 80 10 2 11 1 12 81 13
REMARK SMILES IDX 82 14 83 15 84 16 85 17 86 18 89 19 87 20 88 21 11 22 12 23
REMARK SMILES IDX 13 24 14 25 15 26 16 27 17 28 18 29 79 30 19 31 78 32 20 33
REMARK SMILES IDX 21 34 22 35 72 36 23 37 77 38 71 39 73 40 24 41 76 42 70 43
REMARK SMILES IDX 69 44 25 46 57 47 37 48 56 49 38 50 41 51 55 52 74 53 39 54
REMARK SMILES IDX 40 55 54 57 75 58 42 59 26 60 27 61 35 62 28 63 30 64 36 65
REMARK SMILES IDX 29 66 31 67 32 68 33 69 34 70 58 71 59 72 67 73 60 74 62 75
REMARK SMILES IDX 68 76 61 77 63 78 64 79 65 80 66 81 43 82 44 83 52 84 45 85
REMARK SMILES IDX 47 86 53 87 46 88 48 89 49 90 50 91 51 92
REMARK H PARENT 73 45 41 56
REMARK Flexibility Score: inf
ROOT
ATOM      1  C   UNL A   1      33.202  29.961  26.309  1.00  0.00     0.202 C 
ENDROOT
BRANCH   1   2
ATOM      2  C   UNL A   1      34.017  28.712  26.655  1.00  0.00     0.261 C 
BRANCH   2   3
ATOM      3  O   UNL A   1      33.228  27.525  26.522  1.00  0.00    -0.462 OA
BRANCH   3   4
ATOM      4  C   UNL A   1      33.648  26.663  25.562  1.00  0.00     0.329 C 
ATOM      5  O   UNL A   1      33.958  26.996  24.425  1.00  0.00    -0.250 OA
BRANCH   4   6
ATOM      6  C   UNL A   1      33.801  25.227  26.066  1.00  0.00     0.197 C 
ATOM      7  C   UNL A   1      34.804  23.076  25.888  1.00  0.00     0.140 C 
ATOM      8  C   UNL A   1      34.897  24.476  25.296  1.00  0.00     0.071 C 
ATOM      9  C   UNL A   1      33.290  22.885  26.033  1.00  0.00     0.152 C 
ATOM     10  N   UNL A   1      32.706  24.228  26.079  1.00  0.00    -0.325 N 
BRANCH   7  11
ATOM     11  O   UNL A   1      35.398  22.129  25.010  1.00  0.00    -0.380 OA
ATOM     12  C   UNL A   1      36.767  21.896  25.318  1.00  0.00     0.195 C 
ENDBRANCH   7  11
BRANCH  10  13
ATOM     13  C   UNL A   1      31.383  24.338  26.468  1.00  0.00     0.233 C 
ATOM     14  O   UNL A   1      30.928  23.584  27.339  1.00  0.00    -0.274 OA
BRANCH  13  15
ATOM     15  C   UNL A   1      30.419  25.221  25.696  1.00  0.00     0.175 C 
BRANCH  15  16
ATOM     16  S   UNL A   1      30.481  25.078  23.911  1.00  0.00    -0.105 SA
BRANCH  16  17
ATOM     17  C   UNL A   1      30.147  26.692  23.363  1.00  0.00     0.060 A 
ATOM     18  C   UNL A   1      31.045  27.587  22.826  1.00  0.00     0.027 A 
ATOM     19  S   UNL A   1      28.588  27.364  23.535  1.00  0.00    -0.137 S 
ATOM     20  C   UNL A   1      30.444  28.856  22.581  1.00  0.00     0.013 A 
ATOM     21  C   UNL A   1      29.110  28.871  22.927  1.00  0.00     0.066 A 
ENDBRANCH  16  17
ENDBRANCH  15  16
ENDBRANCH  13  15
ENDBRANCH  10  13
ENDBRANCH   4   6
ENDBRANCH   3   4
ENDBRANCH   2   3
ENDBRANCH   1   2
BRANCH   1  22
ATOM     22  O   UNL A   1      32.960  30.920  27.339  1.00  0.00    -0.374 OA
BRANCH  22  23
ATOM     23  C   UNL A   1      32.044  31.986  27.087  1.00  0.00     0.202 C 
BRANCH  23  24
ATOM     24  C   UNL A   1      32.493  33.438  27.242  1.00  0.00     0.261 C 
BRANCH  24  25
ATOM     25  O   UNL A   1      32.572  33.851  28.607  1.00  0.00    -0.460 OA
BRANCH  25  26
ATOM     26  C   UNL A   1      33.682  34.571  28.901  1.00  0.00     0.338 C 
ATOM     27  O   UNL A   1      33.756  35.768  29.108  1.00  0.00    -0.246 OA
BRANCH  26  28
ATOM     28  C   UNL A   1      34.791  33.640  29.158  1.00  0.00     0.060 A 
ATOM     29  C   UNL A   1      34.520  32.511  29.942  1.00  0.00     0.016 A 
ATOM     30  C   UNL A   1      36.075  33.898  28.678  1.00  0.00     0.016 A 
ATOM     31  C   UNL A   1      35.554  31.658  30.301  1.00  0.00     0.010 A 
ATOM     32  C   UNL A   1      37.113  33.049  29.049  1.00  0.00     0.010 A 
ATOM     33  C   UNL A   1      36.859  31.956  29.897  1.00  0.00    -0.014 A 
BRANCH  33  34
ATOM     34  C   UNL A   1      37.983  31.226  30.513  1.00  0.00     0.031 A 
ATOM     35  C   UNL A   1      38.416  31.618  31.896  1.00  0.00     0.074 A 
ATOM     36  C   UNL A   1      38.598  30.240  29.842  1.00  0.00     0.049 A 
ATOM     37  N   UNL A   1      39.400  31.153  32.616  1.00  0.00    -0.248 NA
ATOM     38  C   UNL A   1      37.640  32.685  32.551  1.00  0.00     0.031 C 
ATOM     39  C   UNL A   1      38.247  29.792  28.496  1.00  0.00     0.029 A 
ATOM     40  N   UNL A   1      39.668  29.461  30.194  1.00  0.00    -0.354 N 
ATOM     41  C   UNL A   1      39.389  31.895  33.790  1.00  0.00     0.074 A 
ATOM     42  C   UNL A   1      38.306  32.847  33.684  1.00  0.00     0.031 C 
ATOM     43  C   UNL A   1      39.118  28.842  28.116  1.00  0.00     0.029 A 
ATOM     44  C   UNL A   1      40.097  28.641  29.181  1.00  0.00     0.049 A 
ATOM     45  H   UNL A   1      40.088  29.488  31.085  1.00  0.00     0.167 HD
ATOM     46  C   UNL A   1      40.204  31.782  34.864  1.00  0.00     0.034 A 
ATOM     47  C   UNL A   1      41.182  27.846  29.113  1.00  0.00     0.034 A 
ATOM     48  C   UNL A   1      41.268  30.821  34.955  1.00  0.00     0.049 A 
ATOM     49  C   UNL A   1      42.080  27.743  30.316  1.00  0.00     0.074 A 
ATOM     50  C   UNL A   1      42.120  30.576  36.016  1.00  0.00     0.029 A 
ATOM     51  N   UNL A   1      41.642  29.960  33.933  1.00  0.00    -0.354 N 
ATOM     52  N   UNL A   1      41.988  28.359  31.470  1.00  0.00    -0.248 NA
ATOM     53  C   UNL A   1      43.209  26.809  30.222  1.00  0.00     0.031 C 
ATOM     54  C   UNL A   1      43.036  29.596  35.620  1.00  0.00     0.029 A 
ATOM     55  C   UNL A   1      42.726  29.196  34.328  1.00  0.00     0.049 A 
ATOM     56  H   UNL A   1      41.203  29.902  33.053  1.00  0.00     0.167 HD
ATOM     57  C   UNL A   1      43.025  27.866  32.253  1.00  0.00     0.074 A 
ATOM     58  C   UNL A   1      43.721  26.884  31.444  1.00  0.00     0.031 C 
ATOM     59  C   UNL A   1      43.378  28.198  33.519  1.00  0.00     0.034 A 
BRANCH  46  60
ATOM     60  C   UNL A   1      39.973  32.723  36.017  1.00  0.00     0.023 A 
ATOM     61  C   UNL A   1      38.975  32.439  36.972  1.00  0.00     0.012 A 
ATOM     62  C   UNL A   1      40.764  33.878  36.168  1.00  0.00     0.148 A 
ATOM     63  C   UNL A   1      38.741  33.312  38.036  1.00  0.00     0.002 A 
ATOM     64  C   UNL A   1      40.559  34.716  37.258  1.00  0.00     0.091 A 
ATOM     65  F   UNL A   1      41.689  34.147  35.236  1.00  0.00    -0.205 F 
ATOM     66  C   UNL A   1      39.539  34.443  38.183  1.00  0.00     0.022 A 
BRANCH  64  67
ATOM     67  S   UNL A   1      41.587  36.153  37.578  1.00  0.00     0.127 S 
ATOM     68  O   UNL A   1      41.581  36.818  36.276  1.00  0.00    -0.237 OA
ATOM     69  O   UNL A   1      40.827  36.847  38.620  1.00  0.00    -0.237 OA
ATOM     70  O   UNL A   1      42.877  35.636  38.011  1.00  0.00    -0.744 OA
ENDBRANCH  64  67
ENDBRANCH  46  60
BRANCH  47  71
ATOM     71  C   UNL A   1      41.456  27.083  27.865  1.00  0.00     0.023 A 
ATOM     72  C   UNL A   1      42.023  27.734  26.754  1.00  0.00     0.012 A 
ATOM     73  C   UNL A   1      41.201  25.699  27.798  1.00  0.00     0.148 A 
ATOM     74  C   UNL A   1      42.307  27.024  25.587  1.00  0.00     0.002 A 
ATOM     75  C   UNL A   1      41.539  24.988  26.653  1.00  0.00     0.091 A 
ATOM     76  F   UNL A   1      40.652  25.101  28.865  1.00  0.00    -0.205 F 
ATOM     77  C   UNL A   1      42.075  25.651  25.540  1.00  0.00     0.022 A 
BRANCH  75  78
ATOM     78  S   UNL A   1      41.404  23.199  26.556  1.00  0.00     0.127 S 
ATOM     79  O   UNL A   1      42.248  22.898  25.403  1.00  0.00    -0.237 OA
ATOM     80  O   UNL A   1      41.954  22.787  27.847  1.00  0.00    -0.237 OA
ATOM     81  O   UNL A   1      39.984  22.917  26.389  1.00  0.00    -0.744 OA
ENDBRANCH  75  78
ENDBRANCH  47  71
BRANCH  59  82
ATOM     82  C   UNL A   1      44.546  27.468  34.131  1.00  0.00     0.023 A 
ATOM     83  C   UNL A   1      45.856  27.953  33.949  1.00  0.00     0.012 A 
ATOM     84  C   UNL A   1      44.331  26.341  34.948  1.00  0.00     0.148 A 
ATOM     85  C   UNL A   1      46.938  27.306  34.544  1.00  0.00     0.002 A 
ATOM     86  C   UNL A   1      45.407  25.734  35.582  1.00  0.00     0.091 A 
ATOM     87  F   UNL A   1      43.078  25.886  35.095  1.00  0.00    -0.205 F 
ATOM     88  C   UNL A   1      46.713  26.206  35.370  1.00  0.00     0.022 A 
BRANCH  86  89
ATOM     89  S   UNL A   1      45.203  24.379  36.743  1.00  0.00     0.127 S 
ATOM     90  O   UNL A   1      44.759  23.298  35.863  1.00  0.00    -0.237 OA
ATOM     91  O   UNL A   1      46.558  24.218  37.271  1.00  0.00    -0.237 OA
ATOM     92  O   UNL A   1      44.222  24.830  37.720  1.00  0.00    -0.744 OA
ENDBRANCH  86  89
ENDBRANCH  59  82
ENDBRANCH  33  34
ENDBRANCH  26  28
ENDBRANCH  25  26
ENDBRANCH  24  25
ENDBRANCH  23  24
ENDBRANCH  22  23
ENDBRANCH   1  22
TORSDOF 22
ENDMDL
