MODEL 1
REMARK VINA RESULT:     -11.9      0.000      0.000
REMARK SMILES COc1cccc(C(=O)N2[C@@H](C(=O)OCCOCCOC(=O)c3ccc(-c4c5nc(c(-c6cccc(S(=O)(=O)[O-])c6F)c6ccc([nH]6)c(-c6cccc(S(=O)(=O)[O-])c6F)c6nc(c(-c7cccc(S(=O)(=O)[O-])c7F)c7ccc4[nH]7)C=C6)C=C5)cc3)CS[C@@H]2c2ccccc2Cl)c1
REMARK SMILES IDX 17 1 16 2 15 3 14 4 12 5 13 6 11 7 10 8 88 9 86 10 87 11
REMARK SMILES IDX 8 12 9 13 7 14 3 15 4 16 96 17 5 18 6 19 2 20 1 21 89 22
REMARK SMILES IDX 90 23 94 24 91 25 93 26 95 27 92 28 18 29 19 30 20 31 21 32
REMARK SMILES IDX 22 33 23 34 24 35 85 36 25 37 84 38 26 39 27 40 28 41 78 42
REMARK SMILES IDX 29 43 83 44 77 45 79 46 30 47 82 48 76 49 75 50 31 52 63 53
REMARK SMILES IDX 43 54 62 55 44 56 47 57 61 58 80 59 45 60 46 61 60 63 81 64
REMARK SMILES IDX 48 65 32 66 33 67 41 68 34 69 36 70 42 71 35 72 37 73 38 74
REMARK SMILES IDX 39 75 40 76 64 77 65 78 73 79 66 80 68 81 74 82 67 83 69 84
REMARK SMILES IDX 70 85 71 86 72 87 49 88 50 89 58 90 51 91 53 92 59 93 52 94
REMARK SMILES IDX 54 95 55 96 56 97 57 98
REMARK H PARENT 79 51 47 62
REMARK Flexibility Score: inf
ROOT
ATOM      1  O   UNL A   1      34.531  19.634  24.769  1.00  0.00    -0.374 OA
ENDROOT
BRANCH   1   2
ATOM      2  C   UNL A   1      33.155  19.999  24.897  1.00  0.00     0.202 C 
BRANCH   2   3
ATOM      3  C   UNL A   1      32.406  20.376  23.614  1.00  0.00     0.261 C 
BRANCH   3   4
ATOM      4  O   UNL A   1      31.868  21.701  23.733  1.00  0.00    -0.462 OA
BRANCH   4   5
ATOM      5  C   UNL A   1      32.711  22.725  23.419  1.00  0.00     0.329 C 
ATOM      6  O   UNL A   1      33.539  22.709  22.519  1.00  0.00    -0.250 OA
BRANCH   5   7
ATOM      7  C   UNL A   1      32.444  23.904  24.365  1.00  0.00     0.206 C 
ATOM      8  N   UNL A   1      32.660  25.212  23.702  1.00  0.00    -0.308 N 
ATOM      9  C   UNL A   1      33.622  26.073  24.354  1.00  0.00     0.176 C 
ATOM     10  C   UNL A   1      33.402  23.753  25.543  1.00  0.00     0.109 C 
ATOM     11  S   UNL A   1      34.777  24.849  25.108  1.00  0.00    -0.129 SA
BRANCH   8  12
ATOM     12  C   UNL A   1      31.872  25.636  22.647  1.00  0.00     0.255 C 
ATOM     13  O   UNL A   1      32.180  25.450  21.474  1.00  0.00    -0.269 OA
BRANCH  12  14
ATOM     14  C   UNL A   1      30.701  26.529  22.937  1.00  0.00     0.043 A 
ATOM     15  C   UNL A   1      29.455  28.594  22.639  1.00  0.00     0.119 A 
ATOM     16  C   UNL A   1      28.365  28.035  23.308  1.00  0.00     0.046 A 
ATOM     17  C   UNL A   1      30.620  27.844  22.462  1.00  0.00     0.060 A 
ATOM     18  C   UNL A   1      28.424  26.724  23.777  1.00  0.00     0.005 A 
ATOM     19  C   UNL A   1      29.588  25.975  23.593  1.00  0.00     0.014 A 
BRANCH  15  20
ATOM     20  O   UNL A   1      29.278  29.885  22.218  1.00  0.00    -0.497 OA
ATOM     21  C   UNL A   1      27.946  30.388  22.300  1.00  0.00     0.278 C 
ENDBRANCH  15  20
ENDBRANCH  12  14
ENDBRANCH   8  12
BRANCH   9  22
ATOM     22  C   UNL A   1      33.161  27.037  25.457  1.00  0.00     0.003 A 
ATOM     23  C   UNL A   1      34.004  28.168  25.639  1.00  0.00     0.008 A 
ATOM     24  C   UNL A   1      32.088  26.914  26.358  1.00  0.00     0.047 A 
ATOM     25  C   UNL A   1      33.826  29.082  26.681  1.00  0.00     0.001 A 
ATOM     26  C   UNL A   1      31.893  27.860  27.382  1.00  0.00     0.021 A 
ATOM     27  Cl  UNL A   1      30.941  25.632  26.399  1.00  0.00    -0.084 Cl
ATOM     28  C   UNL A   1      32.766  28.928  27.556  1.00  0.00     0.002 A 
ENDBRANCH   9  22
ENDBRANCH   5   7
ENDBRANCH   4   5
ENDBRANCH   3   4
ENDBRANCH   2   3
ENDBRANCH   1   2
BRANCH   1  29
ATOM     29  C   UNL A   1      35.503  20.634  25.067  1.00  0.00     0.202 C 
BRANCH  29  30
ATOM     30  C   UNL A   1      36.993  20.277  25.005  1.00  0.00     0.261 C 
BRANCH  30  31
ATOM     31  O   UNL A   1      37.840  21.400  25.251  1.00  0.00    -0.460 OA
BRANCH  31  32
ATOM     32  C   UNL A   1      38.960  21.083  25.941  1.00  0.00     0.338 C 
ATOM     33  O   UNL A   1      39.551  20.011  25.954  1.00  0.00    -0.246 OA
BRANCH  32  34
ATOM     34  C   UNL A   1      39.500  22.304  26.549  1.00  0.00     0.060 A 
ATOM     35  C   UNL A   1      38.934  23.521  26.153  1.00  0.00     0.016 A 
ATOM     36  C   UNL A   1      40.553  22.257  27.465  1.00  0.00     0.016 A 
ATOM     37  C   UNL A   1      39.463  24.713  26.629  1.00  0.00     0.010 A 
ATOM     38  C   UNL A   1      41.088  23.455  27.935  1.00  0.00     0.010 A 
ATOM     39  C   UNL A   1      40.573  24.683  27.482  1.00  0.00    -0.014 A 
BRANCH  39  40
ATOM     40  C   UNL A   1      41.306  25.935  27.750  1.00  0.00     0.031 A 
ATOM     41  C   UNL A   1      40.613  27.019  28.522  1.00  0.00     0.074 A 
ATOM     42  C   UNL A   1      42.571  26.088  27.323  1.00  0.00     0.049 A 
ATOM     43  N   UNL A   1      41.049  28.202  28.863  1.00  0.00    -0.248 NA
ATOM     44  C   UNL A   1      39.238  26.734  28.965  1.00  0.00     0.031 C 
ATOM     45  C   UNL A   1      43.338  25.090  26.581  1.00  0.00     0.029 A 
ATOM     46  N   UNL A   1      43.422  27.155  27.440  1.00  0.00    -0.354 N 
ATOM     47  C   UNL A   1      39.995  28.814  29.530  1.00  0.00     0.074 A 
ATOM     48  C   UNL A   1      38.891  27.879  29.529  1.00  0.00     0.031 C 
ATOM     49  C   UNL A   1      44.547  25.600  26.293  1.00  0.00     0.029 A 
ATOM     50  C   UNL A   1      44.624  26.966  26.804  1.00  0.00     0.049 A 
ATOM     51  H   UNL A   1      43.194  27.976  27.933  1.00  0.00     0.167 HD
ATOM     52  C   UNL A   1      39.956  30.039  30.104  1.00  0.00     0.034 A 
ATOM     53  C   UNL A   1      45.659  27.812  26.641  1.00  0.00     0.034 A 
ATOM     54  C   UNL A   1      41.065  30.954  30.102  1.00  0.00     0.049 A 
ATOM     55  C   UNL A   1      45.578  29.186  27.254  1.00  0.00     0.074 A 
ATOM     56  C   UNL A   1      41.152  32.203  30.689  1.00  0.00     0.029 A 
ATOM     57  N   UNL A   1      42.275  30.725  29.463  1.00  0.00    -0.354 N 
ATOM     58  N   UNL A   1      44.617  29.715  27.972  1.00  0.00    -0.248 NA
ATOM     59  C   UNL A   1      46.738  30.066  27.059  1.00  0.00     0.031 C 
ATOM     60  C   UNL A   1      42.401  32.746  30.369  1.00  0.00     0.029 A 
ATOM     61  C   UNL A   1      43.109  31.817  29.621  1.00  0.00     0.049 A 
ATOM     62  H   UNL A   1      42.506  29.906  28.968  1.00  0.00     0.167 HD
ATOM     63  C   UNL A   1      45.070  30.975  28.350  1.00  0.00     0.074 A 
ATOM     64  C   UNL A   1      46.399  31.120  27.788  1.00  0.00     0.031 C 
ATOM     65  C   UNL A   1      44.445  31.926  29.087  1.00  0.00     0.034 A 
BRANCH  52  66
ATOM     66  C   UNL A   1      38.670  30.446  30.776  1.00  0.00     0.023 A 
ATOM     67  C   UNL A   1      38.441  30.110  32.126  1.00  0.00     0.012 A 
ATOM     68  C   UNL A   1      37.688  31.170  30.071  1.00  0.00     0.148 A 
ATOM     69  C   UNL A   1      37.237  30.439  32.748  1.00  0.00     0.002 A 
ATOM     70  C   UNL A   1      36.512  31.540  30.712  1.00  0.00     0.091 A 
ATOM     71  F   UNL A   1      37.909  31.461  28.781  1.00  0.00    -0.205 F 
ATOM     72  C   UNL A   1      36.277  31.161  32.044  1.00  0.00     0.022 A 
BRANCH  70  73
ATOM     73  S   UNL A   1      35.252  32.540  29.915  1.00  0.00     0.127 S 
ATOM     74  O   UNL A   1      34.255  32.662  30.976  1.00  0.00    -0.237 OA
ATOM     75  O   UNL A   1      35.981  33.774  29.618  1.00  0.00    -0.237 OA
ATOM     76  O   UNL A   1      34.830  31.790  28.740  1.00  0.00    -0.744 OA
ENDBRANCH  70  73
ENDBRANCH  52  66
BRANCH  53  77
ATOM     77  C   UNL A   1      46.872  27.361  25.907  1.00  0.00     0.023 A 
ATOM     78  C   UNL A   1      46.987  27.632  24.529  1.00  0.00     0.012 A 
ATOM     79  C   UNL A   1      47.929  26.710  26.571  1.00  0.00     0.148 A 
ATOM     80  C   UNL A   1      48.124  27.241  23.822  1.00  0.00     0.002 A 
ATOM     81  C   UNL A   1      49.082  26.373  25.872  1.00  0.00     0.091 A 
ATOM     82  F   UNL A   1      47.794  26.457  27.880  1.00  0.00    -0.205 F 
ATOM     83  C   UNL A   1      49.176  26.622  24.494  1.00  0.00     0.022 A 
BRANCH  81  84
ATOM     84  S   UNL A   1      50.536  25.688  26.676  1.00  0.00     0.127 S 
ATOM     85  O   UNL A   1      50.864  26.735  27.640  1.00  0.00    -0.237 OA
ATOM     86  O   UNL A   1      50.001  24.458  27.258  1.00  0.00    -0.237 OA
ATOM     87  O   UNL A   1      51.515  25.481  25.617  1.00  0.00    -0.744 OA
ENDBRANCH  81  84
ENDBRANCH  53  77
BRANCH  65  88
ATOM     88  C   UNL A   1      45.201  33.199  29.370  1.00  0.00     0.023 A 
ATOM     89  C   UNL A   1      46.033  33.290  30.503  1.00  0.00     0.012 A 
ATOM     90  C   UNL A   1      45.142  34.280  28.466  1.00  0.00     0.148 A 
ATOM     91  C   UNL A   1      46.766  34.451  30.751  1.00  0.00     0.002 A 
ATOM     92  C   UNL A   1      45.917  35.410  28.691  1.00  0.00     0.091 A 
ATOM     93  F   UNL A   1      44.332  34.179  27.402  1.00  0.00    -0.205 F 
ATOM     94  C   UNL A   1      46.719  35.503  29.840  1.00  0.00     0.022 A 
BRANCH  92  95
ATOM     95  S   UNL A   1      45.999  36.771  27.522  1.00  0.00     0.127 S 
ATOM     96  O   UNL A   1      46.414  36.087  26.298  1.00  0.00    -0.237 OA
ATOM     97  O   UNL A   1      44.618  37.254  27.513  1.00  0.00    -0.237 OA
ATOM     98  O   UNL A   1      46.966  37.713  28.068  1.00  0.00    -0.744 OA
ENDBRANCH  92  95
ENDBRANCH  65  88
ENDBRANCH  39  40
ENDBRANCH  32  34
ENDBRANCH  31  32
ENDBRANCH  30  31
ENDBRANCH  29  30
ENDBRANCH   1  29
TORSDOF 21
ENDMDL
MODEL 2
REMARK VINA RESULT:     -11.7      1.479      7.433
REMARK SMILES COc1cccc(C(=O)N2[C@@H](C(=O)OCCOCCOC(=O)c3ccc(-c4c5nc(c(-c6cccc(S(=O)(=O)[O-])c6F)c6ccc([nH]6)c(-c6cccc(S(=O)(=O)[O-])c6F)c6nc(c(-c7cccc(S(=O)(=O)[O-])c7F)c7ccc4[nH]7)C=C6)C=C5)cc3)CS[C@@H]2c2ccccc2Cl)c1
REMARK SMILES IDX 17 1 16 2 15 3 14 4 12 5 13 6 11 7 10 8 88 9 86 10 87 11
REMARK SMILES IDX 8 12 9 13 7 14 3 15 4 16 96 17 5 18 6 19 2 20 1 21 89 22
REMARK SMILES IDX 90 23 94 24 91 25 93 26 95 27 92 28 18 29 19 30 20 31 21 32
REMARK SMILES IDX 22 33 23 34 24 35 85 36 25 37 84 38 26 39 27 40 28 41 78 42
REMARK SMILES IDX 29 43 83 44 77 45 79 46 30 47 82 48 76 49 75 50 31 52 63 53
REMARK SMILES IDX 43 54 62 55 44 56 47 57 61 58 80 59 45 60 46 61 60 63 81 64
REMARK SMILES IDX 48 65 32 66 33 67 41 68 34 69 36 70 42 71 35 72 37 73 38 74
REMARK SMILES IDX 39 75 40 76 64 77 65 78 73 79 66 80 68 81 74 82 67 83 69 84
REMARK SMILES IDX 70 85 71 86 72 87 49 88 50 89 58 90 51 91 53 92 59 93 52 94
REMARK SMILES IDX 54 95 55 96 56 97 57 98
REMARK H PARENT 79 51 47 62
REMARK Flexibility Score: inf
ROOT
ATOM      1  O   UNL A   1      34.701  20.422  24.824  1.00  0.00    -0.374 OA
ENDROOT
BRANCH   1   2
ATOM      2  C   UNL A   1      33.701  21.361  24.422  1.00  0.00     0.202 C 
BRANCH   2   3
ATOM      3  C   UNL A   1      32.254  21.064  24.830  1.00  0.00     0.261 C 
BRANCH   3   4
ATOM      4  O   UNL A   1      31.647  22.245  25.375  1.00  0.00    -0.462 OA
BRANCH   4   5
ATOM      5  C   UNL A   1      31.199  23.164  24.475  1.00  0.00     0.329 C 
ATOM      6  O   UNL A   1      30.766  22.909  23.359  1.00  0.00    -0.250 OA
BRANCH   5   7
ATOM      7  C   UNL A   1      31.311  24.566  25.090  1.00  0.00     0.206 C 
ATOM      8  N   UNL A   1      31.916  25.541  24.151  1.00  0.00    -0.308 N 
ATOM      9  C   UNL A   1      33.099  26.209  24.648  1.00  0.00     0.176 C 
ATOM     10  C   UNL A   1      32.181  24.436  26.336  1.00  0.00     0.109 C 
ATOM     11  S   UNL A   1      33.824  24.926  25.755  1.00  0.00    -0.129 SA
BRANCH   8  12
ATOM     12  C   UNL A   1      31.292  25.903  22.970  1.00  0.00     0.255 C 
ATOM     13  O   UNL A   1      31.646  25.475  21.876  1.00  0.00    -0.269 OA
BRANCH  12  14
ATOM     14  C   UNL A   1      30.279  27.010  23.002  1.00  0.00     0.043 A 
ATOM     15  C   UNL A   1      29.442  29.171  22.270  1.00  0.00     0.119 A 
ATOM     16  C   UNL A   1      28.224  28.915  22.902  1.00  0.00     0.046 A 
ATOM     17  C   UNL A   1      30.467  28.223  22.327  1.00  0.00     0.060 A 
ATOM     18  C   UNL A   1      28.017  27.709  23.568  1.00  0.00     0.005 A 
ATOM     19  C   UNL A   1      29.041  26.761  23.618  1.00  0.00     0.014 A 
BRANCH  15  20
ATOM     20  O   UNL A   1      29.528  30.385  21.642  1.00  0.00    -0.497 OA
ATOM     21  C   UNL A   1      28.296  30.928  21.171  1.00  0.00     0.278 C 
ENDBRANCH  15  20
ENDBRANCH  12  14
ENDBRANCH   8  12
BRANCH   9  22
ATOM     22  C   UNL A   1      32.960  27.511  25.451  1.00  0.00     0.003 A 
ATOM     23  C   UNL A   1      32.472  27.335  26.776  1.00  0.00     0.008 A 
ATOM     24  C   UNL A   1      33.162  28.841  25.038  1.00  0.00     0.047 A 
ATOM     25  C   UNL A   1      32.151  28.409  27.610  1.00  0.00     0.001 A 
ATOM     26  C   UNL A   1      32.871  29.916  25.898  1.00  0.00     0.021 A 
ATOM     27  Cl  UNL A   1      33.702  29.347  23.485  1.00  0.00    -0.084 Cl
ATOM     28  C   UNL A   1      32.352  29.705  27.170  1.00  0.00     0.002 A 
ENDBRANCH   9  22
ENDBRANCH   5   7
ENDBRANCH   4   5
ENDBRANCH   3   4
ENDBRANCH   2   3
ENDBRANCH   1   2
BRANCH   1  29
ATOM     29  C   UNL A   1      35.907  20.949  25.373  1.00  0.00     0.202 C 
BRANCH  29  30
ATOM     30  C   UNL A   1      37.245  20.289  25.017  1.00  0.00     0.261 C 
BRANCH  30  31
ATOM     31  O   UNL A   1      38.326  21.221  24.977  1.00  0.00    -0.460 OA
BRANCH  31  32
ATOM     32  C   UNL A   1      39.291  20.960  25.888  1.00  0.00     0.338 C 
ATOM     33  O   UNL A   1      39.878  19.902  26.073  1.00  0.00    -0.246 OA
BRANCH  32  34
ATOM     34  C   UNL A   1      39.690  22.220  26.526  1.00  0.00     0.060 A 
ATOM     35  C   UNL A   1      38.996  23.376  26.151  1.00  0.00     0.016 A 
ATOM     36  C   UNL A   1      40.735  22.269  27.451  1.00  0.00     0.016 A 
ATOM     37  C   UNL A   1      39.387  24.608  26.656  1.00  0.00     0.010 A 
ATOM     38  C   UNL A   1      41.131  23.508  27.951  1.00  0.00     0.010 A 
ATOM     39  C   UNL A   1      40.487  24.681  27.519  1.00  0.00    -0.014 A 
BRANCH  39  40
ATOM     40  C   UNL A   1      41.077  26.000  27.819  1.00  0.00     0.031 A 
ATOM     41  C   UNL A   1      42.475  26.282  27.350  1.00  0.00     0.074 A 
ATOM     42  C   UNL A   1      40.369  26.929  28.482  1.00  0.00     0.049 A 
ATOM     43  N   UNL A   1      43.201  27.357  27.508  1.00  0.00    -0.248 NA
ATOM     44  C   UNL A   1      43.149  25.203  26.608  1.00  0.00     0.031 C 
ATOM     45  C   UNL A   1      38.999  26.760  28.964  1.00  0.00     0.029 A 
ATOM     46  N   UNL A   1      40.717  28.193  28.879  1.00  0.00    -0.354 N 
ATOM     47  C   UNL A   1      44.425  27.073  26.916  1.00  0.00     0.074 A 
ATOM     48  C   UNL A   1      44.352  25.719  26.412  1.00  0.00     0.031 C 
ATOM     49  C   UNL A   1      38.627  27.878  29.610  1.00  0.00     0.029 A 
ATOM     50  C   UNL A   1      39.741  28.823  29.610  1.00  0.00     0.049 A 
ATOM     51  H   UNL A   1      41.582  28.609  28.660  1.00  0.00     0.167 HD
ATOM     52  C   UNL A   1      45.509  27.875  26.790  1.00  0.00     0.034 A 
ATOM     53  C   UNL A   1      39.757  30.021  30.224  1.00  0.00     0.034 A 
ATOM     54  C   UNL A   1      45.564  29.222  27.291  1.00  0.00     0.049 A 
ATOM     55  C   UNL A   1      40.988  30.881  30.105  1.00  0.00     0.074 A 
ATOM     56  C   UNL A   1      46.592  30.139  27.183  1.00  0.00     0.029 A 
ATOM     57  N   UNL A   1      44.551  29.837  28.012  1.00  0.00    -0.354 N 
ATOM     58  N   UNL A   1      42.102  30.646  29.454  1.00  0.00    -0.248 NA
ATOM     59  C   UNL A   1      40.952  32.185  30.781  1.00  0.00     0.031 C 
ATOM     60  C   UNL A   1      46.216  31.295  27.876  1.00  0.00     0.029 A 
ATOM     61  C   UNL A   1      44.936  31.114  28.377  1.00  0.00     0.049 A 
ATOM     62  H   UNL A   1      43.685  29.424  28.234  1.00  0.00     0.167 HD
ATOM     63  C   UNL A   1      42.884  31.785  29.606  1.00  0.00     0.074 A 
ATOM     64  C   UNL A   1      42.107  32.715  30.403  1.00  0.00     0.031 C 
ATOM     65  C   UNL A   1      44.131  32.039  29.137  1.00  0.00     0.034 A 
BRANCH  52  66
ATOM     66  C   UNL A   1      46.712  27.305  26.085  1.00  0.00     0.023 A 
ATOM     67  C   UNL A   1      47.526  26.353  26.735  1.00  0.00     0.012 A 
ATOM     68  C   UNL A   1      47.036  27.707  24.775  1.00  0.00     0.148 A 
ATOM     69  C   UNL A   1      48.669  25.851  26.114  1.00  0.00     0.002 A 
ATOM     70  C   UNL A   1      48.147  27.164  24.142  1.00  0.00     0.091 A 
ATOM     71  F   UNL A   1      46.268  28.631  24.180  1.00  0.00    -0.205 F 
ATOM     72  C   UNL A   1      48.974  26.249  24.815  1.00  0.00     0.022 A 
BRANCH  70  73
ATOM     73  S   UNL A   1      48.576  27.553  22.443  1.00  0.00     0.127 S 
ATOM     74  O   UNL A   1      47.390  28.281  21.997  1.00  0.00    -0.237 OA
ATOM     75  O   UNL A   1      49.773  28.380  22.609  1.00  0.00    -0.237 OA
ATOM     76  O   UNL A   1      48.812  26.274  21.786  1.00  0.00    -0.744 OA
ENDBRANCH  70  73
ENDBRANCH  52  66
BRANCH  53  77
ATOM     77  C   UNL A   1      38.552  30.491  30.959  1.00  0.00     0.023 A 
ATOM     78  C   UNL A   1      38.443  30.238  32.340  1.00  0.00     0.012 A 
ATOM     79  C   UNL A   1      37.539  31.225  30.312  1.00  0.00     0.148 A 
ATOM     80  C   UNL A   1      37.335  30.687  33.059  1.00  0.00     0.002 A 
ATOM     81  C   UNL A   1      36.466  31.716  31.044  1.00  0.00     0.091 A 
ATOM     82  F   UNL A   1      37.661  31.447  28.996  1.00  0.00    -0.205 F 
ATOM     83  C   UNL A   1      36.353  31.436  32.415  1.00  0.00     0.022 A 
BRANCH  81  84
ATOM     84  S   UNL A   1      35.219  32.794  30.329  1.00  0.00     0.127 S 
ATOM     85  O   UNL A   1      36.027  33.920  29.867  1.00  0.00    -0.237 OA
ATOM     86  O   UNL A   1      34.671  31.950  29.268  1.00  0.00    -0.237 OA
ATOM     87  O   UNL A   1      34.285  33.092  31.406  1.00  0.00    -0.744 OA
ENDBRANCH  81  84
ENDBRANCH  53  77
BRANCH  65  88
ATOM     88  C   UNL A   1      44.726  33.392  29.434  1.00  0.00     0.023 A 
ATOM     89  C   UNL A   1      45.461  33.597  30.618  1.00  0.00     0.012 A 
ATOM     90  C   UNL A   1      44.616  34.441  28.497  1.00  0.00     0.148 A 
ATOM     91  C   UNL A   1      46.047  34.835  30.882  1.00  0.00     0.002 A 
ATOM     92  C   UNL A   1      45.249  35.652  28.742  1.00  0.00     0.091 A 
ATOM     93  F   UNL A   1      43.899  34.230  27.384  1.00  0.00    -0.205 F 
ATOM     94  C   UNL A   1      45.953  35.857  29.940  1.00  0.00     0.022 A 
BRANCH  92  95
ATOM     95  S   UNL A   1      45.268  36.989  27.543  1.00  0.00     0.127 S 
ATOM     96  O   UNL A   1      46.024  38.018  28.256  1.00  0.00    -0.237 OA
ATOM     97  O   UNL A   1      45.975  36.384  26.415  1.00  0.00    -0.237 OA
ATOM     98  O   UNL A   1      43.873  37.313  27.279  1.00  0.00    -0.744 OA
ENDBRANCH  92  95
ENDBRANCH  65  88
ENDBRANCH  39  40
ENDBRANCH  32  34
ENDBRANCH  31  32
ENDBRANCH  30  31
ENDBRANCH  29  30
ENDBRANCH   1  29
TORSDOF 21
ENDMDL
MODEL 3
REMARK VINA RESULT:     -11.4      1.448      7.936
REMARK SMILES COc1cccc(C(=O)N2[C@@H](C(=O)OCCOCCOC(=O)c3ccc(-c4c5nc(c(-c6cccc(S(=O)(=O)[O-])c6F)c6ccc([nH]6)c(-c6cccc(S(=O)(=O)[O-])c6F)c6nc(c(-c7cccc(S(=O)(=O)[O-])c7F)c7ccc4[nH]7)C=C6)C=C5)cc3)CS[C@@H]2c2ccccc2Cl)c1
REMARK SMILES IDX 17 1 16 2 15 3 14 4 12 5 13 6 11 7 10 8 88 9 86 10 87 11
REMARK SMILES IDX 8 12 9 13 7 14 3 15 4 16 96 17 5 18 6 19 2 20 1 21 89 22
REMARK SMILES IDX 90 23 94 24 91 25 93 26 95 27 92 28 18 29 19 30 20 31 21 32
REMARK SMILES IDX 22 33 23 34 24 35 85 36 25 37 84 38 26 39 27 40 28 41 78 42
REMARK SMILES IDX 29 43 83 44 77 45 79 46 30 47 82 48 76 49 75 50 31 52 63 53
REMARK SMILES IDX 43 54 62 55 44 56 47 57 61 58 80 59 45 60 46 61 60 63 81 64
REMARK SMILES IDX 48 65 32 66 33 67 41 68 34 69 36 70 42 71 35 72 37 73 38 74
REMARK SMILES IDX 39 75 40 76 64 77 65 78 73 79 66 80 68 81 74 82 67 83 69 84
REMARK SMILES IDX 70 85 71 86 72 87 49 88 50 89 58 90 51 91 53 92 59 93 52 94
REMARK SMILES IDX 54 95 55 96 56 97 57 98
REMARK H PARENT 79 51 47 62
REMARK Flexibility Score: inf
ROOT
ATOM      1  O   UNL A   1      35.015  21.022  24.254  1.00  0.00    -0.374 OA
ENDROOT
BRANCH   1   2
ATOM      2  C   UNL A   1      34.437  22.326  24.155  1.00  0.00     0.202 C 
BRANCH   2   3
ATOM      3  C   UNL A   1      35.361  23.524  24.392  1.00  0.00     0.261 C 
BRANCH   3   4
ATOM      4  O   UNL A   1      34.694  24.739  24.019  1.00  0.00    -0.462 OA
BRANCH   4   5
ATOM      5  C   UNL A   1      33.866  25.284  24.954  1.00  0.00     0.329 C 
ATOM      6  O   UNL A   1      33.852  24.993  26.142  1.00  0.00    -0.250 OA
BRANCH   5   7
ATOM      7  C   UNL A   1      32.967  26.330  24.281  1.00  0.00     0.206 C 
ATOM      8  N   UNL A   1      31.715  26.562  25.040  1.00  0.00    -0.308 N 
ATOM      9  C   UNL A   1      30.499  26.347  24.288  1.00  0.00     0.176 C 
ATOM     10  C   UNL A   1      32.639  25.803  22.887  1.00  0.00     0.109 C 
ATOM     11  S   UNL A   1      31.014  25.035  23.101  1.00  0.00    -0.129 SA
BRANCH   8  12
ATOM     12  C   UNL A   1      31.721  27.110  26.311  1.00  0.00     0.255 C 
ATOM     13  O   UNL A   1      31.107  26.612  27.250  1.00  0.00    -0.269 OA
BRANCH  12  14
ATOM     14  C   UNL A   1      32.334  28.466  26.507  1.00  0.00     0.043 A 
ATOM     15  C   UNL A   1      32.169  30.881  26.730  1.00  0.00     0.119 A 
ATOM     16  C   UNL A   1      33.501  30.935  27.143  1.00  0.00     0.046 A 
ATOM     17  C   UNL A   1      31.592  29.650  26.407  1.00  0.00     0.060 A 
ATOM     18  C   UNL A   1      34.250  29.766  27.259  1.00  0.00     0.005 A 
ATOM     19  C   UNL A   1      33.669  28.537  26.941  1.00  0.00     0.014 A 
BRANCH  15  20
ATOM     20  O   UNL A   1      31.532  32.091  26.660  1.00  0.00    -0.497 OA
ATOM     21  C   UNL A   1      32.222  33.190  27.252  1.00  0.00     0.278 C 
ENDBRANCH  15  20
ENDBRANCH  12  14
ENDBRANCH   8  12
BRANCH   9  22
ATOM     22  C   UNL A   1      29.882  27.502  23.486  1.00  0.00     0.003 A 
ATOM     23  C   UNL A   1      30.831  28.406  22.932  1.00  0.00     0.008 A 
ATOM     24  C   UNL A   1      28.528  27.835  23.299  1.00  0.00     0.047 A 
ATOM     25  C   UNL A   1      30.459  29.589  22.290  1.00  0.00     0.001 A 
ATOM     26  C   UNL A   1      28.161  29.011  22.616  1.00  0.00     0.021 A 
ATOM     27  Cl  UNL A   1      27.176  26.951  23.891  1.00  0.00    -0.084 Cl
ATOM     28  C   UNL A   1      29.119  29.893  22.130  1.00  0.00     0.002 A 
ENDBRANCH   9  22
ENDBRANCH   5   7
ENDBRANCH   4   5
ENDBRANCH   3   4
ENDBRANCH   2   3
ENDBRANCH   1   2
BRANCH   1  29
ATOM     29  C   UNL A   1      35.900  20.782  25.347  1.00  0.00     0.202 C 
BRANCH  29  30
ATOM     30  C   UNL A   1      37.367  20.436  25.065  1.00  0.00     0.261 C 
BRANCH  30  31
ATOM     31  O   UNL A   1      38.238  21.556  25.223  1.00  0.00    -0.460 OA
BRANCH  31  32
ATOM     32  C   UNL A   1      39.268  21.317  26.067  1.00  0.00     0.338 C 
ATOM     33  O   UNL A   1      39.888  20.271  26.212  1.00  0.00    -0.246 OA
BRANCH  32  34
ATOM     34  C   UNL A   1      39.683  22.585  26.675  1.00  0.00     0.060 A 
ATOM     35  C   UNL A   1      39.016  23.744  26.259  1.00  0.00     0.016 A 
ATOM     36  C   UNL A   1      40.717  22.641  27.612  1.00  0.00     0.016 A 
ATOM     37  C   UNL A   1      39.425  24.982  26.735  1.00  0.00     0.010 A 
ATOM     38  C   UNL A   1      41.131  23.885  28.083  1.00  0.00     0.010 A 
ATOM     39  C   UNL A   1      40.515  25.058  27.610  1.00  0.00    -0.014 A 
BRANCH  39  40
ATOM     40  C   UNL A   1      41.127  26.374  27.882  1.00  0.00     0.031 A 
ATOM     41  C   UNL A   1      42.517  26.634  27.377  1.00  0.00     0.074 A 
ATOM     42  C   UNL A   1      40.445  27.317  28.551  1.00  0.00     0.049 A 
ATOM     43  N   UNL A   1      43.258  27.702  27.506  1.00  0.00    -0.248 NA
ATOM     44  C   UNL A   1      43.161  25.540  26.631  1.00  0.00     0.031 C 
ATOM     45  C   UNL A   1      39.085  27.169  29.067  1.00  0.00     0.029 A 
ATOM     46  N   UNL A   1      40.816  28.581  28.925  1.00  0.00    -0.354 N 
ATOM     47  C   UNL A   1      44.464  27.398  26.888  1.00  0.00     0.074 A 
ATOM     48  C   UNL A   1      44.364  26.040  26.402  1.00  0.00     0.031 C 
ATOM     49  C   UNL A   1      38.741  28.298  29.709  1.00  0.00     0.029 A 
ATOM     50  C   UNL A   1      39.865  29.231  29.672  1.00  0.00     0.049 A 
ATOM     51  H   UNL A   1      41.680  28.985  28.682  1.00  0.00     0.167 HD
ATOM     52  C   UNL A   1      45.554  28.186  26.729  1.00  0.00     0.034 A 
ATOM     53  C   UNL A   1      39.909  30.435  30.272  1.00  0.00     0.034 A 
ATOM     54  C   UNL A   1      45.635  29.537  27.213  1.00  0.00     0.049 A 
ATOM     55  C   UNL A   1      41.147  31.280  30.115  1.00  0.00     0.074 A 
ATOM     56  C   UNL A   1      46.671  30.442  27.070  1.00  0.00     0.029 A 
ATOM     57  N   UNL A   1      44.647  30.172  27.951  1.00  0.00    -0.354 N 
ATOM     58  N   UNL A   1      42.242  31.024  29.441  1.00  0.00    -0.248 NA
ATOM     59  C   UNL A   1      41.141  32.591  30.777  1.00  0.00     0.031 C 
ATOM     60  C   UNL A   1      46.325  31.609  27.759  1.00  0.00     0.029 A 
ATOM     61  C   UNL A   1      45.055  31.449  28.292  1.00  0.00     0.049 A 
ATOM     62  H   UNL A   1      43.782  29.771  28.197  1.00  0.00     0.167 HD
ATOM     63  C   UNL A   1      43.040  32.156  29.562  1.00  0.00     0.074 A 
ATOM     64  C   UNL A   1      42.293  33.103  30.366  1.00  0.00     0.031 C 
ATOM     65  C   UNL A   1      44.279  32.391  29.060  1.00  0.00     0.034 A 
BRANCH  52  66
ATOM     66  C   UNL A   1      46.734  27.594  26.002  1.00  0.00     0.023 A 
ATOM     67  C   UNL A   1      46.821  27.694  24.598  1.00  0.00     0.012 A 
ATOM     68  C   UNL A   1      47.762  26.943  26.710  1.00  0.00     0.148 A 
ATOM     69  C   UNL A   1      47.883  27.112  23.907  1.00  0.00     0.002 A 
ATOM     70  C   UNL A   1      48.844  26.410  26.020  1.00  0.00     0.091 A 
ATOM     71  F   UNL A   1      47.653  26.834  28.042  1.00  0.00    -0.205 F 
ATOM     72  C   UNL A   1      48.898  26.478  24.618  1.00  0.00     0.022 A 
BRANCH  70  73
ATOM     73  S   UNL A   1      50.239  25.646  26.853  1.00  0.00     0.127 S 
ATOM     74  O   UNL A   1      49.622  24.452  27.429  1.00  0.00    -0.237 OA
ATOM     75  O   UNL A   1      51.155  25.384  25.743  1.00  0.00    -0.237 OA
ATOM     76  O   UNL A   1      50.719  26.630  27.814  1.00  0.00    -0.744 OA
ENDBRANCH  70  73
ENDBRANCH  52  66
BRANCH  53  77
ATOM     77  C   UNL A   1      38.727  30.926  31.031  1.00  0.00     0.023 A 
ATOM     78  C   UNL A   1      38.626  30.650  32.408  1.00  0.00     0.012 A 
ATOM     79  C   UNL A   1      37.730  31.703  30.410  1.00  0.00     0.148 A 
ATOM     80  C   UNL A   1      37.540  31.119  33.148  1.00  0.00     0.002 A 
ATOM     81  C   UNL A   1      36.680  32.213  31.163  1.00  0.00     0.091 A 
ATOM     82  F   UNL A   1      37.844  31.948  29.096  1.00  0.00    -0.205 F 
ATOM     83  C   UNL A   1      36.574  31.909  32.529  1.00  0.00     0.022 A 
BRANCH  81  84
ATOM     84  S   UNL A   1      35.458  33.341  30.483  1.00  0.00     0.127 S 
ATOM     85  O   UNL A   1      35.100  34.136  31.656  1.00  0.00    -0.237 OA
ATOM     86  O   UNL A   1      36.241  34.051  29.472  1.00  0.00    -0.237 OA
ATOM     87  O   UNL A   1      34.397  32.502  29.946  1.00  0.00    -0.744 OA
ENDBRANCH  81  84
ENDBRANCH  53  77
BRANCH  65  88
ATOM     88  C   UNL A   1      44.896  33.740  29.328  1.00  0.00     0.023 A 
ATOM     89  C   UNL A   1      45.645  33.954  30.501  1.00  0.00     0.012 A 
ATOM     90  C   UNL A   1      44.791  34.774  28.375  1.00  0.00     0.148 A 
ATOM     91  C   UNL A   1      46.251  35.188  30.738  1.00  0.00     0.002 A 
ATOM     92  C   UNL A   1      45.444  35.980  28.593  1.00  0.00     0.091 A 
ATOM     93  F   UNL A   1      44.059  34.555  27.272  1.00  0.00    -0.205 F 
ATOM     94  C   UNL A   1      46.162  36.195  29.780  1.00  0.00     0.022 A 
BRANCH  92  95
ATOM     95  S   UNL A   1      45.469  37.297  27.371  1.00  0.00     0.127 S 
ATOM     96  O   UNL A   1      46.306  38.298  28.029  1.00  0.00    -0.237 OA
ATOM     97  O   UNL A   1      46.092  36.640  26.222  1.00  0.00    -0.237 OA
ATOM     98  O   UNL A   1      44.080  37.684  27.167  1.00  0.00    -0.744 OA
ENDBRANCH  92  95
ENDBRANCH  65  88
ENDBRANCH  39  40
ENDBRANCH  32  34
ENDBRANCH  31  32
ENDBRANCH  30  31
ENDBRANCH  29  30
ENDBRANCH   1  29
TORSDOF 21
ENDMDL
