MODEL 1
REMARK VINA RESULT:     -11.3      0.000      0.000
REMARK SMILES CC[C@@H]1CCCN(S(=O)(=O)c2cc(C(=O)OCCOCCOC(=O)c3ccc(-c4c5nc(c(-c6cccc(S(=O)(=O)[O-])c6F)c6ccc([nH]6)c(-c6cccc(S(=O)(=O)[O-])c6F)c6nc(c(-c7cccc(S(=O)(=O)[O-])c7F)c7ccc4[nH]7)C=C6)C=C5)cc3)ccc2F)C1
REMARK SMILES IDX 19 1 18 2 17 3 16 4 14 5 15 6 13 7 11 8 12 9 90 10 89 11
REMARK SMILES IDX 91 12 88 13 8 14 9 15 10 16 7 17 3 18 4 19 92 20 5 21 6 22
REMARK SMILES IDX 2 23 1 24 20 25 21 26 22 27 23 28 24 29 25 30 26 31 87 32
REMARK SMILES IDX 27 33 86 34 28 35 29 36 30 37 80 38 31 39 85 40 79 41 81 42
REMARK SMILES IDX 32 43 84 44 78 45 77 46 33 48 65 49 45 50 64 51 46 52 49 53
REMARK SMILES IDX 63 54 82 55 47 56 48 57 62 59 83 60 50 61 34 62 35 63 43 64
REMARK SMILES IDX 36 65 38 66 44 67 37 68 39 69 40 70 41 71 42 72 66 73 67 74
REMARK SMILES IDX 75 75 68 76 70 77 76 78 69 79 71 80 72 81 73 82 74 83 51 84
REMARK SMILES IDX 52 85 60 86 53 87 55 88 61 89 54 90 56 91 57 92 58 93 59 94
REMARK H PARENT 81 47 49 58
REMARK Flexibility Score: inf
ROOT
ATOM      1  O   UNL A   1      32.023  29.569  24.961  1.00  0.00    -0.374 OA
ENDROOT
BRANCH   1   2
ATOM      2  C   UNL A   1      33.359  29.228  24.589  1.00  0.00     0.202 C 
BRANCH   2   3
ATOM      3  C   UNL A   1      33.552  28.593  23.207  1.00  0.00     0.261 C 
BRANCH   3   4
ATOM      4  O   UNL A   1      33.670  27.166  23.300  1.00  0.00    -0.460 OA
BRANCH   4   5
ATOM      5  C   UNL A   1      32.717  26.454  22.653  1.00  0.00     0.338 C 
ATOM      6  O   UNL A   1      32.761  26.026  21.511  1.00  0.00    -0.246 OA
BRANCH   5   7
ATOM      7  C   UNL A   1      31.652  26.076  23.615  1.00  0.00     0.061 A 
ATOM      8  C   UNL A   1      30.912  24.557  25.351  1.00  0.00     0.119 A 
ATOM      9  C   UNL A   1      31.840  24.906  24.364  1.00  0.00     0.040 A 
ATOM     10  C   UNL A   1      29.815  25.375  25.593  1.00  0.00     0.143 A 
ATOM     11  C   UNL A   1      29.608  26.523  24.832  1.00  0.00     0.041 A 
ATOM     12  F   UNL A   1      28.909  25.067  26.530  1.00  0.00    -0.206 F 
ATOM     13  C   UNL A   1      30.529  26.882  23.845  1.00  0.00     0.019 A 
BRANCH   8  14
ATOM     14  S   UNL A   1      31.207  23.147  26.370  1.00  0.00     0.246 S 
ATOM     15  O   UNL A   1      30.041  22.291  26.361  1.00  0.00    -0.207 OA
ATOM     16  O   UNL A   1      31.727  23.637  27.632  1.00  0.00    -0.207 OA
BRANCH  14  17
ATOM     17  N   UNL A   1      32.489  22.311  25.586  1.00  0.00    -0.197 NA
ATOM     18  C   UNL A   1      34.898  21.658  25.686  1.00  0.00     0.004 C 
ATOM     19  C   UNL A   1      34.541  20.326  25.009  1.00  0.00     0.006 C 
ATOM     20  C   UNL A   1      33.692  22.193  26.467  1.00  0.00     0.106 C 
ATOM     21  C   UNL A   1      33.270  20.421  24.181  1.00  0.00     0.017 C 
ATOM     22  C   UNL A   1      32.113  20.998  24.990  1.00  0.00     0.102 C 
BRANCH  18  23
ATOM     23  C   UNL A   1      35.561  22.673  24.722  1.00  0.00     0.001 C 
ATOM     24  C   UNL A   1      36.415  23.780  25.326  1.00  0.00     0.004 C 
ENDBRANCH  18  23
ENDBRANCH  14  17
ENDBRANCH   8  14
ENDBRANCH   5   7
ENDBRANCH   4   5
ENDBRANCH   3   4
ENDBRANCH   2   3
ENDBRANCH   1   2
BRANCH   1  25
ATOM     25  C   UNL A   1      31.802  29.951  26.319  1.00  0.00     0.202 C 
BRANCH  25  26
ATOM     26  C   UNL A   1      31.655  31.451  26.614  1.00  0.00     0.261 C 
BRANCH  26  27
ATOM     27  O   UNL A   1      32.874  32.182  26.402  1.00  0.00    -0.460 OA
BRANCH  27  28
ATOM     28  C   UNL A   1      33.250  32.979  27.433  1.00  0.00     0.338 C 
ATOM     29  O   UNL A   1      32.610  33.886  27.939  1.00  0.00    -0.246 OA
BRANCH  28  30
ATOM     30  C   UNL A   1      34.510  32.473  28.010  1.00  0.00     0.060 A 
ATOM     31  C   UNL A   1      34.518  31.174  28.535  1.00  0.00     0.016 A 
ATOM     32  C   UNL A   1      35.652  33.272  28.071  1.00  0.00     0.016 A 
ATOM     33  C   UNL A   1      35.670  30.672  29.139  1.00  0.00     0.010 A 
ATOM     34  C   UNL A   1      36.802  32.770  28.688  1.00  0.00     0.010 A 
ATOM     35  C   UNL A   1      36.813  31.475  29.239  1.00  0.00    -0.014 A 
BRANCH  35  36
ATOM     36  C   UNL A   1      38.013  30.998  29.965  1.00  0.00     0.031 A 
ATOM     37  C   UNL A   1      38.930  30.006  29.310  1.00  0.00     0.074 A 
ATOM     38  C   UNL A   1      38.250  31.413  31.222  1.00  0.00     0.049 A 
ATOM     39  N   UNL A   1      39.950  29.367  29.817  1.00  0.00    -0.248 NA
ATOM     40  C   UNL A   1      38.660  29.690  27.898  1.00  0.00     0.031 C 
ATOM     41  C   UNL A   1      37.442  32.388  31.954  1.00  0.00     0.029 A 
ATOM     42  N   UNL A   1      39.219  31.036  32.119  1.00  0.00    -0.354 N 
ATOM     43  C   UNL A   1      40.428  28.547  28.801  1.00  0.00     0.074 A 
ATOM     44  C   UNL A   1      39.583  28.770  27.647  1.00  0.00     0.031 C 
ATOM     45  C   UNL A   1      37.927  32.507  33.200  1.00  0.00     0.029 A 
ATOM     46  C   UNL A   1      39.052  31.588  33.367  1.00  0.00     0.049 A 
ATOM     47  H   UNL A   1      39.961  30.431  31.891  1.00  0.00     0.167 HD
ATOM     48  C   UNL A   1      41.478  27.693  28.829  1.00  0.00     0.034 A 
ATOM     49  C   UNL A   1      39.705  31.354  34.522  1.00  0.00     0.034 A 
ATOM     50  C   UNL A   1      42.317  27.484  29.979  1.00  0.00     0.049 A 
ATOM     51  C   UNL A   1      40.849  30.375  34.537  1.00  0.00     0.074 A 
ATOM     52  C   UNL A   1      43.422  26.656  30.095  1.00  0.00     0.029 A 
ATOM     53  N   UNL A   1      42.148  28.096  31.211  1.00  0.00    -0.354 N 
ATOM     54  N   UNL A   1      41.332  29.658  33.552  1.00  0.00    -0.248 NA
ATOM     55  C   UNL A   1      41.560  30.198  35.811  1.00  0.00     0.031 C 
ATOM     56  C   UNL A   1      43.897  26.743  31.406  1.00  0.00     0.029 A 
ATOM     57  C   UNL A   1      43.122  27.663  32.094  1.00  0.00     0.049 A 
ATOM     58  H   UNL A   1      41.438  28.744  31.426  1.00  0.00     0.167 HD
ATOM     59  C   UNL A   1      42.430  28.982  34.072  1.00  0.00     0.074 A 
ATOM     60  C   UNL A   1      42.544  29.382  35.460  1.00  0.00     0.031 C 
ATOM     61  C   UNL A   1      43.264  28.107  33.457  1.00  0.00     0.034 A 
BRANCH  48  62
ATOM     62  C   UNL A   1      41.800  26.923  27.575  1.00  0.00     0.023 A 
ATOM     63  C   UNL A   1      42.398  27.585  26.483  1.00  0.00     0.012 A 
ATOM     64  C   UNL A   1      41.607  25.529  27.517  1.00  0.00     0.148 A 
ATOM     65  C   UNL A   1      42.782  26.873  25.346  1.00  0.00     0.002 A 
ATOM     66  C   UNL A   1      42.037  24.820  26.402  1.00  0.00     0.091 A 
ATOM     67  F   UNL A   1      41.017  24.922  28.556  1.00  0.00    -0.205 F 
ATOM     68  C   UNL A   1      42.615  25.491  25.313  1.00  0.00     0.022 A 
BRANCH  66  69
ATOM     69  S   UNL A   1      41.951  23.028  26.299  1.00  0.00     0.127 S 
ATOM     70  O   UNL A   1      42.718  22.628  27.478  1.00  0.00    -0.237 OA
ATOM     71  O   UNL A   1      40.512  22.785  26.396  1.00  0.00    -0.237 OA
ATOM     72  O   UNL A   1      42.545  22.668  25.019  1.00  0.00    -0.744 OA
ENDBRANCH  66  69
ENDBRANCH  48  62
BRANCH  49  73
ATOM     73  C   UNL A   1      39.310  32.097  35.752  1.00  0.00     0.023 A 
ATOM     74  C   UNL A   1      39.696  33.443  35.903  1.00  0.00     0.012 A 
ATOM     75  C   UNL A   1      38.510  31.496  36.743  1.00  0.00     0.148 A 
ATOM     76  C   UNL A   1      39.307  34.171  37.028  1.00  0.00     0.002 A 
ATOM     77  C   UNL A   1      38.074  32.245  37.829  1.00  0.00     0.091 A 
ATOM     78  F   UNL A   1      38.165  30.210  36.586  1.00  0.00    -0.205 F 
ATOM     79  C   UNL A   1      38.486  33.577  37.983  1.00  0.00     0.022 A 
BRANCH  77  80
ATOM     80  S   UNL A   1      36.897  31.612  39.030  1.00  0.00     0.127 S 
ATOM     81  O   UNL A   1      37.713  31.537  40.239  1.00  0.00    -0.237 OA
ATOM     82  O   UNL A   1      35.880  32.663  39.034  1.00  0.00    -0.237 OA
ATOM     83  O   UNL A   1      36.438  30.334  38.500  1.00  0.00    -0.744 OA
ENDBRANCH  77  80
ENDBRANCH  49  73
BRANCH  61  84
ATOM     84  C   UNL A   1      44.425  27.558  34.247  1.00  0.00     0.023 A 
ATOM     85  C   UNL A   1      45.638  28.271  34.322  1.00  0.00     0.012 A 
ATOM     86  C   UNL A   1      44.277  26.370  34.993  1.00  0.00     0.148 A 
ATOM     87  C   UNL A   1      46.694  27.794  35.099  1.00  0.00     0.002 A 
ATOM     88  C   UNL A   1      45.313  25.931  35.809  1.00  0.00     0.091 A 
ATOM     89  F   UNL A   1      43.123  25.693  34.896  1.00  0.00    -0.205 F 
ATOM     90  C   UNL A   1      46.527  26.633  35.851  1.00  0.00     0.022 A 
BRANCH  88  91
ATOM     91  S   UNL A   1      45.144  24.509  36.896  1.00  0.00     0.127 S 
ATOM     92  O   UNL A   1      44.029  24.917  37.747  1.00  0.00    -0.237 OA
ATOM     93  O   UNL A   1      44.831  23.434  35.954  1.00  0.00    -0.237 OA
ATOM     94  O   UNL A   1      46.427  24.366  37.569  1.00  0.00    -0.744 OA
ENDBRANCH  88  91
ENDBRANCH  61  84
ENDBRANCH  35  36
ENDBRANCH  28  30
ENDBRANCH  27  28
ENDBRANCH  26  27
ENDBRANCH  25  26
ENDBRANCH   1  25
TORSDOF 20
ENDMDL
MODEL 2
REMARK VINA RESULT:     -11.1      1.382      2.045
REMARK SMILES CC[C@@H]1CCCN(S(=O)(=O)c2cc(C(=O)OCCOCCOC(=O)c3ccc(-c4c5nc(c(-c6cccc(S(=O)(=O)[O-])c6F)c6ccc([nH]6)c(-c6cccc(S(=O)(=O)[O-])c6F)c6nc(c(-c7cccc(S(=O)(=O)[O-])c7F)c7ccc4[nH]7)C=C6)C=C5)cc3)ccc2F)C1
REMARK SMILES IDX 19 1 18 2 17 3 16 4 14 5 15 6 13 7 11 8 12 9 90 10 89 11
REMARK SMILES IDX 91 12 88 13 8 14 9 15 10 16 7 17 3 18 4 19 92 20 5 21 6 22
REMARK SMILES IDX 2 23 1 24 20 25 21 26 22 27 23 28 24 29 25 30 26 31 87 32
REMARK SMILES IDX 27 33 86 34 28 35 29 36 30 37 80 38 31 39 85 40 79 41 81 42
REMARK SMILES IDX 32 43 84 44 78 45 77 46 33 48 65 49 45 50 64 51 46 52 49 53
REMARK SMILES IDX 63 54 82 55 47 56 48 57 62 59 83 60 50 61 34 62 35 63 43 64
REMARK SMILES IDX 36 65 38 66 44 67 37 68 39 69 40 70 41 71 42 72 66 73 67 74
REMARK SMILES IDX 75 75 68 76 70 77 76 78 69 79 71 80 72 81 73 82 74 83 51 84
REMARK SMILES IDX 52 85 60 86 53 87 55 88 61 89 54 90 56 91 57 92 58 93 59 94
REMARK H PARENT 81 47 49 58
REMARK Flexibility Score: inf
ROOT
ATOM      1  O   UNL A   1      32.236  30.420  25.668  1.00  0.00    -0.374 OA
ENDROOT
BRANCH   1   2
ATOM      2  C   UNL A   1      33.257  29.595  26.232  1.00  0.00     0.202 C 
BRANCH   2   3
ATOM      3  C   UNL A   1      32.795  28.417  27.097  1.00  0.00     0.261 C 
BRANCH   3   4
ATOM      4  O   UNL A   1      31.564  27.862  26.610  1.00  0.00    -0.460 OA
BRANCH   4   5
ATOM      5  C   UNL A   1      31.583  26.534  26.343  1.00  0.00     0.338 C 
ATOM      6  O   UNL A   1      31.362  25.620  27.121  1.00  0.00    -0.246 OA
BRANCH   5   7
ATOM      7  C   UNL A   1      31.716  26.331  24.879  1.00  0.00     0.061 A 
ATOM      8  C   UNL A   1      32.388  24.864  23.072  1.00  0.00     0.119 A 
ATOM      9  C   UNL A   1      32.324  25.147  24.440  1.00  0.00     0.040 A 
ATOM     10  C   UNL A   1      31.839  25.752  22.154  1.00  0.00     0.143 A 
ATOM     11  C   UNL A   1      31.259  26.943  22.583  1.00  0.00     0.041 A 
ATOM     12  F   UNL A   1      31.885  25.510  20.837  1.00  0.00    -0.206 F 
ATOM     13  C   UNL A   1      31.189  27.235  23.947  1.00  0.00     0.019 A 
BRANCH   8  14
ATOM     14  S   UNL A   1      33.051  23.323  22.526  1.00  0.00     0.246 S 
ATOM     15  O   UNL A   1      33.711  23.505  21.252  1.00  0.00    -0.207 OA
ATOM     16  O   UNL A   1      31.993  22.338  22.651  1.00  0.00    -0.207 OA
BRANCH  14  17
ATOM     17  N   UNL A   1      34.247  22.932  23.697  1.00  0.00    -0.197 NA
ATOM     18  C   UNL A   1      34.846  21.471  25.634  1.00  0.00     0.004 C 
ATOM     19  C   UNL A   1      36.306  21.477  25.156  1.00  0.00     0.006 C 
ATOM     20  C   UNL A   1      33.901  21.683  24.445  1.00  0.00     0.106 C 
ATOM     21  C   UNL A   1      36.637  22.704  24.323  1.00  0.00     0.017 C 
ATOM     22  C   UNL A   1      35.645  22.894  23.182  1.00  0.00     0.102 C 
BRANCH  18  23
ATOM     23  C   UNL A   1      34.597  22.403  26.846  1.00  0.00     0.001 C 
ATOM     24  C   UNL A   1      33.186  22.478  27.412  1.00  0.00     0.004 C 
ENDBRANCH  18  23
ENDBRANCH  14  17
ENDBRANCH   8  14
ENDBRANCH   5   7
ENDBRANCH   4   5
ENDBRANCH   3   4
ENDBRANCH   2   3
ENDBRANCH   1   2
BRANCH   1  25
ATOM     25  C   UNL A   1      31.404  31.141  26.577  1.00  0.00     0.202 C 
BRANCH  25  26
ATOM     26  C   UNL A   1      31.604  32.661  26.661  1.00  0.00     0.261 C 
BRANCH  26  27
ATOM     27  O   UNL A   1      32.989  33.037  26.736  1.00  0.00    -0.460 OA
BRANCH  27  28
ATOM     28  C   UNL A   1      33.342  33.704  27.864  1.00  0.00     0.338 C 
ATOM     29  O   UNL A   1      32.693  34.550  28.456  1.00  0.00    -0.246 OA
BRANCH  28  30
ATOM     30  C   UNL A   1      34.582  33.123  28.409  1.00  0.00     0.060 A 
ATOM     31  C   UNL A   1      34.494  31.895  29.079  1.00  0.00     0.016 A 
ATOM     32  C   UNL A   1      35.804  33.788  28.302  1.00  0.00     0.016 A 
ATOM     33  C   UNL A   1      35.631  31.333  29.659  1.00  0.00     0.010 A 
ATOM     34  C   UNL A   1      36.939  33.228  28.895  1.00  0.00     0.010 A 
ATOM     35  C   UNL A   1      36.857  32.008  29.590  1.00  0.00    -0.014 A 
BRANCH  35  36
ATOM     36  C   UNL A   1      38.053  31.477  30.285  1.00  0.00     0.031 A 
ATOM     37  C   UNL A   1      38.894  30.427  29.618  1.00  0.00     0.074 A 
ATOM     38  C   UNL A   1      38.354  31.899  31.526  1.00  0.00     0.049 A 
ATOM     39  N   UNL A   1      39.895  29.742  30.102  1.00  0.00    -0.248 NA
ATOM     40  C   UNL A   1      38.561  30.104  28.220  1.00  0.00     0.031 C 
ATOM     41  C   UNL A   1      37.624  32.927  32.266  1.00  0.00     0.029 A 
ATOM     42  N   UNL A   1      39.331  31.484  32.397  1.00  0.00    -0.354 N 
ATOM     43  C   UNL A   1      40.294  28.882  29.085  1.00  0.00     0.074 A 
ATOM     44  C   UNL A   1      39.424  29.132  27.956  1.00  0.00     0.031 C 
ATOM     45  C   UNL A   1      38.156  33.040  33.494  1.00  0.00     0.029 A 
ATOM     46  C   UNL A   1      39.235  32.064  33.640  1.00  0.00     0.049 A 
ATOM     47  H   UNL A   1      40.031  30.836  32.156  1.00  0.00     0.167 HD
ATOM     48  C   UNL A   1      41.297  27.973  29.094  1.00  0.00     0.034 A 
ATOM     49  C   UNL A   1      39.913  31.813  34.778  1.00  0.00     0.034 A 
ATOM     50  C   UNL A   1      42.162  27.738  30.220  1.00  0.00     0.049 A 
ATOM     51  C   UNL A   1      41.003  30.774  34.772  1.00  0.00     0.074 A 
ATOM     52  C   UNL A   1      43.224  26.853  30.314  1.00  0.00     0.029 A 
ATOM     53  N   UNL A   1      42.067  28.376  31.445  1.00  0.00    -0.354 N 
ATOM     54  N   UNL A   1      41.414  30.016  33.785  1.00  0.00    -0.248 NA
ATOM     55  C   UNL A   1      41.746  30.579  36.026  1.00  0.00     0.031 C 
ATOM     56  C   UNL A   1      43.747  26.934  31.607  1.00  0.00     0.029 A 
ATOM     57  C   UNL A   1      43.046  27.905  32.304  1.00  0.00     0.049 A 
ATOM     58  H   UNL A   1      41.400  29.065  31.672  1.00  0.00     0.167 HD
ATOM     59  C   UNL A   1      42.491  29.291  34.280  1.00  0.00     0.074 A 
ATOM     60  C   UNL A   1      42.673  29.705  35.656  1.00  0.00     0.031 C 
ATOM     61  C   UNL A   1      43.257  28.363  33.653  1.00  0.00     0.034 A 
BRANCH  48  62
ATOM     62  C   UNL A   1      41.536  27.168  27.843  1.00  0.00     0.023 A 
ATOM     63  C   UNL A   1      42.174  27.767  26.738  1.00  0.00     0.012 A 
ATOM     64  C   UNL A   1      41.224  25.794  27.802  1.00  0.00     0.148 A 
ATOM     65  C   UNL A   1      42.480  27.015  25.603  1.00  0.00     0.002 A 
ATOM     66  C   UNL A   1      41.577  25.042  26.688  1.00  0.00     0.091 A 
ATOM     67  F   UNL A   1      40.598  25.250  28.854  1.00  0.00    -0.205 F 
ATOM     68  C   UNL A   1      42.196  25.651  25.585  1.00  0.00     0.022 A 
BRANCH  66  69
ATOM     69  S   UNL A   1      41.337  23.263  26.604  1.00  0.00     0.127 S 
ATOM     70  O   UNL A   1      41.853  22.834  27.903  1.00  0.00    -0.237 OA
ATOM     71  O   UNL A   1      39.885  23.157  26.460  1.00  0.00    -0.237 OA
ATOM     72  O   UNL A   1      42.100  22.806  25.450  1.00  0.00    -0.744 OA
ENDBRANCH  66  69
ENDBRANCH  48  62
BRANCH  49  73
ATOM     73  C   UNL A   1      39.600  32.595  36.007  1.00  0.00     0.023 A 
ATOM     74  C   UNL A   1      40.164  33.874  36.177  1.00  0.00     0.012 A 
ATOM     75  C   UNL A   1      38.704  32.104  36.977  1.00  0.00     0.148 A 
ATOM     76  C   UNL A   1      39.857  34.641  37.301  1.00  0.00     0.002 A 
ATOM     77  C   UNL A   1      38.354  32.899  38.061  1.00  0.00     0.091 A 
ATOM     78  F   UNL A   1      38.189  30.879  36.801  1.00  0.00    -0.205 F 
ATOM     79  C   UNL A   1      38.943  34.160  38.235  1.00  0.00     0.022 A 
BRANCH  77  80
ATOM     80  S   UNL A   1      37.077  32.425  39.233  1.00  0.00     0.127 S 
ATOM     81  O   UNL A   1      35.859  32.682  38.469  1.00  0.00    -0.237 OA
ATOM     82  O   UNL A   1      37.383  31.012  39.453  1.00  0.00    -0.237 OA
ATOM     83  O   UNL A   1      37.277  33.273  40.401  1.00  0.00    -0.744 OA
ENDBRANCH  77  80
ENDBRANCH  49  73
BRANCH  61  84
ATOM     84  C   UNL A   1      44.412  27.764  34.415  1.00  0.00     0.023 A 
ATOM     85  C   UNL A   1      45.688  28.359  34.359  1.00  0.00     0.012 A 
ATOM     86  C   UNL A   1      44.205  26.656  35.262  1.00  0.00     0.148 A 
ATOM     87  C   UNL A   1      46.745  27.842  35.108  1.00  0.00     0.002 A 
ATOM     88  C   UNL A   1      45.249  26.181  36.047  1.00  0.00     0.091 A 
ATOM     89  F   UNL A   1      42.990  26.089  35.289  1.00  0.00    -0.205 F 
ATOM     90  C   UNL A   1      46.523  26.763  35.961  1.00  0.00     0.022 A 
BRANCH  88  91
ATOM     91  S   UNL A   1      45.023  24.867  37.254  1.00  0.00     0.127 S 
ATOM     92  O   UNL A   1      46.111  25.136  38.192  1.00  0.00    -0.237 OA
ATOM     93  O   UNL A   1      43.685  25.150  37.775  1.00  0.00    -0.237 OA
ATOM     94  O   UNL A   1      45.130  23.619  36.512  1.00  0.00    -0.744 OA
ENDBRANCH  88  91
ENDBRANCH  61  84
ENDBRANCH  35  36
ENDBRANCH  28  30
ENDBRANCH  27  28
ENDBRANCH  26  27
ENDBRANCH  25  26
ENDBRANCH   1  25
TORSDOF 20
ENDMDL
MODEL 3
REMARK VINA RESULT:     -11.0      5.272      8.743
REMARK SMILES CC[C@@H]1CCCN(S(=O)(=O)c2cc(C(=O)OCCOCCOC(=O)c3ccc(-c4c5nc(c(-c6cccc(S(=O)(=O)[O-])c6F)c6ccc([nH]6)c(-c6cccc(S(=O)(=O)[O-])c6F)c6nc(c(-c7cccc(S(=O)(=O)[O-])c7F)c7ccc4[nH]7)C=C6)C=C5)cc3)ccc2F)C1
REMARK SMILES IDX 19 1 18 2 17 3 16 4 14 5 15 6 13 7 11 8 12 9 90 10 89 11
REMARK SMILES IDX 91 12 88 13 8 14 9 15 10 16 7 17 3 18 4 19 92 20 5 21 6 22
REMARK SMILES IDX 2 23 1 24 20 25 21 26 22 27 23 28 24 29 25 30 26 31 87 32
REMARK SMILES IDX 27 33 86 34 28 35 29 36 30 37 80 38 31 39 85 40 79 41 81 42
REMARK SMILES IDX 32 43 84 44 78 45 77 46 33 48 65 49 45 50 64 51 46 52 49 53
REMARK SMILES IDX 63 54 82 55 47 56 48 57 62 59 83 60 50 61 34 62 35 63 43 64
REMARK SMILES IDX 36 65 38 66 44 67 37 68 39 69 40 70 41 71 42 72 66 73 67 74
REMARK SMILES IDX 75 75 68 76 70 77 76 78 69 79 71 80 72 81 73 82 74 83 51 84
REMARK SMILES IDX 52 85 60 86 53 87 55 88 61 89 54 90 56 91 57 92 58 93 59 94
REMARK H PARENT 81 47 49 58
REMARK Flexibility Score: inf
ROOT
ATOM      1  O   UNL A   1      37.697  21.002  24.823  1.00  0.00    -0.374 OA
ENDROOT
BRANCH   1   2
ATOM      2  C   UNL A   1      37.950  21.863  25.934  1.00  0.00     0.202 C 
BRANCH   2   3
ATOM      3  C   UNL A   1      37.877  23.372  25.672  1.00  0.00     0.261 C 
BRANCH   3   4
ATOM      4  O   UNL A   1      36.611  23.912  26.077  1.00  0.00    -0.460 OA
BRANCH   4   5
ATOM      5  C   UNL A   1      35.631  23.877  25.143  1.00  0.00     0.338 C 
ATOM      6  O   UNL A   1      35.766  23.865  23.930  1.00  0.00    -0.246 OA
BRANCH   5   7
ATOM      7  C   UNL A   1      34.326  23.644  25.810  1.00  0.00     0.061 A 
ATOM      8  C   UNL A   1      32.020  24.332  26.087  1.00  0.00     0.119 A 
ATOM      9  C   UNL A   1      33.295  24.559  25.558  1.00  0.00     0.040 A 
ATOM     10  C   UNL A   1      31.777  23.196  26.850  1.00  0.00     0.143 A 
ATOM     11  C   UNL A   1      32.806  22.299  27.128  1.00  0.00     0.041 A 
ATOM     12  F   UNL A   1      30.568  22.952  27.371  1.00  0.00    -0.206 F 
ATOM     13  C   UNL A   1      34.082  22.515  26.604  1.00  0.00     0.019 A 
BRANCH   8  14
ATOM     14  S   UNL A   1      30.696  25.423  25.676  1.00  0.00     0.246 S 
ATOM     15  O   UNL A   1      29.701  25.393  26.727  1.00  0.00    -0.207 OA
ATOM     16  O   UNL A   1      30.306  25.122  24.312  1.00  0.00    -0.207 OA
BRANCH  14  17
ATOM     17  N   UNL A   1      31.413  26.985  25.666  1.00  0.00    -0.197 NA
ATOM     18  C   UNL A   1      31.689  29.126  24.407  1.00  0.00     0.004 C 
ATOM     19  C   UNL A   1      31.717  29.881  25.744  1.00  0.00     0.006 C 
ATOM     20  C   UNL A   1      30.883  27.829  24.550  1.00  0.00     0.106 C 
ATOM     21  C   UNL A   1      32.174  29.001  26.895  1.00  0.00     0.017 C 
ATOM     22  C   UNL A   1      31.371  27.707  26.968  1.00  0.00     0.102 C 
BRANCH  18  23
ATOM     23  C   UNL A   1      33.091  28.961  23.769  1.00  0.00     0.001 C 
ATOM     24  C   UNL A   1      34.138  28.165  24.537  1.00  0.00     0.004 C 
ENDBRANCH  18  23
ENDBRANCH  14  17
ENDBRANCH   8  14
ENDBRANCH   5   7
ENDBRANCH   4   5
ENDBRANCH   3   4
ENDBRANCH   2   3
ENDBRANCH   1   2
BRANCH   1  25
ATOM     25  C   UNL A   1      38.127  19.645  24.938  1.00  0.00     0.202 C 
BRANCH  25  26
ATOM     26  C   UNL A   1      39.144  19.321  26.042  1.00  0.00     0.261 C 
BRANCH  26  27
ATOM     27  O   UNL A   1      40.506  19.435  25.594  1.00  0.00    -0.460 OA
BRANCH  27  28
ATOM     28  C   UNL A   1      41.421  19.602  26.582  1.00  0.00     0.338 C 
ATOM     29  O   UNL A   1      42.109  18.742  27.106  1.00  0.00    -0.246 OA
BRANCH  28  30
ATOM     30  C   UNL A   1      41.618  21.042  26.829  1.00  0.00     0.060 A 
ATOM     31  C   UNL A   1      41.451  21.923  25.752  1.00  0.00     0.016 A 
ATOM     32  C   UNL A   1      41.999  21.518  28.084  1.00  0.00     0.016 A 
ATOM     33  C   UNL A   1      41.680  23.288  25.924  1.00  0.00     0.010 A 
ATOM     34  C   UNL A   1      42.239  22.885  28.250  1.00  0.00     0.010 A 
ATOM     35  C   UNL A   1      42.097  23.775  27.170  1.00  0.00    -0.014 A 
BRANCH  35  36
ATOM     36  C   UNL A   1      42.442  25.205  27.348  1.00  0.00     0.031 A 
ATOM     37  C   UNL A   1      43.794  25.701  26.922  1.00  0.00     0.074 A 
ATOM     38  C   UNL A   1      41.567  26.041  27.934  1.00  0.00     0.049 A 
ATOM     39  N   UNL A   1      44.339  26.873  27.109  1.00  0.00    -0.248 NA
ATOM     40  C   UNL A   1      44.646  24.748  26.191  1.00  0.00     0.031 C 
ATOM     41  C   UNL A   1      40.219  25.680  28.370  1.00  0.00     0.029 A 
ATOM     42  N   UNL A   1      41.698  27.359  28.297  1.00  0.00    -0.354 N 
ATOM     43  C   UNL A   1      45.609  26.794  26.550  1.00  0.00     0.074 A 
ATOM     44  C   UNL A   1      45.754  25.456  26.018  1.00  0.00     0.031 C 
ATOM     45  C   UNL A   1      39.658  26.740  28.974  1.00  0.00     0.029 A 
ATOM     46  C   UNL A   1      40.621  27.839  29.004  1.00  0.00     0.049 A 
ATOM     47  H   UNL A   1      42.484  27.906  28.072  1.00  0.00     0.167 HD
ATOM     48  C   UNL A   1      46.562  27.753  26.484  1.00  0.00     0.034 A 
ATOM     49  C   UNL A   1      40.444  29.016  29.637  1.00  0.00     0.034 A 
ATOM     50  C   UNL A   1      46.405  29.084  27.009  1.00  0.00     0.049 A 
ATOM     51  C   UNL A   1      41.532  30.055  29.577  1.00  0.00     0.074 A 
ATOM     52  C   UNL A   1      47.308  30.134  26.967  1.00  0.00     0.029 A 
ATOM     53  N   UNL A   1      45.284  29.550  27.677  1.00  0.00    -0.354 N 
ATOM     54  N   UNL A   1      42.701  29.993  28.988  1.00  0.00    -0.248 NA
ATOM     55  C   UNL A   1      41.264  31.341  30.239  1.00  0.00     0.031 C 
ATOM     56  C   UNL A   1      46.745  31.221  27.639  1.00  0.00     0.029 A 
ATOM     57  C   UNL A   1      45.471  30.869  28.056  1.00  0.00     0.049 A 
ATOM     58  H   UNL A   1      44.473  29.021  27.856  1.00  0.00     0.167 HD
ATOM     59  C   UNL A   1      43.288  31.240  29.165  1.00  0.00     0.074 A 
ATOM     60  C   UNL A   1      42.341  32.042  29.912  1.00  0.00     0.031 C 
ATOM     61  C   UNL A   1      44.502  31.679  28.749  1.00  0.00     0.034 A 
BRANCH  48  62
ATOM     62  C   UNL A   1      47.863  27.415  25.804  1.00  0.00     0.023 A 
ATOM     63  C   UNL A   1      48.903  26.814  26.542  1.00  0.00     0.012 A 
ATOM     64  C   UNL A   1      48.017  27.598  24.415  1.00  0.00     0.148 A 
ATOM     65  C   UNL A   1      50.082  26.416  25.911  1.00  0.00     0.002 A 
ATOM     66  C   UNL A   1      49.173  27.154  23.786  1.00  0.00     0.091 A 
ATOM     67  F   UNL A   1      47.025  28.192  23.735  1.00  0.00    -0.205 F 
ATOM     68  C   UNL A   1      50.210  26.573  24.533  1.00  0.00     0.022 A 
BRANCH  66  69
ATOM     69  S   UNL A   1      49.398  27.226  22.005  1.00  0.00     0.127 S 
ATOM     70  O   UNL A   1      48.879  28.558  21.696  1.00  0.00    -0.237 OA
ATOM     71  O   UNL A   1      50.849  27.091  21.874  1.00  0.00    -0.237 OA
ATOM     72  O   UNL A   1      48.630  26.118  21.455  1.00  0.00    -0.744 OA
ENDBRANCH  66  69
ENDBRANCH  48  62
BRANCH  49  73
ATOM     73  C   UNL A   1      39.161  29.282  30.347  1.00  0.00     0.023 A 
ATOM     74  C   UNL A   1      38.911  28.657  31.583  1.00  0.00     0.012 A 
ATOM     75  C   UNL A   1      38.217  30.192  29.832  1.00  0.00     0.148 A 
ATOM     76  C   UNL A   1      37.734  28.919  32.285  1.00  0.00     0.002 A 
ATOM     77  C   UNL A   1      37.077  30.495  30.566  1.00  0.00     0.091 A 
ATOM     78  F   UNL A   1      38.469  30.766  28.647  1.00  0.00    -0.205 F 
ATOM     79  C   UNL A   1      36.825  29.847  31.785  1.00  0.00     0.022 A 
BRANCH  77  80
ATOM     80  S   UNL A   1      35.926  31.784  30.074  1.00  0.00     0.127 S 
ATOM     81  O   UNL A   1      36.826  32.900  29.796  1.00  0.00    -0.237 OA
ATOM     82  O   UNL A   1      35.296  31.188  28.896  1.00  0.00    -0.237 OA
ATOM     83  O   UNL A   1      35.028  31.968  31.207  1.00  0.00    -0.744 OA
ENDBRANCH  77  80
ENDBRANCH  49  73
BRANCH  61  84
ATOM     84  C   UNL A   1      44.872  33.114  29.028  1.00  0.00     0.023 A 
ATOM     85  C   UNL A   1      45.476  33.469  30.251  1.00  0.00     0.012 A 
ATOM     86  C   UNL A   1      44.701  34.097  28.033  1.00  0.00     0.148 A 
ATOM     87  C   UNL A   1      45.871  34.785  30.490  1.00  0.00     0.002 A 
ATOM     88  C   UNL A   1      45.148  35.394  28.256  1.00  0.00     0.091 A 
ATOM     89  F   UNL A   1      44.107  33.747  26.883  1.00  0.00    -0.205 F 
ATOM     90  C   UNL A   1      45.720  35.743  29.489  1.00  0.00     0.022 A 
BRANCH  88  91
ATOM     91  S   UNL A   1      45.095  36.662  26.984  1.00  0.00     0.127 S 
ATOM     92  O   UNL A   1      45.758  37.781  27.651  1.00  0.00    -0.237 OA
ATOM     93  O   UNL A   1      45.871  36.051  25.903  1.00  0.00    -0.237 OA
ATOM     94  O   UNL A   1      43.686  36.862  26.676  1.00  0.00    -0.744 OA
ENDBRANCH  88  91
ENDBRANCH  61  84
ENDBRANCH  35  36
ENDBRANCH  28  30
ENDBRANCH  27  28
ENDBRANCH  26  27
ENDBRANCH  25  26
ENDBRANCH   1  25
TORSDOF 20
ENDMDL
