MODEL 1
REMARK VINA RESULT:      -9.6      0.000      0.000
REMARK SMILES CCN(Cc1cn(CC)nc1C)C(=O)c1ccn([C@@H](C)C(=O)OCCOCCOC(=O)c2ccc(-c3c4nc(c(-c5cccc(S(=O)(=O)[O-])c5F)c5ccc([nH]5)c(-c5cccc(S(=O)(=O)[O-])c5F)c5nc(c(-c6cccc(S(=O)(=O)[O-])c6F)c6ccc3[nH]6)C=C5)C=C4)cc2)n1
REMARK SMILES IDX 24 1 23 2 21 3 22 4 19 5 20 6 18 7 15 8 16 9 95 10 17 11
REMARK SMILES IDX 13 12 14 13 3 14 2 15 1 16 4 17 5 18 6 19 11 20 7 21 10 22
REMARK SMILES IDX 12 23 8 24 9 25 25 26 26 27 27 28 28 29 29 30 30 31 31 32
REMARK SMILES IDX 32 33 33 34 94 35 34 36 93 37 35 38 36 39 37 40 87 41 38 42
REMARK SMILES IDX 92 43 86 44 88 45 39 46 91 47 85 48 84 49 40 51 72 52 52 53
REMARK SMILES IDX 71 54 53 55 56 56 70 57 89 58 54 59 55 60 69 62 90 63 57 64
REMARK SMILES IDX 41 65 42 66 50 67 43 68 45 69 51 70 44 71 46 72 47 73 48 74
REMARK SMILES IDX 49 75 73 76 74 77 82 78 75 79 77 80 83 81 76 82 78 83 79 84
REMARK SMILES IDX 80 85 81 86 58 87 59 88 67 89 60 90 62 91 68 92 61 93 63 94
REMARK SMILES IDX 64 95 65 96 66 97
REMARK H PARENT 88 50 56 61
REMARK Flexibility Score: inf
ROOT
ATOM      1  C   UNL A   1      39.677  21.496  26.711  1.00  0.00     0.261 C 
ENDROOT
BRANCH   1   2
ATOM      2  O   UNL A   1      39.057  21.818  25.448  1.00  0.00    -0.462 OA
BRANCH   2   3
ATOM      3  C   UNL A   1      38.059  21.004  25.023  1.00  0.00     0.330 C 
ATOM      4  O   UNL A   1      38.117  19.778  25.058  1.00  0.00    -0.250 OA
BRANCH   3   5
ATOM      5  C   UNL A   1      36.880  21.738  24.414  1.00  0.00     0.213 C 
ATOM      6  C   UNL A   1      37.139  23.237  24.450  1.00  0.00     0.046 C 
BRANCH   5   7
ATOM      7  N   UNL A   1      35.547  21.403  24.923  1.00  0.00    -0.258 N 
ATOM      8  C   UNL A   1      33.730  21.749  26.010  1.00  0.00     0.150 A 
ATOM      9  C   UNL A   1      33.735  20.392  25.627  1.00  0.00     0.056 A 
ATOM     10  N   UNL A   1      34.845  22.371  25.570  1.00  0.00    -0.167 NA
ATOM     11  C   UNL A   1      34.924  20.192  24.972  1.00  0.00     0.110 A 
BRANCH   8  12
ATOM     12  C   UNL A   1      32.636  22.416  26.735  1.00  0.00     0.274 C 
ATOM     13  O   UNL A   1      32.718  22.579  27.952  1.00  0.00    -0.267 OA
BRANCH  12  14
ATOM     14  N   UNL A   1      31.566  22.906  25.974  1.00  0.00    -0.333 N 
BRANCH  14  15
ATOM     15  C   UNL A   1      30.242  22.309  26.170  1.00  0.00     0.117 C 
ATOM     16  C   UNL A   1      29.464  22.988  27.291  1.00  0.00     0.027 C 
ENDBRANCH  14  15
BRANCH  14  17
ATOM     17  C   UNL A   1      31.711  23.878  24.887  1.00  0.00     0.159 C 
BRANCH  17  18
ATOM     18  C   UNL A   1      31.769  25.288  25.373  1.00  0.00     0.012 A 
ATOM     19  C   UNL A   1      32.751  25.885  26.140  1.00  0.00     0.114 A 
ATOM     20  C   UNL A   1      30.792  26.319  25.216  1.00  0.00     0.064 A 
ATOM     21  N   UNL A   1      32.348  27.167  26.377  1.00  0.00    -0.272 N 
ATOM     22  N   UNL A   1      31.179  27.470  25.778  1.00  0.00    -0.178 NA
ATOM     23  C   UNL A   1      29.477  26.278  24.529  1.00  0.00     0.069 C 
BRANCH  21  24
ATOM     24  C   UNL A   1      33.082  28.182  27.115  1.00  0.00     0.141 C 
ATOM     25  C   UNL A   1      34.123  28.827  26.228  1.00  0.00     0.029 C 
ENDBRANCH  21  24
ENDBRANCH  17  18
ENDBRANCH  14  17
ENDBRANCH  12  14
ENDBRANCH   8  12
ENDBRANCH   5   7
ENDBRANCH   3   5
ENDBRANCH   2   3
ENDBRANCH   1   2
BRANCH   1  26
ATOM     26  C   UNL A   1      40.914  20.626  26.495  1.00  0.00     0.202 C 
BRANCH  26  27
ATOM     27  O   UNL A   1      41.816  21.111  25.496  1.00  0.00    -0.374 OA
BRANCH  27  28
ATOM     28  C   UNL A   1      42.819  22.037  25.914  1.00  0.00     0.202 C 
BRANCH  28  29
ATOM     29  C   UNL A   1      42.337  23.453  26.195  1.00  0.00     0.261 C 
BRANCH  29  30
ATOM     30  O   UNL A   1      43.018  24.385  25.369  1.00  0.00    -0.460 OA
BRANCH  30  31
ATOM     31  C   UNL A   1      43.917  25.215  25.960  1.00  0.00     0.338 C 
ATOM     32  O   UNL A   1      45.115  25.208  25.854  1.00  0.00    -0.246 OA
BRANCH  31  33
ATOM     33  C   UNL A   1      43.131  26.062  26.880  1.00  0.00     0.060 A 
ATOM     34  C   UNL A   1      42.137  26.875  26.340  1.00  0.00     0.016 A 
ATOM     35  C   UNL A   1      43.574  26.229  28.194  1.00  0.00     0.016 A 
ATOM     36  C   UNL A   1      41.758  27.997  27.053  1.00  0.00     0.010 A 
ATOM     37  C   UNL A   1      43.256  27.374  28.873  1.00  0.00     0.010 A 
ATOM     38  C   UNL A   1      42.400  28.280  28.264  1.00  0.00    -0.014 A 
BRANCH  38  39
ATOM     39  C   UNL A   1      42.109  29.520  28.951  1.00  0.00     0.031 A 
ATOM     40  C   UNL A   1      43.071  30.608  28.643  1.00  0.00     0.074 A 
ATOM     41  C   UNL A   1      40.977  29.667  29.677  1.00  0.00     0.049 A 
ATOM     42  N   UNL A   1      43.727  31.326  29.487  1.00  0.00    -0.248 NA
ATOM     43  C   UNL A   1      43.424  30.878  27.236  1.00  0.00     0.031 C 
ATOM     44  C   UNL A   1      39.859  28.717  29.782  1.00  0.00     0.029 A 
ATOM     45  N   UNL A   1      40.522  30.746  30.378  1.00  0.00    -0.354 N 
ATOM     46  C   UNL A   1      44.378  32.296  28.730  1.00  0.00     0.074 A 
ATOM     47  C   UNL A   1      44.230  31.931  27.350  1.00  0.00     0.031 C 
ATOM     48  C   UNL A   1      38.785  29.338  30.320  1.00  0.00     0.029 A 
ATOM     49  C   UNL A   1      39.170  30.680  30.718  1.00  0.00     0.049 A 
ATOM     50  H   UNL A   1      41.098  31.506  30.623  1.00  0.00     0.167 HD
ATOM     51  C   UNL A   1      44.787  33.452  29.308  1.00  0.00     0.034 A 
ATOM     52  C   UNL A   1      38.409  31.667  31.253  1.00  0.00     0.034 A 
ATOM     53  C   UNL A   1      44.955  33.289  30.725  1.00  0.00     0.049 A 
ATOM     54  C   UNL A   1      39.332  32.658  31.839  1.00  0.00     0.074 A 
ATOM     55  C   UNL A   1      45.741  32.475  31.514  1.00  0.00     0.029 A 
ATOM     56  N   UNL A   1      43.934  33.747  31.517  1.00  0.00    -0.354 N 
ATOM     57  N   UNL A   1      40.049  32.436  32.903  1.00  0.00    -0.248 NA
ATOM     58  C   UNL A   1      39.729  33.804  31.039  1.00  0.00     0.031 C 
ATOM     59  C   UNL A   1      44.928  32.153  32.636  1.00  0.00     0.029 A 
ATOM     60  C   UNL A   1      43.714  32.833  32.512  1.00  0.00     0.049 A 
ATOM     61  H   UNL A   1      43.442  34.590  31.391  1.00  0.00     0.167 HD
ATOM     62  C   UNL A   1      41.238  33.099  32.649  1.00  0.00     0.074 A 
ATOM     63  C   UNL A   1      40.924  34.045  31.583  1.00  0.00     0.031 C 
ATOM     64  C   UNL A   1      42.420  32.604  33.118  1.00  0.00     0.034 A 
BRANCH  51  65
ATOM     65  C   UNL A   1      44.616  34.808  28.674  1.00  0.00     0.023 A 
ATOM     66  C   UNL A   1      43.310  35.170  28.280  1.00  0.00     0.012 A 
ATOM     67  C   UNL A   1      45.688  35.576  28.162  1.00  0.00     0.148 A 
ATOM     68  C   UNL A   1      43.084  36.205  27.369  1.00  0.00     0.002 A 
ATOM     69  C   UNL A   1      45.454  36.642  27.302  1.00  0.00     0.091 A 
ATOM     70  F   UNL A   1      46.950  35.204  28.401  1.00  0.00    -0.205 F 
ATOM     71  C   UNL A   1      44.156  36.941  26.878  1.00  0.00     0.022 A 
BRANCH  69  72
ATOM     72  S   UNL A   1      46.794  37.642  26.641  1.00  0.00     0.127 S 
ATOM     73  O   UNL A   1      46.057  38.691  25.944  1.00  0.00    -0.237 OA
ATOM     74  O   UNL A   1      47.476  38.065  27.864  1.00  0.00    -0.237 OA
ATOM     75  O   UNL A   1      47.574  36.747  25.794  1.00  0.00    -0.744 OA
ENDBRANCH  69  72
ENDBRANCH  51  65
BRANCH  52  76
ATOM     76  C   UNL A   1      36.954  31.944  31.192  1.00  0.00     0.023 A 
ATOM     77  C   UNL A   1      36.257  32.264  32.379  1.00  0.00     0.012 A 
ATOM     78  C   UNL A   1      36.322  32.201  29.959  1.00  0.00     0.148 A 
ATOM     79  C   UNL A   1      34.998  32.873  32.337  1.00  0.00     0.002 A 
ATOM     80  C   UNL A   1      35.069  32.810  29.921  1.00  0.00     0.091 A 
ATOM     81  F   UNL A   1      36.990  31.942  28.827  1.00  0.00    -0.205 F 
ATOM     82  C   UNL A   1      34.410  33.160  31.108  1.00  0.00     0.022 A 
BRANCH  80  83
ATOM     83  S   UNL A   1      34.270  33.268  28.376  1.00  0.00     0.127 S 
ATOM     84  O   UNL A   1      33.790  31.975  27.887  1.00  0.00    -0.237 OA
ATOM     85  O   UNL A   1      33.223  34.176  28.836  1.00  0.00    -0.237 OA
ATOM     86  O   UNL A   1      35.306  33.878  27.550  1.00  0.00    -0.744 OA
ENDBRANCH  80  83
ENDBRANCH  52  76
BRANCH  64  87
ATOM     87  C   UNL A   1      42.363  31.548  34.193  1.00  0.00     0.023 A 
ATOM     88  C   UNL A   1      42.311  31.852  35.570  1.00  0.00     0.012 A 
ATOM     89  C   UNL A   1      42.197  30.213  33.788  1.00  0.00     0.148 A 
ATOM     90  C   UNL A   1      42.123  30.843  36.519  1.00  0.00     0.002 A 
ATOM     91  C   UNL A   1      41.949  29.222  34.729  1.00  0.00     0.091 A 
ATOM     92  F   UNL A   1      42.257  29.934  32.476  1.00  0.00    -0.205 F 
ATOM     93  C   UNL A   1      41.924  29.530  36.098  1.00  0.00     0.022 A 
BRANCH  91  94
ATOM     94  S   UNL A   1      41.538  27.551  34.225  1.00  0.00     0.127 S 
ATOM     95  O   UNL A   1      40.382  27.767  33.358  1.00  0.00    -0.237 OA
ATOM     96  O   UNL A   1      42.753  27.122  33.529  1.00  0.00    -0.237 OA
ATOM     97  O   UNL A   1      41.276  26.819  35.458  1.00  0.00    -0.744 OA
ENDBRANCH  91  94
ENDBRANCH  64  87
ENDBRANCH  38  39
ENDBRANCH  31  33
ENDBRANCH  30  31
ENDBRANCH  29  30
ENDBRANCH  28  29
ENDBRANCH  27  28
ENDBRANCH  26  27
ENDBRANCH   1  26
TORSDOF 24
ENDMDL
MODEL 2
REMARK VINA RESULT:      -9.4      4.547      6.895
REMARK SMILES CCN(Cc1cn(CC)nc1C)C(=O)c1ccn([C@@H](C)C(=O)OCCOCCOC(=O)c2ccc(-c3c4nc(c(-c5cccc(S(=O)(=O)[O-])c5F)c5ccc([nH]5)c(-c5cccc(S(=O)(=O)[O-])c5F)c5nc(c(-c6cccc(S(=O)(=O)[O-])c6F)c6ccc3[nH]6)C=C5)C=C4)cc2)n1
REMARK SMILES IDX 24 1 23 2 21 3 22 4 19 5 20 6 18 7 15 8 16 9 95 10 17 11
REMARK SMILES IDX 13 12 14 13 3 14 2 15 1 16 4 17 5 18 6 19 11 20 7 21 10 22
REMARK SMILES IDX 12 23 8 24 9 25 25 26 26 27 27 28 28 29 29 30 30 31 31 32
REMARK SMILES IDX 32 33 33 34 94 35 34 36 93 37 35 38 36 39 37 40 87 41 38 42
REMARK SMILES IDX 92 43 86 44 88 45 39 46 91 47 85 48 84 49 40 51 72 52 52 53
REMARK SMILES IDX 71 54 53 55 56 56 70 57 89 58 54 59 55 60 69 62 90 63 57 64
REMARK SMILES IDX 41 65 42 66 50 67 43 68 45 69 51 70 44 71 46 72 47 73 48 74
REMARK SMILES IDX 49 75 73 76 74 77 82 78 75 79 77 80 83 81 76 82 78 83 79 84
REMARK SMILES IDX 80 85 81 86 58 87 59 88 67 89 60 90 62 91 68 92 61 93 63 94
REMARK SMILES IDX 64 95 65 96 66 97
REMARK H PARENT 88 50 56 61
REMARK Flexibility Score: inf
ROOT
ATOM      1  C   UNL A   1      42.720  18.534  25.964  1.00  0.00     0.261 C 
ENDROOT
BRANCH   1   2
ATOM      2  O   UNL A   1      43.480  18.901  24.794  1.00  0.00    -0.462 OA
BRANCH   2   3
ATOM      3  C   UNL A   1      44.831  18.827  24.884  1.00  0.00     0.330 C 
ATOM      4  O   UNL A   1      45.425  17.971  25.535  1.00  0.00    -0.250 OA
BRANCH   3   5
ATOM      5  C   UNL A   1      45.561  19.950  24.174  1.00  0.00     0.213 C 
ATOM      6  C   UNL A   1      47.062  19.769  24.342  1.00  0.00     0.046 C 
BRANCH   5   7
ATOM      7  N   UNL A   1      45.140  21.321  24.480  1.00  0.00    -0.258 N 
ATOM      8  C   UNL A   1      44.782  23.015  25.746  1.00  0.00     0.150 A 
ATOM      9  C   UNL A   1      44.203  23.302  24.492  1.00  0.00     0.056 A 
ATOM     10  N   UNL A   1      45.363  21.796  25.734  1.00  0.00    -0.167 NA
ATOM     11  C   UNL A   1      44.412  22.187  23.720  1.00  0.00     0.110 A 
BRANCH   8  12
ATOM     12  C   UNL A   1      44.806  23.937  26.893  1.00  0.00     0.274 C 
ATOM     13  O   UNL A   1      44.067  23.736  27.857  1.00  0.00    -0.267 OA
BRANCH  12  14
ATOM     14  N   UNL A   1      45.742  24.980  26.860  1.00  0.00    -0.333 N 
BRANCH  14  15
ATOM     15  C   UNL A   1      45.905  25.730  25.611  1.00  0.00     0.117 C 
ATOM     16  C   UNL A   1      44.841  26.807  25.444  1.00  0.00     0.027 C 
ENDBRANCH  14  15
BRANCH  14  17
ATOM     17  C   UNL A   1      46.676  25.276  27.949  1.00  0.00     0.159 C 
BRANCH  17  18
ATOM     18  C   UNL A   1      46.186  26.355  28.857  1.00  0.00     0.012 A 
ATOM     19  C   UNL A   1      45.293  26.244  29.906  1.00  0.00     0.114 A 
ATOM     20  C   UNL A   1      46.474  27.753  28.807  1.00  0.00     0.064 A 
ATOM     21  N   UNL A   1      45.112  27.500  30.409  1.00  0.00    -0.272 N 
ATOM     22  N   UNL A   1      45.864  28.430  29.787  1.00  0.00    -0.178 NA
ATOM     23  C   UNL A   1      47.333  28.507  27.859  1.00  0.00     0.069 C 
BRANCH  21  24
ATOM     24  C   UNL A   1      44.280  27.865  31.545  1.00  0.00     0.141 C 
ATOM     25  C   UNL A   1      43.912  26.635  32.343  1.00  0.00     0.029 C 
ENDBRANCH  21  24
ENDBRANCH  17  18
ENDBRANCH  14  17
ENDBRANCH  12  14
ENDBRANCH   8  12
ENDBRANCH   5   7
ENDBRANCH   3   5
ENDBRANCH   2   3
ENDBRANCH   1   2
BRANCH   1  26
ATOM     26  C   UNL A   1      41.636  19.573  26.249  1.00  0.00     0.202 C 
BRANCH  26  27
ATOM     27  O   UNL A   1      41.897  20.869  25.705  1.00  0.00    -0.374 OA
BRANCH  27  28
ATOM     28  C   UNL A   1      40.871  21.853  25.835  1.00  0.00     0.202 C 
BRANCH  28  29
ATOM     29  C   UNL A   1      40.114  21.847  27.155  1.00  0.00     0.261 C 
BRANCH  29  30
ATOM     30  O   UNL A   1      40.339  23.056  27.865  1.00  0.00    -0.460 OA
BRANCH  30  31
ATOM     31  C   UNL A   1      40.779  24.131  27.161  1.00  0.00     0.338 C 
ATOM     32  O   UNL A   1      41.391  24.141  26.125  1.00  0.00    -0.246 OA
BRANCH  31  33
ATOM     33  C   UNL A   1      40.472  25.308  28.000  1.00  0.00     0.060 A 
ATOM     34  C   UNL A   1      39.400  26.117  27.632  1.00  0.00     0.016 A 
ATOM     35  C   UNL A   1      41.405  25.724  28.953  1.00  0.00     0.016 A 
ATOM     36  C   UNL A   1      39.402  27.431  28.059  1.00  0.00     0.010 A 
ATOM     37  C   UNL A   1      41.451  27.041  29.322  1.00  0.00     0.010 A 
ATOM     38  C   UNL A   1      40.484  27.897  28.815  1.00  0.00    -0.014 A 
BRANCH  38  39
ATOM     39  C   UNL A   1      40.564  29.303  29.153  1.00  0.00     0.031 A 
ATOM     40  C   UNL A   1      41.894  29.903  28.877  1.00  0.00     0.074 A 
ATOM     41  C   UNL A   1      39.467  29.992  29.540  1.00  0.00     0.049 A 
ATOM     42  N   UNL A   1      42.627  30.574  29.695  1.00  0.00    -0.248 NA
ATOM     43  C   UNL A   1      42.537  29.655  27.572  1.00  0.00     0.031 C 
ATOM     44  C   UNL A   1      38.076  29.511  29.557  1.00  0.00     0.029 A 
ATOM     45  N   UNL A   1      39.335  31.306  29.883  1.00  0.00    -0.354 N 
ATOM     46  C   UNL A   1      43.698  31.045  28.941  1.00  0.00     0.074 A 
ATOM     47  C   UNL A   1      43.645  30.387  27.667  1.00  0.00     0.031 C 
ATOM     48  C   UNL A   1      37.236  30.563  29.687  1.00  0.00     0.029 A 
ATOM     49  C   UNL A   1      38.018  31.767  29.892  1.00  0.00     0.049 A 
ATOM     50  H   UNL A   1      40.104  31.880  30.104  1.00  0.00     0.167 HD
ATOM     51  C   UNL A   1      44.407  32.122  29.360  1.00  0.00     0.034 A 
ATOM     52  C   UNL A   1      37.600  33.050  30.022  1.00  0.00     0.034 A 
ATOM     53  C   UNL A   1      44.280  32.303  30.780  1.00  0.00     0.049 A 
ATOM     54  C   UNL A   1      38.717  33.817  30.605  1.00  0.00     0.074 A 
ATOM     55  C   UNL A   1      44.578  31.526  31.880  1.00  0.00     0.029 A 
ATOM     56  N   UNL A   1      43.388  33.257  31.195  1.00  0.00    -0.354 N 
ATOM     57  N   UNL A   1      39.127  33.674  31.833  1.00  0.00    -0.248 NA
ATOM     58  C   UNL A   1      39.627  34.516  29.715  1.00  0.00     0.031 C 
ATOM     59  C   UNL A   1      43.538  31.794  32.814  1.00  0.00     0.029 A 
ATOM     60  C   UNL A   1      42.695  32.765  32.268  1.00  0.00     0.049 A 
ATOM     61  H   UNL A   1      43.266  34.146  30.790  1.00  0.00     0.167 HD
ATOM     62  C   UNL A   1      40.501  33.830  31.748  1.00  0.00     0.074 A 
ATOM     63  C   UNL A   1      40.726  34.502  30.472  1.00  0.00     0.031 C 
ATOM     64  C   UNL A   1      41.329  33.131  32.577  1.00  0.00     0.034 A 
BRANCH  51  65
ATOM     65  C   UNL A   1      44.847  33.237  28.449  1.00  0.00     0.023 A 
ATOM     66  C   UNL A   1      43.832  33.976  27.805  1.00  0.00     0.012 A 
ATOM     67  C   UNL A   1      46.166  33.373  27.954  1.00  0.00     0.148 A 
ATOM     68  C   UNL A   1      44.102  34.760  26.681  1.00  0.00     0.002 A 
ATOM     69  C   UNL A   1      46.439  34.201  26.872  1.00  0.00     0.091 A 
ATOM     70  F   UNL A   1      47.145  32.605  28.443  1.00  0.00    -0.205 F 
ATOM     71  C   UNL A   1      45.406  34.874  26.213  1.00  0.00     0.022 A 
BRANCH  69  72
ATOM     72  S   UNL A   1      48.105  34.401  26.225  1.00  0.00     0.127 S 
ATOM     73  O   UNL A   1      47.868  35.270  25.077  1.00  0.00    -0.237 OA
ATOM     74  O   UNL A   1      48.785  35.032  27.356  1.00  0.00    -0.237 OA
ATOM     75  O   UNL A   1      48.572  33.055  25.915  1.00  0.00    -0.744 OA
ENDBRANCH  69  72
ENDBRANCH  51  65
BRANCH  52  76
ATOM     76  C   UNL A   1      36.376  33.748  29.558  1.00  0.00     0.023 A 
ATOM     77  C   UNL A   1      35.843  33.444  28.286  1.00  0.00     0.012 A 
ATOM     78  C   UNL A   1      35.567  34.462  30.465  1.00  0.00     0.148 A 
ATOM     79  C   UNL A   1      34.530  33.790  27.949  1.00  0.00     0.002 A 
ATOM     80  C   UNL A   1      34.258  34.802  30.128  1.00  0.00     0.091 A 
ATOM     81  F   UNL A   1      36.046  34.718  31.690  1.00  0.00    -0.205 F 
ATOM     82  C   UNL A   1      33.732  34.455  28.876  1.00  0.00     0.022 A 
BRANCH  80  83
ATOM     83  S   UNL A   1      33.146  35.608  31.289  1.00  0.00     0.127 S 
ATOM     84  O   UNL A   1      32.934  34.559  32.286  1.00  0.00    -0.237 OA
ATOM     85  O   UNL A   1      33.954  36.735  31.747  1.00  0.00    -0.237 OA
ATOM     86  O   UNL A   1      31.955  35.965  30.527  1.00  0.00    -0.744 OA
ENDBRANCH  80  83
ENDBRANCH  52  76
BRANCH  64  87
ATOM     87  C   UNL A   1      40.721  32.479  33.794  1.00  0.00     0.023 A 
ATOM     88  C   UNL A   1      40.258  31.147  33.803  1.00  0.00     0.012 A 
ATOM     89  C   UNL A   1      40.767  33.188  35.006  1.00  0.00     0.148 A 
ATOM     90  C   UNL A   1      39.829  30.547  34.990  1.00  0.00     0.002 A 
ATOM     91  C   UNL A   1      40.398  32.569  36.192  1.00  0.00     0.091 A 
ATOM     92  F   UNL A   1      41.202  34.458  34.983  1.00  0.00    -0.205 F 
ATOM     93  C   UNL A   1      39.915  31.252  36.188  1.00  0.00     0.022 A 
BRANCH  91  94
ATOM     94  S   UNL A   1      40.635  33.385  37.772  1.00  0.00     0.127 S 
ATOM     95  O   UNL A   1      42.064  33.190  38.007  1.00  0.00    -0.237 OA
ATOM     96  O   UNL A   1      40.245  34.765  37.478  1.00  0.00    -0.237 OA
ATOM     97  O   UNL A   1      39.743  32.707  38.705  1.00  0.00    -0.744 OA
ENDBRANCH  91  94
ENDBRANCH  64  87
ENDBRANCH  38  39
ENDBRANCH  31  33
ENDBRANCH  30  31
ENDBRANCH  29  30
ENDBRANCH  28  29
ENDBRANCH  27  28
ENDBRANCH  26  27
ENDBRANCH   1  26
TORSDOF 24
ENDMDL
MODEL 3
REMARK VINA RESULT:      -8.9      4.596      7.714
REMARK SMILES CCN(Cc1cn(CC)nc1C)C(=O)c1ccn([C@@H](C)C(=O)OCCOCCOC(=O)c2ccc(-c3c4nc(c(-c5cccc(S(=O)(=O)[O-])c5F)c5ccc([nH]5)c(-c5cccc(S(=O)(=O)[O-])c5F)c5nc(c(-c6cccc(S(=O)(=O)[O-])c6F)c6ccc3[nH]6)C=C5)C=C4)cc2)n1
REMARK SMILES IDX 24 1 23 2 21 3 22 4 19 5 20 6 18 7 15 8 16 9 95 10 17 11
REMARK SMILES IDX 13 12 14 13 3 14 2 15 1 16 4 17 5 18 6 19 11 20 7 21 10 22
REMARK SMILES IDX 12 23 8 24 9 25 25 26 26 27 27 28 28 29 29 30 30 31 31 32
REMARK SMILES IDX 32 33 33 34 94 35 34 36 93 37 35 38 36 39 37 40 87 41 38 42
REMARK SMILES IDX 92 43 86 44 88 45 39 46 91 47 85 48 84 49 40 51 72 52 52 53
REMARK SMILES IDX 71 54 53 55 56 56 70 57 89 58 54 59 55 60 69 62 90 63 57 64
REMARK SMILES IDX 41 65 42 66 50 67 43 68 45 69 51 70 44 71 46 72 47 73 48 74
REMARK SMILES IDX 49 75 73 76 74 77 82 78 75 79 77 80 83 81 76 82 78 83 79 84
REMARK SMILES IDX 80 85 81 86 58 87 59 88 67 89 60 90 62 91 68 92 61 93 63 94
REMARK SMILES IDX 64 95 65 96 66 97
REMARK H PARENT 88 50 56 61
REMARK Flexibility Score: inf
ROOT
ATOM      1  C   UNL A   1      42.632  18.832  26.043  1.00  0.00     0.261 C 
ENDROOT
BRANCH   1   2
ATOM      2  O   UNL A   1      43.451  19.123  24.892  1.00  0.00    -0.462 OA
BRANCH   2   3
ATOM      3  C   UNL A   1      44.782  18.882  25.002  1.00  0.00     0.330 C 
ATOM      4  O   UNL A   1      45.255  17.953  25.650  1.00  0.00    -0.250 OA
BRANCH   3   5
ATOM      5  C   UNL A   1      45.655  19.914  24.317  1.00  0.00     0.213 C 
ATOM      6  C   UNL A   1      47.121  19.575  24.545  1.00  0.00     0.046 C 
BRANCH   5   7
ATOM      7  N   UNL A   1      45.372  21.325  24.599  1.00  0.00    -0.258 N 
ATOM      8  C   UNL A   1      45.411  23.127  25.762  1.00  0.00     0.150 A 
ATOM      9  C   UNL A   1      44.535  23.348  24.679  1.00  0.00     0.056 A 
ATOM     10  N   UNL A   1      45.929  21.882  25.707  1.00  0.00    -0.167 NA
ATOM     11  C   UNL A   1      44.500  22.169  23.979  1.00  0.00     0.110 A 
BRANCH   8  12
ATOM     12  C   UNL A   1      45.762  24.131  26.779  1.00  0.00     0.274 C 
ATOM     13  O   UNL A   1      45.819  23.808  27.965  1.00  0.00    -0.267 OA
BRANCH  12  14
ATOM     14  N   UNL A   1      46.091  25.416  26.327  1.00  0.00    -0.333 N 
BRANCH  14  15
ATOM     15  C   UNL A   1      45.101  26.485  26.486  1.00  0.00     0.117 C 
ATOM     16  C   UNL A   1      44.913  27.291  25.206  1.00  0.00     0.027 C 
ENDBRANCH  14  15
BRANCH  14  17
ATOM     17  C   UNL A   1      47.306  25.732  25.571  1.00  0.00     0.159 C 
BRANCH  17  18
ATOM     18  C   UNL A   1      48.437  26.165  26.443  1.00  0.00     0.012 A 
ATOM     19  C   UNL A   1      49.397  25.375  27.047  1.00  0.00     0.114 A 
ATOM     20  C   UNL A   1      48.743  27.481  26.907  1.00  0.00     0.064 A 
ATOM     21  N   UNL A   1      50.190  26.206  27.785  1.00  0.00    -0.272 N 
ATOM     22  N   UNL A   1      49.841  27.504  27.672  1.00  0.00    -0.178 NA
ATOM     23  C   UNL A   1      48.039  28.762  26.648  1.00  0.00     0.069 C 
BRANCH  21  24
ATOM     24  C   UNL A   1      51.354  25.822  28.567  1.00  0.00     0.141 C 
ATOM     25  C   UNL A   1      51.345  26.527  29.904  1.00  0.00     0.029 C 
ENDBRANCH  21  24
ENDBRANCH  17  18
ENDBRANCH  14  17
ENDBRANCH  12  14
ENDBRANCH   8  12
ENDBRANCH   5   7
ENDBRANCH   3   5
ENDBRANCH   2   3
ENDBRANCH   1   2
BRANCH   1  26
ATOM     26  C   UNL A   1      41.569  19.913  26.233  1.00  0.00     0.202 C 
BRANCH  26  27
ATOM     27  O   UNL A   1      41.937  21.203  25.738  1.00  0.00    -0.374 OA
BRANCH  27  28
ATOM     28  C   UNL A   1      40.979  22.253  25.870  1.00  0.00     0.202 C 
BRANCH  28  29
ATOM     29  C   UNL A   1      40.066  22.166  27.083  1.00  0.00     0.261 C 
BRANCH  29  30
ATOM     30  O   UNL A   1      40.215  23.314  27.904  1.00  0.00    -0.460 OA
BRANCH  30  31
ATOM     31  C   UNL A   1      40.881  24.379  27.388  1.00  0.00     0.338 C 
ATOM     32  O   UNL A   1      41.731  24.383  26.536  1.00  0.00    -0.246 OA
BRANCH  31  33
ATOM     33  C   UNL A   1      40.447  25.544  28.186  1.00  0.00     0.060 A 
ATOM     34  C   UNL A   1      39.453  26.368  27.663  1.00  0.00     0.016 A 
ATOM     35  C   UNL A   1      41.214  25.938  29.286  1.00  0.00     0.016 A 
ATOM     36  C   UNL A   1      39.392  27.675  28.108  1.00  0.00     0.010 A 
ATOM     37  C   UNL A   1      41.206  27.248  29.680  1.00  0.00     0.010 A 
ATOM     38  C   UNL A   1      40.338  28.119  29.038  1.00  0.00    -0.014 A 
BRANCH  38  39
ATOM     39  C   UNL A   1      40.369  29.519  29.408  1.00  0.00     0.031 A 
ATOM     40  C   UNL A   1      41.701  30.149  29.230  1.00  0.00     0.074 A 
ATOM     41  C   UNL A   1      39.236  30.179  29.740  1.00  0.00     0.049 A 
ATOM     42  N   UNL A   1      42.368  30.816  30.107  1.00  0.00    -0.248 NA
ATOM     43  C   UNL A   1      42.430  29.942  27.964  1.00  0.00     0.031 C 
ATOM     44  C   UNL A   1      37.857  29.672  29.659  1.00  0.00     0.029 A 
ATOM     45  N   UNL A   1      39.057  31.482  30.100  1.00  0.00    -0.354 N 
ATOM     46  C   UNL A   1      43.475  31.323  29.432  1.00  0.00     0.074 A 
ATOM     47  C   UNL A   1      43.515  30.692  28.144  1.00  0.00     0.031 C 
ATOM     48  C   UNL A   1      36.989  30.705  29.756  1.00  0.00     0.029 A 
ATOM     49  C   UNL A   1      37.733  31.919  30.036  1.00  0.00     0.049 A 
ATOM     50  H   UNL A   1      39.799  32.065  30.382  1.00  0.00     0.167 HD
ATOM     51  C   UNL A   1      44.134  32.403  29.918  1.00  0.00     0.034 A 
ATOM     52  C   UNL A   1      37.282  33.191  30.165  1.00  0.00     0.034 A 
ATOM     53  C   UNL A   1      43.914  32.551  31.329  1.00  0.00     0.049 A 
ATOM     54  C   UNL A   1      38.345  33.965  30.834  1.00  0.00     0.074 A 
ATOM     55  C   UNL A   1      44.158  31.756  32.430  1.00  0.00     0.029 A 
ATOM     56  N   UNL A   1      42.979  33.479  31.707  1.00  0.00    -0.354 N 
ATOM     57  N   UNL A   1      38.679  33.803  32.082  1.00  0.00    -0.248 NA
ATOM     58  C   UNL A   1      39.295  34.700  30.017  1.00  0.00     0.031 C 
ATOM     59  C   UNL A   1      43.056  31.984  33.301  1.00  0.00     0.029 A 
ATOM     60  C   UNL A   1      42.230  32.951  32.723  1.00  0.00     0.049 A 
ATOM     61  H   UNL A   1      42.865  34.374  31.313  1.00  0.00     0.167 HD
ATOM     62  C   UNL A   1      40.052  33.987  32.087  1.00  0.00     0.074 A 
ATOM     63  C   UNL A   1      40.344  34.690  30.842  1.00  0.00     0.031 C 
ATOM     64  C   UNL A   1      40.840  33.285  32.952  1.00  0.00     0.034 A 
BRANCH  51  65
ATOM     65  C   UNL A   1      44.609  33.546  29.059  1.00  0.00     0.023 A 
ATOM     66  C   UNL A   1      45.988  33.842  29.093  1.00  0.00     0.012 A 
ATOM     67  C   UNL A   1      43.747  34.519  28.500  1.00  0.00     0.148 A 
ATOM     68  C   UNL A   1      46.481  35.073  28.653  1.00  0.00     0.002 A 
ATOM     69  C   UNL A   1      44.249  35.718  28.009  1.00  0.00     0.091 A 
ATOM     70  F   UNL A   1      42.422  34.347  28.553  1.00  0.00    -0.205 F 
ATOM     71  C   UNL A   1      45.612  36.013  28.111  1.00  0.00     0.022 A 
BRANCH  69  72
ATOM     72  S   UNL A   1      43.181  36.970  27.286  1.00  0.00     0.127 S 
ATOM     73  O   UNL A   1      44.148  38.000  26.919  1.00  0.00    -0.237 OA
ATOM     74  O   UNL A   1      42.591  36.240  26.163  1.00  0.00    -0.237 OA
ATOM     75  O   UNL A   1      42.234  37.335  28.332  1.00  0.00    -0.744 OA
ENDBRANCH  69  72
ENDBRANCH  51  65
BRANCH  52  76
ATOM     76  C   UNL A   1      36.076  33.876  29.639  1.00  0.00     0.023 A 
ATOM     77  C   UNL A   1      35.524  33.462  28.406  1.00  0.00     0.012 A 
ATOM     78  C   UNL A   1      35.296  34.702  30.473  1.00  0.00     0.148 A 
ATOM     79  C   UNL A   1      34.219  33.812  28.042  1.00  0.00     0.002 A 
ATOM     80  C   UNL A   1      33.996  35.047  30.110  1.00  0.00     0.091 A 
ATOM     81  F   UNL A   1      35.792  35.065  31.663  1.00  0.00    -0.205 F 
ATOM     82  C   UNL A   1      33.450  34.592  28.901  1.00  0.00     0.022 A 
BRANCH  80  83
ATOM     83  S   UNL A   1      32.918  36.000  31.189  1.00  0.00     0.127 S 
ATOM     84  O   UNL A   1      32.892  37.301  30.521  1.00  0.00    -0.237 OA
ATOM     85  O   UNL A   1      31.670  35.244  31.110  1.00  0.00    -0.237 OA
ATOM     86  O   UNL A   1      33.560  36.007  32.498  1.00  0.00    -0.744 OA
ENDBRANCH  80  83
ENDBRANCH  52  76
BRANCH  64  87
ATOM     87  C   UNL A   1      40.170  32.596  34.114  1.00  0.00     0.023 A 
ATOM     88  C   UNL A   1      39.790  31.237  34.089  1.00  0.00     0.012 A 
ATOM     89  C   UNL A   1      40.068  33.305  35.323  1.00  0.00     0.148 A 
ATOM     90  C   UNL A   1      39.296  30.610  35.236  1.00  0.00     0.002 A 
ATOM     91  C   UNL A   1      39.636  32.662  36.476  1.00  0.00     0.091 A 
ATOM     92  F   UNL A   1      40.425  34.599  35.333  1.00  0.00    -0.205 F 
ATOM     93  C   UNL A   1      39.235  31.318  36.435  1.00  0.00     0.022 A 
BRANCH  91  94
ATOM     94  S   UNL A   1      39.684  33.488  38.067  1.00  0.00     0.127 S 
ATOM     95  O   UNL A   1      41.088  33.884  38.165  1.00  0.00    -0.237 OA
ATOM     96  O   UNL A   1      38.747  34.597  37.878  1.00  0.00    -0.237 OA
ATOM     97  O   UNL A   1      39.237  32.499  39.040  1.00  0.00    -0.744 OA
ENDBRANCH  91  94
ENDBRANCH  64  87
ENDBRANCH  38  39
ENDBRANCH  31  33
ENDBRANCH  30  31
ENDBRANCH  29  30
ENDBRANCH  28  29
ENDBRANCH  27  28
ENDBRANCH  26  27
ENDBRANCH   1  26
TORSDOF 24
ENDMDL
