MODEL 1
REMARK VINA RESULT:     -12.1      0.000      0.000
REMARK SMILES Cc1coc2cc3oc(=O)c(CC(=O)N[C@H](Cc4c[nH]c5ccc(O)cc45)C(=O)OCCOCCOC(=O)c4ccc(-c5c6nc(c(-c7cccc(S(=O)(=O)[O-])c7F)c7ccc([nH]7)c(-c7cccc(S(=O)(=O)[O-])c7F)c7nc(c(-c8cccc(S(=O)(=O)[O-])c8F)c8ccc5[nH]8)C=C7)C=C6)cc4)c(C)c3cc12
REMARK SMILES IDX 33 1 32 2 31 3 30 4 28 5 29 6 16 7 15 8 13 9 14 10 12 12
REMARK SMILES IDX 11 13 1 14 2 15 3 16 106 17 4 18 5 19 105 20 6 21 104 22
REMARK SMILES IDX 7 23 102 24 8 25 103 26 9 27 10 28 17 29 18 30 19 31 27 32
REMARK SMILES IDX 20 33 21 34 26 35 22 37 24 38 23 39 25 40 34 42 35 43 36 44
REMARK SMILES IDX 37 45 38 46 39 47 40 48 101 49 41 50 100 51 42 52 43 53
REMARK SMILES IDX 44 54 94 55 45 56 99 57 93 58 95 59 46 60 98 61 92 62 91 63
REMARK SMILES IDX 47 65 79 66 59 67 78 68 60 69 63 70 77 71 96 72 61 73 62 74
REMARK SMILES IDX 76 76 97 77 64 78 48 79 49 80 57 81 50 82 52 83 58 84 51 85
REMARK SMILES IDX 53 86 54 87 55 88 56 89 80 90 81 91 89 92 82 93 84 94 90 95
REMARK SMILES IDX 83 96 85 97 86 98 87 99 88 100 65 101 66 102 74 103 67 104
REMARK SMILES IDX 69 105 75 106 68 107 70 108 71 109 72 110 73 111
REMARK H PARENT 15 11 20 36 25 41 95 64 63 75
REMARK Flexibility Score: inf
ROOT
ATOM      1  O   UNL A   1      31.778  28.463  25.997  1.00  0.00    -0.374 OA
ENDROOT
BRANCH   1   2
ATOM      2  C   UNL A   1      31.507  27.348  26.849  1.00  0.00     0.202 C 
BRANCH   2   3
ATOM      3  C   UNL A   1      32.207  26.024  26.530  1.00  0.00     0.261 C 
BRANCH   3   4
ATOM      4  O   UNL A   1      31.551  24.888  27.132  1.00  0.00    -0.462 OA
BRANCH   4   5
ATOM      5  C   UNL A   1      30.460  24.441  26.472  1.00  0.00     0.329 C 
ATOM      6  O   UNL A   1      29.329  24.862  26.680  1.00  0.00    -0.250 OA
BRANCH   5   7
ATOM      7  C   UNL A   1      30.760  23.310  25.473  1.00  0.00     0.196 C 
BRANCH   7   8
ATOM      8  N   UNL A   1      31.603  22.184  25.976  1.00  0.00    -0.342 N 
ATOM      9  C   UNL A   1      32.651  21.446  25.537  1.00  0.00     0.225 C 
ATOM     10  O   UNL A   1      32.875  20.415  26.184  1.00  0.00    -0.275 OA
ATOM     11  H   UNL A   1      31.319  21.901  26.874  1.00  0.00     0.164 HD
BRANCH   9  12
ATOM     12  C   UNL A   1      33.544  21.786  24.351  1.00  0.00     0.143 C 
BRANCH  12  13
ATOM     13  C   UNL A   1      35.000  21.934  24.715  1.00  0.00     0.051 A 
ATOM     14  C   UNL A   1      39.614  25.925  28.152  1.00  0.00     0.048 C 
ATOM     15  C   UNL A   1      39.776  24.515  27.729  1.00  0.00    -0.005 A 
ATOM     16  C   UNL A   1      40.800  23.654  28.072  1.00  0.00     0.199 A 
ATOM     17  C   UNL A   1      38.895  23.756  26.903  1.00  0.00     0.024 A 
ATOM     18  O   UNL A   1      40.639  22.444  27.477  1.00  0.00    -0.464 OA
ATOM     19  C   UNL A   1      39.486  22.509  26.759  1.00  0.00     0.137 A 
ATOM     20  C   UNL A   1      37.653  23.995  26.277  1.00  0.00     0.024 A 
ATOM     21  C   UNL A   1      38.947  21.477  26.006  1.00  0.00     0.095 A 
ATOM     22  C   UNL A   1      37.020  22.960  25.572  1.00  0.00     0.022 A 
ATOM     23  C   UNL A   1      37.692  21.742  25.445  1.00  0.00     0.142 A 
ATOM     24  C   UNL A   1      35.642  23.072  25.050  1.00  0.00    -0.029 A 
ATOM     25  O   UNL A   1      37.092  20.653  24.805  1.00  0.00    -0.422 OA
ATOM     26  C   UNL A   1      34.993  24.428  25.024  1.00  0.00     0.046 C 
ATOM     27  C   UNL A   1      35.720  20.647  24.730  1.00  0.00     0.340 A 
ATOM     28  O   UNL A   1      35.095  19.600  24.675  1.00  0.00    -0.246 OA
ENDBRANCH  12  13
ENDBRANCH   9  12
ENDBRANCH   7   8
BRANCH   7  29
ATOM     29  C   UNL A   1      31.100  23.636  24.007  1.00  0.00     0.074 C 
BRANCH  29  30
ATOM     30  C   UNL A   1      31.260  25.034  23.472  1.00  0.00    -0.020 A 
ATOM     31  C   UNL A   1      32.437  25.489  22.894  1.00  0.00     0.087 A 
ATOM     32  C   UNL A   1      30.315  26.104  23.315  1.00  0.00     0.006 A 
ATOM     33  N   UNL A   1      32.270  26.776  22.477  1.00  0.00    -0.361 N 
ATOM     34  C   UNL A   1      30.986  27.185  22.731  1.00  0.00     0.046 A 
ATOM     35  C   UNL A   1      28.948  26.274  23.612  1.00  0.00     0.056 A 
ATOM     36  H   UNL A   1      32.967  27.329  22.056  1.00  0.00     0.166 HD
ATOM     37  C   UNL A   1      30.381  28.423  22.477  1.00  0.00     0.030 A 
ATOM     38  C   UNL A   1      28.349  27.516  23.404  1.00  0.00     0.116 A 
ATOM     39  C   UNL A   1      29.044  28.579  22.844  1.00  0.00     0.048 A 
BRANCH  38  40
ATOM     40  O   UNL A   1      27.042  27.659  23.775  1.00  0.00    -0.508 OA
ATOM     41  H   UNL A   1      26.495  26.905  23.864  1.00  0.00     0.293 HD
ENDBRANCH  38  40
ENDBRANCH  29  30
ENDBRANCH   7  29
ENDBRANCH   5   7
ENDBRANCH   4   5
ENDBRANCH   3   4
ENDBRANCH   2   3
ENDBRANCH   1   2
BRANCH   1  42
ATOM     42  C   UNL A   1      33.142  28.603  25.579  1.00  0.00     0.202 C 
BRANCH  42  43
ATOM     43  C   UNL A   1      33.850  29.904  26.018  1.00  0.00     0.261 C 
BRANCH  43  44
ATOM     44  O   UNL A   1      34.814  29.648  27.054  1.00  0.00    -0.460 OA
BRANCH  44  45
ATOM     45  C   UNL A   1      35.151  30.695  27.845  1.00  0.00     0.338 C 
ATOM     46  O   UNL A   1      34.437  31.575  28.235  1.00  0.00    -0.246 OA
BRANCH  45  47
ATOM     47  C   UNL A   1      36.487  30.345  28.412  1.00  0.00     0.060 A 
ATOM     48  C   UNL A   1      37.290  31.286  29.069  1.00  0.00     0.016 A 
ATOM     49  C   UNL A   1      37.012  29.115  28.008  1.00  0.00     0.016 A 
ATOM     50  C   UNL A   1      38.651  31.034  29.225  1.00  0.00     0.010 A 
ATOM     51  C   UNL A   1      38.369  28.863  28.171  1.00  0.00     0.010 A 
ATOM     52  C   UNL A   1      39.197  29.835  28.743  1.00  0.00    -0.014 A 
BRANCH  52  53
ATOM     53  C   UNL A   1      40.602  29.526  29.032  1.00  0.00     0.031 A 
ATOM     54  C   UNL A   1      40.863  29.172  30.460  1.00  0.00     0.074 A 
ATOM     55  C   UNL A   1      41.553  29.320  28.095  1.00  0.00     0.049 A 
ATOM     56  N   UNL A   1      41.732  29.678  31.276  1.00  0.00    -0.248 NA
ATOM     57  C   UNL A   1      39.967  28.181  31.079  1.00  0.00     0.031 C 
ATOM     58  C   UNL A   1      41.380  29.295  26.640  1.00  0.00     0.029 A 
ATOM     59  N   UNL A   1      42.852  28.916  28.257  1.00  0.00    -0.354 N 
ATOM     60  C   UNL A   1      41.617  28.939  32.455  1.00  0.00     0.074 A 
ATOM     61  C   UNL A   1      40.426  28.143  32.328  1.00  0.00     0.031 C 
ATOM     62  C   UNL A   1      42.430  28.652  26.081  1.00  0.00     0.029 A 
ATOM     63  C   UNL A   1      43.393  28.320  27.118  1.00  0.00     0.049 A 
ATOM     64  H   UNL A   1      43.355  29.035  29.096  1.00  0.00     0.167 HD
ATOM     65  C   UNL A   1      42.608  28.881  33.386  1.00  0.00     0.034 A 
ATOM     66  C   UNL A   1      44.490  27.524  27.053  1.00  0.00     0.034 A 
ATOM     67  C   UNL A   1      43.578  29.923  33.211  1.00  0.00     0.049 A 
ATOM     68  C   UNL A   1      45.284  27.749  28.280  1.00  0.00     0.074 A 
ATOM     69  C   UNL A   1      43.545  31.302  33.208  1.00  0.00     0.029 A 
ATOM     70  N   UNL A   1      44.792  29.572  32.678  1.00  0.00    -0.354 N 
ATOM     71  N   UNL A   1      45.926  28.851  28.545  1.00  0.00    -0.248 NA
ATOM     72  C   UNL A   1      45.069  26.857  29.408  1.00  0.00     0.031 C 
ATOM     73  C   UNL A   1      44.513  31.687  32.238  1.00  0.00     0.029 A 
ATOM     74  C   UNL A   1      45.098  30.521  31.741  1.00  0.00     0.049 A 
ATOM     75  H   UNL A   1      45.337  28.790  32.922  1.00  0.00     0.167 HD
ATOM     76  C   UNL A   1      45.800  28.998  29.918  1.00  0.00     0.074 A 
ATOM     77  C   UNL A   1      45.372  27.689  30.406  1.00  0.00     0.031 C 
ATOM     78  C   UNL A   1      45.768  30.234  30.494  1.00  0.00     0.034 A 
BRANCH  65  79
ATOM     79  C   UNL A   1      42.883  27.703  34.291  1.00  0.00     0.023 A 
ATOM     80  C   UNL A   1      42.835  27.926  35.686  1.00  0.00     0.012 A 
ATOM     81  C   UNL A   1      43.437  26.478  33.857  1.00  0.00     0.148 A 
ATOM     82  C   UNL A   1      43.353  27.000  36.597  1.00  0.00     0.002 A 
ATOM     83  C   UNL A   1      43.869  25.522  34.770  1.00  0.00     0.091 A 
ATOM     84  F   UNL A   1      43.678  26.277  32.557  1.00  0.00    -0.205 F 
ATOM     85  C   UNL A   1      43.859  25.792  36.140  1.00  0.00     0.022 A 
BRANCH  83  86
ATOM     86  S   UNL A   1      44.464  23.914  34.236  1.00  0.00     0.127 S 
ATOM     87  O   UNL A   1      45.578  24.286  33.369  1.00  0.00    -0.237 OA
ATOM     88  O   UNL A   1      44.845  23.297  35.506  1.00  0.00    -0.237 OA
ATOM     89  O   UNL A   1      43.324  23.279  33.585  1.00  0.00    -0.744 OA
ENDBRANCH  83  86
ENDBRANCH  65  79
BRANCH  66  90
ATOM     90  C   UNL A   1      44.797  26.387  26.147  1.00  0.00     0.023 A 
ATOM     91  C   UNL A   1      45.932  26.451  25.312  1.00  0.00     0.012 A 
ATOM     92  C   UNL A   1      44.161  25.136  26.305  1.00  0.00     0.148 A 
ATOM     93  C   UNL A   1      46.438  25.303  24.687  1.00  0.00     0.002 A 
ATOM     94  C   UNL A   1      44.663  23.999  25.677  1.00  0.00     0.091 A 
ATOM     95  F   UNL A   1      43.125  25.039  27.148  1.00  0.00    -0.205 F 
ATOM     96  C   UNL A   1      45.809  24.077  24.875  1.00  0.00     0.022 A 
BRANCH  94  97
ATOM     97  S   UNL A   1      43.924  22.376  25.905  1.00  0.00     0.127 S 
ATOM     98  O   UNL A   1      42.704  22.482  25.105  1.00  0.00    -0.237 OA
ATOM     99  O   UNL A   1      44.948  21.498  25.346  1.00  0.00    -0.237 OA
ATOM    100  O   UNL A   1      43.692  22.244  27.338  1.00  0.00    -0.744 OA
ENDBRANCH  94  97
ENDBRANCH  66  90
BRANCH  78 101
ATOM    101  C   UNL A   1      46.140  31.437  29.667  1.00  0.00     0.023 A 
ATOM    102  C   UNL A   1      47.455  31.947  29.642  1.00  0.00     0.012 A 
ATOM    103  C   UNL A   1      45.213  31.895  28.714  1.00  0.00     0.148 A 
ATOM    104  C   UNL A   1      47.835  32.894  28.689  1.00  0.00     0.002 A 
ATOM    105  C   UNL A   1      45.611  32.790  27.732  1.00  0.00     0.091 A 
ATOM    106  F   UNL A   1      43.966  31.401  28.756  1.00  0.00    -0.205 F 
ATOM    107  C   UNL A   1      46.920  33.299  27.720  1.00  0.00     0.022 A 
BRANCH 105 108
ATOM    108  S   UNL A   1      44.535  33.220  26.360  1.00  0.00     0.127 S 
ATOM    109  O   UNL A   1      43.610  34.165  26.983  1.00  0.00    -0.237 OA
ATOM    110  O   UNL A   1      45.469  33.816  25.404  1.00  0.00    -0.237 OA
ATOM    111  O   UNL A   1      43.940  31.969  25.909  1.00  0.00    -0.744 OA
ENDBRANCH 105 108
ENDBRANCH  78 101
ENDBRANCH  52  53
ENDBRANCH  45  47
ENDBRANCH  44  45
ENDBRANCH  43  44
ENDBRANCH  42  43
ENDBRANCH   1  42
TORSDOF 23
ENDMDL
MODEL 2
REMARK VINA RESULT:     -11.9      3.492      7.366
REMARK SMILES Cc1coc2cc3oc(=O)c(CC(=O)N[C@H](Cc4c[nH]c5ccc(O)cc45)C(=O)OCCOCCOC(=O)c4ccc(-c5c6nc(c(-c7cccc(S(=O)(=O)[O-])c7F)c7ccc([nH]7)c(-c7cccc(S(=O)(=O)[O-])c7F)c7nc(c(-c8cccc(S(=O)(=O)[O-])c8F)c8ccc5[nH]8)C=C7)C=C6)cc4)c(C)c3cc12
REMARK SMILES IDX 33 1 32 2 31 3 30 4 28 5 29 6 16 7 15 8 13 9 14 10 12 12
REMARK SMILES IDX 11 13 1 14 2 15 3 16 106 17 4 18 5 19 105 20 6 21 104 22
REMARK SMILES IDX 7 23 102 24 8 25 103 26 9 27 10 28 17 29 18 30 19 31 27 32
REMARK SMILES IDX 20 33 21 34 26 35 22 37 24 38 23 39 25 40 34 42 35 43 36 44
REMARK SMILES IDX 37 45 38 46 39 47 40 48 101 49 41 50 100 51 42 52 43 53
REMARK SMILES IDX 44 54 94 55 45 56 99 57 93 58 95 59 46 60 98 61 92 62 91 63
REMARK SMILES IDX 47 65 79 66 59 67 78 68 60 69 63 70 77 71 96 72 61 73 62 74
REMARK SMILES IDX 76 76 97 77 64 78 48 79 49 80 57 81 50 82 52 83 58 84 51 85
REMARK SMILES IDX 53 86 54 87 55 88 56 89 80 90 81 91 89 92 82 93 84 94 90 95
REMARK SMILES IDX 83 96 85 97 86 98 87 99 88 100 65 101 66 102 74 103 67 104
REMARK SMILES IDX 69 105 75 106 68 107 70 108 71 109 72 110 73 111
REMARK H PARENT 15 11 20 36 25 41 95 64 63 75
REMARK Flexibility Score: inf
ROOT
ATOM      1  O   UNL A   1      31.470  28.862  23.920  1.00  0.00    -0.374 OA
ENDROOT
BRANCH   1   2
ATOM      2  C   UNL A   1      32.016  27.722  23.255  1.00  0.00     0.202 C 
BRANCH   2   3
ATOM      3  C   UNL A   1      31.170  26.446  23.224  1.00  0.00     0.261 C 
BRANCH   3   4
ATOM      4  O   UNL A   1      31.486  25.596  22.101  1.00  0.00    -0.462 OA
BRANCH   4   5
ATOM      5  C   UNL A   1      32.786  25.240  22.001  1.00  0.00     0.329 C 
ATOM      6  O   UNL A   1      33.583  25.805  21.262  1.00  0.00    -0.250 OA
BRANCH   5   7
ATOM      7  C   UNL A   1      33.163  24.019  22.858  1.00  0.00     0.196 C 
BRANCH   7   8
ATOM      8  N   UNL A   1      34.493  23.397  22.582  1.00  0.00    -0.342 N 
ATOM      9  C   UNL A   1      35.524  22.882  23.296  1.00  0.00     0.225 C 
ATOM     10  O   UNL A   1      36.569  22.708  22.656  1.00  0.00    -0.275 OA
ATOM     11  H   UNL A   1      34.668  23.345  21.615  1.00  0.00     0.164 HD
BRANCH   9  12
ATOM     12  C   UNL A   1      35.487  22.513  24.772  1.00  0.00     0.143 C 
BRANCH  12  13
ATOM     13  C   UNL A   1      36.839  22.553  25.439  1.00  0.00     0.051 A 
ATOM     14  C   UNL A   1      43.210  19.651  25.531  1.00  0.00     0.048 C 
ATOM     15  C   UNL A   1      42.809  20.968  26.076  1.00  0.00    -0.005 A 
ATOM     16  C   UNL A   1      43.640  21.959  26.562  1.00  0.00     0.199 A 
ATOM     17  C   UNL A   1      41.485  21.488  26.186  1.00  0.00     0.024 A 
ATOM     18  O   UNL A   1      42.922  23.021  27.007  1.00  0.00    -0.464 OA
ATOM     19  C   UNL A   1      41.612  22.732  26.788  1.00  0.00     0.137 A 
ATOM     20  C   UNL A   1      40.198  21.037  25.823  1.00  0.00     0.024 A 
ATOM     21  C   UNL A   1      40.543  23.560  27.089  1.00  0.00     0.095 A 
ATOM     22  C   UNL A   1      39.088  21.871  26.027  1.00  0.00     0.022 A 
ATOM     23  C   UNL A   1      39.291  23.096  26.667  1.00  0.00     0.142 A 
ATOM     24  C   UNL A   1      37.740  21.552  25.509  1.00  0.00    -0.029 A 
ATOM     25  O   UNL A   1      38.237  23.996  26.849  1.00  0.00    -0.422 OA
ATOM     26  C   UNL A   1      37.482  20.167  24.987  1.00  0.00     0.046 C 
ATOM     27  C   UNL A   1      37.157  23.876  26.009  1.00  0.00     0.340 A 
ATOM     28  O   UNL A   1      36.462  24.840  25.732  1.00  0.00    -0.246 OA
ENDBRANCH  12  13
ENDBRANCH   9  12
ENDBRANCH   7   8
BRANCH   7  29
ATOM     29  C   UNL A   1      32.112  22.942  23.184  1.00  0.00     0.074 C 
BRANCH  29  30
ATOM     30  C   UNL A   1      32.311  21.857  24.209  1.00  0.00    -0.020 A 
ATOM     31  C   UNL A   1      32.343  22.107  25.573  1.00  0.00     0.087 A 
ATOM     32  C   UNL A   1      32.382  20.428  24.077  1.00  0.00     0.006 A 
ATOM     33  N   UNL A   1      32.503  20.932  26.246  1.00  0.00    -0.361 N 
ATOM     34  C   UNL A   1      32.542  19.888  25.359  1.00  0.00     0.046 A 
ATOM     35  C   UNL A   1      32.329  19.526  22.996  1.00  0.00     0.056 A 
ATOM     36  H   UNL A   1      32.579  20.847  27.224  1.00  0.00     0.166 HD
ATOM     37  C   UNL A   1      32.697  18.518  25.605  1.00  0.00     0.030 A 
ATOM     38  C   UNL A   1      32.527  18.165  23.226  1.00  0.00     0.116 A 
ATOM     39  C   UNL A   1      32.707  17.659  24.505  1.00  0.00     0.048 A 
BRANCH  38  40
ATOM     40  O   UNL A   1      32.543  17.335  22.141  1.00  0.00    -0.508 OA
ATOM     41  H   UNL A   1      33.338  16.910  21.888  1.00  0.00     0.293 HD
ENDBRANCH  38  40
ENDBRANCH  29  30
ENDBRANCH   7  29
ENDBRANCH   5   7
ENDBRANCH   4   5
ENDBRANCH   3   4
ENDBRANCH   2   3
ENDBRANCH   1   2
BRANCH   1  42
ATOM     42  C   UNL A   1      32.293  29.434  24.944  1.00  0.00     0.202 C 
BRANCH  42  43
ATOM     43  C   UNL A   1      31.698  29.426  26.369  1.00  0.00     0.261 C 
BRANCH  43  44
ATOM     44  O   UNL A   1      32.632  29.957  27.326  1.00  0.00    -0.460 OA
BRANCH  44  45
ATOM     45  C   UNL A   1      32.868  31.290  27.272  1.00  0.00     0.338 C 
ATOM     46  O   UNL A   1      32.100  32.155  26.958  1.00  0.00    -0.246 OA
BRANCH  45  47
ATOM     47  C   UNL A   1      34.149  31.492  28.011  1.00  0.00     0.060 A 
ATOM     48  C   UNL A   1      34.857  32.701  27.961  1.00  0.00     0.016 A 
ATOM     49  C   UNL A   1      34.745  30.335  28.517  1.00  0.00     0.016 A 
ATOM     50  C   UNL A   1      36.202  32.720  28.324  1.00  0.00     0.010 A 
ATOM     51  C   UNL A   1      36.085  30.359  28.884  1.00  0.00     0.010 A 
ATOM     52  C   UNL A   1      36.826  31.538  28.752  1.00  0.00    -0.014 A 
BRANCH  52  53
ATOM     53  C   UNL A   1      38.202  31.603  29.255  1.00  0.00     0.031 A 
ATOM     54  C   UNL A   1      38.956  30.319  29.127  1.00  0.00     0.074 A 
ATOM     55  C   UNL A   1      38.851  32.744  29.574  1.00  0.00     0.049 A 
ATOM     56  N   UNL A   1      39.599  29.661  30.038  1.00  0.00    -0.248 NA
ATOM     57  C   UNL A   1      38.903  29.639  27.822  1.00  0.00     0.031 C 
ATOM     58  C   UNL A   1      38.362  34.118  29.430  1.00  0.00     0.029 A 
ATOM     59  N   UNL A   1      40.160  32.921  29.938  1.00  0.00    -0.354 N 
ATOM     60  C   UNL A   1      40.188  28.581  29.378  1.00  0.00     0.074 A 
ATOM     61  C   UNL A   1      39.607  28.535  28.063  1.00  0.00     0.031 C 
ATOM     62  C   UNL A   1      39.415  34.966  29.443  1.00  0.00     0.029 A 
ATOM     63  C   UNL A   1      40.630  34.213  29.704  1.00  0.00     0.049 A 
ATOM     64  H   UNL A   1      40.715  32.206  30.326  1.00  0.00     0.167 HD
ATOM     65  C   UNL A   1      41.256  27.904  29.883  1.00  0.00     0.034 A 
ATOM     66  C   UNL A   1      41.925  34.611  29.623  1.00  0.00     0.034 A 
ATOM     67  C   UNL A   1      41.452  28.166  31.279  1.00  0.00     0.049 A 
ATOM     68  C   UNL A   1      42.758  33.571  30.266  1.00  0.00     0.074 A 
ATOM     69  C   UNL A   1      40.698  28.000  32.423  1.00  0.00     0.029 A 
ATOM     70  N   UNL A   1      42.491  28.991  31.628  1.00  0.00    -0.354 N 
ATOM     71  N   UNL A   1      42.765  33.327  31.545  1.00  0.00    -0.248 NA
ATOM     72  C   UNL A   1      43.333  32.536  29.422  1.00  0.00     0.031 C 
ATOM     73  C   UNL A   1      41.042  29.107  33.249  1.00  0.00     0.029 A 
ATOM     74  C   UNL A   1      42.008  29.854  32.571  1.00  0.00     0.049 A 
ATOM     75  H   UNL A   1      43.407  28.966  31.267  1.00  0.00     0.167 HD
ATOM     76  C   UNL A   1      42.927  31.953  31.630  1.00  0.00     0.074 A 
ATOM     77  C   UNL A   1      43.389  31.539  30.307  1.00  0.00     0.031 C 
ATOM     78  C   UNL A   1      42.393  31.242  32.665  1.00  0.00     0.034 A 
BRANCH  65  79
ATOM     79  C   UNL A   1      42.324  27.227  29.057  1.00  0.00     0.023 A 
ATOM     80  C   UNL A   1      42.726  25.929  29.448  1.00  0.00     0.012 A 
ATOM     81  C   UNL A   1      43.129  27.886  28.102  1.00  0.00     0.148 A 
ATOM     82  C   UNL A   1      43.890  25.338  28.948  1.00  0.00     0.002 A 
ATOM     83  C   UNL A   1      44.237  27.258  27.541  1.00  0.00     0.091 A 
ATOM     84  F   UNL A   1      42.914  29.176  27.822  1.00  0.00    -0.205 F 
ATOM     85  C   UNL A   1      44.640  25.997  27.985  1.00  0.00     0.022 A 
BRANCH  83  86
ATOM     86  S   UNL A   1      45.198  28.037  26.239  1.00  0.00     0.127 S 
ATOM     87  O   UNL A   1      44.202  28.175  25.180  1.00  0.00    -0.237 OA
ATOM     88  O   UNL A   1      45.605  29.290  26.874  1.00  0.00    -0.237 OA
ATOM     89  O   UNL A   1      46.300  27.120  25.974  1.00  0.00    -0.744 OA
ENDBRANCH  83  86
ENDBRANCH  65  79
BRANCH  66  90
ATOM     90  C   UNL A   1      42.548  35.689  28.812  1.00  0.00     0.023 A 
ATOM     91  C   UNL A   1      42.247  35.787  27.437  1.00  0.00     0.012 A 
ATOM     92  C   UNL A   1      43.197  36.782  29.428  1.00  0.00     0.148 A 
ATOM     93  C   UNL A   1      42.547  36.947  26.711  1.00  0.00     0.002 A 
ATOM     94  C   UNL A   1      43.499  37.930  28.700  1.00  0.00     0.091 A 
ATOM     95  F   UNL A   1      43.428  36.738  30.746  1.00  0.00    -0.205 F 
ATOM     96  C   UNL A   1      43.165  38.021  27.343  1.00  0.00     0.022 A 
BRANCH  94  97
ATOM     97  S   UNL A   1      44.262  39.370  29.460  1.00  0.00     0.127 S 
ATOM     98  O   UNL A   1      44.204  40.352  28.376  1.00  0.00    -0.237 OA
ATOM     99  O   UNL A   1      43.358  39.636  30.575  1.00  0.00    -0.237 OA
ATOM    100  O   UNL A   1      45.612  38.959  29.824  1.00  0.00    -0.744 OA
ENDBRANCH  94  97
ENDBRANCH  66  90
BRANCH  78 101
ATOM    101  C   UNL A   1      41.857  31.985  33.862  1.00  0.00     0.023 A 
ATOM    102  C   UNL A   1      42.672  32.305  34.968  1.00  0.00     0.012 A 
ATOM    103  C   UNL A   1      40.589  32.583  33.753  1.00  0.00     0.148 A 
ATOM    104  C   UNL A   1      42.231  33.200  35.943  1.00  0.00     0.002 A 
ATOM    105  C   UNL A   1      40.180  33.519  34.692  1.00  0.00     0.091 A 
ATOM    106  F   UNL A   1      39.827  32.263  32.696  1.00  0.00    -0.205 F 
ATOM    107  C   UNL A   1      40.995  33.825  35.795  1.00  0.00     0.022 A 
BRANCH 105 108
ATOM    108  S   UNL A   1      38.679  34.479  34.470  1.00  0.00     0.127 S 
ATOM    109  O   UNL A   1      37.658  33.576  34.997  1.00  0.00    -0.237 OA
ATOM    110  O   UNL A   1      38.938  35.660  35.295  1.00  0.00    -0.237 OA
ATOM    111  O   UNL A   1      38.590  34.760  33.042  1.00  0.00    -0.744 OA
ENDBRANCH 105 108
ENDBRANCH  78 101
ENDBRANCH  52  53
ENDBRANCH  45  47
ENDBRANCH  44  45
ENDBRANCH  43  44
ENDBRANCH  42  43
ENDBRANCH   1  42
TORSDOF 23
ENDMDL
MODEL 3
REMARK VINA RESULT:     -11.6      1.789      5.235
REMARK SMILES Cc1coc2cc3oc(=O)c(CC(=O)N[C@H](Cc4c[nH]c5ccc(O)cc45)C(=O)OCCOCCOC(=O)c4ccc(-c5c6nc(c(-c7cccc(S(=O)(=O)[O-])c7F)c7ccc([nH]7)c(-c7cccc(S(=O)(=O)[O-])c7F)c7nc(c(-c8cccc(S(=O)(=O)[O-])c8F)c8ccc5[nH]8)C=C7)C=C6)cc4)c(C)c3cc12
REMARK SMILES IDX 33 1 32 2 31 3 30 4 28 5 29 6 16 7 15 8 13 9 14 10 12 12
REMARK SMILES IDX 11 13 1 14 2 15 3 16 106 17 4 18 5 19 105 20 6 21 104 22
REMARK SMILES IDX 7 23 102 24 8 25 103 26 9 27 10 28 17 29 18 30 19 31 27 32
REMARK SMILES IDX 20 33 21 34 26 35 22 37 24 38 23 39 25 40 34 42 35 43 36 44
REMARK SMILES IDX 37 45 38 46 39 47 40 48 101 49 41 50 100 51 42 52 43 53
REMARK SMILES IDX 44 54 94 55 45 56 99 57 93 58 95 59 46 60 98 61 92 62 91 63
REMARK SMILES IDX 47 65 79 66 59 67 78 68 60 69 63 70 77 71 96 72 61 73 62 74
REMARK SMILES IDX 76 76 97 77 64 78 48 79 49 80 57 81 50 82 52 83 58 84 51 85
REMARK SMILES IDX 53 86 54 87 55 88 56 89 80 90 81 91 89 92 82 93 84 94 90 95
REMARK SMILES IDX 83 96 85 97 86 98 87 99 88 100 65 101 66 102 74 103 67 104
REMARK SMILES IDX 69 105 75 106 68 107 70 108 71 109 72 110 73 111
REMARK H PARENT 15 11 20 36 25 41 95 64 63 75
REMARK Flexibility Score: inf
ROOT
ATOM      1  O   UNL A   1      32.470  30.545  25.522  1.00  0.00    -0.374 OA
ENDROOT
BRANCH   1   2
ATOM      2  C   UNL A   1      32.266  29.468  24.606  1.00  0.00     0.202 C 
BRANCH   2   3
ATOM      3  C   UNL A   1      33.261  28.305  24.645  1.00  0.00     0.261 C 
BRANCH   3   4
ATOM      4  O   UNL A   1      32.836  27.236  25.517  1.00  0.00    -0.462 OA
BRANCH   4   5
ATOM      5  C   UNL A   1      33.792  26.331  25.820  1.00  0.00     0.329 C 
ATOM      6  O   UNL A   1      34.936  26.640  26.132  1.00  0.00    -0.250 OA
BRANCH   5   7
ATOM      7  C   UNL A   1      33.330  24.870  25.681  1.00  0.00     0.196 C 
BRANCH   7   8
ATOM      8  N   UNL A   1      31.976  24.546  26.225  1.00  0.00    -0.342 N 
ATOM      9  C   UNL A   1      30.714  24.410  25.750  1.00  0.00     0.225 C 
ATOM     10  O   UNL A   1      29.828  24.390  26.615  1.00  0.00    -0.275 OA
ATOM     11  H   UNL A   1      32.012  24.385  27.195  1.00  0.00     0.164 HD
BRANCH   9  12
ATOM     12  C   UNL A   1      30.325  24.279  24.285  1.00  0.00     0.143 C 
BRANCH  12  13
ATOM     13  C   UNL A   1      30.096  25.604  23.601  1.00  0.00     0.051 A 
ATOM     14  C   UNL A   1      26.856  31.787  24.144  1.00  0.00     0.048 C 
ATOM     15  C   UNL A   1      28.004  31.442  23.275  1.00  0.00    -0.005 A 
ATOM     16  C   UNL A   1      28.772  32.308  22.522  1.00  0.00     0.199 A 
ATOM     17  C   UNL A   1      28.563  30.147  23.060  1.00  0.00     0.024 A 
ATOM     18  O   UNL A   1      29.723  31.637  21.825  1.00  0.00    -0.464 OA
ATOM     19  C   UNL A   1      29.591  30.322  22.144  1.00  0.00     0.137 A 
ATOM     20  C   UNL A   1      28.312  28.851  23.560  1.00  0.00     0.024 A 
ATOM     21  C   UNL A   1      30.378  29.291  21.656  1.00  0.00     0.095 A 
ATOM     22  C   UNL A   1      29.133  27.784  23.165  1.00  0.00     0.022 A 
ATOM     23  C   UNL A   1      30.127  28.032  22.215  1.00  0.00     0.142 A 
ATOM     24  C   UNL A   1      29.055  26.442  23.781  1.00  0.00    -0.029 A 
ATOM     25  O   UNL A   1      31.015  27.026  21.823  1.00  0.00    -0.422 OA
ATOM     26  C   UNL A   1      27.878  26.125  24.661  1.00  0.00     0.046 C 
ATOM     27  C   UNL A   1      31.195  25.975  22.690  1.00  0.00     0.340 A 
ATOM     28  O   UNL A   1      32.242  25.349  22.714  1.00  0.00    -0.246 OA
ENDBRANCH  12  13
ENDBRANCH   9  12
ENDBRANCH   7   8
BRANCH   7  29
ATOM     29  C   UNL A   1      34.314  23.714  25.937  1.00  0.00     0.074 C 
BRANCH  29  30
ATOM     30  C   UNL A   1      33.930  22.259  25.893  1.00  0.00    -0.020 A 
ATOM     31  C   UNL A   1      34.079  21.408  26.978  1.00  0.00     0.087 A 
ATOM     32  C   UNL A   1      33.268  21.482  24.882  1.00  0.00     0.006 A 
ATOM     33  N   UNL A   1      33.617  20.168  26.650  1.00  0.00    -0.361 N 
ATOM     34  C   UNL A   1      33.126  20.178  25.370  1.00  0.00     0.046 A 
ATOM     35  C   UNL A   1      32.770  21.749  23.591  1.00  0.00     0.056 A 
ATOM     36  H   UNL A   1      33.636  19.382  27.243  1.00  0.00     0.166 HD
ATOM     37  C   UNL A   1      32.564  19.132  24.625  1.00  0.00     0.030 A 
ATOM     38  C   UNL A   1      32.250  20.705  22.826  1.00  0.00     0.116 A 
ATOM     39  C   UNL A   1      32.142  19.415  23.326  1.00  0.00     0.048 A 
BRANCH  38  40
ATOM     40  O   UNL A   1      31.848  20.992  21.553  1.00  0.00    -0.508 OA
ATOM     41  H   UNL A   1      31.684  21.880  21.302  1.00  0.00     0.293 HD
ENDBRANCH  38  40
ENDBRANCH  29  30
ENDBRANCH   7  29
ENDBRANCH   5   7
ENDBRANCH   4   5
ENDBRANCH   3   4
ENDBRANCH   2   3
ENDBRANCH   1   2
BRANCH   1  42
ATOM     42  C   UNL A   1      32.184  30.251  26.896  1.00  0.00     0.202 C 
BRANCH  42  43
ATOM     43  C   UNL A   1      33.409  29.971  27.793  1.00  0.00     0.261 C 
BRANCH  43  44
ATOM     44  O   UNL A   1      34.586  30.624  27.286  1.00  0.00    -0.460 OA
BRANCH  44  45
ATOM     45  C   UNL A   1      35.140  31.579  28.071  1.00  0.00     0.338 C 
ATOM     46  O   UNL A   1      34.618  32.572  28.490  1.00  0.00    -0.246 OA
BRANCH  45  47
ATOM     47  C   UNL A   1      36.403  30.976  28.592  1.00  0.00     0.060 A 
ATOM     48  C   UNL A   1      37.390  31.742  29.225  1.00  0.00     0.016 A 
ATOM     49  C   UNL A   1      36.672  29.674  28.165  1.00  0.00     0.016 A 
ATOM     50  C   UNL A   1      38.684  31.235  29.334  1.00  0.00     0.010 A 
ATOM     51  C   UNL A   1      37.961  29.167  28.282  1.00  0.00     0.010 A 
ATOM     52  C   UNL A   1      38.976  29.959  28.829  1.00  0.00    -0.014 A 
BRANCH  52  53
ATOM     53  C   UNL A   1      40.306  29.387  29.070  1.00  0.00     0.031 A 
ATOM     54  C   UNL A   1      40.576  29.062  30.503  1.00  0.00     0.074 A 
ATOM     55  C   UNL A   1      41.139  28.943  28.103  1.00  0.00     0.049 A 
ATOM     56  N   UNL A   1      41.575  29.423  31.242  1.00  0.00    -0.248 NA
ATOM     57  C   UNL A   1      39.538  28.307  31.225  1.00  0.00     0.031 C 
ATOM     58  C   UNL A   1      40.878  28.877  26.662  1.00  0.00     0.029 A 
ATOM     59  N   UNL A   1      42.338  28.293  28.228  1.00  0.00    -0.354 N 
ATOM     60  C   UNL A   1      41.385  28.785  32.470  1.00  0.00     0.074 A 
ATOM     61  C   UNL A   1      40.054  28.242  32.451  1.00  0.00     0.031 C 
ATOM     62  C   UNL A   1      41.743  28.006  26.095  1.00  0.00     0.029 A 
ATOM     63  C   UNL A   1      42.680  27.541  27.104  1.00  0.00     0.049 A 
ATOM     64  H   UNL A   1      42.904  28.351  29.032  1.00  0.00     0.167 HD
ATOM     65  C   UNL A   1      42.399  28.576  33.355  1.00  0.00     0.034 A 
ATOM     66  C   UNL A   1      43.590  26.537  27.037  1.00  0.00     0.034 A 
ATOM     67  C   UNL A   1      43.545  29.389  33.067  1.00  0.00     0.049 A 
ATOM     68  C   UNL A   1      44.485  26.659  28.208  1.00  0.00     0.074 A 
ATOM     69  C   UNL A   1      43.788  30.744  32.979  1.00  0.00     0.029 A 
ATOM     70  N   UNL A   1      44.631  28.772  32.500  1.00  0.00    -0.354 N 
ATOM     71  N   UNL A   1      45.349  27.620  28.371  1.00  0.00    -0.248 NA
ATOM     72  C   UNL A   1      44.163  25.889  29.399  1.00  0.00     0.031 C 
ATOM     73  C   UNL A   1      44.755  30.873  31.941  1.00  0.00     0.029 A 
ATOM     74  C   UNL A   1      45.064  29.587  31.492  1.00  0.00     0.049 A 
ATOM     75  H   UNL A   1      45.022  27.908  32.767  1.00  0.00     0.167 HD
ATOM     76  C   UNL A   1      45.337  27.861  29.737  1.00  0.00     0.074 A 
ATOM     77  C   UNL A   1      44.685  26.694  30.326  1.00  0.00     0.031 C 
ATOM     78  C   UNL A   1      45.587  29.106  30.235  1.00  0.00     0.034 A 
BRANCH  65  79
ATOM     79  C   UNL A   1      42.485  27.416  34.318  1.00  0.00     0.023 A 
ATOM     80  C   UNL A   1      42.082  27.644  35.653  1.00  0.00     0.012 A 
ATOM     81  C   UNL A   1      43.180  26.213  34.055  1.00  0.00     0.148 A 
ATOM     82  C   UNL A   1      42.392  26.746  36.679  1.00  0.00     0.002 A 
ATOM     83  C   UNL A   1      43.407  25.281  35.062  1.00  0.00     0.091 A 
ATOM     84  F   UNL A   1      43.745  26.016  32.860  1.00  0.00    -0.205 F 
ATOM     85  C   UNL A   1      43.045  25.558  36.382  1.00  0.00     0.022 A 
BRANCH  83  86
ATOM     86  S   UNL A   1      44.181  23.697  34.719  1.00  0.00     0.127 S 
ATOM     87  O   UNL A   1      45.435  24.112  34.097  1.00  0.00    -0.237 OA
ATOM     88  O   UNL A   1      44.312  23.129  36.061  1.00  0.00    -0.237 OA
ATOM     89  O   UNL A   1      43.239  22.987  33.862  1.00  0.00    -0.744 OA
ENDBRANCH  83  86
ENDBRANCH  65  79
BRANCH  66  90
ATOM     90  C   UNL A   1      43.609  25.315  26.191  1.00  0.00     0.023 A 
ATOM     91  C   UNL A   1      44.649  25.133  25.255  1.00  0.00     0.012 A 
ATOM     92  C   UNL A   1      42.790  24.205  26.495  1.00  0.00     0.148 A 
ATOM     93  C   UNL A   1      44.889  23.882  24.671  1.00  0.00     0.002 A 
ATOM     94  C   UNL A   1      43.028  22.965  25.907  1.00  0.00     0.091 A 
ATOM     95  F   UNL A   1      41.843  24.337  27.431  1.00  0.00    -0.205 F 
ATOM     96  C   UNL A   1      44.084  22.797  25.003  1.00  0.00     0.022 A 
BRANCH  94  97
ATOM     97  S   UNL A   1      42.054  21.510  26.316  1.00  0.00     0.127 S 
ATOM     98  O   UNL A   1      40.704  21.934  25.943  1.00  0.00    -0.237 OA
ATOM     99  O   UNL A   1      42.641  20.499  25.442  1.00  0.00    -0.237 OA
ATOM    100  O   UNL A   1      42.241  21.297  27.746  1.00  0.00    -0.744 OA
ENDBRANCH  94  97
ENDBRANCH  66  90
BRANCH  78 101
ATOM    101  C   UNL A   1      46.142  30.164  29.316  1.00  0.00     0.023 A 
ATOM    102  C   UNL A   1      47.518  30.240  29.012  1.00  0.00     0.012 A 
ATOM    103  C   UNL A   1      45.233  30.923  28.559  1.00  0.00     0.148 A 
ATOM    104  C   UNL A   1      47.974  31.056  27.976  1.00  0.00     0.002 A 
ATOM    105  C   UNL A   1      45.685  31.685  27.491  1.00  0.00     0.091 A 
ATOM    106  F   UNL A   1      43.929  30.840  28.865  1.00  0.00    -0.205 F 
ATOM    107  C   UNL A   1      47.057  31.761  27.201  1.00  0.00     0.022 A 
BRANCH 105 108
ATOM    108  S   UNL A   1      44.545  32.480  26.354  1.00  0.00     0.127 S 
ATOM    109  O   UNL A   1      43.698  31.363  25.940  1.00  0.00    -0.237 OA
ATOM    110  O   UNL A   1      43.884  33.465  27.211  1.00  0.00    -0.237 OA
ATOM    111  O   UNL A   1      45.368  33.064  25.303  1.00  0.00    -0.744 OA
ENDBRANCH 105 108
ENDBRANCH  78 101
ENDBRANCH  52  53
ENDBRANCH  45  47
ENDBRANCH  44  45
ENDBRANCH  43  44
ENDBRANCH  42  43
ENDBRANCH   1  42
TORSDOF 23
ENDMDL
