MODEL 1
REMARK VINA RESULT:     -11.8      0.000      0.000
REMARK SMILES O=C(OCCOCCOC(=O)[C@H]1O[C@@H](Oc2c(-c3cc(O)c(O)c(O)c3)oc3cc(O)cc(O)c3c2=O)[C@H](O)[C@@H](O)[C@@H]1O)c1ccc(-c2c3nc(c(-c4cccc(S(=O)(=O)[O-])c4F)c4ccc([nH]4)c(-c4cccc(S(=O)(=O)[O-])c4F)c4nc(c(-c5cccc(S(=O)(=O)[O-])c5F)c5ccc2[nH]5)C=C4)C=C3)cc1
REMARK SMILES IDX 7 1 6 2 5 3 4 4 3 5 2 6 1 7 44 8 45 9 106 10 46 11 105 12
REMARK SMILES IDX 47 13 48 14 49 15 99 16 50 17 104 18 98 19 100 20 51 21
REMARK SMILES IDX 103 22 97 23 96 24 52 26 84 27 64 28 83 29 65 30 68 31 82 32
REMARK SMILES IDX 101 33 66 34 67 35 81 37 102 38 69 39 53 40 54 41 62 42
REMARK SMILES IDX 55 43 57 44 63 45 56 46 58 47 59 48 60 49 61 50 85 51 86 52
REMARK SMILES IDX 94 53 87 54 89 55 95 56 88 57 90 58 91 59 92 60 93 61 70 62
REMARK SMILES IDX 71 63 79 64 72 65 74 66 80 67 73 68 75 69 76 70 77 71 78 72
REMARK SMILES IDX 8 73 9 74 10 75 11 76 12 77 13 78 42 79 14 80 40 81 38 82
REMARK SMILES IDX 43 83 15 85 16 86 17 87 36 88 27 89 35 90 37 91 28 92 33 93
REMARK SMILES IDX 29 94 32 95 30 96 18 97 19 98 26 99 20 100 24 101 22 102
REMARK SMILES IDX 21 103 25 105 23 107 34 109 31 111 41 113 39 115
REMARK H PARENT 100 25 68 36 43 84 21 104 25 106 23 108 34 110 31 112 41 114
REMARK H PARENT 39 116
REMARK Flexibility Score: inf
ROOT
ATOM      1  C   UNL A   1      37.004  22.632  25.002  1.00  0.00     0.202 C 
ENDROOT
BRANCH   1   2
ATOM      2  O   UNL A   1      37.471  21.459  25.666  1.00  0.00    -0.374 OA
BRANCH   2   3
ATOM      3  C   UNL A   1      37.935  20.379  24.853  1.00  0.00     0.202 C 
BRANCH   3   4
ATOM      4  C   UNL A   1      38.851  19.389  25.570  1.00  0.00     0.261 C 
BRANCH   4   5
ATOM      5  O   UNL A   1      40.148  19.974  25.766  1.00  0.00    -0.460 OA
BRANCH   5   6
ATOM      6  C   UNL A   1      40.691  20.410  26.927  1.00  0.00     0.338 C 
ATOM      7  O   UNL A   1      40.914  19.581  27.807  1.00  0.00    -0.246 OA
BRANCH   6   8
ATOM      8  C   UNL A   1      41.051  21.837  27.198  1.00  0.00     0.060 A 
ATOM      9  C   UNL A   1      40.634  22.935  26.442  1.00  0.00     0.016 A 
ATOM     10  C   UNL A   1      41.792  22.090  28.364  1.00  0.00     0.016 A 
ATOM     11  C   UNL A   1      40.922  24.231  26.808  1.00  0.00     0.010 A 
ATOM     12  C   UNL A   1      42.099  23.399  28.745  1.00  0.00     0.010 A 
ATOM     13  C   UNL A   1      41.660  24.465  27.957  1.00  0.00    -0.014 A 
BRANCH  13  14
ATOM     14  C   UNL A   1      42.072  25.852  28.180  1.00  0.00     0.031 A 
ATOM     15  C   UNL A   1      43.408  26.265  27.657  1.00  0.00     0.074 A 
ATOM     16  C   UNL A   1      41.179  26.728  28.669  1.00  0.00     0.049 A 
ATOM     17  N   UNL A   1      43.996  27.422  27.728  1.00  0.00    -0.248 NA
ATOM     18  C   UNL A   1      44.177  25.235  26.933  1.00  0.00     0.031 C 
ATOM     19  C   UNL A   1      39.801  26.404  29.049  1.00  0.00     0.029 A 
ATOM     20  N   UNL A   1      41.286  28.069  28.907  1.00  0.00    -0.354 N 
ATOM     21  C   UNL A   1      45.227  27.249  27.115  1.00  0.00     0.074 A 
ATOM     22  C   UNL A   1      45.295  25.883  26.650  1.00  0.00     0.031 C 
ATOM     23  C   UNL A   1      39.194  27.518  29.486  1.00  0.00     0.029 A 
ATOM     24  C   UNL A   1      40.158  28.609  29.477  1.00  0.00     0.049 A 
ATOM     25  H   UNL A   1      42.089  28.595  28.690  1.00  0.00     0.167 HD
ATOM     26  C   UNL A   1      46.215  28.159  26.972  1.00  0.00     0.034 A 
ATOM     27  C   UNL A   1      39.965  29.842  29.978  1.00  0.00     0.034 A 
ATOM     28  C   UNL A   1      46.098  29.507  27.451  1.00  0.00     0.049 A 
ATOM     29  C   UNL A   1      41.111  30.812  29.881  1.00  0.00     0.074 A 
ATOM     30  C   UNL A   1      47.035  30.519  27.422  1.00  0.00     0.029 A 
ATOM     31  N   UNL A   1      44.960  30.022  28.061  1.00  0.00    -0.354 N 
ATOM     32  N   UNL A   1      42.285  30.645  29.315  1.00  0.00    -0.248 NA
ATOM     33  C   UNL A   1      40.911  32.137  30.475  1.00  0.00     0.031 C 
ATOM     34  C   UNL A   1      46.475  31.635  28.052  1.00  0.00     0.029 A 
ATOM     35  C   UNL A   1      45.172  31.335  28.428  1.00  0.00     0.049 A 
ATOM     36  H   UNL A   1      44.123  29.523  28.209  1.00  0.00     0.167 HD
ATOM     37  C   UNL A   1      42.954  31.851  29.458  1.00  0.00     0.074 A 
ATOM     38  C   UNL A   1      42.042  32.747  30.146  1.00  0.00     0.031 C 
ATOM     39  C   UNL A   1      44.209  32.194  29.073  1.00  0.00     0.034 A 
BRANCH  26  40
ATOM     40  C   UNL A   1      47.498  27.687  26.349  1.00  0.00     0.023 A 
ATOM     41  C   UNL A   1      48.568  27.248  27.154  1.00  0.00     0.012 A 
ATOM     42  C   UNL A   1      47.651  27.717  24.949  1.00  0.00     0.148 A 
ATOM     43  C   UNL A   1      49.785  26.885  26.577  1.00  0.00     0.002 A 
ATOM     44  C   UNL A   1      48.851  27.312  24.379  1.00  0.00     0.091 A 
ATOM     45  F   UNL A   1      46.633  28.172  24.205  1.00  0.00    -0.205 F 
ATOM     46  C   UNL A   1      49.924  26.910  25.190  1.00  0.00     0.022 A 
BRANCH  44  47
ATOM     47  S   UNL A   1      49.107  27.253  22.602  1.00  0.00     0.127 S 
ATOM     48  O   UNL A   1      50.564  27.164  22.518  1.00  0.00    -0.237 OA
ATOM     49  O   UNL A   1      48.398  26.027  22.236  1.00  0.00    -0.237 OA
ATOM     50  O   UNL A   1      48.527  28.477  22.069  1.00  0.00    -0.744 OA
ENDBRANCH  44  47
ENDBRANCH  26  40
BRANCH  27  51
ATOM     51  C   UNL A   1      38.674  30.202  30.629  1.00  0.00     0.023 A 
ATOM     52  C   UNL A   1      38.433  29.838  31.968  1.00  0.00     0.012 A 
ATOM     53  C   UNL A   1      37.681  30.919  29.928  1.00  0.00     0.148 A 
ATOM     54  C   UNL A   1      37.221  30.153  32.585  1.00  0.00     0.002 A 
ATOM     55  C   UNL A   1      36.500  31.278  30.565  1.00  0.00     0.091 A 
ATOM     56  F   UNL A   1      37.917  31.244  28.649  1.00  0.00    -0.205 F 
ATOM     57  C   UNL A   1      36.259  30.880  31.887  1.00  0.00     0.022 A 
BRANCH  55  58
ATOM     58  S   UNL A   1      35.259  32.317  29.782  1.00  0.00     0.127 S 
ATOM     59  O   UNL A   1      34.325  32.546  30.881  1.00  0.00    -0.237 OA
ATOM     60  O   UNL A   1      36.048  33.485  29.390  1.00  0.00    -0.237 OA
ATOM     61  O   UNL A   1      34.742  31.541  28.664  1.00  0.00    -0.744 OA
ENDBRANCH  55  58
ENDBRANCH  27  51
BRANCH  39  62
ATOM     62  C   UNL A   1      44.644  33.605  29.346  1.00  0.00     0.023 A 
ATOM     63  C   UNL A   1      45.315  33.919  30.543  1.00  0.00     0.012 A 
ATOM     64  C   UNL A   1      44.467  34.596  28.362  1.00  0.00     0.148 A 
ATOM     65  C   UNL A   1      45.777  35.212  30.771  1.00  0.00     0.002 A 
ATOM     66  C   UNL A   1      44.984  35.867  28.571  1.00  0.00     0.091 A 
ATOM     67  F   UNL A   1      43.809  34.275  27.239  1.00  0.00    -0.205 F 
ATOM     68  C   UNL A   1      45.626  36.181  29.781  1.00  0.00     0.022 A 
BRANCH  66  69
ATOM     69  S   UNL A   1      44.937  37.138  27.306  1.00  0.00     0.127 S 
ATOM     70  O   UNL A   1      45.378  38.316  28.051  1.00  0.00    -0.237 OA
ATOM     71  O   UNL A   1      45.903  36.635  26.329  1.00  0.00    -0.237 OA
ATOM     72  O   UNL A   1      43.562  37.181  26.828  1.00  0.00    -0.744 OA
ENDBRANCH  66  69
ENDBRANCH  39  62
ENDBRANCH  13  14
ENDBRANCH   6   8
ENDBRANCH   5   6
ENDBRANCH   4   5
ENDBRANCH   3   4
ENDBRANCH   2   3
ENDBRANCH   1   2
BRANCH   1  73
ATOM     73  C   UNL A   1      36.429  23.581  26.049  1.00  0.00     0.261 C 
BRANCH  73  74
ATOM     74  O   UNL A   1      35.482  22.829  26.824  1.00  0.00    -0.461 OA
BRANCH  74  75
ATOM     75  C   UNL A   1      34.248  22.669  26.258  1.00  0.00     0.338 C 
ATOM     76  O   UNL A   1      33.845  21.655  25.696  1.00  0.00    -0.249 OA
BRANCH  75  77
ATOM     77  C   UNL A   1      33.415  23.943  26.410  1.00  0.00     0.263 C 
ATOM     78  O   UNL A   1      33.700  25.014  25.485  1.00  0.00    -0.322 OA
ATOM     79  C   UNL A   1      31.928  23.637  26.250  1.00  0.00     0.186 C 
ATOM     80  C   UNL A   1      33.189  26.267  25.953  1.00  0.00     0.340 C 
ATOM     81  C   UNL A   1      31.170  24.802  26.854  1.00  0.00     0.181 C 
ATOM     82  C   UNL A   1      31.720  26.163  26.425  1.00  0.00     0.214 C 
BRANCH  79  83
ATOM     83  O   UNL A   1      31.440  22.479  26.937  1.00  0.00    -0.387 OA
ATOM     84  H   UNL A   1      31.255  21.776  26.295  1.00  0.00     0.211 HD
ENDBRANCH  79  83
BRANCH  80  85
ATOM     85  O   UNL A   1      33.409  27.442  25.109  1.00  0.00    -0.454 OA
BRANCH  85  86
ATOM     86  C   UNL A   1      32.519  27.993  24.195  1.00  0.00     0.214 A 
ATOM     87  C   UNL A   1      31.843  27.331  23.219  1.00  0.00     0.181 A 
ATOM     88  C   UNL A   1      31.975  29.370  24.523  1.00  0.00     0.239 A 
ATOM     89  O   UNL A   1      30.911  27.900  22.373  1.00  0.00    -0.452 OA
ATOM     90  C   UNL A   1      30.730  29.818  23.825  1.00  0.00     0.111 A 
ATOM     91  O   UNL A   1      32.552  30.080  25.342  1.00  0.00    -0.285 OA
ATOM     92  C   UNL A   1      30.297  29.054  22.749  1.00  0.00     0.146 A 
ATOM     93  C   UNL A   1      29.976  30.956  24.161  1.00  0.00     0.134 A 
ATOM     94  C   UNL A   1      29.185  29.418  21.984  1.00  0.00     0.094 A 
ATOM     95  C   UNL A   1      28.851  31.332  23.402  1.00  0.00     0.093 A 
ATOM     96  C   UNL A   1      28.474  30.560  22.309  1.00  0.00     0.123 A 
BRANCH  87  97
ATOM     97  C   UNL A   1      32.024  25.921  22.843  1.00  0.00     0.029 A 
ATOM     98  C   UNL A   1      33.324  25.495  22.498  1.00  0.00     0.062 A 
ATOM     99  C   UNL A   1      30.984  24.984  22.965  1.00  0.00     0.062 A 
ATOM    100  C   UNL A   1      33.599  24.134  22.474  1.00  0.00     0.162 A 
ATOM    101  C   UNL A   1      31.283  23.627  22.879  1.00  0.00     0.162 A 
ATOM    102  C   UNL A   1      32.590  23.202  22.674  1.00  0.00     0.200 A 
BRANCH 100 103
ATOM    103  O   UNL A   1      34.899  23.711  22.514  1.00  0.00    -0.504 OA
ATOM    104  H   UNL A   1      35.574  24.235  22.132  1.00  0.00     0.293 HD
ENDBRANCH 100 103
BRANCH 101 105
ATOM    105  O   UNL A   1      30.310  22.707  23.149  1.00  0.00    -0.504 OA
ATOM    106  H   UNL A   1      29.905  22.233  22.449  1.00  0.00     0.293 HD
ENDBRANCH 101 105
BRANCH 102 107
ATOM    107  O   UNL A   1      32.887  21.870  22.788  1.00  0.00    -0.502 OA
ATOM    108  H   UNL A   1      32.630  21.398  23.556  1.00  0.00     0.293 HD
ENDBRANCH 102 107
ENDBRANCH  87  97
BRANCH  93 109
ATOM    109  O   UNL A   1      30.302  31.714  25.249  1.00  0.00    -0.507 OA
ATOM    110  H   UNL A   1      30.416  31.307  26.086  1.00  0.00     0.293 HD
ENDBRANCH  93 109
BRANCH  96 111
ATOM    111  O   UNL A   1      27.404  30.881  21.527  1.00  0.00    -0.508 OA
ATOM    112  H   UNL A   1      27.515  31.452  20.793  1.00  0.00     0.293 HD
ENDBRANCH  96 111
ENDBRANCH  85  86
ENDBRANCH  80  85
BRANCH  81 113
ATOM    113  O   UNL A   1      29.779  24.642  26.453  1.00  0.00    -0.387 OA
ATOM    114  H   UNL A   1      29.639  25.071  25.595  1.00  0.00     0.211 HD
ENDBRANCH  81 113
BRANCH  82 115
ATOM    115  O   UNL A   1      31.443  27.125  27.454  1.00  0.00    -0.384 OA
ATOM    116  H   UNL A   1      30.488  27.285  27.497  1.00  0.00     0.211 HD
ENDBRANCH  82 115
ENDBRANCH  75  77
ENDBRANCH  74  75
ENDBRANCH  73  74
ENDBRANCH   1  73
TORSDOF 28
ENDMDL
MODEL 2
REMARK VINA RESULT:     -11.4      2.247      7.853
REMARK SMILES O=C(OCCOCCOC(=O)[C@H]1O[C@@H](Oc2c(-c3cc(O)c(O)c(O)c3)oc3cc(O)cc(O)c3c2=O)[C@H](O)[C@@H](O)[C@@H]1O)c1ccc(-c2c3nc(c(-c4cccc(S(=O)(=O)[O-])c4F)c4ccc([nH]4)c(-c4cccc(S(=O)(=O)[O-])c4F)c4nc(c(-c5cccc(S(=O)(=O)[O-])c5F)c5ccc2[nH]5)C=C4)C=C3)cc1
REMARK SMILES IDX 7 1 6 2 5 3 4 4 3 5 2 6 1 7 44 8 45 9 106 10 46 11 105 12
REMARK SMILES IDX 47 13 48 14 49 15 99 16 50 17 104 18 98 19 100 20 51 21
REMARK SMILES IDX 103 22 97 23 96 24 52 26 84 27 64 28 83 29 65 30 68 31 82 32
REMARK SMILES IDX 101 33 66 34 67 35 81 37 102 38 69 39 53 40 54 41 62 42
REMARK SMILES IDX 55 43 57 44 63 45 56 46 58 47 59 48 60 49 61 50 85 51 86 52
REMARK SMILES IDX 94 53 87 54 89 55 95 56 88 57 90 58 91 59 92 60 93 61 70 62
REMARK SMILES IDX 71 63 79 64 72 65 74 66 80 67 73 68 75 69 76 70 77 71 78 72
REMARK SMILES IDX 8 73 9 74 10 75 11 76 12 77 13 78 42 79 14 80 40 81 38 82
REMARK SMILES IDX 43 83 15 85 16 86 17 87 36 88 27 89 35 90 37 91 28 92 33 93
REMARK SMILES IDX 29 94 32 95 30 96 18 97 19 98 26 99 20 100 24 101 22 102
REMARK SMILES IDX 21 103 25 105 23 107 34 109 31 111 41 113 39 115
REMARK H PARENT 100 25 68 36 43 84 21 104 25 106 23 108 34 110 31 112 41 114
REMARK H PARENT 39 116
REMARK Flexibility Score: inf
ROOT
ATOM      1  C   UNL A   1      37.011  21.632  24.208  1.00  0.00     0.202 C 
ENDROOT
BRANCH   1   2
ATOM      2  O   UNL A   1      37.747  22.296  25.235  1.00  0.00    -0.374 OA
BRANCH   2   3
ATOM      3  C   UNL A   1      38.656  21.510  26.010  1.00  0.00     0.202 C 
BRANCH   3   4
ATOM      4  C   UNL A   1      39.103  20.210  25.344  1.00  0.00     0.261 C 
BRANCH   4   5
ATOM      5  O   UNL A   1      40.130  19.585  26.128  1.00  0.00    -0.460 OA
BRANCH   5   6
ATOM      6  C   UNL A   1      41.464  19.812  26.074  1.00  0.00     0.338 C 
ATOM      7  O   UNL A   1      42.196  18.875  25.759  1.00  0.00    -0.246 OA
BRANCH   6   8
ATOM      8  C   UNL A   1      42.100  21.136  26.358  1.00  0.00     0.060 A 
ATOM      9  C   UNL A   1      42.532  21.574  27.611  1.00  0.00     0.016 A 
ATOM     10  C   UNL A   1      42.362  21.960  25.251  1.00  0.00     0.016 A 
ATOM     11  C   UNL A   1      43.201  22.767  27.782  1.00  0.00     0.010 A 
ATOM     12  C   UNL A   1      43.033  23.176  25.408  1.00  0.00     0.010 A 
ATOM     13  C   UNL A   1      43.447  23.572  26.682  1.00  0.00    -0.014 A 
BRANCH  13  14
ATOM     14  C   UNL A   1      44.001  24.896  26.971  1.00  0.00     0.031 A 
ATOM     15  C   UNL A   1      43.096  25.896  27.610  1.00  0.00     0.074 A 
ATOM     16  C   UNL A   1      45.321  25.097  26.826  1.00  0.00     0.049 A 
ATOM     17  N   UNL A   1      43.345  27.123  27.959  1.00  0.00    -0.248 NA
ATOM     18  C   UNL A   1      41.727  25.440  27.920  1.00  0.00     0.031 C 
ATOM     19  C   UNL A   1      46.280  24.094  26.351  1.00  0.00     0.029 A 
ATOM     20  N   UNL A   1      46.088  26.197  27.083  1.00  0.00    -0.354 N 
ATOM     21  C   UNL A   1      42.152  27.610  28.473  1.00  0.00     0.074 A 
ATOM     22  C   UNL A   1      41.184  26.538  28.419  1.00  0.00     0.031 C 
ATOM     23  C   UNL A   1      47.509  24.634  26.340  1.00  0.00     0.029 A 
ATOM     24  C   UNL A   1      47.408  26.030  26.741  1.00  0.00     0.049 A 
ATOM     25  H   UNL A   1      45.731  27.026  27.475  1.00  0.00     0.167 HD
ATOM     26  C   UNL A   1      41.896  28.853  28.934  1.00  0.00     0.034 A 
ATOM     27  C   UNL A   1      48.402  26.936  26.714  1.00  0.00     0.034 A 
ATOM     28  C   UNL A   1      42.894  29.883  28.969  1.00  0.00     0.049 A 
ATOM     29  C   UNL A   1      48.070  28.336  27.155  1.00  0.00     0.074 A 
ATOM     30  C   UNL A   1      42.764  31.200  29.360  1.00  0.00     0.029 A 
ATOM     31  N   UNL A   1      44.217  29.702  28.581  1.00  0.00    -0.354 N 
ATOM     32  N   UNL A   1      46.936  28.803  27.626  1.00  0.00    -0.248 NA
ATOM     33  C   UNL A   1      49.145  29.329  27.073  1.00  0.00     0.031 C 
ATOM     34  C   UNL A   1      44.001  31.825  29.170  1.00  0.00     0.029 A 
ATOM     35  C   UNL A   1      44.914  30.886  28.708  1.00  0.00     0.049 A 
ATOM     36  H   UNL A   1      44.601  28.853  28.262  1.00  0.00     0.167 HD
ATOM     37  C   UNL A   1      47.167  30.137  27.925  1.00  0.00     0.074 A 
ATOM     38  C   UNL A   1      48.558  30.395  27.601  1.00  0.00     0.031 C 
ATOM     39  C   UNL A   1      46.313  31.074  28.411  1.00  0.00     0.034 A 
BRANCH  26  40
ATOM     40  C   UNL A   1      40.484  29.153  29.351  1.00  0.00     0.023 A 
ATOM     41  C   UNL A   1      39.582  29.752  28.449  1.00  0.00     0.012 A 
ATOM     42  C   UNL A   1      40.065  28.870  30.664  1.00  0.00     0.148 A 
ATOM     43  C   UNL A   1      38.296  30.103  28.862  1.00  0.00     0.002 A 
ATOM     44  C   UNL A   1      38.768  29.181  31.055  1.00  0.00     0.091 A 
ATOM     45  F   UNL A   1      40.950  28.333  31.516  1.00  0.00    -0.205 F 
ATOM     46  C   UNL A   1      37.887  29.810  30.161  1.00  0.00     0.022 A 
BRANCH  44  47
ATOM     47  S   UNL A   1      38.130  28.791  32.688  1.00  0.00     0.127 S 
ATOM     48  O   UNL A   1      36.755  29.277  32.591  1.00  0.00    -0.237 OA
ATOM     49  O   UNL A   1      38.262  27.334  32.724  1.00  0.00    -0.237 OA
ATOM     50  O   UNL A   1      38.976  29.504  33.635  1.00  0.00    -0.744 OA
ENDBRANCH  44  47
ENDBRANCH  26  40
BRANCH  27  51
ATOM     51  C   UNL A   1      49.760  26.557  26.232  1.00  0.00     0.023 A 
ATOM     52  C   UNL A   1      50.588  25.741  27.025  1.00  0.00     0.012 A 
ATOM     53  C   UNL A   1      50.233  26.992  24.976  1.00  0.00     0.148 A 
ATOM     54  C   UNL A   1      51.870  25.393  26.594  1.00  0.00     0.002 A 
ATOM     55  C   UNL A   1      51.487  26.596  24.527  1.00  0.00     0.091 A 
ATOM     56  F   UNL A   1      49.440  27.782  24.237  1.00  0.00    -0.205 F 
ATOM     57  C   UNL A   1      52.315  25.812  25.343  1.00  0.00     0.022 A 
BRANCH  55  58
ATOM     58  S   UNL A   1      52.092  26.989  22.881  1.00  0.00     0.127 S 
ATOM     59  O   UNL A   1      53.105  25.958  22.681  1.00  0.00    -0.237 OA
ATOM     60  O   UNL A   1      50.884  26.833  22.071  1.00  0.00    -0.237 OA
ATOM     61  O   UNL A   1      52.588  28.356  22.958  1.00  0.00    -0.744 OA
ENDBRANCH  55  58
ENDBRANCH  27  51
BRANCH  39  62
ATOM     62  C   UNL A   1      46.876  32.443  28.662  1.00  0.00     0.023 A 
ATOM     63  C   UNL A   1      47.437  32.757  29.915  1.00  0.00     0.012 A 
ATOM     64  C   UNL A   1      46.930  33.383  27.616  1.00  0.00     0.148 A 
ATOM     65  C   UNL A   1      48.018  34.004  30.132  1.00  0.00     0.002 A 
ATOM     66  C   UNL A   1      47.564  34.600  27.822  1.00  0.00     0.091 A 
ATOM     67  F   UNL A   1      46.372  33.065  26.439  1.00  0.00    -0.205 F 
ATOM     68  C   UNL A   1      48.095  34.918  29.083  1.00  0.00     0.022 A 
BRANCH  66  69
ATOM     69  S   UNL A   1      47.811  35.785  26.498  1.00  0.00     0.127 S 
ATOM     70  O   UNL A   1      48.619  36.808  27.161  1.00  0.00    -0.237 OA
ATOM     71  O   UNL A   1      48.530  34.989  25.502  1.00  0.00    -0.237 OA
ATOM     72  O   UNL A   1      46.481  36.211  26.084  1.00  0.00    -0.744 OA
ENDBRANCH  66  69
ENDBRANCH  39  62
ENDBRANCH  13  14
ENDBRANCH   6   8
ENDBRANCH   5   6
ENDBRANCH   4   5
ENDBRANCH   3   4
ENDBRANCH   2   3
ENDBRANCH   1   2
BRANCH   1  73
ATOM     73  C   UNL A   1      35.538  21.996  24.361  1.00  0.00     0.261 C 
BRANCH  73  74
ATOM     74  O   UNL A   1      35.479  23.177  25.176  1.00  0.00    -0.461 OA
BRANCH  74  75
ATOM     75  C   UNL A   1      34.766  23.062  26.337  1.00  0.00     0.338 C 
ATOM     76  O   UNL A   1      35.082  22.376  27.305  1.00  0.00    -0.249 OA
BRANCH  75  77
ATOM     77  C   UNL A   1      33.493  23.907  26.275  1.00  0.00     0.263 C 
ATOM     78  O   UNL A   1      33.455  24.942  25.269  1.00  0.00    -0.322 OA
ATOM     79  C   UNL A   1      32.273  23.027  26.015  1.00  0.00     0.186 C 
ATOM     80  C   UNL A   1      32.443  25.916  25.550  1.00  0.00     0.340 C 
ATOM     81  C   UNL A   1      31.054  23.831  26.419  1.00  0.00     0.181 C 
ATOM     82  C   UNL A   1      31.083  25.268  25.897  1.00  0.00     0.214 C 
BRANCH  79  83
ATOM     83  O   UNL A   1      32.190  21.816  26.777  1.00  0.00    -0.387 OA
ATOM     84  H   UNL A   1      32.938  21.768  27.392  1.00  0.00     0.211 HD
ENDBRANCH  79  83
BRANCH  80  85
ATOM     85  O   UNL A   1      32.295  27.025  24.608  1.00  0.00    -0.454 OA
BRANCH  85  86
ATOM     86  C   UNL A   1      32.315  28.382  24.906  1.00  0.00     0.214 A 
ATOM     87  C   UNL A   1      31.317  29.279  24.683  1.00  0.00     0.181 A 
ATOM     88  C   UNL A   1      33.382  28.848  25.878  1.00  0.00     0.239 A 
ATOM     89  O   UNL A   1      31.345  30.607  25.058  1.00  0.00    -0.452 OA
ATOM     90  C   UNL A   1      33.192  30.172  26.548  1.00  0.00     0.111 A 
ATOM     91  O   UNL A   1      34.363  28.143  26.098  1.00  0.00    -0.285 OA
ATOM     92  C   UNL A   1      32.187  30.994  26.053  1.00  0.00     0.146 A 
ATOM     93  C   UNL A   1      33.958  30.655  27.623  1.00  0.00     0.134 A 
ATOM     94  C   UNL A   1      31.968  32.279  26.559  1.00  0.00     0.094 A 
ATOM     95  C   UNL A   1      33.744  31.944  28.146  1.00  0.00     0.093 A 
ATOM     96  C   UNL A   1      32.754  32.750  27.596  1.00  0.00     0.123 A 
BRANCH  87  97
ATOM     97  C   UNL A   1      30.066  29.019  23.954  1.00  0.00     0.029 A 
ATOM     98  C   UNL A   1      29.578  27.695  23.938  1.00  0.00     0.062 A 
ATOM     99  C   UNL A   1      29.294  30.062  23.416  1.00  0.00     0.062 A 
ATOM    100  C   UNL A   1      28.259  27.472  23.567  1.00  0.00     0.162 A 
ATOM    101  C   UNL A   1      27.993  29.795  23.000  1.00  0.00     0.162 A 
ATOM    102  C   UNL A   1      27.464  28.514  23.110  1.00  0.00     0.200 A 
BRANCH 100 103
ATOM    103  O   UNL A   1      27.661  26.286  23.894  1.00  0.00    -0.504 OA
ATOM    104  H   UNL A   1      26.759  26.145  23.687  1.00  0.00     0.293 HD
ENDBRANCH 100 103
BRANCH 101 105
ATOM    105  O   UNL A   1      27.183  30.827  22.621  1.00  0.00    -0.504 OA
ATOM    106  H   UNL A   1      27.337  31.690  22.952  1.00  0.00     0.293 HD
ENDBRANCH 101 105
BRANCH 102 107
ATOM    107  O   UNL A   1      26.128  28.319  22.879  1.00  0.00    -0.502 OA
ATOM    108  H   UNL A   1      25.849  27.659  22.275  1.00  0.00     0.293 HD
ENDBRANCH 102 107
ENDBRANCH  87  97
BRANCH  93 109
ATOM    109  O   UNL A   1      34.914  29.873  28.206  1.00  0.00    -0.507 OA
ATOM    110  H   UNL A   1      34.985  28.968  27.975  1.00  0.00     0.293 HD
ENDBRANCH  93 109
BRANCH  96 111
ATOM    111  O   UNL A   1      32.509  34.012  28.049  1.00  0.00    -0.508 OA
ATOM    112  H   UNL A   1      32.500  34.185  28.969  1.00  0.00     0.293 HD
ENDBRANCH  96 111
ENDBRANCH  85  86
ENDBRANCH  80  85
BRANCH  81 113
ATOM    113  O   UNL A   1      29.896  23.106  25.914  1.00  0.00    -0.387 OA
ATOM    114  H   UNL A   1      29.097  23.638  26.051  1.00  0.00     0.211 HD
ENDBRANCH  81 113
BRANCH  82 115
ATOM    115  O   UNL A   1      30.329  26.104  26.786  1.00  0.00    -0.384 OA
ATOM    116  H   UNL A   1      30.772  26.962  26.877  1.00  0.00     0.211 HD
ENDBRANCH  82 115
ENDBRANCH  75  77
ENDBRANCH  74  75
ENDBRANCH  73  74
ENDBRANCH   1  73
TORSDOF 28
ENDMDL
MODEL 3
REMARK VINA RESULT:     -11.3      1.851      7.339
REMARK SMILES O=C(OCCOCCOC(=O)[C@H]1O[C@@H](Oc2c(-c3cc(O)c(O)c(O)c3)oc3cc(O)cc(O)c3c2=O)[C@H](O)[C@@H](O)[C@@H]1O)c1ccc(-c2c3nc(c(-c4cccc(S(=O)(=O)[O-])c4F)c4ccc([nH]4)c(-c4cccc(S(=O)(=O)[O-])c4F)c4nc(c(-c5cccc(S(=O)(=O)[O-])c5F)c5ccc2[nH]5)C=C4)C=C3)cc1
REMARK SMILES IDX 7 1 6 2 5 3 4 4 3 5 2 6 1 7 44 8 45 9 106 10 46 11 105 12
REMARK SMILES IDX 47 13 48 14 49 15 99 16 50 17 104 18 98 19 100 20 51 21
REMARK SMILES IDX 103 22 97 23 96 24 52 26 84 27 64 28 83 29 65 30 68 31 82 32
REMARK SMILES IDX 101 33 66 34 67 35 81 37 102 38 69 39 53 40 54 41 62 42
REMARK SMILES IDX 55 43 57 44 63 45 56 46 58 47 59 48 60 49 61 50 85 51 86 52
REMARK SMILES IDX 94 53 87 54 89 55 95 56 88 57 90 58 91 59 92 60 93 61 70 62
REMARK SMILES IDX 71 63 79 64 72 65 74 66 80 67 73 68 75 69 76 70 77 71 78 72
REMARK SMILES IDX 8 73 9 74 10 75 11 76 12 77 13 78 42 79 14 80 40 81 38 82
REMARK SMILES IDX 43 83 15 85 16 86 17 87 36 88 27 89 35 90 37 91 28 92 33 93
REMARK SMILES IDX 29 94 32 95 30 96 18 97 19 98 26 99 20 100 24 101 22 102
REMARK SMILES IDX 21 103 25 105 23 107 34 109 31 111 41 113 39 115
REMARK H PARENT 100 25 68 36 43 84 21 104 25 106 23 108 34 110 31 112 41 114
REMARK H PARENT 39 116
REMARK Flexibility Score: inf
ROOT
ATOM      1  C   UNL A   1      37.424  22.533  25.493  1.00  0.00     0.202 C 
ENDROOT
BRANCH   1   2
ATOM      2  O   UNL A   1      38.445  21.547  25.344  1.00  0.00    -0.374 OA
BRANCH   2   3
ATOM      3  C   UNL A   1      38.052  20.174  25.406  1.00  0.00     0.202 C 
BRANCH   3   4
ATOM      4  C   UNL A   1      39.202  19.176  25.285  1.00  0.00     0.261 C 
BRANCH   4   5
ATOM      5  O   UNL A   1      40.169  19.414  26.319  1.00  0.00    -0.460 OA
BRANCH   5   6
ATOM      6  C   UNL A   1      41.486  19.692  26.171  1.00  0.00     0.338 C 
ATOM      7  O   UNL A   1      42.226  18.788  25.786  1.00  0.00    -0.246 OA
BRANCH   6   8
ATOM      8  C   UNL A   1      42.092  21.035  26.431  1.00  0.00     0.060 A 
ATOM      9  C   UNL A   1      42.571  21.482  27.664  1.00  0.00     0.016 A 
ATOM     10  C   UNL A   1      42.274  21.872  25.317  1.00  0.00     0.016 A 
ATOM     11  C   UNL A   1      43.208  22.695  27.809  1.00  0.00     0.010 A 
ATOM     12  C   UNL A   1      42.912  23.107  25.448  1.00  0.00     0.010 A 
ATOM     13  C   UNL A   1      43.375  23.512  26.703  1.00  0.00    -0.014 A 
BRANCH  13  14
ATOM     14  C   UNL A   1      43.900  24.852  26.972  1.00  0.00     0.031 A 
ATOM     15  C   UNL A   1      42.977  25.837  27.608  1.00  0.00     0.074 A 
ATOM     16  C   UNL A   1      45.213  25.082  26.812  1.00  0.00     0.049 A 
ATOM     17  N   UNL A   1      43.199  27.074  27.942  1.00  0.00    -0.248 NA
ATOM     18  C   UNL A   1      41.623  25.352  27.937  1.00  0.00     0.031 C 
ATOM     19  C   UNL A   1      46.191  24.097  26.339  1.00  0.00     0.029 A 
ATOM     20  N   UNL A   1      45.956  26.204  27.050  1.00  0.00    -0.354 N 
ATOM     21  C   UNL A   1      42.000  27.537  28.462  1.00  0.00     0.074 A 
ATOM     22  C   UNL A   1      41.058  26.442  28.428  1.00  0.00     0.031 C 
ATOM     23  C   UNL A   1      47.407  24.666  26.310  1.00  0.00     0.029 A 
ATOM     24  C   UNL A   1      47.277  26.065  26.696  1.00  0.00     0.049 A 
ATOM     25  H   UNL A   1      45.582  27.028  27.436  1.00  0.00     0.167 HD
ATOM     26  C   UNL A   1      41.719  28.779  28.911  1.00  0.00     0.034 A 
ATOM     27  C   UNL A   1      48.248  26.993  26.650  1.00  0.00     0.034 A 
ATOM     28  C   UNL A   1      42.692  29.834  28.925  1.00  0.00     0.049 A 
ATOM     29  C   UNL A   1      47.886  28.390  27.078  1.00  0.00     0.074 A 
ATOM     30  C   UNL A   1      42.534  31.151  29.303  1.00  0.00     0.029 A 
ATOM     31  N   UNL A   1      44.015  29.680  28.526  1.00  0.00    -0.354 N 
ATOM     32  N   UNL A   1      46.746  28.835  27.555  1.00  0.00    -0.248 NA
ATOM     33  C   UNL A   1      48.936  29.408  26.975  1.00  0.00     0.031 C 
ATOM     34  C   UNL A   1      43.754  31.804  29.093  1.00  0.00     0.029 A 
ATOM     35  C   UNL A   1      44.685  30.881  28.634  1.00  0.00     0.049 A 
ATOM     36  H   UNL A   1      44.416  28.836  28.213  1.00  0.00     0.167 HD
ATOM     37  C   UNL A   1      46.947  30.178  27.837  1.00  0.00     0.074 A 
ATOM     38  C   UNL A   1      48.329  30.465  27.497  1.00  0.00     0.031 C 
ATOM     39  C   UNL A   1      46.076  31.099  28.320  1.00  0.00     0.034 A 
BRANCH  26  40
ATOM     40  C   UNL A   1      40.304  29.050  29.338  1.00  0.00     0.023 A 
ATOM     41  C   UNL A   1      39.356  29.533  28.414  1.00  0.00     0.012 A 
ATOM     42  C   UNL A   1      39.927  28.858  30.681  1.00  0.00     0.148 A 
ATOM     43  C   UNL A   1      38.065  29.859  28.830  1.00  0.00     0.002 A 
ATOM     44  C   UNL A   1      38.627  29.143  31.078  1.00  0.00     0.091 A 
ATOM     45  F   UNL A   1      40.854  28.433  31.550  1.00  0.00    -0.205 F 
ATOM     46  C   UNL A   1      37.698  29.657  30.159  1.00  0.00     0.022 A 
BRANCH  44  47
ATOM     47  S   UNL A   1      38.043  28.861  32.753  1.00  0.00     0.127 S 
ATOM     48  O   UNL A   1      36.687  29.402  32.687  1.00  0.00    -0.237 OA
ATOM     49  O   UNL A   1      38.115  27.403  32.856  1.00  0.00    -0.237 OA
ATOM     50  O   UNL A   1      38.958  29.581  33.627  1.00  0.00    -0.744 OA
ENDBRANCH  44  47
ENDBRANCH  26  40
BRANCH  27  51
ATOM     51  C   UNL A   1      49.610  26.641  26.158  1.00  0.00     0.023 A 
ATOM     52  C   UNL A   1      50.462  25.848  26.950  1.00  0.00     0.012 A 
ATOM     53  C   UNL A   1      50.064  27.081  24.897  1.00  0.00     0.148 A 
ATOM     54  C   UNL A   1      51.748  25.526  26.510  1.00  0.00     0.002 A 
ATOM     55  C   UNL A   1      51.323  26.710  24.440  1.00  0.00     0.091 A 
ATOM     56  F   UNL A   1      49.248  27.849  24.161  1.00  0.00    -0.205 F 
ATOM     57  C   UNL A   1      52.174  25.948  25.253  1.00  0.00     0.022 A 
BRANCH  55  58
ATOM     58  S   UNL A   1      51.906  27.108  22.787  1.00  0.00     0.127 S 
ATOM     59  O   UNL A   1      51.969  28.566  22.836  1.00  0.00    -0.237 OA
ATOM     60  O   UNL A   1      53.204  26.435  22.756  1.00  0.00    -0.237 OA
ATOM     61  O   UNL A   1      50.919  26.548  21.875  1.00  0.00    -0.744 OA
ENDBRANCH  55  58
ENDBRANCH  27  51
BRANCH  39  62
ATOM     62  C   UNL A   1      46.608  32.485  28.551  1.00  0.00     0.023 A 
ATOM     63  C   UNL A   1      47.053  32.865  29.832  1.00  0.00     0.012 A 
ATOM     64  C   UNL A   1      46.752  33.371  27.468  1.00  0.00     0.148 A 
ATOM     65  C   UNL A   1      47.607  34.127  30.036  1.00  0.00     0.002 A 
ATOM     66  C   UNL A   1      47.360  34.602  27.667  1.00  0.00     0.091 A 
ATOM     67  F   UNL A   1      46.303  32.989  26.263  1.00  0.00    -0.205 F 
ATOM     68  C   UNL A   1      47.774  34.988  28.953  1.00  0.00     0.022 A 
BRANCH  66  69
ATOM     69  S   UNL A   1      47.720  35.721  26.312  1.00  0.00     0.127 S 
ATOM     70  O   UNL A   1      46.382  36.179  25.940  1.00  0.00    -0.237 OA
ATOM     71  O   UNL A   1      48.554  36.733  26.962  1.00  0.00    -0.237 OA
ATOM     72  O   UNL A   1      48.410  34.927  25.305  1.00  0.00    -0.744 OA
ENDBRANCH  66  69
ENDBRANCH  39  62
ENDBRANCH  13  14
ENDBRANCH   6   8
ENDBRANCH   5   6
ENDBRANCH   4   5
ENDBRANCH   3   4
ENDBRANCH   2   3
ENDBRANCH   1   2
BRANCH   1  73
ATOM     73  C   UNL A   1      36.104  21.821  25.765  1.00  0.00     0.261 C 
BRANCH  73  74
ATOM     74  O   UNL A   1      35.071  22.818  25.728  1.00  0.00    -0.461 OA
BRANCH  74  75
ATOM     75  C   UNL A   1      34.188  22.796  26.772  1.00  0.00     0.338 C 
ATOM     76  O   UNL A   1      34.082  21.896  27.599  1.00  0.00    -0.249 OA
BRANCH  75  77
ATOM     77  C   UNL A   1      33.325  24.058  26.775  1.00  0.00     0.263 C 
ATOM     78  O   UNL A   1      33.689  25.091  25.834  1.00  0.00    -0.322 OA
ATOM     79  C   UNL A   1      31.868  23.716  26.475  1.00  0.00     0.186 C 
ATOM     80  C   UNL A   1      33.112  26.354  26.185  1.00  0.00     0.340 C 
ATOM     81  C   UNL A   1      31.033  24.892  26.940  1.00  0.00     0.181 C 
ATOM     82  C   UNL A   1      31.604  26.242  26.507  1.00  0.00     0.214 C 
BRANCH  79  83
ATOM     83  O   UNL A   1      31.328  22.580  27.163  1.00  0.00    -0.387 OA
ATOM     84  H   UNL A   1      30.689  22.879  27.829  1.00  0.00     0.211 HD
ENDBRANCH  79  83
BRANCH  80  85
ATOM     85  O   UNL A   1      33.401  27.493  25.314  1.00  0.00    -0.454 OA
BRANCH  85  86
ATOM     86  C   UNL A   1      32.590  28.002  24.307  1.00  0.00     0.214 A 
ATOM     87  C   UNL A   1      32.046  27.308  23.272  1.00  0.00     0.181 A 
ATOM     88  C   UNL A   1      31.961  29.358  24.564  1.00  0.00     0.239 A 
ATOM     89  O   UNL A   1      31.186  27.834  22.329  1.00  0.00    -0.452 OA
ATOM     90  C   UNL A   1      30.778  29.751  23.736  1.00  0.00     0.111 A 
ATOM     91  O   UNL A   1      32.421  30.095  25.431  1.00  0.00    -0.285 OA
ATOM     92  C   UNL A   1      30.491  28.964  22.629  1.00  0.00     0.146 A 
ATOM     93  C   UNL A   1      29.948  30.859  23.982  1.00  0.00     0.134 A 
ATOM     94  C   UNL A   1      29.450  29.279  21.749  1.00  0.00     0.094 A 
ATOM     95  C   UNL A   1      28.894  31.185  23.107  1.00  0.00     0.093 A 
ATOM     96  C   UNL A   1      28.664  30.393  21.987  1.00  0.00     0.123 A 
BRANCH  87  97
ATOM     97  C   UNL A   1      32.322  25.904  22.931  1.00  0.00     0.029 A 
ATOM     98  C   UNL A   1      33.664  25.535  22.702  1.00  0.00     0.062 A 
ATOM     99  C   UNL A   1      31.318  24.922  22.976  1.00  0.00     0.062 A 
ATOM    100  C   UNL A   1      34.001  24.189  22.718  1.00  0.00     0.162 A 
ATOM    101  C   UNL A   1      31.684  23.580  22.933  1.00  0.00     0.162 A 
ATOM    102  C   UNL A   1      33.021  23.213  22.844  1.00  0.00     0.200 A 
BRANCH 100 103
ATOM    103  O   UNL A   1      35.310  23.826  22.873  1.00  0.00    -0.504 OA
ATOM    104  H   UNL A   1      35.851  24.275  23.492  1.00  0.00     0.293 HD
ENDBRANCH 100 103
BRANCH 101 105
ATOM    105  O   UNL A   1      30.734  22.618  23.132  1.00  0.00    -0.504 OA
ATOM    106  H   UNL A   1      30.430  22.431  23.998  1.00  0.00     0.293 HD
ENDBRANCH 101 105
BRANCH 102 107
ATOM    107  O   UNL A   1      33.367  21.897  23.000  1.00  0.00    -0.502 OA
ATOM    108  H   UNL A   1      33.164  21.277  22.327  1.00  0.00     0.293 HD
ENDBRANCH 102 107
ENDBRANCH  87  97
BRANCH  93 109
ATOM    109  O   UNL A   1      30.129  31.635  25.091  1.00  0.00    -0.507 OA
ATOM    110  H   UNL A   1      30.511  32.487  25.010  1.00  0.00     0.293 HD
ENDBRANCH  93 109
BRANCH  96 111
ATOM    111  O   UNL A   1      27.670  30.665  21.097  1.00  0.00    -0.508 OA
ATOM    112  H   UNL A   1      26.789  30.773  21.397  1.00  0.00     0.293 HD
ENDBRANCH  96 111
ENDBRANCH  85  86
ENDBRANCH  80  85
BRANCH  81 113
ATOM    113  O   UNL A   1      29.694  24.685  26.405  1.00  0.00    -0.387 OA
ATOM    114  H   UNL A   1      29.165  25.485  26.541  1.00  0.00     0.211 HD
ENDBRANCH  81 113
BRANCH  82 115
ATOM    115  O   UNL A   1      31.206  27.244  27.453  1.00  0.00    -0.384 OA
ATOM    116  H   UNL A   1      31.964  27.483  28.009  1.00  0.00     0.211 HD
ENDBRANCH  82 115
ENDBRANCH  75  77
ENDBRANCH  74  75
ENDBRANCH  73  74
ENDBRANCH   1  73
TORSDOF 28
ENDMDL
