MODEL 1
REMARK VINA RESULT:     -11.1      0.000      0.000
REMARK SMILES C[C@@H](C(=O)OCCOCCOC(=O)c1ccc(-c2c3nc(c(-c4cccc(S(=O)(=O)[O-])c4F)c4ccc([nH]4)c(-c4cccc(S(=O)(=O)[O-])c4F)c4nc(c(-c5cccc(S(=O)(=O)[O-])c5F)c5ccc2[nH]5)C=C4)C=C3)cc1)c1ccc(OC2CCCC2)cc1F
REMARK SMILES IDX 8 1 7 2 6 3 5 4 3 5 4 6 2 7 1 8 77 9 78 10 88 11 79 12 87 13
REMARK SMILES IDX 89 14 80 15 81 16 82 17 83 18 86 19 84 20 85 21 9 22 10 23
REMARK SMILES IDX 11 24 12 25 13 26 14 27 15 28 76 29 16 30 75 31 17 32 18 33
REMARK SMILES IDX 19 34 69 35 20 36 74 37 68 38 70 39 21 40 73 41 67 42 66 43
REMARK SMILES IDX 22 45 54 46 34 47 53 48 35 49 38 50 52 51 71 52 36 53 37 54
REMARK SMILES IDX 51 56 72 57 39 58 23 59 24 60 32 61 25 62 27 63 33 64 26 65
REMARK SMILES IDX 28 66 29 67 30 68 31 69 55 70 56 71 64 72 57 73 59 74 65 75
REMARK SMILES IDX 58 76 60 77 61 78 62 79 63 80 40 81 41 82 49 83 42 84 44 85
REMARK SMILES IDX 50 86 43 87 45 88 46 89 47 90 48 91
REMARK H PARENT 70 44 38 55
REMARK Flexibility Score: inf
ROOT
ATOM      1  O   UNL A   1      31.622  28.816  24.438  1.00  0.00    -0.374 OA
ENDROOT
BRANCH   1   2
ATOM      2  C   UNL A   1      30.733  27.909  23.776  1.00  0.00     0.202 C 
BRANCH   2   3
ATOM      3  C   UNL A   1      30.155  26.776  24.631  1.00  0.00     0.261 C 
BRANCH   3   4
ATOM      4  O   UNL A   1      31.052  25.645  24.661  1.00  0.00    -0.463 OA
BRANCH   4   5
ATOM      5  C   UNL A   1      31.378  25.164  25.891  1.00  0.00     0.313 C 
ATOM      6  O   UNL A   1      30.560  24.893  26.764  1.00  0.00    -0.252 OA
BRANCH   5   7
ATOM      7  C   UNL A   1      32.893  24.986  26.085  1.00  0.00     0.129 C 
ATOM      8  C   UNL A   1      33.768  25.993  25.329  1.00  0.00     0.025 C 
BRANCH   7   9
ATOM      9  C   UNL A   1      33.276  23.535  25.811  1.00  0.00     0.002 A 
ATOM     10  C   UNL A   1      33.520  23.110  24.499  1.00  0.00     0.011 A 
ATOM     11  C   UNL A   1      33.528  22.618  26.836  1.00  0.00     0.130 A 
ATOM     12  C   UNL A   1      34.035  21.830  24.249  1.00  0.00     0.047 A 
ATOM     13  C   UNL A   1      34.069  21.357  26.594  1.00  0.00     0.086 A 
ATOM     14  F   UNL A   1      33.265  22.930  28.110  1.00  0.00    -0.207 F 
ATOM     15  C   UNL A   1      34.348  20.959  25.296  1.00  0.00     0.122 A 
BRANCH  15  16
ATOM     16  O   UNL A   1      34.883  19.766  24.915  1.00  0.00    -0.490 OA
BRANCH  16  17
ATOM     17  C   UNL A   1      34.078  18.662  24.513  1.00  0.00     0.173 C 
ATOM     18  C   UNL A   1      34.780  17.332  24.249  1.00  0.00     0.045 C 
ATOM     19  C   UNL A   1      32.873  18.345  25.400  1.00  0.00     0.045 C 
ATOM     20  C   UNL A   1      33.626  16.342  24.195  1.00  0.00     0.004 C 
ATOM     21  C   UNL A   1      32.614  16.848  25.222  1.00  0.00     0.004 C 
ENDBRANCH  16  17
ENDBRANCH  15  16
ENDBRANCH   7   9
ENDBRANCH   5   7
ENDBRANCH   4   5
ENDBRANCH   3   4
ENDBRANCH   2   3
ENDBRANCH   1   2
BRANCH   1  22
ATOM     22  C   UNL A   1      31.450  28.954  25.846  1.00  0.00     0.202 C 
BRANCH  22  23
ATOM     23  C   UNL A   1      31.704  30.345  26.441  1.00  0.00     0.261 C 
BRANCH  23  24
ATOM     24  O   UNL A   1      33.065  30.767  26.277  1.00  0.00    -0.460 OA
BRANCH  24  25
ATOM     25  C   UNL A   1      33.505  31.598  27.250  1.00  0.00     0.338 C 
ATOM     26  O   UNL A   1      32.869  32.478  27.818  1.00  0.00    -0.246 OA
BRANCH  25  27
ATOM     27  C   UNL A   1      34.849  31.189  27.690  1.00  0.00     0.060 A 
ATOM     28  C   UNL A   1      35.078  29.816  27.839  1.00  0.00     0.016 A 
ATOM     29  C   UNL A   1      35.845  32.117  28.002  1.00  0.00     0.016 A 
ATOM     30  C   UNL A   1      36.286  29.365  28.361  1.00  0.00     0.010 A 
ATOM     31  C   UNL A   1      37.056  31.663  28.531  1.00  0.00     0.010 A 
ATOM     32  C   UNL A   1      37.263  30.289  28.753  1.00  0.00    -0.014 A 
BRANCH  32  33
ATOM     33  C   UNL A   1      38.430  29.815  29.533  1.00  0.00     0.031 A 
ATOM     34  C   UNL A   1      38.585  30.271  30.957  1.00  0.00     0.074 A 
ATOM     35  C   UNL A   1      39.322  28.968  28.987  1.00  0.00     0.049 A 
ATOM     36  N   UNL A   1      39.514  29.971  31.826  1.00  0.00    -0.248 NA
ATOM     37  C   UNL A   1      37.555  31.190  31.473  1.00  0.00     0.031 C 
ATOM     38  C   UNL A   1      39.268  28.452  27.621  1.00  0.00     0.029 A 
ATOM     39  N   UNL A   1      40.454  28.406  29.517  1.00  0.00    -0.354 N 
ATOM     40  C   UNL A   1      39.202  30.684  32.977  1.00  0.00     0.074 A 
ATOM     41  C   UNL A   1      38.001  31.440  32.695  1.00  0.00     0.031 C 
ATOM     42  C   UNL A   1      40.336  27.664  27.411  1.00  0.00     0.029 A 
ATOM     43  C   UNL A   1      41.157  27.637  28.620  1.00  0.00     0.049 A 
ATOM     44  H   UNL A   1      40.738  28.540  30.451  1.00  0.00     0.167 HD
ATOM     45  C   UNL A   1      39.846  30.694  34.167  1.00  0.00     0.034 A 
ATOM     46  C   UNL A   1      42.337  27.000  28.757  1.00  0.00     0.034 A 
ATOM     47  C   UNL A   1      41.024  29.920  34.450  1.00  0.00     0.049 A 
ATOM     48  C   UNL A   1      43.043  27.045  30.086  1.00  0.00     0.074 A 
ATOM     49  C   UNL A   1      41.719  29.819  35.641  1.00  0.00     0.029 A 
ATOM     50  N   UNL A   1      41.689  29.129  33.528  1.00  0.00    -0.354 N 
ATOM     51  N   UNL A   1      42.669  27.621  31.203  1.00  0.00    -0.248 NA
ATOM     52  C   UNL A   1      44.322  26.324  30.185  1.00  0.00     0.031 C 
ATOM     53  C   UNL A   1      42.826  28.989  35.430  1.00  0.00     0.029 A 
ATOM     54  C   UNL A   1      42.799  28.548  34.117  1.00  0.00     0.049 A 
ATOM     55  H   UNL A   1      41.414  28.998  32.592  1.00  0.00     0.167 HD
ATOM     56  C   UNL A   1      43.640  27.301  32.145  1.00  0.00     0.074 A 
ATOM     57  C   UNL A   1      44.613  26.466  31.471  1.00  0.00     0.031 C 
ATOM     58  C   UNL A   1      43.729  27.676  33.446  1.00  0.00     0.034 A 
BRANCH  45  59
ATOM     59  C   UNL A   1      39.279  31.558  35.263  1.00  0.00     0.023 A 
ATOM     60  C   UNL A   1      38.310  31.030  36.140  1.00  0.00     0.012 A 
ATOM     61  C   UNL A   1      39.745  32.873  35.456  1.00  0.00     0.148 A 
ATOM     62  C   UNL A   1      37.790  31.809  37.174  1.00  0.00     0.002 A 
ATOM     63  C   UNL A   1      39.256  33.627  36.517  1.00  0.00     0.091 A 
ATOM     64  F   UNL A   1      40.648  33.364  34.597  1.00  0.00    -0.205 F 
ATOM     65  C   UNL A   1      38.271  33.100  37.369  1.00  0.00     0.022 A 
BRANCH  63  66
ATOM     66  S   UNL A   1      39.866  35.272  36.895  1.00  0.00     0.127 S 
ATOM     67  O   UNL A   1      39.284  36.061  35.810  1.00  0.00    -0.237 OA
ATOM     68  O   UNL A   1      39.280  35.523  38.213  1.00  0.00    -0.237 OA
ATOM     69  O   UNL A   1      41.319  35.174  36.886  1.00  0.00    -0.744 OA
ENDBRANCH  63  66
ENDBRANCH  45  59
BRANCH  46  70
ATOM     70  C   UNL A   1      42.906  26.231  27.614  1.00  0.00     0.023 A 
ATOM     71  C   UNL A   1      43.894  26.820  26.802  1.00  0.00     0.012 A 
ATOM     72  C   UNL A   1      42.485  24.915  27.338  1.00  0.00     0.148 A 
ATOM     73  C   UNL A   1      44.432  26.125  25.719  1.00  0.00     0.002 A 
ATOM     74  C   UNL A   1      43.065  24.208  26.292  1.00  0.00     0.091 A 
ATOM     75  F   UNL A   1      41.531  24.379  28.111  1.00  0.00    -0.205 F 
ATOM     76  C   UNL A   1      44.026  24.817  25.469  1.00  0.00     0.022 A 
BRANCH  74  77
ATOM     77  S   UNL A   1      42.695  22.478  25.978  1.00  0.00     0.127 S 
ATOM     78  O   UNL A   1      43.442  21.815  27.043  1.00  0.00    -0.237 OA
ATOM     79  O   UNL A   1      41.239  22.449  26.134  1.00  0.00    -0.237 OA
ATOM     80  O   UNL A   1      43.158  22.217  24.622  1.00  0.00    -0.744 OA
ENDBRANCH  74  77
ENDBRANCH  46  70
BRANCH  58  81
ATOM     81  C   UNL A   1      44.895  27.156  34.247  1.00  0.00     0.023 A 
ATOM     82  C   UNL A   1      46.083  27.910  34.328  1.00  0.00     0.012 A 
ATOM     83  C   UNL A   1      44.784  25.960  34.983  1.00  0.00     0.148 A 
ATOM     84  C   UNL A   1      47.153  27.464  35.103  1.00  0.00     0.002 A 
ATOM     85  C   UNL A   1      45.835  25.548  35.793  1.00  0.00     0.091 A 
ATOM     86  F   UNL A   1      43.651  25.248  34.879  1.00  0.00    -0.205 F 
ATOM     87  C   UNL A   1      47.025  26.292  35.844  1.00  0.00     0.022 A 
BRANCH  85  88
ATOM     88  S   UNL A   1      45.721  24.106  36.859  1.00  0.00     0.127 S 
ATOM     89  O   UNL A   1      45.757  23.014  35.887  1.00  0.00    -0.237 OA
ATOM     90  O   UNL A   1      46.926  24.230  37.680  1.00  0.00    -0.237 OA
ATOM     91  O   UNL A   1      44.472  24.248  37.594  1.00  0.00    -0.744 OA
ENDBRANCH  85  88
ENDBRANCH  58  81
ENDBRANCH  32  33
ENDBRANCH  25  27
ENDBRANCH  24  25
ENDBRANCH  23  24
ENDBRANCH  22  23
ENDBRANCH   1  22
TORSDOF 20
ENDMDL
MODEL 2
REMARK VINA RESULT:     -10.8      2.184      2.868
REMARK SMILES C[C@@H](C(=O)OCCOCCOC(=O)c1ccc(-c2c3nc(c(-c4cccc(S(=O)(=O)[O-])c4F)c4ccc([nH]4)c(-c4cccc(S(=O)(=O)[O-])c4F)c4nc(c(-c5cccc(S(=O)(=O)[O-])c5F)c5ccc2[nH]5)C=C4)C=C3)cc1)c1ccc(OC2CCCC2)cc1F
REMARK SMILES IDX 8 1 7 2 6 3 5 4 3 5 4 6 2 7 1 8 77 9 78 10 88 11 79 12 87 13
REMARK SMILES IDX 89 14 80 15 81 16 82 17 83 18 86 19 84 20 85 21 9 22 10 23
REMARK SMILES IDX 11 24 12 25 13 26 14 27 15 28 76 29 16 30 75 31 17 32 18 33
REMARK SMILES IDX 19 34 69 35 20 36 74 37 68 38 70 39 21 40 73 41 67 42 66 43
REMARK SMILES IDX 22 45 54 46 34 47 53 48 35 49 38 50 52 51 71 52 36 53 37 54
REMARK SMILES IDX 51 56 72 57 39 58 23 59 24 60 32 61 25 62 27 63 33 64 26 65
REMARK SMILES IDX 28 66 29 67 30 68 31 69 55 70 56 71 64 72 57 73 59 74 65 75
REMARK SMILES IDX 58 76 60 77 61 78 62 79 63 80 40 81 41 82 49 83 42 84 44 85
REMARK SMILES IDX 50 86 43 87 45 88 46 89 47 90 48 91
REMARK H PARENT 70 44 38 55
REMARK Flexibility Score: inf
ROOT
ATOM      1  O   UNL A   1      30.583  29.925  24.500  1.00  0.00    -0.374 OA
ENDROOT
BRANCH   1   2
ATOM      2  C   UNL A   1      30.340  28.881  23.550  1.00  0.00     0.202 C 
BRANCH   2   3
ATOM      3  C   UNL A   1      31.330  27.711  23.556  1.00  0.00     0.261 C 
BRANCH   3   4
ATOM      4  O   UNL A   1      30.652  26.462  23.812  1.00  0.00    -0.463 OA
BRANCH   4   5
ATOM      5  C   UNL A   1      31.207  25.348  23.266  1.00  0.00     0.313 C 
ATOM      6  O   UNL A   1      30.618  24.279  23.133  1.00  0.00    -0.252 OA
BRANCH   5   7
ATOM      7  C   UNL A   1      32.664  25.558  22.821  1.00  0.00     0.129 C 
ATOM      8  C   UNL A   1      32.913  25.401  21.317  1.00  0.00     0.025 C 
BRANCH   7   9
ATOM      9  C   UNL A   1      33.589  24.697  23.675  1.00  0.00     0.002 A 
ATOM     10  C   UNL A   1      34.230  23.586  23.113  1.00  0.00     0.011 A 
ATOM     11  C   UNL A   1      33.940  25.041  24.984  1.00  0.00     0.130 A 
ATOM     12  C   UNL A   1      35.209  22.888  23.834  1.00  0.00     0.047 A 
ATOM     13  C   UNL A   1      34.934  24.370  25.693  1.00  0.00     0.086 A 
ATOM     14  F   UNL A   1      33.329  26.054  25.610  1.00  0.00    -0.207 F 
ATOM     15  C   UNL A   1      35.594  23.298  25.115  1.00  0.00     0.122 A 
BRANCH  15  16
ATOM     16  O   UNL A   1      36.587  22.559  25.683  1.00  0.00    -0.490 OA
BRANCH  16  17
ATOM     17  C   UNL A   1      37.932  23.019  25.762  1.00  0.00     0.173 C 
ATOM     18  C   UNL A   1      38.218  24.225  26.653  1.00  0.00     0.045 C 
ATOM     19  C   UNL A   1      38.987  21.967  26.107  1.00  0.00     0.045 C 
ATOM     20  C   UNL A   1      39.735  24.211  26.771  1.00  0.00     0.004 C 
ATOM     21  C   UNL A   1      40.122  22.733  26.789  1.00  0.00     0.004 C 
ENDBRANCH  16  17
ENDBRANCH  15  16
ENDBRANCH   7   9
ENDBRANCH   5   7
ENDBRANCH   4   5
ENDBRANCH   3   4
ENDBRANCH   2   3
ENDBRANCH   1   2
BRANCH   1  22
ATOM     22  C   UNL A   1      31.561  29.653  25.501  1.00  0.00     0.202 C 
BRANCH  22  23
ATOM     23  C   UNL A   1      32.127  30.859  26.260  1.00  0.00     0.261 C 
BRANCH  23  24
ATOM     24  O   UNL A   1      33.242  30.506  27.090  1.00  0.00    -0.460 OA
BRANCH  24  25
ATOM     25  C   UNL A   1      33.896  31.567  27.617  1.00  0.00     0.338 C 
ATOM     26  O   UNL A   1      33.447  32.691  27.812  1.00  0.00    -0.246 OA
BRANCH  25  27
ATOM     27  C   UNL A   1      35.217  31.149  28.111  1.00  0.00     0.060 A 
ATOM     28  C   UNL A   1      35.342  29.825  28.550  1.00  0.00     0.016 A 
ATOM     29  C   UNL A   1      36.293  32.034  28.199  1.00  0.00     0.016 A 
ATOM     30  C   UNL A   1      36.527  29.395  29.136  1.00  0.00     0.010 A 
ATOM     31  C   UNL A   1      37.483  31.603  28.793  1.00  0.00     0.010 A 
ATOM     32  C   UNL A   1      37.588  30.295  29.303  1.00  0.00    -0.014 A 
BRANCH  32  33
ATOM     33  C   UNL A   1      38.740  29.901  30.147  1.00  0.00     0.031 A 
ATOM     34  C   UNL A   1      38.859  30.482  31.529  1.00  0.00     0.074 A 
ATOM     35  C   UNL A   1      39.649  29.018  29.697  1.00  0.00     0.049 A 
ATOM     36  N   UNL A   1      39.771  30.267  32.441  1.00  0.00    -0.248 NA
ATOM     37  C   UNL A   1      37.812  31.433  31.939  1.00  0.00     0.031 C 
ATOM     38  C   UNL A   1      39.630  28.384  28.380  1.00  0.00     0.029 A 
ATOM     39  N   UNL A   1      40.774  28.515  30.299  1.00  0.00    -0.354 N 
ATOM     40  C   UNL A   1      39.427  31.075  33.518  1.00  0.00     0.074 A 
ATOM     41  C   UNL A   1      38.228  31.793  33.144  1.00  0.00     0.031 C 
ATOM     42  C   UNL A   1      40.708  27.591  28.263  1.00  0.00     0.029 A 
ATOM     43  C   UNL A   1      41.501  27.677  29.488  1.00  0.00     0.049 A 
ATOM     44  H   UNL A   1      41.035  28.732  31.223  1.00  0.00     0.167 HD
ATOM     45  C   UNL A   1      40.044  31.194  34.716  1.00  0.00     0.034 A 
ATOM     46  C   UNL A   1      42.682  27.064  29.706  1.00  0.00     0.034 A 
ATOM     47  C   UNL A   1      41.221  30.459  35.091  1.00  0.00     0.049 A 
ATOM     48  C   UNL A   1      43.358  27.231  31.042  1.00  0.00     0.074 A 
ATOM     49  C   UNL A   1      41.890  30.468  36.302  1.00  0.00     0.029 A 
ATOM     50  N   UNL A   1      41.913  29.596  34.257  1.00  0.00    -0.354 N 
ATOM     51  N   UNL A   1      42.954  27.899  32.095  1.00  0.00    -0.248 NA
ATOM     52  C   UNL A   1      44.639  26.533  31.231  1.00  0.00     0.031 C 
ATOM     53  C   UNL A   1      43.007  29.633  36.188  1.00  0.00     0.029 A 
ATOM     54  C   UNL A   1      43.013  29.079  34.919  1.00  0.00     0.049 A 
ATOM     55  H   UNL A   1      41.659  29.382  33.330  1.00  0.00     0.167 HD
ATOM     56  C   UNL A   1      43.907  27.672  33.082  1.00  0.00     0.074 A 
ATOM     57  C   UNL A   1      44.900  26.789  32.506  1.00  0.00     0.031 C 
ATOM     58  C   UNL A   1      43.964  28.159  34.347  1.00  0.00     0.034 A 
BRANCH  45  59
ATOM     59  C   UNL A   1      39.447  32.146  35.719  1.00  0.00     0.023 A 
ATOM     60  C   UNL A   1      38.421  31.704  36.579  1.00  0.00     0.012 A 
ATOM     61  C   UNL A   1      39.938  33.460  35.846  1.00  0.00     0.148 A 
ATOM     62  C   UNL A   1      37.872  32.564  37.530  1.00  0.00     0.002 A 
ATOM     63  C   UNL A   1      39.417  34.297  36.825  1.00  0.00     0.091 A 
ATOM     64  F   UNL A   1      40.895  33.868  35.003  1.00  0.00    -0.205 F 
ATOM     65  C   UNL A   1      38.377  33.855  37.660  1.00  0.00     0.022 A 
BRANCH  63  66
ATOM     66  S   UNL A   1      40.052  35.950  37.121  1.00  0.00     0.127 S 
ATOM     67  O   UNL A   1      39.683  36.635  35.883  1.00  0.00    -0.237 OA
ATOM     68  O   UNL A   1      39.288  36.367  38.299  1.00  0.00    -0.237 OA
ATOM     69  O   UNL A   1      41.482  35.797  37.349  1.00  0.00    -0.744 OA
ENDBRANCH  63  66
ENDBRANCH  45  59
BRANCH  46  70
ATOM     70  C   UNL A   1      43.282  26.204  28.648  1.00  0.00     0.023 A 
ATOM     71  C   UNL A   1      42.897  24.853  28.546  1.00  0.00     0.012 A 
ATOM     72  C   UNL A   1      44.220  26.721  27.731  1.00  0.00     0.148 A 
ATOM     73  C   UNL A   1      43.455  24.026  27.571  1.00  0.00     0.002 A 
ATOM     74  C   UNL A   1      44.729  25.906  26.728  1.00  0.00     0.091 A 
ATOM     75  F   UNL A   1      44.587  28.004  27.855  1.00  0.00    -0.205 F 
ATOM     76  C   UNL A   1      44.362  24.553  26.656  1.00  0.00     0.022 A 
BRANCH  74  77
ATOM     77  S   UNL A   1      45.803  26.534  25.432  1.00  0.00     0.127 S 
ATOM     78  O   UNL A   1      45.991  25.349  24.598  1.00  0.00    -0.237 OA
ATOM     79  O   UNL A   1      44.974  27.583  24.835  1.00  0.00    -0.237 OA
ATOM     80  O   UNL A   1      46.994  27.026  26.111  1.00  0.00    -0.744 OA
ENDBRANCH  74  77
ENDBRANCH  46  70
BRANCH  58  81
ATOM     81  C   UNL A   1      45.115  27.722  35.216  1.00  0.00     0.023 A 
ATOM     82  C   UNL A   1      46.306  28.475  35.236  1.00  0.00     0.012 A 
ATOM     83  C   UNL A   1      44.986  26.610  36.073  1.00  0.00     0.148 A 
ATOM     84  C   UNL A   1      47.361  28.109  36.069  1.00  0.00     0.002 A 
ATOM     85  C   UNL A   1      46.022  26.281  36.937  1.00  0.00     0.091 A 
ATOM     86  F   UNL A   1      43.851  25.896  36.026  1.00  0.00    -0.205 F 
ATOM     87  C   UNL A   1      47.215  27.021  36.928  1.00  0.00     0.022 A 
BRANCH  85  88
ATOM     88  S   UNL A   1      45.885  24.959  38.146  1.00  0.00     0.127 S 
ATOM     89  O   UNL A   1      44.679  25.346  38.875  1.00  0.00    -0.237 OA
ATOM     90  O   UNL A   1      45.731  23.777  37.298  1.00  0.00    -0.237 OA
ATOM     91  O   UNL A   1      47.120  24.992  38.917  1.00  0.00    -0.744 OA
ENDBRANCH  85  88
ENDBRANCH  58  81
ENDBRANCH  32  33
ENDBRANCH  25  27
ENDBRANCH  24  25
ENDBRANCH  23  24
ENDBRANCH  22  23
ENDBRANCH   1  22
TORSDOF 20
ENDMDL
MODEL 3
REMARK VINA RESULT:     -10.8      2.095      4.398
REMARK SMILES C[C@@H](C(=O)OCCOCCOC(=O)c1ccc(-c2c3nc(c(-c4cccc(S(=O)(=O)[O-])c4F)c4ccc([nH]4)c(-c4cccc(S(=O)(=O)[O-])c4F)c4nc(c(-c5cccc(S(=O)(=O)[O-])c5F)c5ccc2[nH]5)C=C4)C=C3)cc1)c1ccc(OC2CCCC2)cc1F
REMARK SMILES IDX 8 1 7 2 6 3 5 4 3 5 4 6 2 7 1 8 77 9 78 10 88 11 79 12 87 13
REMARK SMILES IDX 89 14 80 15 81 16 82 17 83 18 86 19 84 20 85 21 9 22 10 23
REMARK SMILES IDX 11 24 12 25 13 26 14 27 15 28 76 29 16 30 75 31 17 32 18 33
REMARK SMILES IDX 19 34 69 35 20 36 74 37 68 38 70 39 21 40 73 41 67 42 66 43
REMARK SMILES IDX 22 45 54 46 34 47 53 48 35 49 38 50 52 51 71 52 36 53 37 54
REMARK SMILES IDX 51 56 72 57 39 58 23 59 24 60 32 61 25 62 27 63 33 64 26 65
REMARK SMILES IDX 28 66 29 67 30 68 31 69 55 70 56 71 64 72 57 73 59 74 65 75
REMARK SMILES IDX 58 76 60 77 61 78 62 79 63 80 40 81 41 82 49 83 42 84 44 85
REMARK SMILES IDX 50 86 43 87 45 88 46 89 47 90 48 91
REMARK H PARENT 70 44 38 55
REMARK Flexibility Score: inf
ROOT
ATOM      1  O   UNL A   1      31.756  27.944  26.339  1.00  0.00    -0.374 OA
ENDROOT
BRANCH   1   2
ATOM      2  C   UNL A   1      32.886  27.065  26.304  1.00  0.00     0.202 C 
BRANCH   2   3
ATOM      3  C   UNL A   1      32.584  25.574  26.114  1.00  0.00     0.261 C 
BRANCH   3   4
ATOM      4  O   UNL A   1      33.306  25.042  24.983  1.00  0.00    -0.463 OA
BRANCH   4   5
ATOM      5  C   UNL A   1      32.622  24.188  24.175  1.00  0.00     0.313 C 
ATOM      6  O   UNL A   1      32.335  23.034  24.479  1.00  0.00    -0.252 OA
BRANCH   5   7
ATOM      7  C   UNL A   1      32.233  24.817  22.827  1.00  0.00     0.129 C 
ATOM      8  C   UNL A   1      33.412  25.255  21.950  1.00  0.00     0.025 C 
BRANCH   7   9
ATOM      9  C   UNL A   1      31.211  25.925  23.056  1.00  0.00     0.002 A 
ATOM     10  C   UNL A   1      31.413  27.193  22.494  1.00  0.00     0.011 A 
ATOM     11  C   UNL A   1      29.992  25.702  23.703  1.00  0.00     0.130 A 
ATOM     12  C   UNL A   1      30.407  28.167  22.553  1.00  0.00     0.047 A 
ATOM     13  C   UNL A   1      28.977  26.656  23.736  1.00  0.00     0.086 A 
ATOM     14  F   UNL A   1      29.747  24.537  24.314  1.00  0.00    -0.207 F 
ATOM     15  C   UNL A   1      29.169  27.893  23.142  1.00  0.00     0.122 A 
BRANCH  15  16
ATOM     16  O   UNL A   1      28.267  28.912  23.090  1.00  0.00    -0.490 OA
BRANCH  16  17
ATOM     17  C   UNL A   1      28.613  30.216  22.637  1.00  0.00     0.173 C 
ATOM     18  C   UNL A   1      28.106  30.648  21.263  1.00  0.00     0.045 C 
ATOM     19  C   UNL A   1      28.303  31.369  23.593  1.00  0.00     0.045 C 
ATOM     20  C   UNL A   1      28.351  32.150  21.264  1.00  0.00     0.004 C 
ATOM     21  C   UNL A   1      28.097  32.596  22.703  1.00  0.00     0.004 C 
ENDBRANCH  16  17
ENDBRANCH  15  16
ENDBRANCH   7   9
ENDBRANCH   5   7
ENDBRANCH   4   5
ENDBRANCH   3   4
ENDBRANCH   2   3
ENDBRANCH   1   2
BRANCH   1  22
ATOM     22  C   UNL A   1      31.833  29.037  27.250  1.00  0.00     0.202 C 
BRANCH  22  23
ATOM     23  C   UNL A   1      31.960  30.438  26.640  1.00  0.00     0.261 C 
BRANCH  23  24
ATOM     24  O   UNL A   1      33.326  30.828  26.447  1.00  0.00    -0.460 OA
BRANCH  24  25
ATOM     25  C   UNL A   1      33.786  31.704  27.370  1.00  0.00     0.338 C 
ATOM     26  O   UNL A   1      33.176  32.641  27.870  1.00  0.00    -0.246 OA
BRANCH  25  27
ATOM     27  C   UNL A   1      35.109  31.277  27.853  1.00  0.00     0.060 A 
ATOM     28  C   UNL A   1      35.284  29.910  28.099  1.00  0.00     0.016 A 
ATOM     29  C   UNL A   1      36.135  32.187  28.113  1.00  0.00     0.016 A 
ATOM     30  C   UNL A   1      36.469  29.452  28.666  1.00  0.00     0.010 A 
ATOM     31  C   UNL A   1      37.324  31.726  28.687  1.00  0.00     0.010 A 
ATOM     32  C   UNL A   1      37.477  30.364  29.005  1.00  0.00    -0.014 A 
BRANCH  32  33
ATOM     33  C   UNL A   1      38.617  29.902  29.831  1.00  0.00     0.031 A 
ATOM     34  C   UNL A   1      38.757  30.425  31.234  1.00  0.00     0.074 A 
ATOM     35  C   UNL A   1      39.498  29.009  29.345  1.00  0.00     0.049 A 
ATOM     36  N   UNL A   1      39.662  30.147  32.134  1.00  0.00    -0.248 NA
ATOM     37  C   UNL A   1      37.740  31.392  31.682  1.00  0.00     0.031 C 
ATOM     38  C   UNL A   1      39.457  28.427  28.005  1.00  0.00     0.029 A 
ATOM     39  N   UNL A   1      40.606  28.448  29.924  1.00  0.00    -0.354 N 
ATOM     40  C   UNL A   1      39.346  30.924  33.242  1.00  0.00     0.074 A 
ATOM     41  C   UNL A   1      38.169  31.693  32.900  1.00  0.00     0.031 C 
ATOM     42  C   UNL A   1      40.509  27.605  27.855  1.00  0.00     0.029 A 
ATOM     43  C   UNL A   1      41.306  27.619  29.080  1.00  0.00     0.049 A 
ATOM     44  H   UNL A   1      40.876  28.622  30.855  1.00  0.00     0.167 HD
ATOM     45  C   UNL A   1      39.968  30.978  34.443  1.00  0.00     0.034 A 
ATOM     46  C   UNL A   1      42.468  26.961  29.272  1.00  0.00     0.034 A 
ATOM     47  C   UNL A   1      41.121  30.192  34.787  1.00  0.00     0.049 A 
ATOM     48  C   UNL A   1      43.151  27.056  30.611  1.00  0.00     0.074 A 
ATOM     49  C   UNL A   1      41.792  30.134  35.995  1.00  0.00     0.029 A 
ATOM     50  N   UNL A   1      41.784  29.341  33.918  1.00  0.00    -0.354 N 
ATOM     51  N   UNL A   1      42.769  27.696  31.690  1.00  0.00    -0.248 NA
ATOM     52  C   UNL A   1      44.409  26.312  30.770  1.00  0.00     0.031 C 
ATOM     53  C   UNL A   1      42.882  29.269  35.847  1.00  0.00     0.029 A 
ATOM     54  C   UNL A   1      42.869  28.764  34.556  1.00  0.00     0.049 A 
ATOM     55  H   UNL A   1      41.523  29.170  32.984  1.00  0.00     0.167 HD
ATOM     56  C   UNL A   1      43.716  27.401  32.666  1.00  0.00     0.074 A 
ATOM     57  C   UNL A   1      44.680  26.511  32.053  1.00  0.00     0.031 C 
ATOM     58  C   UNL A   1      43.790  27.838  33.948  1.00  0.00     0.034 A 
BRANCH  45  59
ATOM     59  C   UNL A   1      39.402  31.909  35.483  1.00  0.00     0.023 A 
ATOM     60  C   UNL A   1      38.406  31.448  36.367  1.00  0.00     0.012 A 
ATOM     61  C   UNL A   1      39.895  33.221  35.619  1.00  0.00     0.148 A 
ATOM     62  C   UNL A   1      37.886  32.289  37.352  1.00  0.00     0.002 A 
ATOM     63  C   UNL A   1      39.405  34.039  36.631  1.00  0.00     0.091 A 
ATOM     64  F   UNL A   1      40.824  33.648  34.753  1.00  0.00    -0.205 F 
ATOM     65  C   UNL A   1      38.393  33.578  37.491  1.00  0.00     0.022 A 
BRANCH  63  66
ATOM     66  S   UNL A   1      40.047  35.687  36.938  1.00  0.00     0.127 S 
ATOM     67  O   UNL A   1      39.605  36.403  35.742  1.00  0.00    -0.237 OA
ATOM     68  O   UNL A   1      39.348  36.065  38.168  1.00  0.00    -0.237 OA
ATOM     69  O   UNL A   1      41.488  35.537  37.081  1.00  0.00    -0.744 OA
ENDBRANCH  63  66
ENDBRANCH  45  59
BRANCH  46  70
ATOM     70  C   UNL A   1      43.039  26.124  28.180  1.00  0.00     0.023 A 
ATOM     71  C   UNL A   1      44.052  26.650  27.356  1.00  0.00     0.012 A 
ATOM     72  C   UNL A   1      42.595  24.805  27.963  1.00  0.00     0.148 A 
ATOM     73  C   UNL A   1      44.593  25.889  26.320  1.00  0.00     0.002 A 
ATOM     74  C   UNL A   1      43.176  24.033  26.965  1.00  0.00     0.091 A 
ATOM     75  F   UNL A   1      41.617  24.328  28.747  1.00  0.00    -0.205 F 
ATOM     76  C   UNL A   1      44.163  24.579  26.130  1.00  0.00     0.022 A 
BRANCH  74  77
ATOM     77  S   UNL A   1      42.775  22.297  26.734  1.00  0.00     0.127 S 
ATOM     78  O   UNL A   1      41.494  22.376  26.038  1.00  0.00    -0.237 OA
ATOM     79  O   UNL A   1      43.897  21.836  25.913  1.00  0.00    -0.237 OA
ATOM     80  O   UNL A   1      42.736  21.721  28.071  1.00  0.00    -0.744 OA
ENDBRANCH  74  77
ENDBRANCH  46  70
BRANCH  58  81
ATOM     81  C   UNL A   1      44.928  27.332  34.797  1.00  0.00     0.023 A 
ATOM     82  C   UNL A   1      46.122  28.075  34.886  1.00  0.00     0.012 A 
ATOM     83  C   UNL A   1      44.783  26.161  35.567  1.00  0.00     0.148 A 
ATOM     84  C   UNL A   1      47.165  27.643  35.703  1.00  0.00     0.002 A 
ATOM     85  C   UNL A   1      45.806  25.764  36.418  1.00  0.00     0.091 A 
ATOM     86  F   UNL A   1      43.645  25.458  35.455  1.00  0.00    -0.205 F 
ATOM     87  C   UNL A   1      47.003  26.496  36.478  1.00  0.00     0.022 A 
BRANCH  85  88
ATOM     88  S   UNL A   1      45.648  24.358  37.525  1.00  0.00     0.127 S 
ATOM     89  O   UNL A   1      44.590  24.807  38.428  1.00  0.00    -0.237 OA
ATOM     90  O   UNL A   1      45.254  23.285  36.611  1.00  0.00    -0.237 OA
ATOM     91  O   UNL A   1      46.958  24.179  38.136  1.00  0.00    -0.744 OA
ENDBRANCH  85  88
ENDBRANCH  58  81
ENDBRANCH  32  33
ENDBRANCH  25  27
ENDBRANCH  24  25
ENDBRANCH  23  24
ENDBRANCH  22  23
ENDBRANCH   1  22
TORSDOF 20
ENDMDL
