MODEL 1
REMARK VINA RESULT:     -11.5      0.000      0.000
REMARK SMILES Cc1c(C(=O)Nc2ccc(C(=O)Nc3ccccc3C(=O)OCCOCCOC(=O)c3ccc(-c4c5nc(c(-c6cccc(S(=O)(=O)[O-])c6F)c6ccc([nH]6)c(-c6cccc(S(=O)(=O)[O-])c6F)c6nc(c(-c7cccc(S(=O)(=O)[O-])c7F)c7ccc4[nH]7)C=C6)C=C5)cc3)cc2)cccc1[N+](=O)[O-]
REMARK SMILES IDX 24 1 23 2 22 3 20 4 21 5 19 6 14 7 15 8 16 9 18 10 17 11
REMARK SMILES IDX 13 12 11 13 12 14 10 16 7 17 8 18 95 19 9 20 94 21 6 22 4 23
REMARK SMILES IDX 5 24 3 26 1 27 2 28 99 29 96 30 98 31 97 32 100 33 101 34
REMARK SMILES IDX 102 35 25 36 26 37 27 38 28 39 29 40 30 41 31 42 32 43 93 44
REMARK SMILES IDX 33 45 92 46 34 47 35 48 36 49 86 50 37 51 91 52 85 53 87 54
REMARK SMILES IDX 38 55 90 56 84 57 83 58 39 60 71 61 51 62 70 63 52 64 55 65
REMARK SMILES IDX 69 66 88 67 53 68 54 69 68 71 89 72 56 73 40 74 41 75 49 76
REMARK SMILES IDX 42 77 44 78 50 79 43 80 45 81 46 82 47 83 48 84 72 85 73 86
REMARK SMILES IDX 81 87 74 88 76 89 82 90 75 91 77 92 78 93 79 94 80 95 57 96
REMARK SMILES IDX 58 97 66 98 59 99 61 100 67 101 60 102 62 103 63 104 64 105
REMARK SMILES IDX 65 106
REMARK H PARENT 13 15 6 25 87 59 55 70
REMARK Flexibility Score: inf
ROOT
ATOM      1  C   UNL A   1      40.975  19.571  26.112  1.00  0.00     0.202 C 
ENDROOT
BRANCH   1   2
ATOM      2  C   UNL A   1      40.221  20.890  25.931  1.00  0.00     0.261 C 
BRANCH   2   3
ATOM      3  O   UNL A   1      38.894  21.060  26.442  1.00  0.00    -0.460 OA
BRANCH   3   4
ATOM      4  C   UNL A   1      37.963  21.127  25.458  1.00  0.00     0.340 C 
ATOM      5  O   UNL A   1      37.792  20.351  24.555  1.00  0.00    -0.246 OA
BRANCH   4   6
ATOM      6  C   UNL A   1      37.016  22.232  25.683  1.00  0.00     0.083 A 
ATOM      7  C   UNL A   1      35.662  21.929  25.508  1.00  0.00     0.056 A 
ATOM      8  C   UNL A   1      34.718  22.949  25.396  1.00  0.00     0.027 A 
ATOM      9  C   UNL A   1      35.108  24.273  25.579  1.00  0.00     0.002 A 
ATOM     10  C   UNL A   1      37.403  23.554  25.938  1.00  0.00     0.018 A 
ATOM     11  C   UNL A   1      36.436  24.572  25.897  1.00  0.00     0.001 A 
BRANCH   7  12
ATOM     12  N   UNL A   1      35.182  20.616  25.563  1.00  0.00    -0.321 N 
ATOM     13  C   UNL A   1      34.090  20.085  24.892  1.00  0.00     0.255 C 
ATOM     14  O   UNL A   1      33.947  18.863  24.860  1.00  0.00    -0.269 OA
ATOM     15  H   UNL A   1      35.678  19.996  26.146  1.00  0.00     0.170 HD
BRANCH  13  16
ATOM     16  C   UNL A   1      32.971  20.949  24.357  1.00  0.00     0.040 A 
ATOM     17  C   UNL A   1      31.177  23.060  23.760  1.00  0.00     0.041 A 
ATOM     18  C   UNL A   1      32.091  22.618  22.807  1.00  0.00     0.027 A 
ATOM     19  C   UNL A   1      31.121  22.421  24.998  1.00  0.00     0.027 A 
ATOM     20  C   UNL A   1      32.938  21.542  23.091  1.00  0.00     0.016 A 
ATOM     21  C   UNL A   1      31.997  21.356  25.286  1.00  0.00     0.016 A 
BRANCH  17  22
ATOM     22  N   UNL A   1      30.241  24.068  23.475  1.00  0.00    -0.322 N 
ATOM     23  C   UNL A   1      30.371  25.419  23.756  1.00  0.00     0.256 C 
ATOM     24  O   UNL A   1      29.442  26.201  23.573  1.00  0.00    -0.269 OA
ATOM     25  H   UNL A   1      29.409  23.786  23.032  1.00  0.00     0.170 HD
BRANCH  23  26
ATOM     26  C   UNL A   1      31.676  25.937  24.279  1.00  0.00     0.049 A 
ATOM     27  C   UNL A   1      31.188  25.429  26.728  1.00  0.00     0.053 C 
ATOM     28  C   UNL A   1      31.906  26.199  25.649  1.00  0.00     0.039 A 
ATOM     29  C   UNL A   1      32.845  27.204  25.940  1.00  0.00     0.273 A 
ATOM     30  C   UNL A   1      32.598  26.350  23.307  1.00  0.00     0.014 A 
ATOM     31  C   UNL A   1      33.744  27.660  24.962  1.00  0.00     0.086 A 
ATOM     32  C   UNL A   1      33.670  27.162  23.664  1.00  0.00     0.008 A 
BRANCH  29  33
ATOM     33  N   UNL A   1      32.768  27.985  27.186  1.00  0.00     0.063 N 
ATOM     34  O   UNL A   1      31.709  27.904  27.831  1.00  0.00    -0.258 OA
ATOM     35  O   UNL A   1      33.743  28.667  27.523  1.00  0.00    -0.258 OA
ENDBRANCH  29  33
ENDBRANCH  23  26
ENDBRANCH  17  22
ENDBRANCH  13  16
ENDBRANCH   7  12
ENDBRANCH   4   6
ENDBRANCH   3   4
ENDBRANCH   2   3
ENDBRANCH   1   2
BRANCH   1  36
ATOM     36  O   UNL A   1      42.150  19.392  25.401  1.00  0.00    -0.374 OA
BRANCH  36  37
ATOM     37  C   UNL A   1      43.146  20.277  25.839  1.00  0.00     0.202 C 
BRANCH  37  38
ATOM     38  C   UNL A   1      43.909  21.329  24.974  1.00  0.00     0.261 C 
BRANCH  38  39
ATOM     39  O   UNL A   1      43.210  22.515  24.548  1.00  0.00    -0.460 OA
BRANCH  39  40
ATOM     40  C   UNL A   1      43.598  23.746  25.017  1.00  0.00     0.338 C 
ATOM     41  O   UNL A   1      44.622  24.331  24.720  1.00  0.00    -0.246 OA
BRANCH  40  42
ATOM     42  C   UNL A   1      42.397  24.354  25.695  1.00  0.00     0.060 A 
ATOM     43  C   UNL A   1      42.025  25.662  25.437  1.00  0.00     0.016 A 
ATOM     44  C   UNL A   1      42.033  23.832  26.925  1.00  0.00     0.016 A 
ATOM     45  C   UNL A   1      41.825  26.557  26.490  1.00  0.00     0.010 A 
ATOM     46  C   UNL A   1      41.831  24.725  27.982  1.00  0.00     0.010 A 
ATOM     47  C   UNL A   1      42.011  26.106  27.783  1.00  0.00    -0.014 A 
BRANCH  47  48
ATOM     48  C   UNL A   1      42.721  26.940  28.805  1.00  0.00     0.031 A 
ATOM     49  C   UNL A   1      44.065  26.546  29.276  1.00  0.00     0.074 A 
ATOM     50  C   UNL A   1      42.394  28.236  29.083  1.00  0.00     0.049 A 
ATOM     51  N   UNL A   1      44.385  26.243  30.491  1.00  0.00    -0.248 NA
ATOM     52  C   UNL A   1      45.177  26.472  28.339  1.00  0.00     0.031 C 
ATOM     53  C   UNL A   1      43.278  29.225  29.712  1.00  0.00     0.029 A 
ATOM     54  N   UNL A   1      41.270  28.997  28.761  1.00  0.00    -0.354 N 
ATOM     55  C   UNL A   1      45.771  26.152  30.476  1.00  0.00     0.074 A 
ATOM     56  C   UNL A   1      46.142  25.974  29.095  1.00  0.00     0.031 C 
ATOM     57  C   UNL A   1      42.619  30.381  29.883  1.00  0.00     0.029 A 
ATOM     58  C   UNL A   1      41.235  30.169  29.518  1.00  0.00     0.049 A 
ATOM     59  H   UNL A   1      40.594  28.743  28.091  1.00  0.00     0.167 HD
ATOM     60  C   UNL A   1      46.560  26.787  31.392  1.00  0.00     0.034 A 
ATOM     61  C   UNL A   1      40.168  30.551  30.274  1.00  0.00     0.034 A 
ATOM     62  C   UNL A   1      45.811  27.841  32.119  1.00  0.00     0.049 A 
ATOM     63  C   UNL A   1      40.453  30.206  31.726  1.00  0.00     0.074 A 
ATOM     64  C   UNL A   1      45.933  29.223  32.167  1.00  0.00     0.029 A 
ATOM     65  N   UNL A   1      44.602  27.556  32.745  1.00  0.00    -0.354 N 
ATOM     66  N   UNL A   1      41.661  30.080  32.216  1.00  0.00    -0.248 NA
ATOM     67  C   UNL A   1      39.433  29.905  32.727  1.00  0.00     0.031 C 
ATOM     68  C   UNL A   1      44.767  29.759  32.792  1.00  0.00     0.029 A 
ATOM     69  C   UNL A   1      43.934  28.711  33.146  1.00  0.00     0.049 A 
ATOM     70  H   UNL A   1      44.258  26.645  32.890  1.00  0.00     0.167 HD
ATOM     71  C   UNL A   1      41.593  29.343  33.369  1.00  0.00     0.074 A 
ATOM     72  C   UNL A   1      40.188  29.435  33.738  1.00  0.00     0.031 C 
ATOM     73  C   UNL A   1      42.646  28.601  33.844  1.00  0.00     0.034 A 
BRANCH  60  74
ATOM     74  C   UNL A   1      48.093  26.686  31.399  1.00  0.00     0.023 A 
ATOM     75  C   UNL A   1      48.801  27.711  30.739  1.00  0.00     0.012 A 
ATOM     76  C   UNL A   1      48.906  25.742  32.092  1.00  0.00     0.148 A 
ATOM     77  C   UNL A   1      50.203  27.762  30.709  1.00  0.00     0.002 A 
ATOM     78  C   UNL A   1      50.300  25.739  31.990  1.00  0.00     0.091 A 
ATOM     79  F   UNL A   1      48.364  24.904  32.979  1.00  0.00    -0.205 F 
ATOM     80  C   UNL A   1      50.956  26.760  31.306  1.00  0.00     0.022 A 
BRANCH  78  81
ATOM     81  S   UNL A   1      51.325  24.455  32.743  1.00  0.00     0.127 S 
ATOM     82  O   UNL A   1      50.727  23.228  32.214  1.00  0.00    -0.237 OA
ATOM     83  O   UNL A   1      52.652  24.762  32.213  1.00  0.00    -0.237 OA
ATOM     84  O   UNL A   1      51.179  24.610  34.186  1.00  0.00    -0.744 OA
ENDBRANCH  78  81
ENDBRANCH  60  74
BRANCH  61  85
ATOM     85  C   UNL A   1      38.892  30.524  29.504  1.00  0.00     0.023 A 
ATOM     86  C   UNL A   1      38.198  29.288  29.572  1.00  0.00     0.012 A 
ATOM     87  C   UNL A   1      38.163  31.687  29.202  1.00  0.00     0.148 A 
ATOM     88  C   UNL A   1      36.805  29.235  29.516  1.00  0.00     0.002 A 
ATOM     89  C   UNL A   1      36.767  31.628  29.164  1.00  0.00     0.091 A 
ATOM     90  F   UNL A   1      38.828  32.848  29.124  1.00  0.00    -0.205 F 
ATOM     91  C   UNL A   1      36.091  30.413  29.361  1.00  0.00     0.022 A 
BRANCH  89  92
ATOM     92  S   UNL A   1      35.728  33.093  29.131  1.00  0.00     0.127 S 
ATOM     93  O   UNL A   1      34.458  32.590  29.637  1.00  0.00    -0.237 OA
ATOM     94  O   UNL A   1      36.441  33.974  30.055  1.00  0.00    -0.237 OA
ATOM     95  O   UNL A   1      35.735  33.525  27.742  1.00  0.00    -0.744 OA
ENDBRANCH  89  92
ENDBRANCH  61  85
BRANCH  73  96
ATOM     96  C   UNL A   1      42.542  27.631  35.007  1.00  0.00     0.023 A 
ATOM     97  C   UNL A   1      41.772  26.455  34.949  1.00  0.00     0.012 A 
ATOM     98  C   UNL A   1      43.341  27.815  36.167  1.00  0.00     0.148 A 
ATOM     99  C   UNL A   1      41.719  25.553  36.017  1.00  0.00     0.002 A 
ATOM    100  C   UNL A   1      43.383  26.852  37.170  1.00  0.00     0.091 A 
ATOM    101  F   UNL A   1      44.053  28.943  36.312  1.00  0.00    -0.205 F 
ATOM    102  C   UNL A   1      42.540  25.741  37.120  1.00  0.00     0.022 A 
BRANCH 100 103
ATOM    103  S   UNL A   1      44.618  26.923  38.475  1.00  0.00     0.127 S 
ATOM    104  O   UNL A   1      45.690  26.100  37.922  1.00  0.00    -0.237 OA
ATOM    105  O   UNL A   1      44.921  28.355  38.543  1.00  0.00    -0.237 OA
ATOM    106  O   UNL A   1      43.949  26.401  39.658  1.00  0.00    -0.744 OA
ENDBRANCH 100 103
ENDBRANCH  73  96
ENDBRANCH  47  48
ENDBRANCH  40  42
ENDBRANCH  39  40
ENDBRANCH  38  39
ENDBRANCH  37  38
ENDBRANCH  36  37
ENDBRANCH   1  36
TORSDOF 22
ENDMDL
MODEL 2
REMARK VINA RESULT:     -11.5      3.736      7.138
REMARK SMILES Cc1c(C(=O)Nc2ccc(C(=O)Nc3ccccc3C(=O)OCCOCCOC(=O)c3ccc(-c4c5nc(c(-c6cccc(S(=O)(=O)[O-])c6F)c6ccc([nH]6)c(-c6cccc(S(=O)(=O)[O-])c6F)c6nc(c(-c7cccc(S(=O)(=O)[O-])c7F)c7ccc4[nH]7)C=C6)C=C5)cc3)cc2)cccc1[N+](=O)[O-]
REMARK SMILES IDX 24 1 23 2 22 3 20 4 21 5 19 6 14 7 15 8 16 9 18 10 17 11
REMARK SMILES IDX 13 12 11 13 12 14 10 16 7 17 8 18 95 19 9 20 94 21 6 22 4 23
REMARK SMILES IDX 5 24 3 26 1 27 2 28 99 29 96 30 98 31 97 32 100 33 101 34
REMARK SMILES IDX 102 35 25 36 26 37 27 38 28 39 29 40 30 41 31 42 32 43 93 44
REMARK SMILES IDX 33 45 92 46 34 47 35 48 36 49 86 50 37 51 91 52 85 53 87 54
REMARK SMILES IDX 38 55 90 56 84 57 83 58 39 60 71 61 51 62 70 63 52 64 55 65
REMARK SMILES IDX 69 66 88 67 53 68 54 69 68 71 89 72 56 73 40 74 41 75 49 76
REMARK SMILES IDX 42 77 44 78 50 79 43 80 45 81 46 82 47 83 48 84 72 85 73 86
REMARK SMILES IDX 81 87 74 88 76 89 82 90 75 91 77 92 78 93 79 94 80 95 57 96
REMARK SMILES IDX 58 97 66 98 59 99 61 100 67 101 60 102 62 103 63 104 64 105
REMARK SMILES IDX 65 106
REMARK H PARENT 13 15 6 25 87 59 55 70
REMARK Flexibility Score: inf
ROOT
ATOM      1  C   UNL A   1      42.537  18.660  26.366  1.00  0.00     0.202 C 
ENDROOT
BRANCH   1   2
ATOM      2  C   UNL A   1      41.659  19.884  26.097  1.00  0.00     0.261 C 
BRANCH   2   3
ATOM      3  O   UNL A   1      40.358  20.004  26.684  1.00  0.00    -0.460 OA
BRANCH   3   4
ATOM      4  C   UNL A   1      39.373  20.082  25.754  1.00  0.00     0.340 C 
ATOM      5  O   UNL A   1      39.021  19.227  24.985  1.00  0.00    -0.246 OA
BRANCH   4   6
ATOM      6  C   UNL A   1      38.620  21.343  25.866  1.00  0.00     0.083 A 
ATOM      7  C   UNL A   1      37.316  21.328  25.360  1.00  0.00     0.056 A 
ATOM      8  C   UNL A   1      36.632  22.523  25.138  1.00  0.00     0.027 A 
ATOM      9  C   UNL A   1      37.203  23.729  25.533  1.00  0.00     0.002 A 
ATOM     10  C   UNL A   1      39.171  22.544  26.330  1.00  0.00     0.018 A 
ATOM     11  C   UNL A   1      38.447  23.737  26.172  1.00  0.00     0.001 A 
BRANCH   7  12
ATOM     12  N   UNL A   1      36.605  20.139  25.176  1.00  0.00    -0.321 N 
ATOM     13  C   UNL A   1      35.241  19.992  24.963  1.00  0.00     0.255 C 
ATOM     14  O   UNL A   1      34.811  18.904  24.580  1.00  0.00    -0.269 OA
ATOM     15  H   UNL A   1      37.133  19.308  25.199  1.00  0.00     0.170 HD
BRANCH  13  16
ATOM     16  C   UNL A   1      34.242  21.056  25.356  1.00  0.00     0.040 A 
ATOM     17  C   UNL A   1      31.910  22.515  26.038  1.00  0.00     0.041 A 
ATOM     18  C   UNL A   1      32.863  22.212  27.006  1.00  0.00     0.027 A 
ATOM     19  C   UNL A   1      32.137  22.133  24.716  1.00  0.00     0.027 A 
ATOM     20  C   UNL A   1      34.036  21.537  26.652  1.00  0.00     0.016 A 
ATOM     21  C   UNL A   1      33.307  21.428  24.373  1.00  0.00     0.016 A 
BRANCH  17  22
ATOM     22  N   UNL A   1      30.771  23.281  26.335  1.00  0.00    -0.322 N 
ATOM     23  C   UNL A   1      30.621  24.646  26.147  1.00  0.00     0.256 C 
ATOM     24  O   UNL A   1      29.626  25.240  26.552  1.00  0.00    -0.269 OA
ATOM     25  H   UNL A   1      30.002  22.799  26.717  1.00  0.00     0.170 HD
BRANCH  23  26
ATOM     26  C   UNL A   1      31.688  25.407  25.422  1.00  0.00     0.049 A 
ATOM     27  C   UNL A   1      30.470  25.485  23.185  1.00  0.00     0.053 C 
ATOM     28  C   UNL A   1      31.728  25.523  24.014  1.00  0.00     0.039 A 
ATOM     29  C   UNL A   1      33.003  25.685  23.440  1.00  0.00     0.273 A 
ATOM     30  C   UNL A   1      32.771  25.830  26.206  1.00  0.00     0.014 A 
ATOM     31  C   UNL A   1      34.106  26.062  24.223  1.00  0.00     0.086 A 
ATOM     32  C   UNL A   1      33.962  26.218  25.599  1.00  0.00     0.008 A 
BRANCH  29  33
ATOM     33  N   UNL A   1      33.286  25.236  22.067  1.00  0.00     0.063 N 
ATOM     34  O   UNL A   1      33.436  24.014  21.900  1.00  0.00    -0.258 OA
ATOM     35  O   UNL A   1      33.356  26.080  21.167  1.00  0.00    -0.258 OA
ENDBRANCH  29  33
ENDBRANCH  23  26
ENDBRANCH  17  22
ENDBRANCH  13  16
ENDBRANCH   7  12
ENDBRANCH   4   6
ENDBRANCH   3   4
ENDBRANCH   2   3
ENDBRANCH   1   2
BRANCH   1  36
ATOM     36  O   UNL A   1      43.360  18.215  25.346  1.00  0.00    -0.374 OA
BRANCH  36  37
ATOM     37  C   UNL A   1      44.580  18.908  25.341  1.00  0.00     0.202 C 
BRANCH  37  38
ATOM     38  C   UNL A   1      45.003  20.051  24.366  1.00  0.00     0.261 C 
BRANCH  38  39
ATOM     39  O   UNL A   1      44.096  21.150  24.150  1.00  0.00    -0.460 OA
BRANCH  39  40
ATOM     40  C   UNL A   1      44.558  22.442  24.208  1.00  0.00     0.338 C 
ATOM     41  O   UNL A   1      45.389  22.935  23.471  1.00  0.00    -0.246 OA
BRANCH  40  42
ATOM     42  C   UNL A   1      43.629  23.198  25.124  1.00  0.00     0.060 A 
ATOM     43  C   UNL A   1      43.574  24.580  25.094  1.00  0.00     0.016 A 
ATOM     44  C   UNL A   1      43.278  22.584  26.315  1.00  0.00     0.016 A 
ATOM     45  C   UNL A   1      43.720  25.316  26.272  1.00  0.00     0.010 A 
ATOM     46  C   UNL A   1      43.422  23.318  27.497  1.00  0.00     0.010 A 
ATOM     47  C   UNL A   1      43.923  24.632  27.456  1.00  0.00    -0.014 A 
BRANCH  47  48
ATOM     48  C   UNL A   1      44.925  25.101  28.465  1.00  0.00     0.031 A 
ATOM     49  C   UNL A   1      44.626  24.997  29.908  1.00  0.00     0.074 A 
ATOM     50  C   UNL A   1      46.249  25.288  28.185  1.00  0.00     0.049 A 
ATOM     51  N   UNL A   1      44.540  25.985  30.739  1.00  0.00    -0.248 NA
ATOM     52  C   UNL A   1      44.394  23.695  30.517  1.00  0.00     0.031 C 
ATOM     53  C   UNL A   1      47.336  25.309  29.171  1.00  0.00     0.029 A 
ATOM     54  N   UNL A   1      46.937  25.372  26.975  1.00  0.00    -0.354 N 
ATOM     55  C   UNL A   1      44.455  25.385  31.989  1.00  0.00     0.074 A 
ATOM     56  C   UNL A   1      44.040  24.025  31.748  1.00  0.00     0.031 C 
ATOM     57  C   UNL A   1      48.501  25.567  28.559  1.00  0.00     0.029 A 
ATOM     58  C   UNL A   1      48.223  25.876  27.173  1.00  0.00     0.049 A 
ATOM     59  H   UNL A   1      46.567  25.109  26.101  1.00  0.00     0.167 HD
ATOM     60  C   UNL A   1      45.243  25.757  33.040  1.00  0.00     0.034 A 
ATOM     61  C   UNL A   1      48.727  26.950  26.504  1.00  0.00     0.034 A 
ATOM     62  C   UNL A   1      46.405  26.562  32.590  1.00  0.00     0.049 A 
ATOM     63  C   UNL A   1      48.642  28.169  27.407  1.00  0.00     0.074 A 
ATOM     64  C   UNL A   1      47.774  26.337  32.610  1.00  0.00     0.029 A 
ATOM     65  N   UNL A   1      46.228  27.687  31.790  1.00  0.00    -0.354 N 
ATOM     66  N   UNL A   1      48.608  28.101  28.714  1.00  0.00    -0.248 NA
ATOM     67  C   UNL A   1      48.515  29.547  26.938  1.00  0.00     0.031 C 
ATOM     68  C   UNL A   1      48.406  27.315  31.784  1.00  0.00     0.029 A 
ATOM     69  C   UNL A   1      47.432  28.153  31.267  1.00  0.00     0.049 A 
ATOM     70  H   UNL A   1      45.354  28.106  31.615  1.00  0.00     0.167 HD
ATOM     71  C   UNL A   1      48.084  29.267  29.203  1.00  0.00     0.074 A 
ATOM     72  C   UNL A   1      48.233  30.190  28.087  1.00  0.00     0.031 C 
ATOM     73  C   UNL A   1      47.441  29.348  30.413  1.00  0.00     0.034 A 
BRANCH  60  74
ATOM     74  C   UNL A   1      45.151  25.114  34.432  1.00  0.00     0.023 A 
ATOM     75  C   UNL A   1      44.393  25.802  35.401  1.00  0.00     0.012 A 
ATOM     76  C   UNL A   1      45.643  23.840  34.843  1.00  0.00     0.148 A 
ATOM     77  C   UNL A   1      44.194  25.302  36.697  1.00  0.00     0.002 A 
ATOM     78  C   UNL A   1      45.521  23.382  36.158  1.00  0.00     0.091 A 
ATOM     79  F   UNL A   1      46.122  22.976  33.944  1.00  0.00    -0.205 F 
ATOM     80  C   UNL A   1      44.783  24.108  37.089  1.00  0.00     0.022 A 
BRANCH  78  81
ATOM     81  S   UNL A   1      46.274  21.837  36.719  1.00  0.00     0.127 S 
ATOM     82  O   UNL A   1      45.569  20.836  35.917  1.00  0.00    -0.237 OA
ATOM     83  O   UNL A   1      47.678  22.024  36.360  1.00  0.00    -0.237 OA
ATOM     84  O   UNL A   1      46.002  21.747  38.150  1.00  0.00    -0.744 OA
ENDBRANCH  78  81
ENDBRANCH  60  74
BRANCH  61  85
ATOM     85  C   UNL A   1      48.560  26.825  25.028  1.00  0.00     0.023 A 
ATOM     86  C   UNL A   1      47.287  27.229  24.549  1.00  0.00     0.012 A 
ATOM     87  C   UNL A   1      49.648  26.841  24.137  1.00  0.00     0.148 A 
ATOM     88  C   UNL A   1      47.134  27.796  23.284  1.00  0.00     0.002 A 
ATOM     89  C   UNL A   1      49.490  27.425  22.877  1.00  0.00     0.091 A 
ATOM     90  F   UNL A   1      50.843  26.442  24.591  1.00  0.00    -0.205 F 
ATOM     91  C   UNL A   1      48.248  27.937  22.469  1.00  0.00     0.022 A 
BRANCH  89  92
ATOM     92  S   UNL A   1      50.874  27.811  21.800  1.00  0.00     0.127 S 
ATOM     93  O   UNL A   1      50.271  28.701  20.817  1.00  0.00    -0.237 OA
ATOM     94  O   UNL A   1      51.791  28.468  22.729  1.00  0.00    -0.237 OA
ATOM     95  O   UNL A   1      51.329  26.522  21.299  1.00  0.00    -0.744 OA
ENDBRANCH  89  92
ENDBRANCH  61  85
BRANCH  73  96
ATOM     96  C   UNL A   1      46.688  30.577  30.893  1.00  0.00     0.023 A 
ATOM     97  C   UNL A   1      47.208  31.457  31.859  1.00  0.00     0.012 A 
ATOM     98  C   UNL A   1      45.469  30.957  30.271  1.00  0.00     0.148 A 
ATOM     99  C   UNL A   1      46.517  32.605  32.260  1.00  0.00     0.002 A 
ATOM    100  C   UNL A   1      44.851  32.164  30.582  1.00  0.00     0.091 A 
ATOM    101  F   UNL A   1      44.890  30.134  29.383  1.00  0.00    -0.205 F 
ATOM    102  C   UNL A   1      45.348  32.970  31.607  1.00  0.00     0.022 A 
BRANCH 100 103
ATOM    103  S   UNL A   1      43.496  32.798  29.584  1.00  0.00     0.127 S 
ATOM    104  O   UNL A   1      43.635  34.240  29.766  1.00  0.00    -0.237 OA
ATOM    105  O   UNL A   1      43.841  32.316  28.244  1.00  0.00    -0.237 OA
ATOM    106  O   UNL A   1      42.298  32.189  30.144  1.00  0.00    -0.744 OA
ENDBRANCH 100 103
ENDBRANCH  73  96
ENDBRANCH  47  48
ENDBRANCH  40  42
ENDBRANCH  39  40
ENDBRANCH  38  39
ENDBRANCH  37  38
ENDBRANCH  36  37
ENDBRANCH   1  36
TORSDOF 22
ENDMDL
MODEL 3
REMARK VINA RESULT:     -11.5      4.958     11.438
REMARK SMILES Cc1c(C(=O)Nc2ccc(C(=O)Nc3ccccc3C(=O)OCCOCCOC(=O)c3ccc(-c4c5nc(c(-c6cccc(S(=O)(=O)[O-])c6F)c6ccc([nH]6)c(-c6cccc(S(=O)(=O)[O-])c6F)c6nc(c(-c7cccc(S(=O)(=O)[O-])c7F)c7ccc4[nH]7)C=C6)C=C5)cc3)cc2)cccc1[N+](=O)[O-]
REMARK SMILES IDX 24 1 23 2 22 3 20 4 21 5 19 6 14 7 15 8 16 9 18 10 17 11
REMARK SMILES IDX 13 12 11 13 12 14 10 16 7 17 8 18 95 19 9 20 94 21 6 22 4 23
REMARK SMILES IDX 5 24 3 26 1 27 2 28 99 29 96 30 98 31 97 32 100 33 101 34
REMARK SMILES IDX 102 35 25 36 26 37 27 38 28 39 29 40 30 41 31 42 32 43 93 44
REMARK SMILES IDX 33 45 92 46 34 47 35 48 36 49 86 50 37 51 91 52 85 53 87 54
REMARK SMILES IDX 38 55 90 56 84 57 83 58 39 60 71 61 51 62 70 63 52 64 55 65
REMARK SMILES IDX 69 66 88 67 53 68 54 69 68 71 89 72 56 73 40 74 41 75 49 76
REMARK SMILES IDX 42 77 44 78 50 79 43 80 45 81 46 82 47 83 48 84 72 85 73 86
REMARK SMILES IDX 81 87 74 88 76 89 82 90 75 91 77 92 78 93 79 94 80 95 57 96
REMARK SMILES IDX 58 97 66 98 59 99 61 100 67 101 60 102 62 103 63 104 64 105
REMARK SMILES IDX 65 106
REMARK H PARENT 13 15 6 25 87 59 55 70
REMARK Flexibility Score: inf
ROOT
ATOM      1  C   UNL A   1      46.070  30.296  37.081  1.00  0.00     0.202 C 
ENDROOT
BRANCH   1   2
ATOM      2  C   UNL A   1      45.204  29.342  37.906  1.00  0.00     0.261 C 
BRANCH   2   3
ATOM      3  O   UNL A   1      44.191  28.540  37.287  1.00  0.00    -0.460 OA
BRANCH   3   4
ATOM      4  C   UNL A   1      44.638  27.304  36.953  1.00  0.00     0.340 C 
ATOM      5  O   UNL A   1      45.743  26.855  37.115  1.00  0.00    -0.246 OA
BRANCH   4   6
ATOM      6  C   UNL A   1      43.545  26.442  36.473  1.00  0.00     0.083 A 
ATOM      7  C   UNL A   1      42.856  26.893  35.343  1.00  0.00     0.056 A 
ATOM      8  C   UNL A   1      41.632  26.327  34.990  1.00  0.00     0.027 A 
ATOM      9  C   UNL A   1      41.150  25.228  35.695  1.00  0.00     0.002 A 
ATOM     10  C   UNL A   1      43.103  25.293  37.143  1.00  0.00     0.018 A 
ATOM     11  C   UNL A   1      41.906  24.682  36.737  1.00  0.00     0.001 A 
BRANCH   7  12
ATOM     12  N   UNL A   1      43.408  27.826  34.460  1.00  0.00    -0.321 N 
ATOM     13  C   UNL A   1      42.907  29.076  34.125  1.00  0.00     0.255 C 
ATOM     14  O   UNL A   1      43.633  29.868  33.523  1.00  0.00    -0.269 OA
ATOM     15  H   UNL A   1      44.253  27.565  34.025  1.00  0.00     0.170 HD
BRANCH  13  16
ATOM     16  C   UNL A   1      41.451  29.438  34.306  1.00  0.00     0.040 A 
ATOM     17  C   UNL A   1      38.980  30.774  34.680  1.00  0.00     0.041 A 
ATOM     18  C   UNL A   1      39.301  30.214  33.447  1.00  0.00     0.027 A 
ATOM     19  C   UNL A   1      39.868  30.630  35.746  1.00  0.00     0.027 A 
ATOM     20  C   UNL A   1      40.500  29.511  33.285  1.00  0.00     0.016 A 
ATOM     21  C   UNL A   1      41.085  29.946  35.565  1.00  0.00     0.016 A 
BRANCH  17  22
ATOM     22  N   UNL A   1      37.741  31.396  34.910  1.00  0.00    -0.322 N 
ATOM     23  C   UNL A   1      37.444  32.737  34.726  1.00  0.00     0.256 C 
ATOM     24  O   UNL A   1      36.361  33.203  35.070  1.00  0.00    -0.269 OA
ATOM     25  H   UNL A   1      37.012  30.821  35.235  1.00  0.00     0.170 HD
BRANCH  23  26
ATOM     26  C   UNL A   1      38.458  33.631  34.081  1.00  0.00     0.049 A 
ATOM     27  C   UNL A   1      37.312  33.716  31.806  1.00  0.00     0.053 C 
ATOM     28  C   UNL A   1      38.533  33.825  32.683  1.00  0.00     0.039 A 
ATOM     29  C   UNL A   1      39.805  34.135  32.166  1.00  0.00     0.273 A 
ATOM     30  C   UNL A   1      39.470  34.109  34.925  1.00  0.00     0.014 A 
ATOM     31  C   UNL A   1      40.841  34.570  33.008  1.00  0.00     0.086 A 
ATOM     32  C   UNL A   1      40.638  34.638  34.384  1.00  0.00     0.008 A 
BRANCH  29  33
ATOM     33  N   UNL A   1      40.174  33.788  30.784  1.00  0.00     0.063 N 
ATOM     34  O   UNL A   1      40.423  32.592  30.557  1.00  0.00    -0.258 OA
ATOM     35  O   UNL A   1      40.214  34.685  29.935  1.00  0.00    -0.258 OA
ENDBRANCH  29  33
ENDBRANCH  23  26
ENDBRANCH  17  22
ENDBRANCH  13  16
ENDBRANCH   7  12
ENDBRANCH   4   6
ENDBRANCH   3   4
ENDBRANCH   2   3
ENDBRANCH   1   2
BRANCH   1  36
ATOM     36  O   UNL A   1      45.774  30.442  35.736  1.00  0.00    -0.374 OA
BRANCH  36  37
ATOM     37  C   UNL A   1      46.923  30.287  34.946  1.00  0.00     0.202 C 
BRANCH  37  38
ATOM     38  C   UNL A   1      47.119  29.283  33.767  1.00  0.00     0.261 C 
BRANCH  38  39
ATOM     39  O   UNL A   1      46.611  27.942  33.905  1.00  0.00    -0.460 OA
BRANCH  39  40
ATOM     40  C   UNL A   1      47.478  26.897  34.110  1.00  0.00     0.338 C 
ATOM     41  O   UNL A   1      48.237  26.776  35.052  1.00  0.00    -0.246 OA
BRANCH  40  42
ATOM     42  C   UNL A   1      47.087  25.808  33.144  1.00  0.00     0.060 A 
ATOM     43  C   UNL A   1      47.767  25.643  31.950  1.00  0.00     0.016 A 
ATOM     44  C   UNL A   1      45.773  25.372  33.180  1.00  0.00     0.016 A 
ATOM     45  C   UNL A   1      47.067  25.588  30.743  1.00  0.00     0.010 A 
ATOM     46  C   UNL A   1      45.068  25.315  31.973  1.00  0.00     0.010 A 
ATOM     47  C   UNL A   1      45.690  25.706  30.774  1.00  0.00    -0.014 A 
BRANCH  47  48
ATOM     48  C   UNL A   1      44.957  26.541  29.769  1.00  0.00     0.031 A 
ATOM     49  C   UNL A   1      44.953  28.013  29.893  1.00  0.00     0.074 A 
ATOM     50  C   UNL A   1      44.588  26.088  28.535  1.00  0.00     0.049 A 
ATOM     51  N   UNL A   1      43.909  28.758  30.063  1.00  0.00    -0.248 NA
ATOM     52  C   UNL A   1      46.202  28.758  29.829  1.00  0.00     0.031 C 
ATOM     53  C   UNL A   1      44.282  26.929  27.371  1.00  0.00     0.029 A 
ATOM     54  N   UNL A   1      44.523  24.801  28.002  1.00  0.00    -0.354 N 
ATOM     55  C   UNL A   1      44.377  30.057  29.911  1.00  0.00     0.074 A 
ATOM     56  C   UNL A   1      45.804  29.990  30.105  1.00  0.00     0.031 C 
ATOM     57  C   UNL A   1      43.905  26.160  26.340  1.00  0.00     0.029 A 
ATOM     58  C   UNL A   1      43.796  24.796  26.810  1.00  0.00     0.049 A 
ATOM     59  H   UNL A   1      44.935  24.004  28.410  1.00  0.00     0.167 HD
ATOM     60  C   UNL A   1      43.770  30.968  29.095  1.00  0.00     0.034 A 
ATOM     61  C   UNL A   1      42.733  23.978  26.575  1.00  0.00     0.034 A 
ATOM     62  C   UNL A   1      42.838  30.312  28.145  1.00  0.00     0.049 A 
ATOM     63  C   UNL A   1      41.454  24.774  26.777  1.00  0.00     0.074 A 
ATOM     64  C   UNL A   1      42.833  30.185  26.763  1.00  0.00     0.029 A 
ATOM     65  N   UNL A   1      41.850  29.443  28.599  1.00  0.00    -0.354 N 
ATOM     66  N   UNL A   1      41.386  26.076  26.662  1.00  0.00    -0.248 NA
ATOM     67  C   UNL A   1      40.174  24.205  27.191  1.00  0.00     0.031 C 
ATOM     68  C   UNL A   1      41.860  29.205  26.402  1.00  0.00     0.029 A 
ATOM     69  C   UNL A   1      41.253  28.739  27.556  1.00  0.00     0.049 A 
ATOM     70  H   UNL A   1      41.602  29.338  29.545  1.00  0.00     0.167 HD
ATOM     71  C   UNL A   1      40.276  26.520  27.328  1.00  0.00     0.074 A 
ATOM     72  C   UNL A   1      39.467  25.317  27.460  1.00  0.00     0.031 C 
ATOM     73  C   UNL A   1      40.172  27.788  27.845  1.00  0.00     0.034 A 
BRANCH  60  74
ATOM     74  C   UNL A   1      44.266  32.412  28.927  1.00  0.00     0.023 A 
ATOM     75  C   UNL A   1      43.769  33.365  29.839  1.00  0.00     0.012 A 
ATOM     76  C   UNL A   1      45.263  32.898  28.031  1.00  0.00     0.148 A 
ATOM     77  C   UNL A   1      44.175  34.708  29.823  1.00  0.00     0.002 A 
ATOM     78  C   UNL A   1      45.603  34.252  27.954  1.00  0.00     0.091 A 
ATOM     79  F   UNL A   1      46.009  32.047  27.321  1.00  0.00    -0.205 F 
ATOM     80  C   UNL A   1      45.067  35.162  28.862  1.00  0.00     0.022 A 
BRANCH  78  81
ATOM     81  S   UNL A   1      46.754  34.894  26.717  1.00  0.00     0.127 S 
ATOM     82  O   UNL A   1      48.054  34.530  27.283  1.00  0.00    -0.237 OA
ATOM     83  O   UNL A   1      46.380  34.142  25.521  1.00  0.00    -0.237 OA
ATOM     84  O   UNL A   1      46.520  36.332  26.649  1.00  0.00    -0.744 OA
ENDBRANCH  78  81
ENDBRANCH  60  74
BRANCH  61  85
ATOM     85  C   UNL A   1      43.042  22.550  26.871  1.00  0.00     0.023 A 
ATOM     86  C   UNL A   1      41.999  21.853  27.533  1.00  0.00     0.012 A 
ATOM     87  C   UNL A   1      43.981  21.809  26.132  1.00  0.00     0.148 A 
ATOM     88  C   UNL A   1      41.792  20.489  27.325  1.00  0.00     0.002 A 
ATOM     89  C   UNL A   1      43.757  20.446  25.916  1.00  0.00     0.091 A 
ATOM     90  F   UNL A   1      44.973  22.472  25.523  1.00  0.00    -0.205 F 
ATOM     91  C   UNL A   1      42.645  19.800  26.478  1.00  0.00     0.022 A 
BRANCH  89  92
ATOM     92  S   UNL A   1      44.688  19.482  24.720  1.00  0.00     0.127 S 
ATOM     93  O   UNL A   1      44.042  18.178  24.795  1.00  0.00    -0.237 OA
ATOM     94  O   UNL A   1      44.423  20.219  23.485  1.00  0.00    -0.237 OA
ATOM     95  O   UNL A   1      46.066  19.539  25.184  1.00  0.00    -0.744 OA
ENDBRANCH  89  92
ENDBRANCH  61  85
BRANCH  73  96
ATOM     96  C   UNL A   1      39.038  28.245  28.748  1.00  0.00     0.023 A 
ATOM     97  C   UNL A   1      38.896  27.798  30.074  1.00  0.00     0.012 A 
ATOM     98  C   UNL A   1      38.144  29.260  28.316  1.00  0.00     0.148 A 
ATOM     99  C   UNL A   1      37.868  28.260  30.902  1.00  0.00     0.002 A 
ATOM    100  C   UNL A   1      37.206  29.807  29.184  1.00  0.00     0.091 A 
ATOM    101  F   UNL A   1      38.188  29.688  27.045  1.00  0.00    -0.205 F 
ATOM    102  C   UNL A   1      37.035  29.279  30.465  1.00  0.00     0.022 A 
BRANCH 100 103
ATOM    103  S   UNL A   1      36.295  31.296  28.750  1.00  0.00     0.127 S 
ATOM    104  O   UNL A   1      35.563  30.867  27.562  1.00  0.00    -0.237 OA
ATOM    105  O   UNL A   1      35.463  31.512  29.936  1.00  0.00    -0.237 OA
ATOM    106  O   UNL A   1      37.314  32.316  28.546  1.00  0.00    -0.744 OA
ENDBRANCH 100 103
ENDBRANCH  73  96
ENDBRANCH  47  48
ENDBRANCH  40  42
ENDBRANCH  39  40
ENDBRANCH  38  39
ENDBRANCH  37  38
ENDBRANCH  36  37
ENDBRANCH   1  36
TORSDOF 22
ENDMDL
