MODEL 1
REMARK VINA RESULT:     -13.2      0.000      0.000
REMARK SMILES O=C(OCCOCCOC(=O)c1ccccc1C(=O)Nc1ccc(N2C(=O)[C@H]3[C@@H]4CC[C@@H](C4)[C@@H]3C2=O)cc1)c1ccc(-c2c3nc(c(-c4cccc(S(=O)(=O)[O-])c4F)c4ccc([nH]4)c(-c4cccc(S(=O)(=O)[O-])c4F)c4nc(c(-c5cccc(S(=O)(=O)[O-])c5F)c5ccc2[nH]5)C=C4)C=C3)cc1
REMARK SMILES IDX 6 1 5 2 4 3 3 4 2 5 1 6 39 7 40 8 101 9 41 10 100 11 42 12
REMARK SMILES IDX 43 13 44 14 94 15 45 16 99 17 93 18 95 19 46 20 98 21 92 22
REMARK SMILES IDX 91 23 47 25 79 26 59 27 78 28 60 29 63 30 77 31 96 32 61 33
REMARK SMILES IDX 62 34 76 36 97 37 64 38 48 39 49 40 57 41 50 42 52 43 58 44
REMARK SMILES IDX 51 45 53 46 54 47 55 48 56 49 80 50 81 51 89 52 82 53 84 54
REMARK SMILES IDX 90 55 83 56 85 57 86 58 87 59 88 60 65 61 66 62 74 63 67 64
REMARK SMILES IDX 69 65 75 66 68 67 70 68 71 69 72 70 73 71 7 72 8 73 9 74
REMARK SMILES IDX 10 75 11 76 12 77 13 78 17 79 14 80 16 81 15 82 18 83 19 84
REMARK SMILES IDX 20 85 21 87 22 88 38 89 23 90 37 91 24 92 25 93 26 94 35 95
REMARK SMILES IDX 27 96 28 97 34 98 36 99 29 100 32 101 30 102 33 103 31 104
REMARK H PARENT 95 24 63 35 20 86
REMARK Flexibility Score: inf
ROOT
ATOM      1  O   UNL A   1      32.940  31.679  27.304  1.00  0.00    -0.374 OA
ENDROOT
BRANCH   1   2
ATOM      2  C   UNL A   1      34.604  31.584  27.865  1.00  0.00     0.202 C 
BRANCH   2   3
ATOM      3  C   UNL A   1      35.645  30.168  28.516  1.00  0.00     0.261 C 
BRANCH   3   4
ATOM      4  O   UNL A   1      37.123  30.128  29.478  1.00  0.00    -0.460 OA
BRANCH   4   5
ATOM      5  C   UNL A   1      38.176  30.668  30.298  1.00  0.00     0.338 C 
ATOM      6  O   UNL A   1      38.566  31.812  30.043  1.00  0.00    -0.246 OA
BRANCH   5   7
ATOM      7  C   UNL A   1      39.006  29.976  31.475  1.00  0.00     0.060 A 
ATOM      8  C   UNL A   1      39.918  30.637  32.281  1.00  0.00     0.016 A 
ATOM      9  C   UNL A   1      38.876  28.645  31.879  1.00  0.00     0.016 A 
ATOM     10  C   UNL A   1      41.001  29.980  32.897  1.00  0.00     0.010 A 
ATOM     11  C   UNL A   1      39.882  28.002  32.714  1.00  0.00     0.010 A 
ATOM     12  C   UNL A   1      41.116  28.605  33.031  1.00  0.00    -0.014 A 
BRANCH  12  13
ATOM     13  C   UNL A   1      42.510  27.929  33.312  1.00  0.00     0.031 A 
ATOM     14  C   UNL A   1      43.466  27.503  32.164  1.00  0.00     0.074 A 
ATOM     15  C   UNL A   1      43.102  27.873  34.549  1.00  0.00     0.049 A 
ATOM     16  N   UNL A   1      44.755  27.203  32.206  1.00  0.00    -0.248 NA
ATOM     17  C   UNL A   1      42.941  27.440  30.797  1.00  0.00     0.031 C 
ATOM     18  C   UNL A   1      42.500  28.243  35.833  1.00  0.00     0.029 A 
ATOM     19  N   UNL A   1      44.392  27.506  34.942  1.00  0.00    -0.354 N 
ATOM     20  C   UNL A   1      45.172  27.005  30.889  1.00  0.00     0.074 A 
ATOM     21  C   UNL A   1      44.012  27.179  30.064  1.00  0.00     0.031 C 
ATOM     22  C   UNL A   1      43.419  28.241  36.806  1.00  0.00     0.029 A 
ATOM     23  C   UNL A   1      44.619  27.596  36.305  1.00  0.00     0.049 A 
ATOM     24  H   UNL A   1      45.080  27.209  34.305  1.00  0.00     0.167 HD
ATOM     25  C   UNL A   1      46.380  26.685  30.360  1.00  0.00     0.034 A 
ATOM     26  C   UNL A   1      45.583  27.107  37.124  1.00  0.00     0.034 A 
ATOM     27  C   UNL A   1      47.509  26.224  31.107  1.00  0.00     0.049 A 
ATOM     28  C   UNL A   1      46.731  26.342  36.536  1.00  0.00     0.074 A 
ATOM     29  C   UNL A   1      48.687  25.675  30.627  1.00  0.00     0.029 A 
ATOM     30  N   UNL A   1      47.548  26.124  32.482  1.00  0.00    -0.354 N 
ATOM     31  N   UNL A   1      47.123  26.283  35.291  1.00  0.00    -0.248 NA
ATOM     32  C   UNL A   1      47.553  25.542  37.461  1.00  0.00     0.031 C 
ATOM     33  C   UNL A   1      49.376  25.119  31.710  1.00  0.00     0.029 A 
ATOM     34  C   UNL A   1      48.664  25.401  32.862  1.00  0.00     0.049 A 
ATOM     35  H   UNL A   1      46.885  26.510  33.099  1.00  0.00     0.167 HD
ATOM     36  C   UNL A   1      48.221  25.434  35.279  1.00  0.00     0.074 A 
ATOM     37  C   UNL A   1      48.469  25.036  36.647  1.00  0.00     0.031 C 
ATOM     38  C   UNL A   1      48.937  25.004  34.215  1.00  0.00     0.034 A 
BRANCH  25  39
ATOM     39  C   UNL A   1      46.503  26.661  28.856  1.00  0.00     0.023 A 
ATOM     40  C   UNL A   1      46.510  25.435  28.162  1.00  0.00     0.012 A 
ATOM     41  C   UNL A   1      46.557  27.869  28.136  1.00  0.00     0.148 A 
ATOM     42  C   UNL A   1      46.579  25.416  26.768  1.00  0.00     0.002 A 
ATOM     43  C   UNL A   1      46.617  27.842  26.750  1.00  0.00     0.091 A 
ATOM     44  F   UNL A   1      46.562  29.016  28.828  1.00  0.00    -0.205 F 
ATOM     45  C   UNL A   1      46.629  26.617  26.062  1.00  0.00     0.022 A 
BRANCH  43  46
ATOM     46  S   UNL A   1      46.687  29.336  25.759  1.00  0.00     0.127 S 
ATOM     47  O   UNL A   1      46.742  28.788  24.404  1.00  0.00    -0.237 OA
ATOM     48  O   UNL A   1      45.426  29.990  26.105  1.00  0.00    -0.237 OA
ATOM     49  O   UNL A   1      47.888  30.045  26.180  1.00  0.00    -0.744 OA
ENDBRANCH  43  46
ENDBRANCH  25  39
BRANCH  26  50
ATOM     50  C   UNL A   1      45.386  27.120  38.618  1.00  0.00     0.023 A 
ATOM     51  C   UNL A   1      44.678  26.100  39.283  1.00  0.00     0.012 A 
ATOM     52  C   UNL A   1      45.877  28.202  39.384  1.00  0.00     0.148 A 
ATOM     53  C   UNL A   1      44.468  26.164  40.667  1.00  0.00     0.002 A 
ATOM     54  C   UNL A   1      45.758  28.203  40.766  1.00  0.00     0.091 A 
ATOM     55  F   UNL A   1      46.461  29.226  38.746  1.00  0.00    -0.205 F 
ATOM     56  C   UNL A   1      45.030  27.200  41.413  1.00  0.00     0.022 A 
BRANCH  54  57
ATOM     57  S   UNL A   1      46.642  29.405  41.769  1.00  0.00     0.127 S 
ATOM     58  O   UNL A   1      45.552  30.209  42.311  1.00  0.00    -0.237 OA
ATOM     59  O   UNL A   1      47.326  28.552  42.743  1.00  0.00    -0.237 OA
ATOM     60  O   UNL A   1      47.545  30.080  40.845  1.00  0.00    -0.744 OA
ENDBRANCH  54  57
ENDBRANCH  26  50
BRANCH  38  61
ATOM     61  C   UNL A   1      50.058  24.036  34.455  1.00  0.00     0.023 A 
ATOM     62  C   UNL A   1      51.343  24.518  34.769  1.00  0.00     0.012 A 
ATOM     63  C   UNL A   1      49.814  22.650  34.467  1.00  0.00     0.148 A 
ATOM     64  C   UNL A   1      52.377  23.631  35.071  1.00  0.00     0.002 A 
ATOM     65  C   UNL A   1      50.832  21.777  34.823  1.00  0.00     0.091 A 
ATOM     66  F   UNL A   1      48.587  22.216  34.144  1.00  0.00    -0.205 F 
ATOM     67  C   UNL A   1      52.117  22.263  35.112  1.00  0.00     0.022 A 
BRANCH  65  68
ATOM     68  S   UNL A   1      50.557  20.013  35.010  1.00  0.00     0.127 S 
ATOM     69  O   UNL A   1      51.871  19.469  34.675  1.00  0.00    -0.237 OA
ATOM     70  O   UNL A   1      50.192  19.905  36.423  1.00  0.00    -0.237 OA
ATOM     71  O   UNL A   1      49.486  19.672  34.082  1.00  0.00    -0.744 OA
ENDBRANCH  65  68
ENDBRANCH  38  61
ENDBRANCH  12  13
ENDBRANCH   5   7
ENDBRANCH   4   5
ENDBRANCH   3   4
ENDBRANCH   2   3
ENDBRANCH   1   2
BRANCH   1  72
ATOM     72  C   UNL A   1      31.791  30.386  26.898  1.00  0.00     0.202 C 
BRANCH  72  73
ATOM     73  C   UNL A   1      31.585  29.771  25.121  1.00  0.00     0.261 C 
BRANCH  73  74
ATOM     74  O   UNL A   1      31.156  27.779  24.921  1.00  0.00    -0.460 OA
BRANCH  74  75
ATOM     75  C   UNL A   1      31.134  26.623  24.036  1.00  0.00     0.339 C 
ATOM     76  O   UNL A   1      30.110  26.022  23.660  1.00  0.00    -0.246 OA
BRANCH  75  77
ATOM     77  C   UNL A   1      32.336  25.852  23.665  1.00  0.00     0.072 A 
ATOM     78  C   UNL A   1      32.913  26.542  22.547  1.00  0.00     0.016 A 
ATOM     79  C   UNL A   1      32.126  24.465  23.547  1.00  0.00     0.054 A 
ATOM     80  C   UNL A   1      32.955  25.949  21.280  1.00  0.00     0.001 A 
ATOM     81  C   UNL A   1      32.306  23.859  22.279  1.00  0.00     0.015 A 
ATOM     82  C   UNL A   1      32.635  24.607  21.144  1.00  0.00     0.001 A 
BRANCH  79  83
ATOM     83  C   UNL A   1      31.931  23.515  24.686  1.00  0.00     0.256 C 
ATOM     84  O   UNL A   1      30.780  23.406  25.122  1.00  0.00    -0.269 OA
ATOM     85  N   UNL A   1      32.898  22.686  25.219  1.00  0.00    -0.322 N 
ATOM     86  H   UNL A   1      32.594  22.041  25.896  1.00  0.00     0.170 HD
BRANCH  85  87
ATOM     87  C   UNL A   1      34.261  22.657  24.906  1.00  0.00     0.041 A 
ATOM     88  C   UNL A   1      35.118  24.042  25.546  1.00  0.00     0.028 A 
ATOM     89  C   UNL A   1      35.045  21.093  24.709  1.00  0.00     0.028 A 
ATOM     90  C   UNL A   1      36.786  23.923  26.122  1.00  0.00     0.029 A 
ATOM     91  C   UNL A   1      36.754  20.916  25.298  1.00  0.00     0.029 A 
ATOM     92  C   UNL A   1      37.769  22.423  25.966  1.00  0.00     0.052 A 
BRANCH  92  93
ATOM     93  N   UNL A   1      39.587  22.497  26.158  1.00  0.00    -0.250 N 
ATOM     94  C   UNL A   1      40.516  21.435  26.634  1.00  0.00     0.237 C 
ATOM     95  C   UNL A   1      40.469  23.673  26.349  1.00  0.00     0.237 C 
ATOM     96  O   UNL A   1      40.585  20.238  26.419  1.00  0.00    -0.274 OA
ATOM     97  C   UNL A   1      41.555  22.133  27.522  1.00  0.00     0.095 C 
ATOM     98  C   UNL A   1      41.843  23.215  26.555  1.00  0.00     0.095 C 
ATOM     99  O   UNL A   1      40.380  24.888  26.492  1.00  0.00    -0.274 OA
ATOM    100  C   UNL A   1      42.931  22.044  28.218  1.00  0.00     0.002 C 
ATOM    101  C   UNL A   1      42.919  24.066  27.233  1.00  0.00     0.002 C 
ATOM    102  C   UNL A   1      42.825  23.039  29.422  1.00  0.00     0.005 C 
ATOM    103  C   UNL A   1      43.907  22.923  27.401  1.00  0.00     0.009 C 
ATOM    104  C   UNL A   1      42.620  24.403  28.708  1.00  0.00     0.005 C 
ENDBRANCH  92  93
ENDBRANCH  85  87
ENDBRANCH  79  83
ENDBRANCH  75  77
ENDBRANCH  74  75
ENDBRANCH  73  74
ENDBRANCH  72  73
ENDBRANCH   1  72
TORSDOF 20
ENDMDL
MODEL 2
REMARK VINA RESULT:     -13.2      7.073     13.470
REMARK SMILES O=C(OCCOCCOC(=O)c1ccccc1C(=O)Nc1ccc(N2C(=O)[C@H]3[C@@H]4CC[C@@H](C4)[C@@H]3C2=O)cc1)c1ccc(-c2c3nc(c(-c4cccc(S(=O)(=O)[O-])c4F)c4ccc([nH]4)c(-c4cccc(S(=O)(=O)[O-])c4F)c4nc(c(-c5cccc(S(=O)(=O)[O-])c5F)c5ccc2[nH]5)C=C4)C=C3)cc1
REMARK SMILES IDX 6 1 5 2 4 3 3 4 2 5 1 6 39 7 40 8 101 9 41 10 100 11 42 12
REMARK SMILES IDX 43 13 44 14 94 15 45 16 99 17 93 18 95 19 46 20 98 21 92 22
REMARK SMILES IDX 91 23 47 25 79 26 59 27 78 28 60 29 63 30 77 31 96 32 61 33
REMARK SMILES IDX 62 34 76 36 97 37 64 38 48 39 49 40 57 41 50 42 52 43 58 44
REMARK SMILES IDX 51 45 53 46 54 47 55 48 56 49 80 50 81 51 89 52 82 53 84 54
REMARK SMILES IDX 90 55 83 56 85 57 86 58 87 59 88 60 65 61 66 62 74 63 67 64
REMARK SMILES IDX 69 65 75 66 68 67 70 68 71 69 72 70 73 71 7 72 8 73 9 74
REMARK SMILES IDX 10 75 11 76 12 77 13 78 17 79 14 80 16 81 15 82 18 83 19 84
REMARK SMILES IDX 20 85 21 87 22 88 38 89 23 90 37 91 24 92 25 93 26 94 35 95
REMARK SMILES IDX 27 96 28 97 34 98 36 99 29 100 32 101 30 102 33 103 31 104
REMARK H PARENT 95 24 63 35 20 86
REMARK Flexibility Score: inf
ROOT
ATOM      1  O   UNL A   1      41.259  37.176  41.474  1.00  0.00    -0.374 OA
ENDROOT
BRANCH   1   2
ATOM      2  C   UNL A   1      41.358  35.508  42.024  1.00  0.00     0.202 C 
BRANCH   2   3
ATOM      3  C   UNL A   1      41.006  33.871  41.183  1.00  0.00     0.261 C 
BRANCH   3   4
ATOM      4  O   UNL A   1      39.531  33.181  40.504  1.00  0.00    -0.460 OA
BRANCH   4   5
ATOM      5  C   UNL A   1      38.278  33.188  39.794  1.00  0.00     0.338 C 
ATOM      6  O   UNL A   1      37.282  33.588  40.405  1.00  0.00    -0.246 OA
BRANCH   5   7
ATOM      7  C   UNL A   1      37.940  32.671  38.322  1.00  0.00     0.060 A 
ATOM      8  C   UNL A   1      37.629  31.358  38.007  1.00  0.00     0.016 A 
ATOM      9  C   UNL A   1      37.854  33.476  37.184  1.00  0.00     0.016 A 
ATOM     10  C   UNL A   1      37.871  30.805  36.735  1.00  0.00     0.010 A 
ATOM     11  C   UNL A   1      37.875  32.904  35.844  1.00  0.00     0.010 A 
ATOM     12  C   UNL A   1      38.146  31.544  35.594  1.00  0.00    -0.014 A 
BRANCH  12  13
ATOM     13  C   UNL A   1      38.833  30.880  34.342  1.00  0.00     0.031 A 
ATOM     14  C   UNL A   1      38.111  30.762  32.972  1.00  0.00     0.074 A 
ATOM     15  C   UNL A   1      40.168  30.570  34.272  1.00  0.00     0.049 A 
ATOM     16  N   UNL A   1      38.613  30.513  31.772  1.00  0.00    -0.248 NA
ATOM     17  C   UNL A   1      36.664  30.987  32.916  1.00  0.00     0.031 C 
ATOM     18  C   UNL A   1      41.145  30.618  35.364  1.00  0.00     0.029 A 
ATOM     19  N   UNL A   1      40.972  30.178  33.198  1.00  0.00    -0.354 N 
ATOM     20  C   UNL A   1      37.565  30.633  30.858  1.00  0.00     0.074 A 
ATOM     21  C   UNL A   1      36.392  30.942  31.622  1.00  0.00     0.031 C 
ATOM     22  C   UNL A   1      42.386  30.433  34.899  1.00  0.00     0.029 A 
ATOM     23  C   UNL A   1      42.301  29.968  33.527  1.00  0.00     0.049 A 
ATOM     24  H   UNL A   1      40.623  30.060  32.285  1.00  0.00     0.167 HD
ATOM     25  C   UNL A   1      37.519  30.490  29.509  1.00  0.00     0.034 A 
ATOM     26  C   UNL A   1      43.329  29.346  32.900  1.00  0.00     0.034 A 
ATOM     27  C   UNL A   1      38.557  29.919  28.707  1.00  0.00     0.049 A 
ATOM     28  C   UNL A   1      43.122  28.780  31.526  1.00  0.00     0.074 A 
ATOM     29  C   UNL A   1      38.498  29.541  27.375  1.00  0.00     0.029 A 
ATOM     30  N   UNL A   1      39.783  29.515  29.189  1.00  0.00    -0.354 N 
ATOM     31  N   UNL A   1      42.155  29.019  30.681  1.00  0.00    -0.248 NA
ATOM     32  C   UNL A   1      44.130  27.827  31.031  1.00  0.00     0.031 C 
ATOM     33  C   UNL A   1      39.640  28.785  27.092  1.00  0.00     0.029 A 
ATOM     34  C   UNL A   1      40.437  28.770  28.224  1.00  0.00     0.049 A 
ATOM     35  H   UNL A   1      40.140  29.724  30.082  1.00  0.00     0.167 HD
ATOM     36  C   UNL A   1      42.427  28.240  29.564  1.00  0.00     0.074 A 
ATOM     37  C   UNL A   1      43.675  27.555  29.815  1.00  0.00     0.031 C 
ATOM     38  C   UNL A   1      41.682  28.090  28.445  1.00  0.00     0.034 A 
BRANCH  25  39
ATOM     39  C   UNL A   1      36.218  30.810  28.814  1.00  0.00     0.023 A 
ATOM     40  C   UNL A   1      35.467  29.787  28.204  1.00  0.00     0.012 A 
ATOM     41  C   UNL A   1      35.725  32.128  28.819  1.00  0.00     0.148 A 
ATOM     42  C   UNL A   1      34.242  30.078  27.599  1.00  0.00     0.002 A 
ATOM     43  C   UNL A   1      34.502  32.408  28.224  1.00  0.00     0.091 A 
ATOM     44  F   UNL A   1      36.471  33.079  29.396  1.00  0.00    -0.205 F 
ATOM     45  C   UNL A   1      33.759  31.385  27.612  1.00  0.00     0.022 A 
BRANCH  43  46
ATOM     46  S   UNL A   1      33.803  34.060  28.189  1.00  0.00     0.127 S 
ATOM     47  O   UNL A   1      34.705  34.740  27.260  1.00  0.00    -0.237 OA
ATOM     48  O   UNL A   1      32.460  33.811  27.667  1.00  0.00    -0.237 OA
ATOM     49  O   UNL A   1      33.855  34.551  29.560  1.00  0.00    -0.744 OA
ENDBRANCH  43  46
ENDBRANCH  25  39
BRANCH  26  50
ATOM     50  C   UNL A   1      44.589  29.015  33.657  1.00  0.00     0.023 A 
ATOM     51  C   UNL A   1      45.733  29.835  33.590  1.00  0.00     0.012 A 
ATOM     52  C   UNL A   1      44.661  27.829  34.423  1.00  0.00     0.148 A 
ATOM     53  C   UNL A   1      46.907  29.477  34.265  1.00  0.00     0.002 A 
ATOM     54  C   UNL A   1      45.791  27.538  35.174  1.00  0.00     0.091 A 
ATOM     55  F   UNL A   1      43.613  26.993  34.408  1.00  0.00    -0.205 F 
ATOM     56  C   UNL A   1      46.928  28.344  35.079  1.00  0.00     0.022 A 
BRANCH  54  57
ATOM     57  S   UNL A   1      45.779  26.208  36.384  1.00  0.00     0.127 S 
ATOM     58  O   UNL A   1      46.476  25.143  35.672  1.00  0.00    -0.237 OA
ATOM     59  O   UNL A   1      46.521  26.798  37.499  1.00  0.00    -0.237 OA
ATOM     60  O   UNL A   1      44.370  25.975  36.676  1.00  0.00    -0.744 OA
ENDBRANCH  54  57
ENDBRANCH  26  50
BRANCH  38  61
ATOM     61  C   UNL A   1      42.167  27.140  27.390  1.00  0.00     0.023 A 
ATOM     62  C   UNL A   1      43.078  27.584  26.413  1.00  0.00     0.012 A 
ATOM     63  C   UNL A   1      41.795  25.783  27.427  1.00  0.00     0.148 A 
ATOM     64  C   UNL A   1      43.597  26.693  25.473  1.00  0.00     0.002 A 
ATOM     65  C   UNL A   1      42.357  24.892  26.524  1.00  0.00     0.091 A 
ATOM     66  F   UNL A   1      40.909  25.389  28.354  1.00  0.00    -0.205 F 
ATOM     67  C   UNL A   1      43.248  25.346  25.539  1.00  0.00     0.022 A 
BRANCH  65  68
ATOM     68  S   UNL A   1      42.051  23.125  26.607  1.00  0.00     0.127 S 
ATOM     69  O   UNL A   1      42.693  22.654  25.381  1.00  0.00    -0.237 OA
ATOM     70  O   UNL A   1      42.741  22.750  27.842  1.00  0.00    -0.237 OA
ATOM     71  O   UNL A   1      40.603  22.969  26.652  1.00  0.00    -0.744 OA
ENDBRANCH  65  68
ENDBRANCH  38  61
ENDBRANCH  12  13
ENDBRANCH   5   7
ENDBRANCH   4   5
ENDBRANCH   3   4
ENDBRANCH   2   3
ENDBRANCH   1   2
BRANCH   1  72
ATOM     72  C   UNL A   1      40.717  37.839  39.918  1.00  0.00     0.202 C 
BRANCH  72  73
ATOM     73  C   UNL A   1      39.414  36.957  38.869  1.00  0.00     0.261 C 
BRANCH  73  74
ATOM     74  O   UNL A   1      40.004  36.439  36.978  1.00  0.00    -0.460 OA
BRANCH  74  75
ATOM     75  C   UNL A   1      40.654  35.444  36.138  1.00  0.00     0.339 C 
ATOM     76  O   UNL A   1      41.126  34.362  36.535  1.00  0.00    -0.246 OA
BRANCH  75  77
ATOM     77  C   UNL A   1      41.068  35.693  34.744  1.00  0.00     0.072 A 
ATOM     78  C   UNL A   1      40.053  35.097  33.923  1.00  0.00     0.016 A 
ATOM     79  C   UNL A   1      42.412  35.373  34.468  1.00  0.00     0.054 A 
ATOM     80  C   UNL A   1      40.342  33.994  33.110  1.00  0.00     0.001 A 
ATOM     81  C   UNL A   1      42.684  34.341  33.537  1.00  0.00     0.015 A 
ATOM     82  C   UNL A   1      41.660  33.606  32.930  1.00  0.00     0.001 A 
BRANCH  79  83
ATOM     83  C   UNL A   1      43.602  36.165  34.908  1.00  0.00     0.256 C 
ATOM     84  O   UNL A   1      44.129  35.823  35.972  1.00  0.00    -0.269 OA
ATOM     85  N   UNL A   1      44.213  37.170  34.186  1.00  0.00    -0.322 N 
ATOM     86  H   UNL A   1      45.051  37.527  34.560  1.00  0.00     0.170 HD
BRANCH  85  87
ATOM     87  C   UNL A   1      43.782  37.737  32.983  1.00  0.00     0.041 A 
ATOM     88  C   UNL A   1      43.441  39.446  33.141  1.00  0.00     0.028 A 
ATOM     89  C   UNL A   1      44.360  37.045  31.471  1.00  0.00     0.028 A 
ATOM     90  C   UNL A   1      43.751  40.586  31.826  1.00  0.00     0.029 A 
ATOM     91  C   UNL A   1      44.708  38.176  30.093  1.00  0.00     0.029 A 
ATOM     92  C   UNL A   1      44.301  40.067  30.192  1.00  0.00     0.052 A 
BRANCH  92  93
ATOM     93  N   UNL A   1      44.169  41.215  28.774  1.00  0.00    -0.250 N 
ATOM     94  C   UNL A   1      43.454  41.020  27.482  1.00  0.00     0.237 C 
ATOM     95  C   UNL A   1      45.063  42.328  28.374  1.00  0.00     0.237 C 
ATOM     96  O   UNL A   1      42.370  40.542  27.199  1.00  0.00    -0.274 OA
ATOM     97  C   UNL A   1      44.356  41.617  26.393  1.00  0.00     0.095 C 
ATOM     98  C   UNL A   1      44.593  42.891  27.108  1.00  0.00     0.095 C 
ATOM     99  O   UNL A   1      46.122  42.840  28.721  1.00  0.00    -0.274 OA
ATOM    100  C   UNL A   1      44.466  42.122  24.938  1.00  0.00     0.002 C 
ATOM    101  C   UNL A   1      45.484  43.705  26.168  1.00  0.00     0.002 C 
ATOM    102  C   UNL A   1      45.980  41.950  24.577  1.00  0.00     0.005 C 
ATOM    103  C   UNL A   1      44.515  43.667  24.997  1.00  0.00     0.009 C 
ATOM    104  C   UNL A   1      46.671  42.913  25.581  1.00  0.00     0.005 C 
ENDBRANCH  92  93
ENDBRANCH  85  87
ENDBRANCH  79  83
ENDBRANCH  75  77
ENDBRANCH  74  75
ENDBRANCH  73  74
ENDBRANCH  72  73
ENDBRANCH   1  72
TORSDOF 20
ENDMDL
MODEL 3
REMARK VINA RESULT:     -13.2      6.643     11.171
REMARK SMILES O=C(OCCOCCOC(=O)c1ccccc1C(=O)Nc1ccc(N2C(=O)[C@H]3[C@@H]4CC[C@@H](C4)[C@@H]3C2=O)cc1)c1ccc(-c2c3nc(c(-c4cccc(S(=O)(=O)[O-])c4F)c4ccc([nH]4)c(-c4cccc(S(=O)(=O)[O-])c4F)c4nc(c(-c5cccc(S(=O)(=O)[O-])c5F)c5ccc2[nH]5)C=C4)C=C3)cc1
REMARK SMILES IDX 6 1 5 2 4 3 3 4 2 5 1 6 39 7 40 8 101 9 41 10 100 11 42 12
REMARK SMILES IDX 43 13 44 14 94 15 45 16 99 17 93 18 95 19 46 20 98 21 92 22
REMARK SMILES IDX 91 23 47 25 79 26 59 27 78 28 60 29 63 30 77 31 96 32 61 33
REMARK SMILES IDX 62 34 76 36 97 37 64 38 48 39 49 40 57 41 50 42 52 43 58 44
REMARK SMILES IDX 51 45 53 46 54 47 55 48 56 49 80 50 81 51 89 52 82 53 84 54
REMARK SMILES IDX 90 55 83 56 85 57 86 58 87 59 88 60 65 61 66 62 74 63 67 64
REMARK SMILES IDX 69 65 75 66 68 67 70 68 71 69 72 70 73 71 7 72 8 73 9 74
REMARK SMILES IDX 10 75 11 76 12 77 13 78 17 79 14 80 16 81 15 82 18 83 19 84
REMARK SMILES IDX 20 85 21 87 22 88 38 89 23 90 37 91 24 92 25 93 26 94 35 95
REMARK SMILES IDX 27 96 28 97 34 98 36 99 29 100 32 101 30 102 33 103 31 104
REMARK H PARENT 95 24 63 35 20 86
REMARK Flexibility Score: inf
ROOT
ATOM      1  O   UNL A   1      39.911  28.504  29.753  1.00  0.00    -0.374 OA
ENDROOT
BRANCH   1   2
ATOM      2  C   UNL A   1      38.192  28.331  30.084  1.00  0.00     0.202 C 
BRANCH   2   3
ATOM      3  C   UNL A   1      36.964  29.397  31.015  1.00  0.00     0.261 C 
BRANCH   3   4
ATOM      4  O   UNL A   1      36.262  30.977  30.665  1.00  0.00    -0.460 OA
BRANCH   4   5
ATOM      5  C   UNL A   1      36.262  32.401  30.455  1.00  0.00     0.338 C 
ATOM      6  O   UNL A   1      35.172  32.945  30.248  1.00  0.00    -0.246 OA
BRANCH   5   7
ATOM      7  C   UNL A   1      37.491  33.417  30.365  1.00  0.00     0.060 A 
ATOM      8  C   UNL A   1      37.994  33.932  29.181  1.00  0.00     0.016 A 
ATOM      9  C   UNL A   1      38.171  33.960  31.459  1.00  0.00     0.016 A 
ATOM     10  C   UNL A   1      39.334  34.344  29.043  1.00  0.00     0.010 A 
ATOM     11  C   UNL A   1      39.470  34.600  31.304  1.00  0.00     0.010 A 
ATOM     12  C   UNL A   1      40.202  34.573  30.100  1.00  0.00    -0.014 A 
BRANCH  12  13
ATOM     13  C   UNL A   1      41.761  34.591  29.881  1.00  0.00     0.031 A 
ATOM     14  C   UNL A   1      42.514  35.870  29.421  1.00  0.00     0.074 A 
ATOM     15  C   UNL A   1      42.606  33.591  30.292  1.00  0.00     0.049 A 
ATOM     16  N   UNL A   1      43.807  36.149  29.466  1.00  0.00    -0.248 NA
ATOM     17  C   UNL A   1      41.738  36.989  28.881  1.00  0.00     0.031 C 
ATOM     18  C   UNL A   1      42.229  32.278  30.822  1.00  0.00     0.029 A 
ATOM     19  N   UNL A   1      44.000  33.530  30.366  1.00  0.00    -0.354 N 
ATOM     20  C   UNL A   1      43.955  37.471  29.044  1.00  0.00     0.074 A 
ATOM     21  C   UNL A   1      42.642  37.941  28.711  1.00  0.00     0.031 C 
ATOM     22  C   UNL A   1      43.300  31.631  31.295  1.00  0.00     0.029 A 
ATOM     23  C   UNL A   1      44.493  32.332  30.857  1.00  0.00     0.049 A 
ATOM     24  H   UNL A   1      44.583  34.274  30.092  1.00  0.00     0.167 HD
ATOM     25  C   UNL A   1      45.049  38.261  28.903  1.00  0.00     0.034 A 
ATOM     26  C   UNL A   1      45.719  31.754  30.846  1.00  0.00     0.034 A 
ATOM     27  C   UNL A   1      46.404  37.803  28.942  1.00  0.00     0.049 A 
ATOM     28  C   UNL A   1      46.881  32.499  30.260  1.00  0.00     0.074 A 
ATOM     29  C   UNL A   1      47.552  38.496  28.593  1.00  0.00     0.029 A 
ATOM     30  N   UNL A   1      46.783  36.505  29.212  1.00  0.00    -0.354 N 
ATOM     31  N   UNL A   1      46.978  33.772  29.980  1.00  0.00    -0.248 NA
ATOM     32  C   UNL A   1      48.094  31.723  29.952  1.00  0.00     0.031 C 
ATOM     33  C   UNL A   1      48.604  37.578  28.521  1.00  0.00     0.029 A 
ATOM     34  C   UNL A   1      48.121  36.340  28.906  1.00  0.00     0.049 A 
ATOM     35  H   UNL A   1      46.191  35.804  29.569  1.00  0.00     0.167 HD
ATOM     36  C   UNL A   1      48.250  33.947  29.452  1.00  0.00     0.074 A 
ATOM     37  C   UNL A   1      48.911  32.662  29.493  1.00  0.00     0.031 C 
ATOM     38  C   UNL A   1      48.802  35.076  28.950  1.00  0.00     0.034 A 
BRANCH  25  39
ATOM     39  C   UNL A   1      44.829  39.705  28.524  1.00  0.00     0.023 A 
ATOM     40  C   UNL A   1      44.845  40.710  29.510  1.00  0.00     0.012 A 
ATOM     41  C   UNL A   1      44.659  40.058  27.172  1.00  0.00     0.148 A 
ATOM     42  C   UNL A   1      44.685  42.050  29.152  1.00  0.00     0.002 A 
ATOM     43  C   UNL A   1      44.510  41.393  26.822  1.00  0.00     0.091 A 
ATOM     44  F   UNL A   1      44.636  39.075  26.261  1.00  0.00    -0.205 F 
ATOM     45  C   UNL A   1      44.521  42.391  27.810  1.00  0.00     0.022 A 
BRANCH  43  46
ATOM     46  S   UNL A   1      44.290  41.925  25.124  1.00  0.00     0.127 S 
ATOM     47  O   UNL A   1      45.467  41.343  24.479  1.00  0.00    -0.237 OA
ATOM     48  O   UNL A   1      43.021  41.292  24.768  1.00  0.00    -0.237 OA
ATOM     49  O   UNL A   1      44.269  43.381  25.155  1.00  0.00    -0.744 OA
ENDBRANCH  43  46
ENDBRANCH  25  39
BRANCH  26  50
ATOM     50  C   UNL A   1      45.872  30.296  31.196  1.00  0.00     0.023 A 
ATOM     51  C   UNL A   1      45.542  29.275  30.283  1.00  0.00     0.012 A 
ATOM     52  C   UNL A   1      46.312  29.922  32.485  1.00  0.00     0.148 A 
ATOM     53  C   UNL A   1      45.647  27.927  30.652  1.00  0.00     0.002 A 
ATOM     54  C   UNL A   1      46.517  28.588  32.807  1.00  0.00     0.091 A 
ATOM     55  F   UNL A   1      46.530  30.886  33.392  1.00  0.00    -0.205 F 
ATOM     56  C   UNL A   1      46.160  27.583  31.903  1.00  0.00     0.022 A 
BRANCH  54  57
ATOM     57  S   UNL A   1      47.363  28.121  34.321  1.00  0.00     0.127 S 
ATOM     58  O   UNL A   1      46.405  28.526  35.343  1.00  0.00    -0.237 OA
ATOM     59  O   UNL A   1      47.518  26.674  34.156  1.00  0.00    -0.237 OA
ATOM     60  O   UNL A   1      48.624  28.852  34.292  1.00  0.00    -0.744 OA
ENDBRANCH  54  57
ENDBRANCH  26  50
BRANCH  38  61
ATOM     61  C   UNL A   1      50.189  34.999  28.382  1.00  0.00     0.023 A 
ATOM     62  C   UNL A   1      51.302  35.107  29.237  1.00  0.00     0.012 A 
ATOM     63  C   UNL A   1      50.385  34.722  27.017  1.00  0.00     0.148 A 
ATOM     64  C   UNL A   1      52.595  34.960  28.735  1.00  0.00     0.002 A 
ATOM     65  C   UNL A   1      51.671  34.522  26.535  1.00  0.00     0.091 A 
ATOM     66  F   UNL A   1      49.309  34.645  26.220  1.00  0.00    -0.205 F 
ATOM     67  C   UNL A   1      52.778  34.653  27.388  1.00  0.00     0.022 A 
BRANCH  65  68
ATOM     68  S   UNL A   1      51.990  34.014  24.843  1.00  0.00     0.127 S 
ATOM     69  O   UNL A   1      53.434  33.786  24.867  1.00  0.00    -0.237 OA
ATOM     70  O   UNL A   1      51.181  32.800  24.727  1.00  0.00    -0.237 OA
ATOM     71  O   UNL A   1      51.548  35.118  24.001  1.00  0.00    -0.744 OA
ENDBRANCH  65  68
ENDBRANCH  38  61
ENDBRANCH  12  13
ENDBRANCH   5   7
ENDBRANCH   4   5
ENDBRANCH   3   4
ENDBRANCH   2   3
ENDBRANCH   1   2
BRANCH   1  72
ATOM     72  C   UNL A   1      41.058  27.364  29.020  1.00  0.00     0.202 C 
BRANCH  72  73
ATOM     73  C   UNL A   1      40.747  26.611  27.313  1.00  0.00     0.261 C 
BRANCH  73  74
ATOM     74  O   UNL A   1      42.284  25.499  26.544  1.00  0.00    -0.460 OA
BRANCH  74  75
ATOM     75  C   UNL A   1      42.837  24.168  26.336  1.00  0.00     0.339 C 
ATOM     76  O   UNL A   1      42.571  23.418  25.378  1.00  0.00    -0.246 OA
BRANCH  75  77
ATOM     77  C   UNL A   1      43.593  23.425  27.363  1.00  0.00     0.072 A 
ATOM     78  C   UNL A   1      42.892  23.642  28.596  1.00  0.00     0.016 A 
ATOM     79  C   UNL A   1      44.982  23.654  27.345  1.00  0.00     0.054 A 
ATOM     80  C   UNL A   1      43.480  24.366  29.640  1.00  0.00     0.001 A 
ATOM     81  C   UNL A   1      45.581  24.268  28.472  1.00  0.00     0.015 A 
ATOM     82  C   UNL A   1      44.825  24.693  29.569  1.00  0.00     0.001 A 
BRANCH  79  83
ATOM     83  C   UNL A   1      45.938  23.118  26.326  1.00  0.00     0.256 C 
ATOM     84  O   UNL A   1      45.966  21.891  26.189  1.00  0.00    -0.269 OA
ATOM     85  N   UNL A   1      46.710  23.876  25.469  1.00  0.00    -0.322 N 
ATOM     86  H   UNL A   1      47.213  23.381  24.783  1.00  0.00     0.170 HD
BRANCH  85  87
ATOM     87  C   UNL A   1      46.859  25.267  25.462  1.00  0.00     0.041 A 
ATOM     88  C   UNL A   1      45.410  26.087  24.923  1.00  0.00     0.028 A 
ATOM     89  C   UNL A   1      47.960  26.000  26.624  1.00  0.00     0.028 A 
ATOM     90  C   UNL A   1      44.920  27.650  25.588  1.00  0.00     0.029 A 
ATOM     91  C   UNL A   1      47.495  27.600  27.347  1.00  0.00     0.029 A 
ATOM     92  C   UNL A   1      45.933  28.578  26.752  1.00  0.00     0.052 A 
BRANCH  92  93
ATOM     93  N   UNL A   1      45.597  30.352  27.045  1.00  0.00    -0.250 N 
ATOM     94  C   UNL A   1      44.286  31.030  27.248  1.00  0.00     0.237 C 
ATOM     95  C   UNL A   1      46.415  31.538  26.695  1.00  0.00     0.237 C 
ATOM     96  O   UNL A   1      43.290  30.734  27.883  1.00  0.00    -0.274 OA
ATOM     97  C   UNL A   1      44.364  32.359  26.485  1.00  0.00     0.095 C 
ATOM     98  C   UNL A   1      45.676  32.751  27.044  1.00  0.00     0.095 C 
ATOM     99  O   UNL A   1      47.460  31.807  26.112  1.00  0.00    -0.274 OA
ATOM    100  C   UNL A   1      43.755  33.762  26.266  1.00  0.00     0.002 C 
ATOM    101  C   UNL A   1      45.969  34.120  26.427  1.00  0.00     0.002 C 
ATOM    102  C   UNL A   1      44.172  34.146  24.806  1.00  0.00     0.005 C 
ATOM    103  C   UNL A   1      44.701  34.777  26.949  1.00  0.00     0.009 C 
ATOM    104  C   UNL A   1      45.721  34.192  24.906  1.00  0.00     0.005 C 
ENDBRANCH  92  93
ENDBRANCH  85  87
ENDBRANCH  79  83
ENDBRANCH  75  77
ENDBRANCH  74  75
ENDBRANCH  73  74
ENDBRANCH  72  73
ENDBRANCH   1  72
TORSDOF 20
ENDMDL
