MODEL 1
REMARK VINA RESULT:     -10.9      0.000      0.000
REMARK SMILES COC(=O)c1ccc(C)c2c1[C@H]1C=CC[C@H]1[C@@H](c1ccc(C(=O)OCCOCCOC(=O)c3ccc(-c4c5nc(c(-c6cccc(S(=O)(=O)[O-])c6F)c6ccc([nH]6)c(-c6cccc(S(=O)(=O)[O-])c6F)c6nc(c(-c7cccc(S(=O)(=O)[O-])c7F)c7ccc4[nH]7)C=C6)C=C5)cc3)cc1)N2
REMARK SMILES IDX 27 1 26 2 25 3 24 4 22 5 23 6 21 7 18 8 19 9 97 10 20 11
REMARK SMILES IDX 96 12 17 13 5 14 6 15 11 16 7 17 10 18 12 19 8 20 98 21
REMARK SMILES IDX 13 22 16 23 9 24 14 26 15 27 3 28 4 29 2 30 1 31 28 32 29 33
REMARK SMILES IDX 30 34 31 35 32 36 33 37 34 38 95 39 35 40 94 41 36 42 37 43
REMARK SMILES IDX 38 44 88 45 39 46 93 47 87 48 89 49 40 50 92 51 86 52 85 53
REMARK SMILES IDX 41 55 73 56 53 57 72 58 54 59 57 60 71 61 90 62 55 63 56 64
REMARK SMILES IDX 70 66 91 67 58 68 42 69 43 70 51 71 44 72 46 73 52 74 45 75
REMARK SMILES IDX 47 76 48 77 49 78 50 79 74 80 75 81 83 82 76 83 78 84 84 85
REMARK SMILES IDX 77 86 79 87 80 88 81 89 82 90 59 91 60 92 68 93 61 94 63 95
REMARK SMILES IDX 69 96 62 97 64 98 65 99 66 100 67 101
REMARK H PARENT 98 25 89 54 57 65
REMARK Flexibility Score: inf
ROOT
ATOM      1  O   UNL A   1      40.207  21.436  27.359  1.00  0.00    -0.374 OA
ENDROOT
BRANCH   1   2
ATOM      2  C   UNL A   1      39.833  21.986  26.097  1.00  0.00     0.202 C 
BRANCH   2   3
ATOM      3  C   UNL A   1      38.359  21.876  25.693  1.00  0.00     0.261 C 
BRANCH   3   4
ATOM      4  O   UNL A   1      37.777  23.165  25.456  1.00  0.00    -0.460 OA
BRANCH   4   5
ATOM      5  C   UNL A   1      36.793  23.167  24.528  1.00  0.00     0.338 C 
ATOM      6  O   UNL A   1      36.822  22.649  23.423  1.00  0.00    -0.246 OA
BRANCH   5   7
ATOM      7  C   UNL A   1      35.548  23.700  25.116  1.00  0.00     0.060 A 
ATOM      8  C   UNL A   1      33.107  24.502  26.297  1.00  0.00    -0.025 A 
ATOM      9  C   UNL A   1      33.685  23.252  26.576  1.00  0.00     0.007 A 
ATOM     10  C   UNL A   1      33.824  25.368  25.446  1.00  0.00     0.007 A 
ATOM     11  C   UNL A   1      34.875  22.846  25.985  1.00  0.00     0.016 A 
ATOM     12  C   UNL A   1      35.044  24.977  24.867  1.00  0.00     0.016 A 
BRANCH   8  13
ATOM     13  C   UNL A   1      31.726  24.904  26.835  1.00  0.00     0.114 C 
ATOM     14  C   UNL A   1      30.898  28.037  24.072  1.00  0.00     0.065 A 
ATOM     15  C   UNL A   1      31.510  29.277  24.281  1.00  0.00     0.016 A 
ATOM     16  C   UNL A   1      30.937  27.033  25.067  1.00  0.00    -0.003 A 
ATOM     17  C   UNL A   1      32.155  29.540  25.483  1.00  0.00     0.006 A 
ATOM     18  C   UNL A   1      31.593  27.312  26.299  1.00  0.00     0.042 A 
ATOM     19  C   UNL A   1      30.319  25.665  24.829  1.00  0.00     0.050 C 
ATOM     20  C   UNL A   1      32.202  28.574  26.500  1.00  0.00    -0.028 A 
ATOM     21  N   UNL A   1      31.738  26.304  27.247  1.00  0.00    -0.377 N 
ATOM     22  C   UNL A   1      30.889  24.843  23.696  1.00  0.00    -0.023 C 
ATOM     23  C   UNL A   1      30.455  24.670  25.999  1.00  0.00     0.031 C 
ATOM     24  C   UNL A   1      32.989  28.947  27.732  1.00  0.00     0.046 C 
ATOM     25  H   UNL A   1      31.847  26.535  28.198  1.00  0.00     0.161 HD
ATOM     26  C   UNL A   1      30.900  23.535  23.986  1.00  0.00    -0.030 C 
ATOM     27  C   UNL A   1      30.380  23.278  25.362  1.00  0.00     0.034 C 
BRANCH  14  28
ATOM     28  C   UNL A   1      30.217  27.828  22.773  1.00  0.00     0.338 C 
ATOM     29  O   UNL A   1      30.770  27.471  21.744  1.00  0.00    -0.246 OA
BRANCH  28  30
ATOM     30  O   UNL A   1      28.903  28.133  22.919  1.00  0.00    -0.465 OA
ATOM     31  C   UNL A   1      28.490  29.293  22.195  1.00  0.00     0.282 C 
ENDBRANCH  28  30
ENDBRANCH  14  28
ENDBRANCH   8  13
ENDBRANCH   5   7
ENDBRANCH   4   5
ENDBRANCH   3   4
ENDBRANCH   2   3
ENDBRANCH   1   2
BRANCH   1  32
ATOM     32  C   UNL A   1      41.362  20.591  27.386  1.00  0.00     0.202 C 
BRANCH  32  33
ATOM     33  C   UNL A   1      42.376  20.741  26.244  1.00  0.00     0.261 C 
BRANCH  33  34
ATOM     34  O   UNL A   1      43.267  21.854  26.454  1.00  0.00    -0.460 OA
BRANCH  34  35
ATOM     35  C   UNL A   1      43.198  22.833  25.520  1.00  0.00     0.338 C 
ATOM     36  O   UNL A   1      43.198  22.702  24.306  1.00  0.00    -0.246 OA
BRANCH  35  37
ATOM     37  C   UNL A   1      42.909  24.116  26.184  1.00  0.00     0.060 A 
ATOM     38  C   UNL A   1      42.708  25.246  25.378  1.00  0.00     0.016 A 
ATOM     39  C   UNL A   1      42.918  24.224  27.575  1.00  0.00     0.016 A 
ATOM     40  C   UNL A   1      42.544  26.498  25.962  1.00  0.00     0.010 A 
ATOM     41  C   UNL A   1      42.778  25.486  28.158  1.00  0.00     0.010 A 
ATOM     42  C   UNL A   1      42.625  26.629  27.353  1.00  0.00    -0.014 A 
BRANCH  42  43
ATOM     43  C   UNL A   1      42.731  27.976  27.951  1.00  0.00     0.031 A 
ATOM     44  C   UNL A   1      44.087  28.617  28.044  1.00  0.00     0.074 A 
ATOM     45  C   UNL A   1      41.639  28.623  28.395  1.00  0.00     0.049 A 
ATOM     46  N   UNL A   1      44.420  29.771  28.557  1.00  0.00    -0.248 NA
ATOM     47  C   UNL A   1      45.218  27.857  27.482  1.00  0.00     0.031 C 
ATOM     48  C   UNL A   1      40.270  28.114  28.330  1.00  0.00     0.029 A 
ATOM     49  N   UNL A   1      41.517  29.846  29.004  1.00  0.00    -0.354 N 
ATOM     50  C   UNL A   1      45.797  29.869  28.400  1.00  0.00     0.074 A 
ATOM     51  C   UNL A   1      46.241  28.656  27.750  1.00  0.00     0.031 C 
ATOM     52  C   UNL A   1      39.446  29.011  28.898  1.00  0.00     0.029 A 
ATOM     53  C   UNL A   1      40.232  30.145  29.385  1.00  0.00     0.049 A 
ATOM     54  H   UNL A   1      42.279  30.451  29.154  1.00  0.00     0.167 HD
ATOM     55  C   UNL A   1      46.613  30.886  28.752  1.00  0.00     0.034 A 
ATOM     56  C   UNL A   1      39.748  31.205  30.061  1.00  0.00     0.034 A 
ATOM     57  C   UNL A   1      46.169  32.097  29.380  1.00  0.00     0.049 A 
ATOM     58  C   UNL A   1      40.686  32.303  30.485  1.00  0.00     0.074 A 
ATOM     59  C   UNL A   1      46.922  33.199  29.744  1.00  0.00     0.029 A 
ATOM     60  N   UNL A   1      44.861  32.364  29.745  1.00  0.00    -0.354 N 
ATOM     61  N   UNL A   1      41.973  32.418  30.260  1.00  0.00    -0.248 NA
ATOM     62  C   UNL A   1      40.106  33.427  31.236  1.00  0.00     0.031 C 
ATOM     63  C   UNL A   1      46.069  34.127  30.347  1.00  0.00     0.029 A 
ATOM     64  C   UNL A   1      44.783  33.610  30.340  1.00  0.00     0.049 A 
ATOM     65  H   UNL A   1      44.098  31.757  29.603  1.00  0.00     0.167 HD
ATOM     66  C   UNL A   1      42.351  33.635  30.815  1.00  0.00     0.074 A 
ATOM     67  C   UNL A   1      41.157  34.226  31.383  1.00  0.00     0.031 C 
ATOM     68  C   UNL A   1      43.579  34.206  30.857  1.00  0.00     0.034 A 
BRANCH  55  69
ATOM     69  C   UNL A   1      48.076  30.756  28.436  1.00  0.00     0.023 A 
ATOM     70  C   UNL A   1      48.575  31.315  27.243  1.00  0.00     0.012 A 
ATOM     71  C   UNL A   1      48.964  30.168  29.356  1.00  0.00     0.148 A 
ATOM     72  C   UNL A   1      49.941  31.286  26.967  1.00  0.00     0.002 A 
ATOM     73  C   UNL A   1      50.327  30.170  29.089  1.00  0.00     0.091 A 
ATOM     74  F   UNL A   1      48.458  29.629  30.474  1.00  0.00    -0.205 F 
ATOM     75  C   UNL A   1      50.817  30.724  27.893  1.00  0.00     0.022 A 
BRANCH  73  76
ATOM     76  S   UNL A   1      51.544  29.518  30.236  1.00  0.00     0.127 S 
ATOM     77  O   UNL A   1      51.163  28.107  30.301  1.00  0.00    -0.237 OA
ATOM     78  O   UNL A   1      52.799  29.779  29.531  1.00  0.00    -0.237 OA
ATOM     79  O   UNL A   1      51.370  30.260  31.476  1.00  0.00    -0.744 OA
ENDBRANCH  73  76
ENDBRANCH  55  69
BRANCH  56  80
ATOM     80  C   UNL A   1      38.289  31.296  30.332  1.00  0.00     0.023 A 
ATOM     81  C   UNL A   1      37.763  30.669  31.476  1.00  0.00     0.012 A 
ATOM     82  C   UNL A   1      37.435  32.040  29.496  1.00  0.00     0.148 A 
ATOM     83  C   UNL A   1      36.406  30.776  31.782  1.00  0.00     0.002 A 
ATOM     84  C   UNL A   1      36.091  32.174  29.826  1.00  0.00     0.091 A 
ATOM     85  F   UNL A   1      37.962  32.623  28.410  1.00  0.00    -0.205 F 
ATOM     86  C   UNL A   1      35.573  31.535  30.963  1.00  0.00     0.022 A 
BRANCH  84  87
ATOM     87  S   UNL A   1      34.957  33.200  28.886  1.00  0.00     0.127 S 
ATOM     88  O   UNL A   1      35.685  34.465  28.815  1.00  0.00    -0.237 OA
ATOM     89  O   UNL A   1      34.870  32.468  27.622  1.00  0.00    -0.237 OA
ATOM     90  O   UNL A   1      33.720  33.235  29.653  1.00  0.00    -0.744 OA
ENDBRANCH  84  87
ENDBRANCH  56  80
BRANCH  68  91
ATOM     91  C   UNL A   1      43.721  35.550  31.516  1.00  0.00     0.023 A 
ATOM     92  C   UNL A   1      43.940  35.620  32.905  1.00  0.00     0.012 A 
ATOM     93  C   UNL A   1      43.787  36.724  30.739  1.00  0.00     0.148 A 
ATOM     94  C   UNL A   1      44.219  36.843  33.513  1.00  0.00     0.002 A 
ATOM     95  C   UNL A   1      44.100  37.933  31.347  1.00  0.00     0.091 A 
ATOM     96  F   UNL A   1      43.573  36.628  29.419  1.00  0.00    -0.205 F 
ATOM     97  C   UNL A   1      44.312  37.995  32.735  1.00  0.00     0.022 A 
BRANCH  95  98
ATOM     98  S   UNL A   1      44.318  39.457  30.422  1.00  0.00     0.127 S 
ATOM     99  O   UNL A   1      42.994  39.634  29.824  1.00  0.00    -0.237 OA
ATOM    100  O   UNL A   1      44.643  40.416  31.479  1.00  0.00    -0.237 OA
ATOM    101  O   UNL A   1      45.394  39.206  29.474  1.00  0.00    -0.744 OA
ENDBRANCH  95  98
ENDBRANCH  68  91
ENDBRANCH  42  43
ENDBRANCH  35  37
ENDBRANCH  34  35
ENDBRANCH  33  34
ENDBRANCH  32  33
ENDBRANCH   1  32
TORSDOF 20
ENDMDL
MODEL 2
REMARK VINA RESULT:     -10.0      3.351      4.723
REMARK SMILES COC(=O)c1ccc(C)c2c1[C@H]1C=CC[C@H]1[C@@H](c1ccc(C(=O)OCCOCCOC(=O)c3ccc(-c4c5nc(c(-c6cccc(S(=O)(=O)[O-])c6F)c6ccc([nH]6)c(-c6cccc(S(=O)(=O)[O-])c6F)c6nc(c(-c7cccc(S(=O)(=O)[O-])c7F)c7ccc4[nH]7)C=C6)C=C5)cc3)cc1)N2
REMARK SMILES IDX 27 1 26 2 25 3 24 4 22 5 23 6 21 7 18 8 19 9 97 10 20 11
REMARK SMILES IDX 96 12 17 13 5 14 6 15 11 16 7 17 10 18 12 19 8 20 98 21
REMARK SMILES IDX 13 22 16 23 9 24 14 26 15 27 3 28 4 29 2 30 1 31 28 32 29 33
REMARK SMILES IDX 30 34 31 35 32 36 33 37 34 38 95 39 35 40 94 41 36 42 37 43
REMARK SMILES IDX 38 44 88 45 39 46 93 47 87 48 89 49 40 50 92 51 86 52 85 53
REMARK SMILES IDX 41 55 73 56 53 57 72 58 54 59 57 60 71 61 90 62 55 63 56 64
REMARK SMILES IDX 70 66 91 67 58 68 42 69 43 70 51 71 44 72 46 73 52 74 45 75
REMARK SMILES IDX 47 76 48 77 49 78 50 79 74 80 75 81 83 82 76 83 78 84 84 85
REMARK SMILES IDX 77 86 79 87 80 88 81 89 82 90 59 91 60 92 68 93 61 94 63 95
REMARK SMILES IDX 69 96 62 97 64 98 65 99 66 100 67 101
REMARK H PARENT 98 25 89 54 57 65
REMARK Flexibility Score: inf
ROOT
ATOM      1  O   UNL A   1      40.583  20.448  27.498  1.00  0.00    -0.374 OA
ENDROOT
BRANCH   1   2
ATOM      2  C   UNL A   1      40.148  21.650  26.865  1.00  0.00     0.202 C 
BRANCH   2   3
ATOM      3  C   UNL A   1      39.156  21.515  25.706  1.00  0.00     0.261 C 
BRANCH   3   4
ATOM      4  O   UNL A   1      37.841  21.945  26.081  1.00  0.00    -0.460 OA
BRANCH   4   5
ATOM      5  C   UNL A   1      37.546  23.213  25.713  1.00  0.00     0.338 C 
ATOM      6  O   UNL A   1      38.313  24.163  25.666  1.00  0.00    -0.246 OA
BRANCH   5   7
ATOM      7  C   UNL A   1      36.187  23.269  25.140  1.00  0.00     0.060 A 
ATOM      8  C   UNL A   1      33.681  23.352  23.833  1.00  0.00    -0.025 A 
ATOM      9  C   UNL A   1      34.825  22.840  23.200  1.00  0.00     0.007 A 
ATOM     10  C   UNL A   1      33.818  23.771  25.172  1.00  0.00     0.007 A 
ATOM     11  C   UNL A   1      36.063  22.812  23.832  1.00  0.00     0.016 A 
ATOM     12  C   UNL A   1      35.060  23.720  25.829  1.00  0.00     0.016 A 
BRANCH   8  13
ATOM     13  C   UNL A   1      32.342  23.515  23.099  1.00  0.00     0.114 C 
ATOM     14  C   UNL A   1      30.870  26.866  25.275  1.00  0.00     0.065 A 
ATOM     15  C   UNL A   1      30.322  26.638  26.542  1.00  0.00     0.016 A 
ATOM     16  C   UNL A   1      31.157  25.788  24.406  1.00  0.00    -0.003 A 
ATOM     17  C   UNL A   1      30.041  25.342  26.955  1.00  0.00     0.006 A 
ATOM     18  C   UNL A   1      30.861  24.463  24.834  1.00  0.00     0.042 A 
ATOM     19  C   UNL A   1      31.800  26.022  23.049  1.00  0.00     0.050 C 
ATOM     20  C   UNL A   1      30.300  24.247  26.115  1.00  0.00    -0.028 A 
ATOM     21  N   UNL A   1      31.235  23.382  24.040  1.00  0.00    -0.377 N 
ATOM     22  C   UNL A   1      33.172  26.655  23.040  1.00  0.00    -0.023 C 
ATOM     23  C   UNL A   1      32.069  24.749  22.221  1.00  0.00     0.031 C 
ATOM     24  C   UNL A   1      30.019  22.884  26.697  1.00  0.00     0.046 C 
ATOM     25  H   UNL A   1      30.752  22.528  24.114  1.00  0.00     0.161 HD
ATOM     26  C   UNL A   1      33.940  26.166  22.057  1.00  0.00    -0.030 C 
ATOM     27  C   UNL A   1      33.225  25.110  21.282  1.00  0.00     0.034 C 
BRANCH  14  28
ATOM     28  C   UNL A   1      31.132  28.272  24.894  1.00  0.00     0.338 C 
ATOM     29  O   UNL A   1      30.485  28.906  24.074  1.00  0.00    -0.246 OA
BRANCH  28  30
ATOM     30  O   UNL A   1      32.220  28.710  25.576  1.00  0.00    -0.465 OA
ATOM     31  C   UNL A   1      32.011  29.931  26.286  1.00  0.00     0.282 C 
ENDBRANCH  28  30
ENDBRANCH  14  28
ENDBRANCH   8  13
ENDBRANCH   5   7
ENDBRANCH   4   5
ENDBRANCH   3   4
ENDBRANCH   2   3
ENDBRANCH   1   2
BRANCH   1  32
ATOM     32  C   UNL A   1      41.955  20.081  27.328  1.00  0.00     0.202 C 
BRANCH  32  33
ATOM     33  C   UNL A   1      42.286  19.067  26.225  1.00  0.00     0.261 C 
BRANCH  33  34
ATOM     34  O   UNL A   1      42.719  19.710  25.011  1.00  0.00    -0.460 OA
BRANCH  34  35
ATOM     35  C   UNL A   1      44.059  19.719  24.809  1.00  0.00     0.338 C 
ATOM     36  O   UNL A   1      44.747  18.816  24.358  1.00  0.00    -0.246 OA
BRANCH  35  37
ATOM     37  C   UNL A   1      44.572  21.082  25.022  1.00  0.00     0.060 A 
ATOM     38  C   UNL A   1      45.156  21.381  26.262  1.00  0.00     0.016 A 
ATOM     39  C   UNL A   1      44.409  22.073  24.053  1.00  0.00     0.016 A 
ATOM     40  C   UNL A   1      45.553  22.683  26.550  1.00  0.00     0.010 A 
ATOM     41  C   UNL A   1      44.786  23.384  24.354  1.00  0.00     0.010 A 
ATOM     42  C   UNL A   1      45.326  23.698  25.613  1.00  0.00    -0.014 A 
BRANCH  42  43
ATOM     43  C   UNL A   1      45.486  25.111  26.020  1.00  0.00     0.031 A 
ATOM     44  C   UNL A   1      46.864  25.709  26.014  1.00  0.00     0.074 A 
ATOM     45  C   UNL A   1      44.423  25.850  26.379  1.00  0.00     0.049 A 
ATOM     46  N   UNL A   1      47.244  26.909  26.361  1.00  0.00    -0.248 NA
ATOM     47  C   UNL A   1      47.962  24.839  25.553  1.00  0.00     0.031 C 
ATOM     48  C   UNL A   1      43.037  25.387  26.394  1.00  0.00     0.029 A 
ATOM     49  N   UNL A   1      44.351  27.150  26.815  1.00  0.00    -0.354 N 
ATOM     50  C   UNL A   1      48.621  26.935  26.181  1.00  0.00     0.074 A 
ATOM     51  C   UNL A   1      49.015  25.630  25.701  1.00  0.00     0.031 C 
ATOM     52  C   UNL A   1      42.251  26.382  26.840  1.00  0.00     0.029 A 
ATOM     53  C   UNL A   1      43.081  27.543  27.161  1.00  0.00     0.049 A 
ATOM     54  H   UNL A   1      45.135  27.742  26.875  1.00  0.00     0.167 HD
ATOM     55  C   UNL A   1      49.477  27.962  26.384  1.00  0.00     0.034 A 
ATOM     56  C   UNL A   1      42.643  28.703  27.688  1.00  0.00     0.034 A 
ATOM     57  C   UNL A   1      49.082  29.263  26.843  1.00  0.00     0.049 A 
ATOM     58  C   UNL A   1      43.623  29.815  27.951  1.00  0.00     0.074 A 
ATOM     59  C   UNL A   1      49.877  30.376  27.046  1.00  0.00     0.029 A 
ATOM     60  N   UNL A   1      47.788  29.623  27.177  1.00  0.00    -0.354 N 
ATOM     61  N   UNL A   1      44.911  29.851  27.702  1.00  0.00    -0.248 NA
ATOM     62  C   UNL A   1      43.092  31.051  28.544  1.00  0.00     0.031 C 
ATOM     63  C   UNL A   1      49.064  31.408  27.522  1.00  0.00     0.029 A 
ATOM     64  C   UNL A   1      47.761  30.941  27.596  1.00  0.00     0.049 A 
ATOM     65  H   UNL A   1      47.004  29.031  27.125  1.00  0.00     0.167 HD
ATOM     66  C   UNL A   1      45.338  31.118  28.082  1.00  0.00     0.074 A 
ATOM     67  C   UNL A   1      44.172  31.824  28.572  1.00  0.00     0.031 C 
ATOM     68  C   UNL A   1      46.585  31.645  28.036  1.00  0.00     0.034 A 
BRANCH  55  69
ATOM     69  C   UNL A   1      50.930  27.737  26.077  1.00  0.00     0.023 A 
ATOM     70  C   UNL A   1      51.793  27.308  27.104  1.00  0.00     0.012 A 
ATOM     71  C   UNL A   1      51.417  27.859  24.762  1.00  0.00     0.148 A 
ATOM     72  C   UNL A   1      53.125  27.008  26.828  1.00  0.00     0.002 A 
ATOM     73  C   UNL A   1      52.738  27.528  24.488  1.00  0.00     0.091 A 
ATOM     74  F   UNL A   1      50.577  28.286  23.808  1.00  0.00    -0.205 F 
ATOM     75  C   UNL A   1      53.594  27.107  25.520  1.00  0.00     0.022 A 
BRANCH  73  76
ATOM     76  S   UNL A   1      53.428  27.573  22.831  1.00  0.00     0.127 S 
ATOM     77  O   UNL A   1      53.146  28.952  22.432  1.00  0.00    -0.237 OA
ATOM     78  O   UNL A   1      54.841  27.287  23.082  1.00  0.00    -0.237 OA
ATOM     79  O   UNL A   1      52.721  26.554  22.070  1.00  0.00    -0.744 OA
ENDBRANCH  73  76
ENDBRANCH  55  69
BRANCH  56  80
ATOM     80  C   UNL A   1      41.191  28.882  27.955  1.00  0.00     0.023 A 
ATOM     81  C   UNL A   1      40.325  29.155  26.880  1.00  0.00     0.012 A 
ATOM     82  C   UNL A   1      40.662  28.730  29.250  1.00  0.00     0.148 A 
ATOM     83  C   UNL A   1      38.952  29.281  27.092  1.00  0.00     0.002 A 
ATOM     84  C   UNL A   1      39.288  28.820  29.449  1.00  0.00     0.091 A 
ATOM     85  F   UNL A   1      41.510  28.475  30.256  1.00  0.00    -0.205 F 
ATOM     86  C   UNL A   1      38.433  29.105  28.373  1.00  0.00     0.022 A 
BRANCH  84  87
ATOM     87  S   UNL A   1      38.515  28.522  31.042  1.00  0.00     0.127 S 
ATOM     88  O   UNL A   1      37.137  28.935  30.788  1.00  0.00    -0.237 OA
ATOM     89  O   UNL A   1      38.708  27.080  31.200  1.00  0.00    -0.237 OA
ATOM     90  O   UNL A   1      39.245  29.341  31.999  1.00  0.00    -0.744 OA
ENDBRANCH  84  87
ENDBRANCH  56  80
BRANCH  68  91
ATOM     91  C   UNL A   1      46.782  33.061  28.503  1.00  0.00     0.023 A 
ATOM     92  C   UNL A   1      47.080  33.308  29.855  1.00  0.00     0.012 A 
ATOM     93  C   UNL A   1      46.818  34.122  27.575  1.00  0.00     0.148 A 
ATOM     94  C   UNL A   1      47.410  34.594  30.281  1.00  0.00     0.002 A 
ATOM     95  C   UNL A   1      47.180  35.393  28.000  1.00  0.00     0.091 A 
ATOM     96  F   UNL A   1      46.527  33.857  26.293  1.00  0.00    -0.205 F 
ATOM     97  C   UNL A   1      47.472  35.632  29.354  1.00  0.00     0.022 A 
BRANCH  95  98
ATOM     98  S   UNL A   1      47.364  36.778  26.871  1.00  0.00     0.127 S 
ATOM     99  O   UNL A   1      46.004  36.920  26.350  1.00  0.00    -0.237 OA
ATOM    100  O   UNL A   1      47.789  37.853  27.768  1.00  0.00    -0.237 OA
ATOM    101  O   UNL A   1      48.360  36.372  25.890  1.00  0.00    -0.744 OA
ENDBRANCH  95  98
ENDBRANCH  68  91
ENDBRANCH  42  43
ENDBRANCH  35  37
ENDBRANCH  34  35
ENDBRANCH  33  34
ENDBRANCH  32  33
ENDBRANCH   1  32
TORSDOF 20
ENDMDL
MODEL 3
REMARK VINA RESULT:     -10.0      7.013     13.843
REMARK SMILES COC(=O)c1ccc(C)c2c1[C@H]1C=CC[C@H]1[C@@H](c1ccc(C(=O)OCCOCCOC(=O)c3ccc(-c4c5nc(c(-c6cccc(S(=O)(=O)[O-])c6F)c6ccc([nH]6)c(-c6cccc(S(=O)(=O)[O-])c6F)c6nc(c(-c7cccc(S(=O)(=O)[O-])c7F)c7ccc4[nH]7)C=C6)C=C5)cc3)cc1)N2
REMARK SMILES IDX 27 1 26 2 25 3 24 4 22 5 23 6 21 7 18 8 19 9 97 10 20 11
REMARK SMILES IDX 96 12 17 13 5 14 6 15 11 16 7 17 10 18 12 19 8 20 98 21
REMARK SMILES IDX 13 22 16 23 9 24 14 26 15 27 3 28 4 29 2 30 1 31 28 32 29 33
REMARK SMILES IDX 30 34 31 35 32 36 33 37 34 38 95 39 35 40 94 41 36 42 37 43
REMARK SMILES IDX 38 44 88 45 39 46 93 47 87 48 89 49 40 50 92 51 86 52 85 53
REMARK SMILES IDX 41 55 73 56 53 57 72 58 54 59 57 60 71 61 90 62 55 63 56 64
REMARK SMILES IDX 70 66 91 67 58 68 42 69 43 70 51 71 44 72 46 73 52 74 45 75
REMARK SMILES IDX 47 76 48 77 49 78 50 79 74 80 75 81 83 82 76 83 78 84 84 85
REMARK SMILES IDX 77 86 79 87 80 88 81 89 82 90 59 91 60 92 68 93 61 94 63 95
REMARK SMILES IDX 69 96 62 97 64 98 65 99 66 100 67 101
REMARK H PARENT 98 25 89 54 57 65
REMARK Flexibility Score: inf
ROOT
ATOM      1  O   UNL A   1      51.209  24.216  33.577  1.00  0.00    -0.374 OA
ENDROOT
BRANCH   1   2
ATOM      2  C   UNL A   1      52.447  23.540  33.785  1.00  0.00     0.202 C 
BRANCH   2   3
ATOM      3  C   UNL A   1      52.512  22.058  33.403  1.00  0.00     0.261 C 
BRANCH   3   4
ATOM      4  O   UNL A   1      52.423  21.209  34.556  1.00  0.00    -0.460 OA
BRANCH   4   5
ATOM      5  C   UNL A   1      51.875  19.997  34.311  1.00  0.00     0.338 C 
ATOM      6  O   UNL A   1      52.465  18.938  34.164  1.00  0.00    -0.246 OA
BRANCH   5   7
ATOM      7  C   UNL A   1      50.409  20.066  34.469  1.00  0.00     0.060 A 
ATOM      8  C   UNL A   1      47.633  20.175  34.999  1.00  0.00    -0.025 A 
ATOM      9  C   UNL A   1      48.586  20.404  36.007  1.00  0.00     0.007 A 
ATOM     10  C   UNL A   1      48.117  19.946  33.695  1.00  0.00     0.007 A 
ATOM     11  C   UNL A   1      49.951  20.335  35.755  1.00  0.00     0.016 A 
ATOM     12  C   UNL A   1      49.496  19.904  33.426  1.00  0.00     0.016 A 
BRANCH   8  13
ATOM     13  C   UNL A   1      46.128  20.113  35.295  1.00  0.00     0.114 C 
ATOM     14  C   UNL A   1      46.121  22.453  38.853  1.00  0.00     0.065 A 
ATOM     15  C   UNL A   1      46.536  21.844  40.042  1.00  0.00     0.016 A 
ATOM     16  C   UNL A   1      45.873  21.684  37.693  1.00  0.00    -0.003 A 
ATOM     17  C   UNL A   1      46.696  20.465  40.097  1.00  0.00     0.006 A 
ATOM     18  C   UNL A   1      46.033  20.271  37.759  1.00  0.00     0.042 A 
ATOM     19  C   UNL A   1      45.472  22.342  36.383  1.00  0.00     0.050 C 
ATOM     20  C   UNL A   1      46.445  19.666  38.970  1.00  0.00    -0.028 A 
ATOM     21  N   UNL A   1      45.899  19.507  36.603  1.00  0.00    -0.377 N 
ATOM     22  C   UNL A   1      46.459  23.309  35.771  1.00  0.00    -0.023 C 
ATOM     23  C   UNL A   1      45.252  21.376  35.202  1.00  0.00     0.031 C 
ATOM     24  C   UNL A   1      46.719  18.192  39.129  1.00  0.00     0.046 C 
ATOM     25  H   UNL A   1      45.650  18.557  36.668  1.00  0.00     0.161 HD
ATOM     26  C   UNL A   1      46.454  23.247  34.433  1.00  0.00    -0.030 C 
ATOM     27  C   UNL A   1      45.501  22.210  33.941  1.00  0.00     0.034 C 
BRANCH  14  28
ATOM     28  C   UNL A   1      45.959  23.925  38.867  1.00  0.00     0.338 C 
ATOM     29  O   UNL A   1      44.892  24.508  38.987  1.00  0.00    -0.246 OA
BRANCH  28  30
ATOM     30  O   UNL A   1      47.176  24.497  38.689  1.00  0.00    -0.465 OA
ATOM     31  C   UNL A   1      47.130  25.907  38.463  1.00  0.00     0.282 C 
ENDBRANCH  28  30
ENDBRANCH  14  28
ENDBRANCH   8  13
ENDBRANCH   5   7
ENDBRANCH   4   5
ENDBRANCH   3   4
ENDBRANCH   2   3
ENDBRANCH   1   2
BRANCH   1  32
ATOM     32  C   UNL A   1      50.164  23.969  34.523  1.00  0.00     0.202 C 
BRANCH  32  33
ATOM     33  C   UNL A   1      49.700  25.148  35.390  1.00  0.00     0.261 C 
BRANCH  33  34
ATOM     34  O   UNL A   1      48.795  26.017  34.682  1.00  0.00    -0.460 OA
BRANCH  34  35
ATOM     35  C   UNL A   1      48.638  27.250  35.221  1.00  0.00     0.338 C 
ATOM     36  O   UNL A   1      49.469  27.903  35.832  1.00  0.00    -0.246 OA
BRANCH  35  37
ATOM     37  C   UNL A   1      47.348  27.809  34.785  1.00  0.00     0.060 A 
ATOM     38  C   UNL A   1      46.199  27.019  34.942  1.00  0.00     0.016 A 
ATOM     39  C   UNL A   1      47.278  29.053  34.157  1.00  0.00     0.016 A 
ATOM     40  C   UNL A   1      44.977  27.459  34.443  1.00  0.00     0.010 A 
ATOM     41  C   UNL A   1      46.055  29.482  33.634  1.00  0.00     0.010 A 
ATOM     42  C   UNL A   1      44.911  28.672  33.746  1.00  0.00    -0.014 A 
BRANCH  42  43
ATOM     43  C   UNL A   1      43.690  29.004  32.981  1.00  0.00     0.031 A 
ATOM     44  C   UNL A   1      42.633  29.843  33.642  1.00  0.00     0.074 A 
ATOM     45  C   UNL A   1      43.529  28.575  31.717  1.00  0.00     0.049 A 
ATOM     46  N   UNL A   1      41.475  30.227  33.177  1.00  0.00    -0.248 NA
ATOM     47  C   UNL A   1      42.920  30.313  35.009  1.00  0.00     0.031 C 
ATOM     48  C   UNL A   1      44.498  27.782  30.963  1.00  0.00     0.029 A 
ATOM     49  N   UNL A   1      42.477  28.738  30.851  1.00  0.00    -0.354 N 
ATOM     50  C   UNL A   1      40.886  30.965  34.196  1.00  0.00     0.074 A 
ATOM     51  C   UNL A   1      41.809  30.972  35.309  1.00  0.00     0.031 C 
ATOM     52  C   UNL A   1      43.986  27.508  29.751  1.00  0.00     0.029 A 
ATOM     53  C   UNL A   1      42.647  28.088  29.653  1.00  0.00     0.049 A 
ATOM     54  H   UNL A   1      41.678  29.270  31.068  1.00  0.00     0.167 HD
ATOM     55  C   UNL A   1      39.690  31.594  34.197  1.00  0.00     0.034 A 
ATOM     56  C   UNL A   1      41.810  27.964  28.604  1.00  0.00     0.034 A 
ATOM     57  C   UNL A   1      38.783  31.603  33.085  1.00  0.00     0.049 A 
ATOM     58  C   UNL A   1      40.463  28.633  28.648  1.00  0.00     0.074 A 
ATOM     59  C   UNL A   1      37.560  32.242  32.983  1.00  0.00     0.029 A 
ATOM     60  N   UNL A   1      38.992  30.937  31.890  1.00  0.00    -0.354 N 
ATOM     61  N   UNL A   1      39.953  29.393  29.588  1.00  0.00    -0.248 NA
ATOM     62  C   UNL A   1      39.585  28.449  27.483  1.00  0.00     0.031 C 
ATOM     63  C   UNL A   1      37.020  31.947  31.729  1.00  0.00     0.029 A 
ATOM     64  C   UNL A   1      37.916  31.141  31.044  1.00  0.00     0.049 A 
ATOM     65  H   UNL A   1      39.787  30.399  31.673  1.00  0.00     0.167 HD
ATOM     66  C   UNL A   1      38.709  29.799  29.118  1.00  0.00     0.074 A 
ATOM     67  C   UNL A   1      38.543  29.207  27.807  1.00  0.00     0.031 C 
ATOM     68  C   UNL A   1      37.786  30.584  29.723  1.00  0.00     0.034 A 
BRANCH  55  69
ATOM     69  C   UNL A   1      39.299  32.361  35.427  1.00  0.00     0.023 A 
ATOM     70  C   UNL A   1      39.599  33.735  35.507  1.00  0.00     0.012 A 
ATOM     71  C   UNL A   1      38.558  31.748  36.455  1.00  0.00     0.148 A 
ATOM     72  C   UNL A   1      39.171  34.489  36.598  1.00  0.00     0.002 A 
ATOM     73  C   UNL A   1      38.108  32.512  37.524  1.00  0.00     0.091 A 
ATOM     74  F   UNL A   1      38.302  30.435  36.361  1.00  0.00    -0.205 F 
ATOM     75  C   UNL A   1      38.417  33.881  37.599  1.00  0.00     0.022 A 
BRANCH  73  76
ATOM     76  S   UNL A   1      37.089  31.840  38.840  1.00  0.00     0.127 S 
ATOM     77  O   UNL A   1      37.814  32.282  40.030  1.00  0.00    -0.237 OA
ATOM     78  O   UNL A   1      35.813  32.519  38.616  1.00  0.00    -0.237 OA
ATOM     79  O   UNL A   1      37.061  30.399  38.634  1.00  0.00    -0.744 OA
ENDBRANCH  73  76
ENDBRANCH  55  69
BRANCH  56  80
ATOM     80  C   UNL A   1      42.254  27.210  27.401  1.00  0.00     0.023 A 
ATOM     81  C   UNL A   1      42.813  27.913  26.318  1.00  0.00     0.012 A 
ATOM     82  C   UNL A   1      42.174  25.805  27.349  1.00  0.00     0.148 A 
ATOM     83  C   UNL A   1      43.281  27.229  25.196  1.00  0.00     0.002 A 
ATOM     84  C   UNL A   1      42.676  25.127  26.243  1.00  0.00     0.091 A 
ATOM     85  F   UNL A   1      41.633  25.162  28.392  1.00  0.00    -0.205 F 
ATOM     86  C   UNL A   1      43.221  25.838  25.162  1.00  0.00     0.022 A 
BRANCH  84  87
ATOM     87  S   UNL A   1      42.726  23.335  26.143  1.00  0.00     0.127 S 
ATOM     88  O   UNL A   1      43.875  23.019  26.989  1.00  0.00    -0.237 OA
ATOM     89  O   UNL A   1      41.426  22.970  26.706  1.00  0.00    -0.237 OA
ATOM     90  O   UNL A   1      42.886  23.019  24.730  1.00  0.00    -0.744 OA
ENDBRANCH  84  87
ENDBRANCH  56  80
BRANCH  68  91
ATOM     91  C   UNL A   1      36.509  30.885  28.987  1.00  0.00     0.023 A 
ATOM     92  C   UNL A   1      35.690  29.823  28.562  1.00  0.00     0.012 A 
ATOM     93  C   UNL A   1      36.056  32.213  28.854  1.00  0.00     0.148 A 
ATOM     94  C   UNL A   1      34.435  30.078  28.010  1.00  0.00     0.002 A 
ATOM     95  C   UNL A   1      34.792  32.458  28.335  1.00  0.00     0.091 A 
ATOM     96  F   UNL A   1      36.859  33.205  29.266  1.00  0.00    -0.205 F 
ATOM     97  C   UNL A   1      33.981  31.392  27.908  1.00  0.00     0.022 A 
BRANCH  95  98
ATOM     98  S   UNL A   1      34.086  34.107  28.234  1.00  0.00     0.127 S 
ATOM     99  O   UNL A   1      34.920  34.724  27.202  1.00  0.00    -0.237 OA
ATOM    100  O   UNL A   1      32.710  33.829  27.821  1.00  0.00    -0.237 OA
ATOM    101  O   UNL A   1      34.220  34.687  29.563  1.00  0.00    -0.744 OA
ENDBRANCH  95  98
ENDBRANCH  68  91
ENDBRANCH  42  43
ENDBRANCH  35  37
ENDBRANCH  34  35
ENDBRANCH  33  34
ENDBRANCH  32  33
ENDBRANCH   1  32
TORSDOF 20
ENDMDL
