MODEL 1
REMARK VINA RESULT:     -11.0      0.000      0.000
REMARK SMILES CC(=O)c1ccc(NC(=O)C[C@H](C(=O)OCCOCCOC(=O)c2ccc(-c3c4nc(c(-c5cccc(S(=O)(=O)[O-])c5F)c5ccc([nH]5)c(-c5cccc(S(=O)(=O)[O-])c5F)c5nc(c(-c6cccc(S(=O)(=O)[O-])c6F)c6ccc3[nH]6)C=C5)C=C4)cc2)[NH+](C)C)cc1
REMARK SMILES IDX 17 1 16 2 15 3 13 4 14 5 12 6 11 7 9 8 8 9 10 11 7 12 4 13
REMARK SMILES IDX 5 14 91 15 6 16 90 17 2 18 1 19 3 20 87 21 88 22 89 23 18 25
REMARK SMILES IDX 19 26 20 27 21 28 22 29 23 30 24 31 25 32 86 33 26 34 85 35
REMARK SMILES IDX 27 36 28 37 29 38 79 39 30 40 84 41 78 42 80 43 31 44 83 45
REMARK SMILES IDX 77 46 76 47 32 49 64 50 44 51 63 52 45 53 48 54 62 55 81 56
REMARK SMILES IDX 46 57 47 58 61 60 82 61 49 62 33 63 34 64 42 65 35 66 37 67
REMARK SMILES IDX 43 68 36 69 38 70 39 71 40 72 41 73 65 74 66 75 74 76 67 77
REMARK SMILES IDX 69 78 75 79 68 80 70 81 71 82 72 83 73 84 50 85 51 86 59 87
REMARK SMILES IDX 52 88 54 89 60 90 53 91 55 92 56 93 57 94 58 95
REMARK H PARENT 8 10 87 24 80 48 48 59
REMARK Flexibility Score: inf
ROOT
ATOM      1  C   UNL A   1      36.680  22.302  24.644  1.00  0.00     0.202 C 
ENDROOT
BRANCH   1   2
ATOM      2  C   UNL A   1      35.831  22.875  23.505  1.00  0.00     0.261 C 
BRANCH   2   3
ATOM      3  O   UNL A   1      34.416  22.805  23.710  1.00  0.00    -0.459 OA
BRANCH   3   4
ATOM      4  C   UNL A   1      33.916  23.764  24.540  1.00  0.00     0.365 C 
ATOM      5  O   UNL A   1      34.159  24.963  24.433  1.00  0.00    -0.245 OA
BRANCH   4   6
ATOM      6  C   UNL A   1      33.064  23.184  25.682  1.00  0.00     0.304 C 
BRANCH   6   7
ATOM      7  C   UNL A   1      31.549  23.132  25.405  1.00  0.00     0.177 C 
BRANCH   7   8
ATOM      8  C   UNL A   1      30.753  23.732  26.555  1.00  0.00     0.231 C 
ATOM      9  N   UNL A   1      30.244  25.004  26.524  1.00  0.00    -0.326 N 
ATOM     10  H   UNL A   1      29.732  25.273  27.320  1.00  0.00     0.169 HD
ATOM     11  O   UNL A   1      30.441  23.019  27.517  1.00  0.00    -0.274 OA
BRANCH   9  12
ATOM     12  C   UNL A   1      30.350  25.980  25.521  1.00  0.00     0.041 A 
ATOM     13  C   UNL A   1      30.317  28.265  23.942  1.00  0.00     0.017 A 
ATOM     14  C   UNL A   1      29.437  27.222  23.652  1.00  0.00     0.014 A 
ATOM     15  C   UNL A   1      31.301  28.120  24.921  1.00  0.00     0.014 A 
ATOM     16  C   UNL A   1      29.463  26.070  24.445  1.00  0.00     0.027 A 
ATOM     17  C   UNL A   1      31.343  26.954  25.687  1.00  0.00     0.027 A 
BRANCH  13  18
ATOM     18  C   UNL A   1      30.099  29.603  23.364  1.00  0.00     0.159 C 
ATOM     19  C   UNL A   1      30.115  29.738  21.873  1.00  0.00     0.093 C 
ATOM     20  O   UNL A   1      30.004  30.570  24.116  1.00  0.00    -0.295 OA
ENDBRANCH  13  18
ENDBRANCH   9  12
ENDBRANCH   7   8
ENDBRANCH   6   7
BRANCH   6  21
ATOM     21  N   UNL A   1      33.594  21.861  26.102  1.00  0.00    -0.328 N 
ATOM     22  C   UNL A   1      32.747  20.760  25.654  1.00  0.00     0.333 C 
ATOM     23  C   UNL A   1      33.872  21.754  27.536  1.00  0.00     0.333 C 
ATOM     24  H   UNL A   1      34.495  21.784  25.630  1.00  0.00     0.348 HD
ENDBRANCH   6  21
ENDBRANCH   4   6
ENDBRANCH   3   4
ENDBRANCH   2   3
ENDBRANCH   1   2
BRANCH   1  25
ATOM     25  O   UNL A   1      36.367  21.010  25.151  1.00  0.00    -0.374 OA
BRANCH  25  26
ATOM     26  C   UNL A   1      37.083  19.881  24.657  1.00  0.00     0.202 C 
BRANCH  26  27
ATOM     27  C   UNL A   1      38.405  19.498  25.329  1.00  0.00     0.261 C 
BRANCH  27  28
ATOM     28  O   UNL A   1      39.333  20.593  25.414  1.00  0.00    -0.460 OA
BRANCH  28  29
ATOM     29  C   UNL A   1      40.210  20.497  26.444  1.00  0.00     0.338 C 
ATOM     30  O   UNL A   1      40.873  19.523  26.757  1.00  0.00    -0.246 OA
BRANCH  29  31
ATOM     31  C   UNL A   1      40.410  21.812  27.076  1.00  0.00     0.060 A 
ATOM     32  C   UNL A   1      39.702  22.897  26.544  1.00  0.00     0.016 A 
ATOM     33  C   UNL A   1      41.373  22.002  28.068  1.00  0.00     0.016 A 
ATOM     34  C   UNL A   1      40.004  24.192  26.956  1.00  0.00     0.010 A 
ATOM     35  C   UNL A   1      41.681  23.305  28.472  1.00  0.00     0.010 A 
ATOM     36  C   UNL A   1      41.031  24.405  27.883  1.00  0.00    -0.014 A 
BRANCH  36  37
ATOM     37  C   UNL A   1      41.537  25.778  28.104  1.00  0.00     0.031 A 
ATOM     38  C   UNL A   1      42.933  26.118  27.657  1.00  0.00     0.074 A 
ATOM     39  C   UNL A   1      40.761  26.711  28.682  1.00  0.00     0.049 A 
ATOM     40  N   UNL A   1      43.582  27.249  27.757  1.00  0.00    -0.248 NA
ATOM     41  C   UNL A   1      43.701  25.040  27.012  1.00  0.00     0.031 C 
ATOM     42  C   UNL A   1      39.391  26.498  29.144  1.00  0.00     0.029 A 
ATOM     43  N   UNL A   1      41.026  28.019  28.997  1.00  0.00    -0.354 N 
ATOM     44  C   UNL A   1      44.839  27.014  27.213  1.00  0.00     0.074 A 
ATOM     45  C   UNL A   1      44.868  25.629  26.794  1.00  0.00     0.031 C 
ATOM     46  C   UNL A   1      38.942  27.632  29.710  1.00  0.00     0.029 A 
ATOM     47  C   UNL A   1      39.999  28.640  29.666  1.00  0.00     0.049 A 
ATOM     48  H   UNL A   1      41.870  28.470  28.766  1.00  0.00     0.167 HD
ATOM     49  C   UNL A   1      45.870  27.877  27.057  1.00  0.00     0.034 A 
ATOM     50  C   UNL A   1      39.930  29.878  30.196  1.00  0.00     0.034 A 
ATOM     51  C   UNL A   1      45.829  29.258  27.454  1.00  0.00     0.049 A 
ATOM     52  C   UNL A   1      41.102  30.811  30.034  1.00  0.00     0.074 A 
ATOM     53  C   UNL A   1      46.803  30.228  27.300  1.00  0.00     0.029 A 
ATOM     54  N   UNL A   1      44.760  29.863  28.095  1.00  0.00    -0.354 N 
ATOM     55  N   UNL A   1      42.236  30.612  29.407  1.00  0.00    -0.248 NA
ATOM     56  C   UNL A   1      40.971  32.152  30.625  1.00  0.00     0.031 C 
ATOM     57  C   UNL A   1      46.329  31.416  27.866  1.00  0.00     0.029 A 
ATOM     58  C   UNL A   1      45.053  31.191  28.356  1.00  0.00     0.049 A 
ATOM     59  H   UNL A   1      43.916  29.415  28.332  1.00  0.00     0.167 HD
ATOM     60  C   UNL A   1      42.938  31.810  29.496  1.00  0.00     0.074 A 
ATOM     61  C   UNL A   1      42.093  32.735  30.223  1.00  0.00     0.031 C 
ATOM     62  C   UNL A   1      44.175  32.113  29.031  1.00  0.00     0.034 A 
BRANCH  49  63
ATOM     63  C   UNL A   1      47.121  27.357  26.401  1.00  0.00     0.023 A 
ATOM     64  C   UNL A   1      47.365  27.648  25.043  1.00  0.00     0.012 A 
ATOM     65  C   UNL A   1      48.072  26.621  27.132  1.00  0.00     0.148 A 
ATOM     66  C   UNL A   1      48.522  27.189  24.416  1.00  0.00     0.002 A 
ATOM     67  C   UNL A   1      49.243  26.200  26.510  1.00  0.00     0.091 A 
ATOM     68  F   UNL A   1      47.810  26.330  28.414  1.00  0.00    -0.205 F 
ATOM     69  C   UNL A   1      49.465  26.476  25.151  1.00  0.00     0.022 A 
BRANCH  67  70
ATOM     70  S   UNL A   1      50.545  25.336  27.394  1.00  0.00     0.127 S 
ATOM     71  O   UNL A   1      51.494  25.050  26.318  1.00  0.00    -0.237 OA
ATOM     72  O   UNL A   1      50.996  26.346  28.351  1.00  0.00    -0.237 OA
ATOM     73  O   UNL A   1      49.911  24.171  27.999  1.00  0.00    -0.744 OA
ENDBRANCH  67  70
ENDBRANCH  49  63
BRANCH  50  74
ATOM     74  C   UNL A   1      38.688  30.320  30.889  1.00  0.00     0.023 A 
ATOM     75  C   UNL A   1      38.528  30.051  32.261  1.00  0.00     0.012 A 
ATOM     76  C   UNL A   1      37.681  31.030  30.206  1.00  0.00     0.148 A 
ATOM     77  C   UNL A   1      37.375  30.458  32.936  1.00  0.00     0.002 A 
ATOM     78  C   UNL A   1      36.561  31.480  30.895  1.00  0.00     0.091 A 
ATOM     79  F   UNL A   1      37.841  31.259  28.894  1.00  0.00    -0.205 F 
ATOM     80  C   UNL A   1      36.398  31.182  32.257  1.00  0.00     0.022 A 
BRANCH  78  81
ATOM     81  S   UNL A   1      35.322  32.532  30.129  1.00  0.00     0.127 S 
ATOM     82  O   UNL A   1      34.841  31.684  29.040  1.00  0.00    -0.237 OA
ATOM     83  O   UNL A   1      34.370  32.730  31.222  1.00  0.00    -0.237 OA
ATOM     84  O   UNL A   1      36.029  33.741  29.729  1.00  0.00    -0.744 OA
ENDBRANCH  78  81
ENDBRANCH  50  74
BRANCH  62  85
ATOM     85  C   UNL A   1      44.687  33.511  29.263  1.00  0.00     0.023 A 
ATOM     86  C   UNL A   1      45.413  33.801  30.434  1.00  0.00     0.012 A 
ATOM     87  C   UNL A   1      44.521  34.511  28.285  1.00  0.00     0.148 A 
ATOM     88  C   UNL A   1      45.943  35.075  30.642  1.00  0.00     0.002 A 
ATOM     89  C   UNL A   1      45.091  35.765  28.477  1.00  0.00     0.091 A 
ATOM     90  F   UNL A   1      43.811  34.220  27.185  1.00  0.00    -0.205 F 
ATOM     91  C   UNL A   1      45.792  36.052  29.660  1.00  0.00     0.022 A 
BRANCH  89  92
ATOM     92  S   UNL A   1      45.026  37.051  27.225  1.00  0.00     0.127 S 
ATOM     93  O   UNL A   1      45.674  38.168  27.910  1.00  0.00    -0.237 OA
ATOM     94  O   UNL A   1      45.810  36.467  26.136  1.00  0.00    -0.237 OA
ATOM     95  O   UNL A   1      43.615  37.237  26.918  1.00  0.00    -0.744 OA
ENDBRANCH  89  92
ENDBRANCH  62  85
ENDBRANCH  36  37
ENDBRANCH  29  31
ENDBRANCH  28  29
ENDBRANCH  27  28
ENDBRANCH  26  27
ENDBRANCH  25  26
ENDBRANCH   1  25
TORSDOF 22
ENDMDL
MODEL 2
REMARK VINA RESULT:     -10.6      1.922      2.221
REMARK SMILES CC(=O)c1ccc(NC(=O)C[C@H](C(=O)OCCOCCOC(=O)c2ccc(-c3c4nc(c(-c5cccc(S(=O)(=O)[O-])c5F)c5ccc([nH]5)c(-c5cccc(S(=O)(=O)[O-])c5F)c5nc(c(-c6cccc(S(=O)(=O)[O-])c6F)c6ccc3[nH]6)C=C5)C=C4)cc2)[NH+](C)C)cc1
REMARK SMILES IDX 17 1 16 2 15 3 13 4 14 5 12 6 11 7 9 8 8 9 10 11 7 12 4 13
REMARK SMILES IDX 5 14 91 15 6 16 90 17 2 18 1 19 3 20 87 21 88 22 89 23 18 25
REMARK SMILES IDX 19 26 20 27 21 28 22 29 23 30 24 31 25 32 86 33 26 34 85 35
REMARK SMILES IDX 27 36 28 37 29 38 79 39 30 40 84 41 78 42 80 43 31 44 83 45
REMARK SMILES IDX 77 46 76 47 32 49 64 50 44 51 63 52 45 53 48 54 62 55 81 56
REMARK SMILES IDX 46 57 47 58 61 60 82 61 49 62 33 63 34 64 42 65 35 66 37 67
REMARK SMILES IDX 43 68 36 69 38 70 39 71 40 72 41 73 65 74 66 75 74 76 67 77
REMARK SMILES IDX 69 78 75 79 68 80 70 81 71 82 72 83 73 84 50 85 51 86 59 87
REMARK SMILES IDX 52 88 54 89 60 90 53 91 55 92 56 93 57 94 58 95
REMARK H PARENT 8 10 87 24 80 48 48 59
REMARK Flexibility Score: inf
ROOT
ATOM      1  C   UNL A   1      36.859  22.556  24.168  1.00  0.00     0.202 C 
ENDROOT
BRANCH   1   2
ATOM      2  C   UNL A   1      35.786  23.303  23.370  1.00  0.00     0.261 C 
BRANCH   2   3
ATOM      3  O   UNL A   1      34.526  22.629  23.272  1.00  0.00    -0.459 OA
BRANCH   3   4
ATOM      4  C   UNL A   1      33.452  23.380  23.648  1.00  0.00     0.365 C 
ATOM      5  O   UNL A   1      33.005  24.320  22.996  1.00  0.00    -0.245 OA
BRANCH   4   6
ATOM      6  C   UNL A   1      32.890  22.976  25.023  1.00  0.00     0.304 C 
BRANCH   6   7
ATOM      7  C   UNL A   1      31.385  23.243  25.216  1.00  0.00     0.177 C 
BRANCH   7   8
ATOM      8  C   UNL A   1      31.123  24.064  26.471  1.00  0.00     0.231 C 
ATOM      9  N   UNL A   1      30.737  25.378  26.433  1.00  0.00    -0.326 N 
ATOM     10  H   UNL A   1      30.581  25.797  27.310  1.00  0.00     0.169 HD
ATOM     11  O   UNL A   1      31.142  23.508  27.576  1.00  0.00    -0.274 OA
BRANCH   9  12
ATOM     12  C   UNL A   1      30.533  26.214  25.325  1.00  0.00     0.041 A 
ATOM     13  C   UNL A   1      29.907  28.240  23.531  1.00  0.00     0.017 A 
ATOM     14  C   UNL A   1      29.153  27.067  23.525  1.00  0.00     0.014 A 
ATOM     15  C   UNL A   1      31.050  28.352  24.325  1.00  0.00     0.014 A 
ATOM     16  C   UNL A   1      29.477  26.046  24.425  1.00  0.00     0.027 A 
ATOM     17  C   UNL A   1      31.387  27.316  25.197  1.00  0.00     0.027 A 
BRANCH  13  18
ATOM     18  C   UNL A   1      29.405  29.450  22.856  1.00  0.00     0.159 C 
ATOM     19  C   UNL A   1      29.376  30.729  23.633  1.00  0.00     0.093 C 
ATOM     20  O   UNL A   1      28.944  29.353  21.722  1.00  0.00    -0.295 OA
ENDBRANCH  13  18
ENDBRANCH   9  12
ENDBRANCH   7   8
ENDBRANCH   6   7
BRANCH   6  21
ATOM     21  N   UNL A   1      33.244  21.566  25.331  1.00  0.00    -0.328 N 
ATOM     22  C   UNL A   1      32.285  20.620  24.769  1.00  0.00     0.333 C 
ATOM     23  C   UNL A   1      33.463  21.302  26.755  1.00  0.00     0.333 C 
ATOM     24  H   UNL A   1      34.144  21.421  24.873  1.00  0.00     0.348 HD
ENDBRANCH   6  21
ENDBRANCH   4   6
ENDBRANCH   3   4
ENDBRANCH   2   3
ENDBRANCH   1   2
BRANCH   1  25
ATOM     25  O   UNL A   1      36.463  21.487  25.018  1.00  0.00    -0.374 OA
BRANCH  25  26
ATOM     26  C   UNL A   1      36.918  20.167  24.728  1.00  0.00     0.202 C 
BRANCH  26  27
ATOM     27  C   UNL A   1      38.247  19.700  25.328  1.00  0.00     0.261 C 
BRANCH  27  28
ATOM     28  O   UNL A   1      39.242  20.736  25.372  1.00  0.00    -0.460 OA
BRANCH  28  29
ATOM     29  C   UNL A   1      40.107  20.630  26.412  1.00  0.00     0.338 C 
ATOM     30  O   UNL A   1      40.752  19.648  26.735  1.00  0.00    -0.246 OA
BRANCH  29  31
ATOM     31  C   UNL A   1      40.319  21.944  27.042  1.00  0.00     0.060 A 
ATOM     32  C   UNL A   1      39.599  23.030  26.527  1.00  0.00     0.016 A 
ATOM     33  C   UNL A   1      41.303  22.133  28.014  1.00  0.00     0.016 A 
ATOM     34  C   UNL A   1      39.909  24.324  26.935  1.00  0.00     0.010 A 
ATOM     35  C   UNL A   1      41.618  23.435  28.414  1.00  0.00     0.010 A 
ATOM     36  C   UNL A   1      40.956  24.536  27.841  1.00  0.00    -0.014 A 
BRANCH  36  37
ATOM     37  C   UNL A   1      41.466  25.909  28.054  1.00  0.00     0.031 A 
ATOM     38  C   UNL A   1      42.841  26.259  27.553  1.00  0.00     0.074 A 
ATOM     39  C   UNL A   1      40.711  26.833  28.673  1.00  0.00     0.049 A 
ATOM     40  N   UNL A   1      43.489  27.391  27.636  1.00  0.00    -0.248 NA
ATOM     41  C   UNL A   1      43.585  25.189  26.866  1.00  0.00     0.031 C 
ATOM     42  C   UNL A   1      39.363  26.611  29.189  1.00  0.00     0.029 A 
ATOM     43  N   UNL A   1      40.985  28.139  28.989  1.00  0.00    -0.354 N 
ATOM     44  C   UNL A   1      44.723  27.166  27.037  1.00  0.00     0.074 A 
ATOM     45  C   UNL A   1      44.740  25.785  26.605  1.00  0.00     0.031 C 
ATOM     46  C   UNL A   1      38.933  27.737  29.784  1.00  0.00     0.029 A 
ATOM     47  C   UNL A   1      39.984  28.750  29.706  1.00  0.00     0.049 A 
ATOM     48  H   UNL A   1      41.817  28.595  28.727  1.00  0.00     0.167 HD
ATOM     49  C   UNL A   1      45.744  28.035  26.847  1.00  0.00     0.034 A 
ATOM     50  C   UNL A   1      39.933  29.983  30.251  1.00  0.00     0.034 A 
ATOM     51  C   UNL A   1      45.715  29.411  27.259  1.00  0.00     0.049 A 
ATOM     52  C   UNL A   1      41.094  30.922  30.049  1.00  0.00     0.074 A 
ATOM     53  C   UNL A   1      46.678  30.387  27.074  1.00  0.00     0.029 A 
ATOM     54  N   UNL A   1      44.671  30.007  27.950  1.00  0.00    -0.354 N 
ATOM     55  N   UNL A   1      42.202  30.733  29.373  1.00  0.00    -0.248 NA
ATOM     56  C   UNL A   1      40.983  32.256  30.658  1.00  0.00     0.031 C 
ATOM     57  C   UNL A   1      46.224  31.568  27.670  1.00  0.00     0.029 A 
ATOM     58  C   UNL A   1      44.970  31.332  28.211  1.00  0.00     0.049 A 
ATOM     59  H   UNL A   1      43.840  29.553  28.217  1.00  0.00     0.167 HD
ATOM     60  C   UNL A   1      42.903  31.932  29.444  1.00  0.00     0.074 A 
ATOM     61  C   UNL A   1      42.086  32.847  30.214  1.00  0.00     0.031 C 
ATOM     62  C   UNL A   1      44.118  32.245  28.931  1.00  0.00     0.034 A 
BRANCH  49  63
ATOM     63  C   UNL A   1      46.968  27.526  26.134  1.00  0.00     0.023 A 
ATOM     64  C   UNL A   1      47.884  26.707  26.825  1.00  0.00     0.012 A 
ATOM     65  C   UNL A   1      47.192  27.821  24.776  1.00  0.00     0.148 A 
ATOM     66  C   UNL A   1      49.019  26.213  26.183  1.00  0.00     0.002 A 
ATOM     67  C   UNL A   1      48.305  27.292  24.132  1.00  0.00     0.091 A 
ATOM     68  F   UNL A   1      46.325  28.624  24.143  1.00  0.00    -0.205 F 
ATOM     69  C   UNL A   1      49.223  26.496  24.835  1.00  0.00     0.022 A 
BRANCH  67  70
ATOM     70  S   UNL A   1      48.615  27.545  22.381  1.00  0.00     0.127 S 
ATOM     71  O   UNL A   1      48.706  26.169  21.894  1.00  0.00    -0.237 OA
ATOM     72  O   UNL A   1      47.415  28.264  21.952  1.00  0.00    -0.237 OA
ATOM     73  O   UNL A   1      49.845  28.323  22.302  1.00  0.00    -0.744 OA
ENDBRANCH  67  70
ENDBRANCH  49  63
BRANCH  50  74
ATOM     74  C   UNL A   1      38.719  30.413  30.999  1.00  0.00     0.023 A 
ATOM     75  C   UNL A   1      38.640  30.176  32.384  1.00  0.00     0.012 A 
ATOM     76  C   UNL A   1      37.660  31.082  30.354  1.00  0.00     0.148 A 
ATOM     77  C   UNL A   1      37.516  30.572  33.110  1.00  0.00     0.002 A 
ATOM     78  C   UNL A   1      36.568  31.523  31.092  1.00  0.00     0.091 A 
ATOM     79  F   UNL A   1      37.744  31.280  29.031  1.00  0.00    -0.205 F 
ATOM     80  C   UNL A   1      36.486  31.256  32.468  1.00  0.00     0.022 A 
BRANCH  78  81
ATOM     81  S   UNL A   1      35.264  32.526  30.369  1.00  0.00     0.127 S 
ATOM     82  O   UNL A   1      34.366  32.715  31.505  1.00  0.00    -0.237 OA
ATOM     83  O   UNL A   1      35.994  33.724  29.954  1.00  0.00    -0.237 OA
ATOM     84  O   UNL A   1      34.734  31.740  29.263  1.00  0.00    -0.744 OA
ENDBRANCH  78  81
ENDBRANCH  50  74
BRANCH  62  85
ATOM     85  C   UNL A   1      44.634  33.643  29.155  1.00  0.00     0.023 A 
ATOM     86  C   UNL A   1      44.329  34.655  28.225  1.00  0.00     0.012 A 
ATOM     87  C   UNL A   1      45.346  33.969  30.326  1.00  0.00     0.148 A 
ATOM     88  C   UNL A   1      44.751  35.967  28.443  1.00  0.00     0.002 A 
ATOM     89  C   UNL A   1      45.723  35.287  30.559  1.00  0.00     0.091 A 
ATOM     90  F   UNL A   1      45.643  32.987  31.191  1.00  0.00    -0.205 F 
ATOM     91  C   UNL A   1      45.435  36.285  29.614  1.00  0.00     0.022 A 
BRANCH  89  92
ATOM     92  S   UNL A   1      46.525  35.801  32.083  1.00  0.00     0.127 S 
ATOM     93  O   UNL A   1      45.574  35.339  33.091  1.00  0.00    -0.237 OA
ATOM     94  O   UNL A   1      47.782  35.053  32.042  1.00  0.00    -0.237 OA
ATOM     95  O   UNL A   1      46.681  37.246  31.981  1.00  0.00    -0.744 OA
ENDBRANCH  89  92
ENDBRANCH  62  85
ENDBRANCH  36  37
ENDBRANCH  29  31
ENDBRANCH  28  29
ENDBRANCH  27  28
ENDBRANCH  26  27
ENDBRANCH  25  26
ENDBRANCH   1  25
TORSDOF 22
ENDMDL
MODEL 3
REMARK VINA RESULT:      -9.8      1.938      2.631
REMARK SMILES CC(=O)c1ccc(NC(=O)C[C@H](C(=O)OCCOCCOC(=O)c2ccc(-c3c4nc(c(-c5cccc(S(=O)(=O)[O-])c5F)c5ccc([nH]5)c(-c5cccc(S(=O)(=O)[O-])c5F)c5nc(c(-c6cccc(S(=O)(=O)[O-])c6F)c6ccc3[nH]6)C=C5)C=C4)cc2)[NH+](C)C)cc1
REMARK SMILES IDX 17 1 16 2 15 3 13 4 14 5 12 6 11 7 9 8 8 9 10 11 7 12 4 13
REMARK SMILES IDX 5 14 91 15 6 16 90 17 2 18 1 19 3 20 87 21 88 22 89 23 18 25
REMARK SMILES IDX 19 26 20 27 21 28 22 29 23 30 24 31 25 32 86 33 26 34 85 35
REMARK SMILES IDX 27 36 28 37 29 38 79 39 30 40 84 41 78 42 80 43 31 44 83 45
REMARK SMILES IDX 77 46 76 47 32 49 64 50 44 51 63 52 45 53 48 54 62 55 81 56
REMARK SMILES IDX 46 57 47 58 61 60 82 61 49 62 33 63 34 64 42 65 35 66 37 67
REMARK SMILES IDX 43 68 36 69 38 70 39 71 40 72 41 73 65 74 66 75 74 76 67 77
REMARK SMILES IDX 69 78 75 79 68 80 70 81 71 82 72 83 73 84 50 85 51 86 59 87
REMARK SMILES IDX 52 88 54 89 60 90 53 91 55 92 56 93 57 94 58 95
REMARK H PARENT 8 10 87 24 80 48 48 59
REMARK Flexibility Score: inf
ROOT
ATOM      1  C   UNL A   1      36.447  23.309  26.009  1.00  0.00     0.202 C 
ENDROOT
BRANCH   1   2
ATOM      2  C   UNL A   1      35.253  22.349  26.045  1.00  0.00     0.261 C 
BRANCH   2   3
ATOM      3  O   UNL A   1      34.841  21.848  24.768  1.00  0.00    -0.459 OA
BRANCH   3   4
ATOM      4  C   UNL A   1      33.611  22.274  24.364  1.00  0.00     0.365 C 
ATOM      5  O   UNL A   1      33.420  23.040  23.423  1.00  0.00    -0.245 OA
BRANCH   4   6
ATOM      6  C   UNL A   1      32.472  21.750  25.256  1.00  0.00     0.304 C 
BRANCH   6   7
ATOM      7  C   UNL A   1      31.202  22.623  25.274  1.00  0.00     0.177 C 
BRANCH   7   8
ATOM      8  C   UNL A   1      31.012  23.299  26.625  1.00  0.00     0.231 C 
ATOM      9  N   UNL A   1      31.400  24.589  26.873  1.00  0.00    -0.326 N 
ATOM     10  H   UNL A   1      31.208  24.921  27.779  1.00  0.00     0.169 HD
ATOM     11  O   UNL A   1      30.377  22.716  27.513  1.00  0.00    -0.274 OA
BRANCH   9  12
ATOM     12  C   UNL A   1      32.034  25.506  26.021  1.00  0.00     0.041 A 
ATOM     13  C   UNL A   1      33.119  26.950  23.911  1.00  0.00     0.017 A 
ATOM     14  C   UNL A   1      33.971  26.283  24.790  1.00  0.00     0.014 A 
ATOM     15  C   UNL A   1      31.746  27.017  24.157  1.00  0.00     0.014 A 
ATOM     16  C   UNL A   1      33.421  25.563  25.856  1.00  0.00     0.027 A 
ATOM     17  C   UNL A   1      31.208  26.324  25.242  1.00  0.00     0.027 A 
BRANCH  13  18
ATOM     18  C   UNL A   1      33.618  27.426  22.608  1.00  0.00     0.159 C 
ATOM     19  C   UNL A   1      33.693  28.903  22.379  1.00  0.00     0.093 C 
ATOM     20  O   UNL A   1      33.866  26.605  21.728  1.00  0.00    -0.295 OA
ENDBRANCH  13  18
ENDBRANCH   9  12
ENDBRANCH   7   8
ENDBRANCH   6   7
BRANCH   6  21
ATOM     21  N   UNL A   1      32.164  20.335  24.923  1.00  0.00    -0.328 N 
ATOM     22  C   UNL A   1      32.913  19.397  25.753  1.00  0.00     0.333 C 
ATOM     23  C   UNL A   1      32.313  20.008  23.503  1.00  0.00     0.333 C 
ATOM     24  H   UNL A   1      31.172  20.230  25.136  1.00  0.00     0.348 HD
ENDBRANCH   6  21
ENDBRANCH   4   6
ENDBRANCH   3   4
ENDBRANCH   2   3
ENDBRANCH   1   2
BRANCH   1  25
ATOM     25  O   UNL A   1      37.643  22.892  25.361  1.00  0.00    -0.374 OA
BRANCH  25  26
ATOM     26  C   UNL A   1      38.658  22.249  26.128  1.00  0.00     0.202 C 
BRANCH  26  27
ATOM     27  C   UNL A   1      39.085  20.831  25.738  1.00  0.00     0.261 C 
BRANCH  27  28
ATOM     28  O   UNL A   1      39.925  20.205  26.722  1.00  0.00    -0.460 OA
BRANCH  28  29
ATOM     29  C   UNL A   1      41.200  19.994  26.308  1.00  0.00     0.338 C 
ATOM     30  O   UNL A   1      41.634  19.011  25.733  1.00  0.00    -0.246 OA
BRANCH  29  31
ATOM     31  C   UNL A   1      42.009  21.212  26.489  1.00  0.00     0.060 A 
ATOM     32  C   UNL A   1      42.324  21.588  27.802  1.00  0.00     0.016 A 
ATOM     33  C   UNL A   1      42.326  22.040  25.412  1.00  0.00     0.016 A 
ATOM     34  C   UNL A   1      42.899  22.830  28.049  1.00  0.00     0.010 A 
ATOM     35  C   UNL A   1      42.896  23.292  25.664  1.00  0.00     0.010 A 
ATOM     36  C   UNL A   1      43.139  23.709  26.986  1.00  0.00    -0.014 A 
BRANCH  36  37
ATOM     37  C   UNL A   1      43.481  25.121  27.273  1.00  0.00     0.031 A 
ATOM     38  C   UNL A   1      44.905  25.573  27.095  1.00  0.00     0.074 A 
ATOM     39  C   UNL A   1      42.535  25.988  27.672  1.00  0.00     0.049 A 
ATOM     40  N   UNL A   1      45.429  26.754  27.295  1.00  0.00    -0.248 NA
ATOM     41  C   UNL A   1      45.867  24.560  26.631  1.00  0.00     0.031 C 
ATOM     42  C   UNL A   1      41.124  25.665  27.867  1.00  0.00     0.029 A 
ATOM     43  N   UNL A   1      42.629  27.315  28.006  1.00  0.00    -0.354 N 
ATOM     44  C   UNL A   1      46.782  26.622  27.007  1.00  0.00     0.074 A 
ATOM     45  C   UNL A   1      47.002  25.242  26.629  1.00  0.00     0.031 C 
ATOM     46  C   UNL A   1      40.484  26.759  28.314  1.00  0.00     0.029 A 
ATOM     47  C   UNL A   1      41.445  27.852  28.454  1.00  0.00     0.049 A 
ATOM     48  H   UNL A   1      43.462  27.833  27.932  1.00  0.00     0.167 HD
ATOM     49  C   UNL A   1      47.751  27.567  27.035  1.00  0.00     0.034 A 
ATOM     50  C   UNL A   1      41.176  29.082  28.936  1.00  0.00     0.034 A 
ATOM     51  C   UNL A   1      47.524  28.941  27.389  1.00  0.00     0.049 A 
ATOM     52  C   UNL A   1      42.278  30.108  28.983  1.00  0.00     0.074 A 
ATOM     53  C   UNL A   1      48.428  29.988  27.406  1.00  0.00     0.029 A 
ATOM     54  N   UNL A   1      46.305  29.459  27.801  1.00  0.00    -0.354 N 
ATOM     55  N   UNL A   1      43.524  30.001  28.590  1.00  0.00    -0.248 NA
ATOM     56  C   UNL A   1      41.928  31.435  29.512  1.00  0.00     0.031 C 
ATOM     57  C   UNL A   1      47.759  31.135  27.846  1.00  0.00     0.029 A 
ATOM     58  C   UNL A   1      46.435  30.806  28.087  1.00  0.00     0.049 A 
ATOM     59  H   UNL A   1      45.471  28.943  27.881  1.00  0.00     0.167 HD
ATOM     60  C   UNL A   1      44.098  31.253  28.788  1.00  0.00     0.074 A 
ATOM     61  C   UNL A   1      43.057  32.108  29.320  1.00  0.00     0.031 C 
ATOM     62  C   UNL A   1      45.372  31.656  28.563  1.00  0.00     0.034 A 
BRANCH  49  63
ATOM     63  C   UNL A   1      49.143  27.150  26.641  1.00  0.00     0.023 A 
ATOM     64  C   UNL A   1      49.428  26.874  25.289  1.00  0.00     0.012 A 
ATOM     65  C   UNL A   1      50.175  27.072  27.596  1.00  0.00     0.148 A 
ATOM     66  C   UNL A   1      50.713  26.499  24.897  1.00  0.00     0.002 A 
ATOM     67  C   UNL A   1      51.462  26.735  27.191  1.00  0.00     0.091 A 
ATOM     68  F   UNL A   1      49.877  27.310  28.881  1.00  0.00    -0.205 F 
ATOM     69  C   UNL A   1      51.730  26.440  25.845  1.00  0.00     0.022 A 
BRANCH  67  70
ATOM     70  S   UNL A   1      52.851  26.701  28.330  1.00  0.00     0.127 S 
ATOM     71  O   UNL A   1      53.180  28.122  28.436  1.00  0.00    -0.237 OA
ATOM     72  O   UNL A   1      52.253  26.122  29.533  1.00  0.00    -0.237 OA
ATOM     73  O   UNL A   1      53.864  25.867  27.697  1.00  0.00    -0.744 OA
ENDBRANCH  67  70
ENDBRANCH  49  63
BRANCH  50  74
ATOM     74  C   UNL A   1      39.792  29.422  29.369  1.00  0.00     0.023 A 
ATOM     75  C   UNL A   1      38.804  29.671  28.398  1.00  0.00     0.012 A 
ATOM     76  C   UNL A   1      39.442  29.470  30.733  1.00  0.00     0.148 A 
ATOM     77  C   UNL A   1      37.499  29.988  28.776  1.00  0.00     0.002 A 
ATOM     78  C   UNL A   1      38.128  29.732  31.102  1.00  0.00     0.091 A 
ATOM     79  F   UNL A   1      40.401  29.250  31.644  1.00  0.00    -0.205 F 
ATOM     80  C   UNL A   1      37.157  30.007  30.126  1.00  0.00     0.022 A 
BRANCH  78  81
ATOM     81  S   UNL A   1      37.576  29.643  32.810  1.00  0.00     0.127 S 
ATOM     82  O   UNL A   1      37.404  28.204  32.995  1.00  0.00    -0.237 OA
ATOM     83  O   UNL A   1      38.711  30.225  33.529  1.00  0.00    -0.237 OA
ATOM     84  O   UNL A   1      36.360  30.443  32.870  1.00  0.00    -0.744 OA
ENDBRANCH  78  81
ENDBRANCH  50  74
BRANCH  62  85
ATOM     85  C   UNL A   1      45.715  33.092  28.861  1.00  0.00     0.023 A 
ATOM     86  C   UNL A   1      46.244  33.435  30.121  1.00  0.00     0.012 A 
ATOM     87  C   UNL A   1      45.594  34.084  27.868  1.00  0.00     0.148 A 
ATOM     88  C   UNL A   1      46.619  34.750  30.398  1.00  0.00     0.002 A 
ATOM     89  C   UNL A   1      46.013  35.382  28.135  1.00  0.00     0.091 A 
ATOM     90  F   UNL A   1      45.072  33.741  26.681  1.00  0.00    -0.205 F 
ATOM     91  C   UNL A   1      46.515  35.719  29.402  1.00  0.00     0.022 A 
BRANCH  89  92
ATOM     92  S   UNL A   1      46.003  36.671  26.884  1.00  0.00     0.127 S 
ATOM     93  O   UNL A   1      46.425  35.936  25.694  1.00  0.00    -0.237 OA
ATOM     94  O   UNL A   1      44.600  37.089  26.877  1.00  0.00    -0.237 OA
ATOM     95  O   UNL A   1      46.931  37.690  27.355  1.00  0.00    -0.744 OA
ENDBRANCH  89  92
ENDBRANCH  62  85
ENDBRANCH  36  37
ENDBRANCH  29  31
ENDBRANCH  28  29
ENDBRANCH  27  28
ENDBRANCH  26  27
ENDBRANCH  25  26
ENDBRANCH   1  25
TORSDOF 22
ENDMDL
