MODEL 1
REMARK VINA RESULT:      -7.9      0.000      0.000
REMARK SMILES CCCCCCNC(=O)Oc1cccc(-c2ccc([C@@H](C)C(=O)OCCOCCOC(=O)c3ccc(-c4c5nc(c(-c6cccc(S(=O)(=O)[O-])c6F)c6ccc([nH]6)c(-c6cccc(S(=O)(=O)[O-])c6F)c6nc(c(-c7cccc(S(=O)(=O)[O-])c7F)c7ccc4[nH]7)C=C6)C=C5)cc3)cc2F)c1
REMARK SMILES IDX 24 1 22 2 23 3 20 4 21 5 19 6 16 7 17 8 97 9 18 10 96 11
REMARK SMILES IDX 98 12 15 13 11 14 12 15 99 16 13 17 14 18 10 19 8 20 7 21
REMARK SMILES IDX 9 23 6 24 5 25 4 26 3 27 2 28 1 29 25 30 26 31 27 32 28 33
REMARK SMILES IDX 29 34 30 35 31 36 32 37 33 38 34 39 95 40 35 41 94 42 36 43
REMARK SMILES IDX 37 44 38 45 88 46 39 47 93 48 87 49 89 50 40 51 92 52 86 53
REMARK SMILES IDX 85 54 41 56 73 57 53 58 72 59 54 60 57 61 71 62 90 63 55 64
REMARK SMILES IDX 56 65 70 67 91 68 58 69 42 70 43 71 51 72 44 73 46 74 52 75
REMARK SMILES IDX 45 76 47 77 48 78 49 79 50 80 74 81 75 82 83 83 76 84 78 85
REMARK SMILES IDX 84 86 77 87 79 88 80 89 81 90 82 91 59 92 60 93 68 94 61 95
REMARK SMILES IDX 63 96 69 97 62 98 64 99 65 100 66 101 67 102
REMARK H PARENT 7 22 89 55 57 66
REMARK Flexibility Score: inf
ROOT
ATOM      1  O   UNL A   1      43.986  22.914  26.588  1.00  0.00    -0.463 OA
ENDROOT
BRANCH   1   2
ATOM      2  C   UNL A   1      43.108  23.946  26.662  1.00  0.00     0.313 C 
ATOM      3  O   UNL A   1      42.634  24.528  25.689  1.00  0.00    -0.252 OA
BRANCH   2   4
ATOM      4  C   UNL A   1      42.757  24.354  28.083  1.00  0.00     0.126 C 
ATOM      5  C   UNL A   1      42.569  23.101  28.934  1.00  0.00     0.025 C 
BRANCH   4   6
ATOM      6  C   UNL A   1      41.624  25.357  28.286  1.00  0.00    -0.031 A 
ATOM      7  C   UNL A   1      39.584  27.258  28.929  1.00  0.00     0.018 A 
ATOM      8  C   UNL A   1      39.276  25.913  28.661  1.00  0.00     0.012 A 
ATOM      9  C   UNL A   1      40.929  27.634  28.815  1.00  0.00     0.131 A 
ATOM     10  C   UNL A   1      40.277  24.978  28.349  1.00  0.00     0.005 A 
ATOM     11  C   UNL A   1      41.930  26.710  28.501  1.00  0.00     0.044 A 
ATOM     12  F   UNL A   1      41.304  28.900  29.057  1.00  0.00    -0.206 F 
BRANCH   7  13
ATOM     13  C   UNL A   1      38.547  28.208  29.377  1.00  0.00    -0.012 A 
ATOM     14  C   UNL A   1      37.012  30.048  28.969  1.00  0.00     0.133 A 
ATOM     15  C   UNL A   1      36.634  30.071  30.309  1.00  0.00     0.047 A 
ATOM     16  C   UNL A   1      37.965  29.141  28.500  1.00  0.00     0.056 A 
ATOM     17  C   UNL A   1      37.197  29.155  31.190  1.00  0.00     0.004 A 
ATOM     18  C   UNL A   1      38.142  28.233  30.727  1.00  0.00     0.009 A 
BRANCH  14  19
ATOM     19  O   UNL A   1      36.474  31.059  28.151  1.00  0.00    -0.410 OA
BRANCH  19  20
ATOM     20  C   UNL A   1      35.687  32.037  28.733  1.00  0.00     0.412 C 
ATOM     21  N   UNL A   1      36.367  33.190  29.009  1.00  0.00    -0.321 N 
ATOM     22  H   UNL A   1      35.849  33.916  29.425  1.00  0.00     0.167 HD
ATOM     23  O   UNL A   1      34.488  31.936  29.005  1.00  0.00    -0.224 OA
BRANCH  21  24
ATOM     24  C   UNL A   1      37.768  33.459  28.753  1.00  0.00     0.119 C 
BRANCH  24  25
ATOM     25  C   UNL A   1      38.530  33.789  30.037  1.00  0.00     0.021 C 
BRANCH  25  26
ATOM     26  C   UNL A   1      38.969  32.569  30.858  1.00  0.00     0.002 C 
BRANCH  26  27
ATOM     27  C   UNL A   1      38.428  32.503  32.290  1.00  0.00    -0.000 C 
BRANCH  27  28
ATOM     28  C   UNL A   1      37.362  33.544  32.641  1.00  0.00    -0.003 C 
ATOM     29  C   UNL A   1      35.943  33.001  32.576  1.00  0.00     0.004 C 
ENDBRANCH  27  28
ENDBRANCH  26  27
ENDBRANCH  25  26
ENDBRANCH  24  25
ENDBRANCH  21  24
ENDBRANCH  19  20
ENDBRANCH  14  19
ENDBRANCH   7  13
ENDBRANCH   4   6
ENDBRANCH   2   4
ENDBRANCH   1   2
BRANCH   1  30
ATOM     30  C   UNL A   1      43.799  21.999  25.494  1.00  0.00     0.261 C 
BRANCH  30  31
ATOM     31  C   UNL A   1      45.139  21.496  24.953  1.00  0.00     0.202 C 
BRANCH  31  32
ATOM     32  O   UNL A   1      46.276  22.330  25.183  1.00  0.00    -0.374 OA
BRANCH  32  33
ATOM     33  C   UNL A   1      46.449  23.460  24.330  1.00  0.00     0.202 C 
BRANCH  33  34
ATOM     34  C   UNL A   1      47.152  24.690  24.918  1.00  0.00     0.261 C 
BRANCH  34  35
ATOM     35  O   UNL A   1      46.777  25.914  24.266  1.00  0.00    -0.460 OA
BRANCH  35  36
ATOM     36  C   UNL A   1      47.341  27.024  24.800  1.00  0.00     0.338 C 
ATOM     37  O   UNL A   1      48.155  27.762  24.268  1.00  0.00    -0.246 OA
BRANCH  36  38
ATOM     38  C   UNL A   1      46.696  27.370  26.082  1.00  0.00     0.060 A 
ATOM     39  C   UNL A   1      45.296  27.328  26.114  1.00  0.00     0.016 A 
ATOM     40  C   UNL A   1      47.418  27.821  27.189  1.00  0.00     0.016 A 
ATOM     41  C   UNL A   1      44.609  27.818  27.220  1.00  0.00     0.010 A 
ATOM     42  C   UNL A   1      46.722  28.313  28.302  1.00  0.00     0.010 A 
ATOM     43  C   UNL A   1      45.316  28.363  28.299  1.00  0.00    -0.014 A 
BRANCH  43  44
ATOM     44  C   UNL A   1      44.564  29.138  29.319  1.00  0.00     0.031 A 
ATOM     45  C   UNL A   1      44.200  28.472  30.622  1.00  0.00     0.074 A 
ATOM     46  C   UNL A   1      44.279  30.439  29.126  1.00  0.00     0.049 A 
ATOM     47  N   UNL A   1      43.615  28.979  31.675  1.00  0.00    -0.248 NA
ATOM     48  C   UNL A   1      44.545  27.047  30.757  1.00  0.00     0.031 C 
ATOM     49  C   UNL A   1      44.591  31.202  27.918  1.00  0.00     0.029 A 
ATOM     50  N   UNL A   1      43.659  31.348  29.946  1.00  0.00    -0.354 N 
ATOM     51  C   UNL A   1      43.508  27.937  32.590  1.00  0.00     0.074 A 
ATOM     52  C   UNL A   1      44.064  26.762  31.958  1.00  0.00     0.031 C 
ATOM     53  C   UNL A   1      44.152  32.463  28.073  1.00  0.00     0.029 A 
ATOM     54  C   UNL A   1      43.515  32.593  29.381  1.00  0.00     0.049 A 
ATOM     55  H   UNL A   1      43.346  31.129  30.854  1.00  0.00     0.167 HD
ATOM     56  C   UNL A   1      43.018  27.960  33.852  1.00  0.00     0.034 A 
ATOM     57  C   UNL A   1      42.929  33.708  29.863  1.00  0.00     0.034 A 
ATOM     58  C   UNL A   1      42.486  29.133  34.492  1.00  0.00     0.049 A 
ATOM     59  C   UNL A   1      42.359  33.694  31.259  1.00  0.00     0.074 A 
ATOM     60  C   UNL A   1      41.994  29.262  35.779  1.00  0.00     0.029 A 
ATOM     61  N   UNL A   1      42.371  30.377  33.893  1.00  0.00    -0.354 N 
ATOM     62  N   UNL A   1      42.371  32.732  32.149  1.00  0.00    -0.248 NA
ATOM     63  C   UNL A   1      41.724  34.936  31.730  1.00  0.00     0.031 C 
ATOM     64  C   UNL A   1      41.558  30.581  35.950  1.00  0.00     0.029 A 
ATOM     65  C   UNL A   1      41.805  31.278  34.778  1.00  0.00     0.049 A 
ATOM     66  H   UNL A   1      42.649  30.588  32.972  1.00  0.00     0.167 HD
ATOM     67  C   UNL A   1      41.783  33.261  33.294  1.00  0.00     0.074 A 
ATOM     68  C   UNL A   1      41.449  34.637  32.992  1.00  0.00     0.031 C 
ATOM     69  C   UNL A   1      41.528  32.661  34.483  1.00  0.00     0.034 A 
BRANCH  56  70
ATOM     70  C   UNL A   1      43.071  26.679  34.645  1.00  0.00     0.023 A 
ATOM     71  C   UNL A   1      41.913  25.880  34.750  1.00  0.00     0.012 A 
ATOM     72  C   UNL A   1      44.271  26.238  35.236  1.00  0.00     0.148 A 
ATOM     73  C   UNL A   1      41.942  24.678  35.455  1.00  0.00     0.002 A 
ATOM     74  C   UNL A   1      44.301  25.017  35.902  1.00  0.00     0.091 A 
ATOM     75  F   UNL A   1      45.355  27.021  35.143  1.00  0.00    -0.205 F 
ATOM     76  C   UNL A   1      43.137  24.241  36.020  1.00  0.00     0.022 A 
BRANCH  74  77
ATOM     77  S   UNL A   1      45.808  24.330  36.599  1.00  0.00     0.127 S 
ATOM     78  O   UNL A   1      46.698  24.333  35.440  1.00  0.00    -0.237 OA
ATOM     79  O   UNL A   1      46.146  25.314  37.629  1.00  0.00    -0.237 OA
ATOM     80  O   UNL A   1      45.453  23.014  37.110  1.00  0.00    -0.744 OA
ENDBRANCH  74  77
ENDBRANCH  56  70
BRANCH  57  81
ATOM     81  C   UNL A   1      42.886  34.950  29.040  1.00  0.00     0.023 A 
ATOM     82  C   UNL A   1      41.701  35.295  28.362  1.00  0.00     0.012 A 
ATOM     83  C   UNL A   1      44.012  35.786  28.920  1.00  0.00     0.148 A 
ATOM     84  C   UNL A   1      41.649  36.429  27.551  1.00  0.00     0.002 A 
ATOM     85  C   UNL A   1      43.938  36.945  28.155  1.00  0.00     0.091 A 
ATOM     86  F   UNL A   1      45.139  35.430  29.554  1.00  0.00    -0.205 F 
ATOM     87  C   UNL A   1      42.763  37.259  27.455  1.00  0.00     0.022 A 
BRANCH  85  88
ATOM     88  S   UNL A   1      45.284  38.132  28.081  1.00  0.00     0.127 S 
ATOM     89  O   UNL A   1      46.360  37.329  27.508  1.00  0.00    -0.237 OA
ATOM     90  O   UNL A   1      44.736  39.155  27.191  1.00  0.00    -0.237 OA
ATOM     91  O   UNL A   1      45.486  38.580  29.452  1.00  0.00    -0.744 OA
ENDBRANCH  85  88
ENDBRANCH  57  81
BRANCH  69  92
ATOM     92  C   UNL A   1      40.886  33.491  35.565  1.00  0.00     0.023 A 
ATOM     93  C   UNL A   1      39.487  33.458  35.735  1.00  0.00     0.012 A 
ATOM     94  C   UNL A   1      41.672  34.249  36.455  1.00  0.00     0.148 A 
ATOM     95  C   UNL A   1      38.877  34.194  36.749  1.00  0.00     0.002 A 
ATOM     96  C   UNL A   1      41.062  34.942  37.495  1.00  0.00     0.091 A 
ATOM     97  F   UNL A   1      42.999  34.283  36.268  1.00  0.00    -0.205 F 
ATOM     98  C   UNL A   1      39.665  34.926  37.636  1.00  0.00     0.022 A 
BRANCH  96  99
ATOM     99  S   UNL A   1      42.001  35.832  38.741  1.00  0.00     0.127 S 
ATOM    100  O   UNL A   1      42.667  36.857  37.937  1.00  0.00    -0.237 OA
ATOM    101  O   UNL A   1      40.948  36.338  39.622  1.00  0.00    -0.237 OA
ATOM    102  O   UNL A   1      42.882  34.850  39.357  1.00  0.00    -0.744 OA
ENDBRANCH  96  99
ENDBRANCH  69  92
ENDBRANCH  43  44
ENDBRANCH  36  38
ENDBRANCH  35  36
ENDBRANCH  34  35
ENDBRANCH  33  34
ENDBRANCH  32  33
ENDBRANCH  31  32
ENDBRANCH  30  31
ENDBRANCH   1  30
TORSDOF 26
ENDMDL
MODEL 2
REMARK VINA RESULT:      -7.1      4.421     10.357
REMARK SMILES CCCCCCNC(=O)Oc1cccc(-c2ccc([C@@H](C)C(=O)OCCOCCOC(=O)c3ccc(-c4c5nc(c(-c6cccc(S(=O)(=O)[O-])c6F)c6ccc([nH]6)c(-c6cccc(S(=O)(=O)[O-])c6F)c6nc(c(-c7cccc(S(=O)(=O)[O-])c7F)c7ccc4[nH]7)C=C6)C=C5)cc3)cc2F)c1
REMARK SMILES IDX 24 1 22 2 23 3 20 4 21 5 19 6 16 7 17 8 97 9 18 10 96 11
REMARK SMILES IDX 98 12 15 13 11 14 12 15 99 16 13 17 14 18 10 19 8 20 7 21
REMARK SMILES IDX 9 23 6 24 5 25 4 26 3 27 2 28 1 29 25 30 26 31 27 32 28 33
REMARK SMILES IDX 29 34 30 35 31 36 32 37 33 38 34 39 95 40 35 41 94 42 36 43
REMARK SMILES IDX 37 44 38 45 88 46 39 47 93 48 87 49 89 50 40 51 92 52 86 53
REMARK SMILES IDX 85 54 41 56 73 57 53 58 72 59 54 60 57 61 71 62 90 63 55 64
REMARK SMILES IDX 56 65 70 67 91 68 58 69 42 70 43 71 51 72 44 73 46 74 52 75
REMARK SMILES IDX 45 76 47 77 48 78 49 79 50 80 74 81 75 82 83 83 76 84 78 85
REMARK SMILES IDX 84 86 77 87 79 88 80 89 81 90 82 91 59 92 60 93 68 94 61 95
REMARK SMILES IDX 63 96 69 97 62 98 64 99 65 100 66 101 67 102
REMARK H PARENT 7 22 89 55 57 66
REMARK Flexibility Score: inf
ROOT
ATOM      1  O   UNL A   1      35.194  34.314  30.241  1.00  0.00    -0.463 OA
ENDROOT
BRANCH   1   2
ATOM      2  C   UNL A   1      35.125  33.005  29.890  1.00  0.00     0.313 C 
ATOM      3  O   UNL A   1      35.125  32.070  30.686  1.00  0.00    -0.252 OA
BRANCH   2   4
ATOM      4  C   UNL A   1      35.068  32.773  28.389  1.00  0.00     0.126 C 
ATOM      5  C   UNL A   1      34.631  34.062  27.698  1.00  0.00     0.025 C 
BRANCH   4   6
ATOM      6  C   UNL A   1      34.294  31.561  27.876  1.00  0.00    -0.031 A 
ATOM      7  C   UNL A   1      32.980  29.322  26.675  1.00  0.00     0.018 A 
ATOM      8  C   UNL A   1      32.286  30.508  26.972  1.00  0.00     0.012 A 
ATOM      9  C   UNL A   1      34.330  29.269  27.042  1.00  0.00     0.131 A 
ATOM     10  C   UNL A   1      32.931  31.609  27.558  1.00  0.00     0.005 A 
ATOM     11  C   UNL A   1      34.978  30.360  27.630  1.00  0.00     0.044 A 
ATOM     12  F   UNL A   1      35.062  28.172  26.790  1.00  0.00    -0.206 F 
BRANCH   7  13
ATOM     13  C   UNL A   1      32.329  28.214  25.948  1.00  0.00    -0.012 A 
ATOM     14  C   UNL A   1      32.026  25.847  25.480  1.00  0.00     0.133 A 
ATOM     15  C   UNL A   1      31.124  26.133  24.458  1.00  0.00     0.047 A 
ATOM     16  C   UNL A   1      32.637  26.868  26.214  1.00  0.00     0.056 A 
ATOM     17  C   UNL A   1      30.807  27.458  24.182  1.00  0.00     0.004 A 
ATOM     18  C   UNL A   1      31.403  28.486  24.921  1.00  0.00     0.009 A 
BRANCH  14  19
ATOM     19  O   UNL A   1      32.373  24.494  25.648  1.00  0.00    -0.410 OA
BRANCH  19  20
ATOM     20  C   UNL A   1      31.433  23.627  26.176  1.00  0.00     0.412 C 
ATOM     21  N   UNL A   1      31.180  22.546  25.379  1.00  0.00    -0.321 N 
ATOM     22  H   UNL A   1      30.517  21.901  25.712  1.00  0.00     0.167 HD
ATOM     23  O   UNL A   1      30.844  23.764  27.251  1.00  0.00    -0.224 OA
BRANCH  21  24
ATOM     24  C   UNL A   1      31.785  22.249  24.095  1.00  0.00     0.119 C 
BRANCH  24  25
ATOM     25  C   UNL A   1      33.018  21.355  24.238  1.00  0.00     0.021 C 
BRANCH  25  26
ATOM     26  C   UNL A   1      32.718  19.853  24.325  1.00  0.00     0.002 C 
BRANCH  26  27
ATOM     27  C   UNL A   1      33.922  18.952  24.621  1.00  0.00    -0.000 C 
BRANCH  27  28
ATOM     28  C   UNL A   1      33.649  17.446  24.563  1.00  0.00    -0.003 C 
ATOM     29  C   UNL A   1      32.558  16.994  25.522  1.00  0.00     0.004 C 
ENDBRANCH  27  28
ENDBRANCH  26  27
ENDBRANCH  25  26
ENDBRANCH  24  25
ENDBRANCH  21  24
ENDBRANCH  19  20
ENDBRANCH  14  19
ENDBRANCH   7  13
ENDBRANCH   4   6
ENDBRANCH   2   4
ENDBRANCH   1   2
BRANCH   1  30
ATOM     30  C   UNL A   1      33.941  34.960  30.526  1.00  0.00     0.261 C 
BRANCH  30  31
ATOM     31  C   UNL A   1      33.868  35.418  31.984  1.00  0.00     0.202 C 
BRANCH  31  32
ATOM     32  O   UNL A   1      33.127  34.588  32.879  1.00  0.00    -0.374 OA
BRANCH  32  33
ATOM     33  C   UNL A   1      33.796  33.461  33.442  1.00  0.00     0.202 C 
BRANCH  33  34
ATOM     34  C   UNL A   1      35.232  33.667  33.942  1.00  0.00     0.261 C 
BRANCH  34  35
ATOM     35  O   UNL A   1      35.904  32.432  34.236  1.00  0.00    -0.460 OA
BRANCH  35  36
ATOM     36  C   UNL A   1      37.034  32.576  34.971  1.00  0.00     0.338 C 
ATOM     37  O   UNL A   1      37.129  33.086  36.076  1.00  0.00    -0.246 OA
BRANCH  36  38
ATOM     38  C   UNL A   1      38.156  31.847  34.349  1.00  0.00     0.060 A 
ATOM     39  C   UNL A   1      39.437  32.117  34.849  1.00  0.00     0.016 A 
ATOM     40  C   UNL A   1      37.988  31.005  33.247  1.00  0.00     0.016 A 
ATOM     41  C   UNL A   1      40.560  31.618  34.198  1.00  0.00     0.010 A 
ATOM     42  C   UNL A   1      39.122  30.503  32.594  1.00  0.00     0.010 A 
ATOM     43  C   UNL A   1      40.412  30.851  33.034  1.00  0.00    -0.014 A 
BRANCH  43  44
ATOM     44  C   UNL A   1      41.614  30.585  32.204  1.00  0.00     0.031 A 
ATOM     45  C   UNL A   1      42.330  29.267  32.354  1.00  0.00     0.074 A 
ATOM     46  C   UNL A   1      42.018  31.468  31.271  1.00  0.00     0.049 A 
ATOM     47  N   UNL A   1      43.349  28.797  31.683  1.00  0.00    -0.248 NA
ATOM     48  C   UNL A   1      41.828  28.355  33.396  1.00  0.00     0.031 C 
ATOM     49  C   UNL A   1      41.403  32.770  31.017  1.00  0.00     0.029 A 
ATOM     50  N   UNL A   1      43.048  31.401  30.366  1.00  0.00    -0.354 N 
ATOM     51  C   UNL A   1      43.620  27.546  32.228  1.00  0.00     0.074 A 
ATOM     52  C   UNL A   1      42.675  27.341  33.303  1.00  0.00     0.031 C 
ATOM     53  C   UNL A   1      42.073  33.383  30.026  1.00  0.00     0.029 A 
ATOM     54  C   UNL A   1      43.173  32.527  29.588  1.00  0.00     0.049 A 
ATOM     55  H   UNL A   1      43.641  30.619  30.282  1.00  0.00     0.167 HD
ATOM     56  C   UNL A   1      44.549  26.637  31.851  1.00  0.00     0.034 A 
ATOM     57  C   UNL A   1      44.076  32.834  28.635  1.00  0.00     0.034 A 
ATOM     58  C   UNL A   1      45.474  26.829  30.766  1.00  0.00     0.049 A 
ATOM     59  C   UNL A   1      45.125  31.816  28.261  1.00  0.00     0.074 A 
ATOM     60  C   UNL A   1      46.434  25.953  30.289  1.00  0.00     0.029 A 
ATOM     61  N   UNL A   1      45.560  27.976  29.994  1.00  0.00    -0.354 N 
ATOM     62  N   UNL A   1      45.291  30.596  28.709  1.00  0.00    -0.248 NA
ATOM     63  C   UNL A   1      46.090  32.208  27.221  1.00  0.00     0.031 C 
ATOM     64  C   UNL A   1      47.117  26.582  29.241  1.00  0.00     0.029 A 
ATOM     65  C   UNL A   1      46.563  27.837  29.050  1.00  0.00     0.049 A 
ATOM     66  H   UNL A   1      44.991  28.772  30.101  1.00  0.00     0.167 HD
ATOM     67  C   UNL A   1      46.350  30.062  27.982  1.00  0.00     0.074 A 
ATOM     68  C   UNL A   1      46.771  31.085  27.047  1.00  0.00     0.031 C 
ATOM     69  C   UNL A   1      46.934  28.843  28.087  1.00  0.00     0.034 A 
BRANCH  56  70
ATOM     70  C   UNL A   1      44.588  25.328  32.596  1.00  0.00     0.023 A 
ATOM     71  C   UNL A   1      44.011  24.181  32.013  1.00  0.00     0.012 A 
ATOM     72  C   UNL A   1      45.242  25.217  33.838  1.00  0.00     0.148 A 
ATOM     73  C   UNL A   1      44.056  22.951  32.669  1.00  0.00     0.002 A 
ATOM     74  C   UNL A   1      45.321  23.978  34.466  1.00  0.00     0.091 A 
ATOM     75  F   UNL A   1      45.767  26.322  34.385  1.00  0.00    -0.205 F 
ATOM     76  C   UNL A   1      44.720  22.847  33.888  1.00  0.00     0.022 A 
BRANCH  74  77
ATOM     77  S   UNL A   1      46.218  23.724  36.002  1.00  0.00     0.127 S 
ATOM     78  O   UNL A   1      46.038  22.289  36.216  1.00  0.00    -0.237 OA
ATOM     79  O   UNL A   1      47.577  24.119  35.632  1.00  0.00    -0.237 OA
ATOM     80  O   UNL A   1      45.582  24.586  36.988  1.00  0.00    -0.744 OA
ENDBRANCH  74  77
ENDBRANCH  56  70
BRANCH  57  81
ATOM     81  C   UNL A   1      44.011  34.146  27.933  1.00  0.00     0.023 A 
ATOM     82  C   UNL A   1      43.213  34.282  26.779  1.00  0.00     0.012 A 
ATOM     83  C   UNL A   1      44.738  35.259  28.396  1.00  0.00     0.148 A 
ATOM     84  C   UNL A   1      43.170  35.488  26.081  1.00  0.00     0.002 A 
ATOM     85  C   UNL A   1      44.647  36.475  27.727  1.00  0.00     0.091 A 
ATOM     86  F   UNL A   1      45.509  35.108  29.482  1.00  0.00    -0.205 F 
ATOM     87  C   UNL A   1      43.878  36.587  26.559  1.00  0.00     0.022 A 
BRANCH  85  88
ATOM     88  S   UNL A   1      45.425  37.971  28.348  1.00  0.00     0.127 S 
ATOM     89  O   UNL A   1      46.843  37.653  28.202  1.00  0.00    -0.237 OA
ATOM     90  O   UNL A   1      44.921  38.982  27.420  1.00  0.00    -0.237 OA
ATOM     91  O   UNL A   1      44.945  38.123  29.715  1.00  0.00    -0.744 OA
ENDBRANCH  85  88
ENDBRANCH  57  81
BRANCH  69  92
ATOM     92  C   UNL A   1      48.071  28.525  27.149  1.00  0.00     0.023 A 
ATOM     93  C   UNL A   1      49.402  28.691  27.580  1.00  0.00     0.012 A 
ATOM     94  C   UNL A   1      47.821  27.998  25.866  1.00  0.00     0.148 A 
ATOM     95  C   UNL A   1      50.466  28.374  26.737  1.00  0.00     0.002 A 
ATOM     96  C   UNL A   1      48.887  27.637  25.049  1.00  0.00     0.091 A 
ATOM     97  F   UNL A   1      46.548  27.862  25.466  1.00  0.00    -0.205 F 
ATOM     98  C   UNL A   1      50.209  27.836  25.478  1.00  0.00     0.022 A 
BRANCH  96  99
ATOM     99  S   UNL A   1      48.653  26.848  23.452  1.00  0.00     0.127 S 
ATOM    100  O   UNL A   1      47.812  27.824  22.759  1.00  0.00    -0.237 OA
ATOM    101  O   UNL A   1      50.023  26.757  22.947  1.00  0.00    -0.237 OA
ATOM    102  O   UNL A   1      48.024  25.564  23.727  1.00  0.00    -0.744 OA
ENDBRANCH  96  99
ENDBRANCH  69  92
ENDBRANCH  43  44
ENDBRANCH  36  38
ENDBRANCH  35  36
ENDBRANCH  34  35
ENDBRANCH  33  34
ENDBRANCH  32  33
ENDBRANCH  31  32
ENDBRANCH  30  31
ENDBRANCH   1  30
TORSDOF 26
ENDMDL
MODEL 3
REMARK VINA RESULT:      -6.2      2.178      3.109
REMARK SMILES CCCCCCNC(=O)Oc1cccc(-c2ccc([C@@H](C)C(=O)OCCOCCOC(=O)c3ccc(-c4c5nc(c(-c6cccc(S(=O)(=O)[O-])c6F)c6ccc([nH]6)c(-c6cccc(S(=O)(=O)[O-])c6F)c6nc(c(-c7cccc(S(=O)(=O)[O-])c7F)c7ccc4[nH]7)C=C6)C=C5)cc3)cc2F)c1
REMARK SMILES IDX 24 1 22 2 23 3 20 4 21 5 19 6 16 7 17 8 97 9 18 10 96 11
REMARK SMILES IDX 98 12 15 13 11 14 12 15 99 16 13 17 14 18 10 19 8 20 7 21
REMARK SMILES IDX 9 23 6 24 5 25 4 26 3 27 2 28 1 29 25 30 26 31 27 32 28 33
REMARK SMILES IDX 29 34 30 35 31 36 32 37 33 38 34 39 95 40 35 41 94 42 36 43
REMARK SMILES IDX 37 44 38 45 88 46 39 47 93 48 87 49 89 50 40 51 92 52 86 53
REMARK SMILES IDX 85 54 41 56 73 57 53 58 72 59 54 60 57 61 71 62 90 63 55 64
REMARK SMILES IDX 56 65 70 67 91 68 58 69 42 70 43 71 51 72 44 73 46 74 52 75
REMARK SMILES IDX 45 76 47 77 48 78 49 79 50 80 74 81 75 82 83 83 76 84 78 85
REMARK SMILES IDX 84 86 77 87 79 88 80 89 81 90 82 91 59 92 60 93 68 94 61 95
REMARK SMILES IDX 63 96 69 97 62 98 64 99 65 100 66 101 67 102
REMARK H PARENT 7 22 89 55 57 66
REMARK Flexibility Score: inf
ROOT
ATOM      1  O   UNL A   1      43.517  23.274  26.534  1.00  0.00    -0.463 OA
ENDROOT
BRANCH   1   2
ATOM      2  C   UNL A   1      43.181  24.587  26.478  1.00  0.00     0.313 C 
ATOM      3  O   UNL A   1      43.094  25.240  25.442  1.00  0.00    -0.252 OA
BRANCH   2   4
ATOM      4  C   UNL A   1      42.932  25.217  27.839  1.00  0.00     0.126 C 
ATOM      5  C   UNL A   1      42.979  24.130  28.910  1.00  0.00     0.025 C 
BRANCH   4   6
ATOM      6  C   UNL A   1      41.717  26.126  28.002  1.00  0.00    -0.031 A 
ATOM      7  C   UNL A   1      39.474  27.805  28.580  1.00  0.00     0.018 A 
ATOM      8  C   UNL A   1      39.309  26.526  28.020  1.00  0.00     0.012 A 
ATOM      9  C   UNL A   1      40.789  28.238  28.792  1.00  0.00     0.131 A 
ATOM     10  C   UNL A   1      40.409  25.699  27.740  1.00  0.00     0.005 A 
ATOM     11  C   UNL A   1      41.889  27.423  28.511  1.00  0.00     0.044 A 
ATOM     12  F   UNL A   1      41.029  29.447  29.325  1.00  0.00    -0.206 F 
BRANCH   7  13
ATOM     13  C   UNL A   1      38.313  28.619  28.988  1.00  0.00    -0.012 A 
ATOM     14  C   UNL A   1      36.501  30.164  28.491  1.00  0.00     0.133 A 
ATOM     15  C   UNL A   1      36.155  30.239  29.838  1.00  0.00     0.047 A 
ATOM     16  C   UNL A   1      37.573  29.377  28.062  1.00  0.00     0.056 A 
ATOM     17  C   UNL A   1      36.872  29.496  30.768  1.00  0.00     0.004 A 
ATOM     18  C   UNL A   1      37.939  28.694  30.345  1.00  0.00     0.009 A 
BRANCH  14  19
ATOM     19  O   UNL A   1      35.795  31.009  27.616  1.00  0.00    -0.410 OA
BRANCH  19  20
ATOM     20  C   UNL A   1      34.435  31.177  27.805  1.00  0.00     0.412 C 
ATOM     21  N   UNL A   1      33.673  30.276  27.116  1.00  0.00    -0.321 N 
ATOM     22  H   UNL A   1      32.698  30.356  27.218  1.00  0.00     0.167 HD
ATOM     23  O   UNL A   1      33.902  32.039  28.509  1.00  0.00    -0.224 OA
BRANCH  21  24
ATOM     24  C   UNL A   1      34.149  29.213  26.251  1.00  0.00     0.119 C 
BRANCH  24  25
ATOM     25  C   UNL A   1      33.131  28.863  25.165  1.00  0.00     0.021 C 
BRANCH  25  26
ATOM     26  C   UNL A   1      31.664  28.926  25.612  1.00  0.00     0.002 C 
BRANCH  26  27
ATOM     27  C   UNL A   1      30.624  28.699  24.510  1.00  0.00    -0.000 C 
BRANCH  27  28
ATOM     28  C   UNL A   1      31.178  28.641  23.083  1.00  0.00    -0.003 C 
ATOM     29  C   UNL A   1      30.426  29.534  22.108  1.00  0.00     0.004 C 
ENDBRANCH  27  28
ENDBRANCH  26  27
ENDBRANCH  25  26
ENDBRANCH  24  25
ENDBRANCH  21  24
ENDBRANCH  19  20
ENDBRANCH  14  19
ENDBRANCH   7  13
ENDBRANCH   4   6
ENDBRANCH   2   4
ENDBRANCH   1   2
BRANCH   1  30
ATOM     30  C   UNL A   1      43.107  22.467  25.416  1.00  0.00     0.261 C 
BRANCH  30  31
ATOM     31  C   UNL A   1      44.305  22.048  24.561  1.00  0.00     0.202 C 
BRANCH  31  32
ATOM     32  O   UNL A   1      45.601  22.323  25.097  1.00  0.00    -0.374 OA
BRANCH  32  33
ATOM     33  C   UNL A   1      46.533  23.001  24.257  1.00  0.00     0.202 C 
BRANCH  33  34
ATOM     34  C   UNL A   1      47.207  24.260  24.818  1.00  0.00     0.261 C 
BRANCH  34  35
ATOM     35  O   UNL A   1      46.907  25.441  24.057  1.00  0.00    -0.460 OA
BRANCH  35  36
ATOM     36  C   UNL A   1      47.507  26.566  24.516  1.00  0.00     0.338 C 
ATOM     37  O   UNL A   1      48.295  27.276  23.912  1.00  0.00    -0.246 OA
BRANCH  36  38
ATOM     38  C   UNL A   1      46.937  26.965  25.818  1.00  0.00     0.060 A 
ATOM     39  C   UNL A   1      45.608  27.410  25.813  1.00  0.00     0.016 A 
ATOM     40  C   UNL A   1      47.696  27.008  26.990  1.00  0.00     0.016 A 
ATOM     41  C   UNL A   1      45.060  27.978  26.958  1.00  0.00     0.010 A 
ATOM     42  C   UNL A   1      47.139  27.581  28.142  1.00  0.00     0.010 A 
ATOM     43  C   UNL A   1      45.839  28.117  28.115  1.00  0.00    -0.014 A 
BRANCH  43  44
ATOM     44  C   UNL A   1      45.333  28.983  29.210  1.00  0.00     0.031 A 
ATOM     45  C   UNL A   1      44.929  28.349  30.517  1.00  0.00     0.074 A 
ATOM     46  C   UNL A   1      45.308  30.322  29.075  1.00  0.00     0.049 A 
ATOM     47  N   UNL A   1      44.533  28.918  31.625  1.00  0.00    -0.248 NA
ATOM     48  C   UNL A   1      44.983  26.879  30.585  1.00  0.00     0.031 C 
ATOM     49  C   UNL A   1      45.686  31.058  27.870  1.00  0.00     0.029 A 
ATOM     50  N   UNL A   1      44.944  31.302  29.966  1.00  0.00    -0.354 N 
ATOM     51  C   UNL A   1      44.277  27.881  32.515  1.00  0.00     0.074 A 
ATOM     52  C   UNL A   1      44.536  26.646  31.810  1.00  0.00     0.031 C 
ATOM     53  C   UNL A   1      45.527  32.373  28.093  1.00  0.00     0.029 A 
ATOM     54  C   UNL A   1      45.020  32.573  29.449  1.00  0.00     0.049 A 
ATOM     55  H   UNL A   1      44.655  31.111  30.888  1.00  0.00     0.167 HD
ATOM     56  C   UNL A   1      43.889  27.947  33.811  1.00  0.00     0.034 A 
ATOM     57  C   UNL A   1      44.709  33.761  30.005  1.00  0.00     0.034 A 
ATOM     58  C   UNL A   1      43.653  29.175  34.522  1.00  0.00     0.049 A 
ATOM     59  C   UNL A   1      44.244  33.803  31.439  1.00  0.00     0.074 A 
ATOM     60  C   UNL A   1      43.286  29.346  35.846  1.00  0.00     0.029 A 
ATOM     61  N   UNL A   1      43.754  30.441  33.969  1.00  0.00    -0.354 N 
ATOM     62  N   UNL A   1      44.119  32.821  32.298  1.00  0.00    -0.248 NA
ATOM     63  C   UNL A   1      43.911  35.126  31.991  1.00  0.00     0.031 C 
ATOM     64  C   UNL A   1      43.143  30.717  36.086  1.00  0.00     0.029 A 
ATOM     65  C   UNL A   1      43.447  31.400  34.919  1.00  0.00     0.049 A 
ATOM     66  H   UNL A   1      44.008  30.631  33.036  1.00  0.00     0.167 HD
ATOM     67  C   UNL A   1      43.732  33.408  33.498  1.00  0.00     0.074 A 
ATOM     68  C   UNL A   1      43.666  34.835  33.261  1.00  0.00     0.031 C 
ATOM     69  C   UNL A   1      43.440  32.821  34.685  1.00  0.00     0.034 A 
BRANCH  56  70
ATOM     70  C   UNL A   1      43.732  26.650  34.561  1.00  0.00     0.023 A 
ATOM     71  C   UNL A   1      42.452  26.072  34.685  1.00  0.00     0.012 A 
ATOM     72  C   UNL A   1      44.849  25.976  35.091  1.00  0.00     0.148 A 
ATOM     73  C   UNL A   1      42.282  24.858  35.351  1.00  0.00     0.002 A 
ATOM     74  C   UNL A   1      44.677  24.745  35.717  1.00  0.00     0.091 A 
ATOM     75  F   UNL A   1      46.055  26.552  34.981  1.00  0.00    -0.205 F 
ATOM     76  C   UNL A   1      43.394  24.191  35.856  1.00  0.00     0.022 A 
BRANCH  74  77
ATOM     77  S   UNL A   1      46.054  23.770  36.334  1.00  0.00     0.127 S 
ATOM     78  O   UNL A   1      46.541  24.607  37.430  1.00  0.00    -0.237 OA
ATOM     79  O   UNL A   1      45.391  22.537  36.758  1.00  0.00    -0.237 OA
ATOM     80  O   UNL A   1      46.971  23.614  35.214  1.00  0.00    -0.744 OA
ENDBRANCH  74  77
ENDBRANCH  56  70
BRANCH  57  81
ATOM     81  C   UNL A   1      44.865  35.020  29.223  1.00  0.00     0.023 A 
ATOM     82  C   UNL A   1      43.771  35.530  28.496  1.00  0.00     0.012 A 
ATOM     83  C   UNL A   1      46.091  35.712  29.189  1.00  0.00     0.148 A 
ATOM     84  C   UNL A   1      43.906  36.683  27.722  1.00  0.00     0.002 A 
ATOM     85  C   UNL A   1      46.203  36.891  28.461  1.00  0.00     0.091 A 
ATOM     86  F   UNL A   1      47.128  35.201  29.869  1.00  0.00    -0.205 F 
ATOM     87  C   UNL A   1      45.117  37.369  27.712  1.00  0.00     0.022 A 
BRANCH  85  88
ATOM     88  S   UNL A   1      47.687  37.903  28.497  1.00  0.00     0.127 S 
ATOM     89  O   UNL A   1      47.475  38.787  27.355  1.00  0.00    -0.237 OA
ATOM     90  O   UNL A   1      47.582  38.549  29.805  1.00  0.00    -0.237 OA
ATOM     91  O   UNL A   1      48.799  36.969  28.381  1.00  0.00    -0.744 OA
ENDBRANCH  85  88
ENDBRANCH  57  81
BRANCH  69  92
ATOM     92  C   UNL A   1      43.056  33.717  35.835  1.00  0.00     0.023 A 
ATOM     93  C   UNL A   1      44.019  34.065  36.804  1.00  0.00     0.012 A 
ATOM     94  C   UNL A   1      41.762  34.268  35.920  1.00  0.00     0.148 A 
ATOM     95  C   UNL A   1      43.691  34.916  37.857  1.00  0.00     0.002 A 
ATOM     96  C   UNL A   1      41.456  35.155  36.945  1.00  0.00     0.091 A 
ATOM     97  F   UNL A   1      40.854  33.912  35.000  1.00  0.00    -0.205 F 
ATOM     98  C   UNL A   1      42.414  35.470  37.921  1.00  0.00     0.022 A 
BRANCH  96  99
ATOM     99  S   UNL A   1      39.870  35.992  37.054  1.00  0.00     0.127 S 
ATOM    100  O   UNL A   1      38.972  34.886  37.384  1.00  0.00    -0.237 OA
ATOM    101  O   UNL A   1      40.093  36.942  38.144  1.00  0.00    -0.237 OA
ATOM    102  O   UNL A   1      39.651  36.608  35.752  1.00  0.00    -0.744 OA
ENDBRANCH  96  99
ENDBRANCH  69  92
ENDBRANCH  43  44
ENDBRANCH  36  38
ENDBRANCH  35  36
ENDBRANCH  34  35
ENDBRANCH  33  34
ENDBRANCH  32  33
ENDBRANCH  31  32
ENDBRANCH  30  31
ENDBRANCH   1  30
TORSDOF 26
ENDMDL
