MODEL 1
REMARK VINA RESULT:     -11.4      0.000      0.000
REMARK SMILES O=C(/C=C/c1ccccc1Oc1cccc(Cl)c1)OCCOCCOC(=O)c1ccc(-c2c3nc(c(-c4cccc(S(=O)(=O)[O-])c4F)c4ccc([nH]4)c(-c4cccc(S(=O)(=O)[O-])c4F)c4nc(c(-c5cccc(S(=O)(=O)[O-])c5F)c5ccc2[nH]5)C=C4)C=C3)cc1
REMARK SMILES IDX 22 1 21 2 20 3 19 4 2 5 1 6 3 7 4 8 5 9 6 10 10 11 7 12 9 13
REMARK SMILES IDX 8 14 11 15 12 16 13 17 18 18 14 19 16 20 15 21 17 22 23 23
REMARK SMILES IDX 24 24 25 25 26 26 27 27 28 28 29 29 90 30 30 31 89 32 31 33
REMARK SMILES IDX 32 34 33 35 83 36 34 37 88 38 82 39 84 40 35 41 87 42 81 43
REMARK SMILES IDX 80 44 36 46 68 47 48 48 67 49 49 50 52 51 66 52 85 53 50 54
REMARK SMILES IDX 51 55 65 57 86 58 53 59 37 60 38 61 46 62 39 63 41 64 47 65
REMARK SMILES IDX 40 66 42 67 43 68 44 69 45 70 69 71 70 72 78 73 71 74 73 75
REMARK SMILES IDX 79 76 72 77 74 78 75 79 76 80 77 81 54 82 55 83 63 84 56 85
REMARK SMILES IDX 58 86 64 87 57 88 59 89 60 90 61 91 62 92
REMARK H PARENT 84 45 52 56
REMARK Flexibility Score: inf
ROOT
ATOM      1  O   UNL A   1      32.102  28.588  24.650  1.00  0.00    -0.374 OA
ENDROOT
BRANCH   1   2
ATOM      2  C   UNL A   1      33.380  29.079  24.242  1.00  0.00     0.202 C 
BRANCH   2   3
ATOM      3  C   UNL A   1      33.936  28.676  22.875  1.00  0.00     0.261 C 
BRANCH   3   4
ATOM      4  O   UNL A   1      33.046  27.866  22.084  1.00  0.00    -0.460 OA
BRANCH   4   5
ATOM      5  C   UNL A   1      33.151  26.525  22.018  1.00  0.00     0.330 C 
ATOM      6  O   UNL A   1      33.593  25.959  21.022  1.00  0.00    -0.247 OA
BRANCH   5   7
ATOM      7  C   UNL A   1      32.648  25.729  23.149  1.00  0.00     0.094 C 
ATOM      8  C   UNL A   1      31.383  25.321  23.296  1.00  0.00     0.019 C 
BRANCH   8   9
ATOM      9  C   UNL A   1      30.960  24.505  24.427  1.00  0.00     0.017 A 
ATOM     10  C   UNL A   1      30.211  25.185  25.410  1.00  0.00     0.012 A 
ATOM     11  C   UNL A   1      31.311  23.158  24.620  1.00  0.00     0.134 A 
ATOM     12  C   UNL A   1      29.849  24.557  26.599  1.00  0.00     0.001 A 
ATOM     13  C   UNL A   1      30.941  22.545  25.827  1.00  0.00     0.048 A 
ATOM     14  C   UNL A   1      30.226  23.237  26.812  1.00  0.00     0.004 A 
BRANCH  11  15
ATOM     15  O   UNL A   1      32.050  22.323  23.794  1.00  0.00    -0.457 OA
BRANCH  15  16
ATOM     16  C   UNL A   1      33.270  21.847  24.200  1.00  0.00     0.128 A 
ATOM     17  C   UNL A   1      33.426  20.490  24.498  1.00  0.00     0.047 A 
ATOM     18  C   UNL A   1      34.346  22.729  24.333  1.00  0.00     0.067 A 
ATOM     19  C   UNL A   1      34.688  19.999  24.845  1.00  0.00     0.005 A 
ATOM     20  C   UNL A   1      35.608  22.225  24.644  1.00  0.00     0.044 A 
ATOM     21  C   UNL A   1      35.784  20.866  24.902  1.00  0.00     0.021 A 
ATOM     22  Cl  UNL A   1      36.973  23.272  24.599  1.00  0.00    -0.084 Cl
ENDBRANCH  15  16
ENDBRANCH  11  15
ENDBRANCH   8   9
ENDBRANCH   5   7
ENDBRANCH   4   5
ENDBRANCH   3   4
ENDBRANCH   2   3
ENDBRANCH   1   2
BRANCH   1  23
ATOM     23  C   UNL A   1      31.593  29.115  25.885  1.00  0.00     0.202 C 
BRANCH  23  24
ATOM     24  C   UNL A   1      31.881  30.581  26.224  1.00  0.00     0.261 C 
BRANCH  24  25
ATOM     25  O   UNL A   1      32.663  30.708  27.412  1.00  0.00    -0.460 OA
BRANCH  25  26
ATOM     26  C   UNL A   1      33.344  31.878  27.511  1.00  0.00     0.338 C 
ATOM     27  O   UNL A   1      32.882  33.000  27.513  1.00  0.00    -0.246 OA
BRANCH  26  28
ATOM     28  C   UNL A   1      34.734  31.557  27.903  1.00  0.00     0.060 A 
ATOM     29  C   UNL A   1      35.038  30.213  28.175  1.00  0.00     0.016 A 
ATOM     30  C   UNL A   1      35.730  32.534  27.925  1.00  0.00     0.016 A 
ATOM     31  C   UNL A   1      36.331  29.842  28.517  1.00  0.00     0.010 A 
ATOM     32  C   UNL A   1      37.017  32.173  28.307  1.00  0.00     0.010 A 
ATOM     33  C   UNL A   1      37.297  30.840  28.656  1.00  0.00    -0.014 A 
BRANCH  33  34
ATOM     34  C   UNL A   1      38.484  30.583  29.488  1.00  0.00     0.031 A 
ATOM     35  C   UNL A   1      39.471  29.588  28.953  1.00  0.00     0.074 A 
ATOM     36  C   UNL A   1      38.626  31.144  30.697  1.00  0.00     0.049 A 
ATOM     37  N   UNL A   1      40.477  29.013  29.548  1.00  0.00    -0.248 NA
ATOM     38  C   UNL A   1      39.269  29.156  27.557  1.00  0.00     0.031 C 
ATOM     39  C   UNL A   1      37.723  32.131  31.282  1.00  0.00     0.029 A 
ATOM     40  N   UNL A   1      39.559  30.907  31.670  1.00  0.00    -0.354 N 
ATOM     41  C   UNL A   1      40.986  28.109  28.624  1.00  0.00     0.074 A 
ATOM     42  C   UNL A   1      40.182  28.210  27.430  1.00  0.00     0.031 C 
ATOM     43  C   UNL A   1      38.111  32.373  32.546  1.00  0.00     0.029 A 
ATOM     44  C   UNL A   1      39.258  31.523  32.860  1.00  0.00     0.049 A 
ATOM     45  H   UNL A   1      40.362  30.354  31.531  1.00  0.00     0.167 HD
ATOM     46  C   UNL A   1      42.031  27.264  28.767  1.00  0.00     0.034 A 
ATOM     47  C   UNL A   1      39.818  31.366  34.075  1.00  0.00     0.034 A 
ATOM     48  C   UNL A   1      42.812  27.184  29.967  1.00  0.00     0.049 A 
ATOM     49  C   UNL A   1      40.975  30.413  34.221  1.00  0.00     0.074 A 
ATOM     50  C   UNL A   1      43.931  26.415  30.217  1.00  0.00     0.029 A 
ATOM     51  N   UNL A   1      42.534  27.888  31.130  1.00  0.00    -0.354 N 
ATOM     52  N   UNL A   1      41.521  29.633  33.318  1.00  0.00    -0.248 NA
ATOM     53  C   UNL A   1      41.615  30.342  35.541  1.00  0.00     0.031 C 
ATOM     54  C   UNL A   1      44.304  26.621  31.549  1.00  0.00     0.029 A 
ATOM     55  C   UNL A   1      43.450  27.561  32.110  1.00  0.00     0.049 A 
ATOM     56  H   UNL A   1      41.792  28.526  31.241  1.00  0.00     0.167 HD
ATOM     57  C   UNL A   1      42.593  29.009  33.944  1.00  0.00     0.074 A 
ATOM     58  C   UNL A   1      42.619  29.506  35.307  1.00  0.00     0.031 C 
ATOM     59  C   UNL A   1      43.477  28.111  33.442  1.00  0.00     0.034 A 
BRANCH  46  60
ATOM     60  C   UNL A   1      42.355  26.360  27.607  1.00  0.00     0.023 A 
ATOM     61  C   UNL A   1      43.130  26.836  26.528  1.00  0.00     0.012 A 
ATOM     62  C   UNL A   1      41.881  25.034  27.582  1.00  0.00     0.148 A 
ATOM     63  C   UNL A   1      43.381  26.027  25.421  1.00  0.00     0.002 A 
ATOM     64  C   UNL A   1      42.184  24.216  26.501  1.00  0.00     0.091 A 
ATOM     65  F   UNL A   1      41.118  24.607  28.598  1.00  0.00    -0.205 F 
ATOM     66  C   UNL A   1      42.918  24.714  25.412  1.00  0.00     0.022 A 
BRANCH  64  67
ATOM     67  S   UNL A   1      41.703  22.487  26.438  1.00  0.00     0.127 S 
ATOM     68  O   UNL A   1      42.235  21.985  27.704  1.00  0.00    -0.237 OA
ATOM     69  O   UNL A   1      40.243  22.576  26.383  1.00  0.00    -0.237 OA
ATOM     70  O   UNL A   1      42.322  21.943  25.237  1.00  0.00    -0.744 OA
ENDBRANCH  64  67
ENDBRANCH  46  60
BRANCH  47  71
ATOM     71  C   UNL A   1      39.289  32.144  35.227  1.00  0.00     0.023 A 
ATOM     72  C   UNL A   1      38.345  31.554  36.088  1.00  0.00     0.012 A 
ATOM     73  C   UNL A   1      39.776  33.434  35.517  1.00  0.00     0.148 A 
ATOM     74  C   UNL A   1      37.884  32.239  37.211  1.00  0.00     0.002 A 
ATOM     75  C   UNL A   1      39.353  34.090  36.666  1.00  0.00     0.091 A 
ATOM     76  F   UNL A   1      40.672  33.975  34.680  1.00  0.00    -0.205 F 
ATOM     77  C   UNL A   1      38.396  33.501  37.508  1.00  0.00     0.022 A 
BRANCH  75  78
ATOM     78  S   UNL A   1      40.047  35.658  37.199  1.00  0.00     0.127 S 
ATOM     79  O   UNL A   1      39.383  35.857  38.485  1.00  0.00    -0.237 OA
ATOM     80  O   UNL A   1      41.473  35.337  37.284  1.00  0.00    -0.237 OA
ATOM     81  O   UNL A   1      39.703  36.619  36.160  1.00  0.00    -0.744 OA
ENDBRANCH  75  78
ENDBRANCH  47  71
BRANCH  59  82
ATOM     82  C   UNL A   1      44.596  27.651  34.337  1.00  0.00     0.023 A 
ATOM     83  C   UNL A   1      45.784  28.400  34.435  1.00  0.00     0.012 A 
ATOM     84  C   UNL A   1      44.409  26.531  35.173  1.00  0.00     0.148 A 
ATOM     85  C   UNL A   1      46.780  28.025  35.337  1.00  0.00     0.002 A 
ATOM     86  C   UNL A   1      45.379  26.198  36.106  1.00  0.00     0.091 A 
ATOM     87  F   UNL A   1      43.275  25.826  35.050  1.00  0.00    -0.205 F 
ATOM     88  C   UNL A   1      46.572  26.935  36.181  1.00  0.00     0.022 A 
BRANCH  86  89
ATOM     89  S   UNL A   1      45.149  24.882  37.306  1.00  0.00     0.127 S 
ATOM     90  O   UNL A   1      43.998  25.369  38.064  1.00  0.00    -0.237 OA
ATOM     91  O   UNL A   1      44.872  23.729  36.448  1.00  0.00    -0.237 OA
ATOM     92  O   UNL A   1      46.395  24.794  38.055  1.00  0.00    -0.744 OA
ENDBRANCH  86  89
ENDBRANCH  59  82
ENDBRANCH  33  34
ENDBRANCH  26  28
ENDBRANCH  25  26
ENDBRANCH  24  25
ENDBRANCH  23  24
ENDBRANCH   1  23
TORSDOF 20
ENDMDL
MODEL 2
REMARK VINA RESULT:     -11.1      4.871     10.039
REMARK SMILES O=C(/C=C/c1ccccc1Oc1cccc(Cl)c1)OCCOCCOC(=O)c1ccc(-c2c3nc(c(-c4cccc(S(=O)(=O)[O-])c4F)c4ccc([nH]4)c(-c4cccc(S(=O)(=O)[O-])c4F)c4nc(c(-c5cccc(S(=O)(=O)[O-])c5F)c5ccc2[nH]5)C=C4)C=C3)cc1
REMARK SMILES IDX 22 1 21 2 20 3 19 4 2 5 1 6 3 7 4 8 5 9 6 10 10 11 7 12 9 13
REMARK SMILES IDX 8 14 11 15 12 16 13 17 18 18 14 19 16 20 15 21 17 22 23 23
REMARK SMILES IDX 24 24 25 25 26 26 27 27 28 28 29 29 90 30 30 31 89 32 31 33
REMARK SMILES IDX 32 34 33 35 83 36 34 37 88 38 82 39 84 40 35 41 87 42 81 43
REMARK SMILES IDX 80 44 36 46 68 47 48 48 67 49 49 50 52 51 66 52 85 53 50 54
REMARK SMILES IDX 51 55 65 57 86 58 53 59 37 60 38 61 46 62 39 63 41 64 47 65
REMARK SMILES IDX 40 66 42 67 43 68 44 69 45 70 69 71 70 72 78 73 71 74 73 75
REMARK SMILES IDX 79 76 72 77 74 78 75 79 76 80 77 81 54 82 55 83 63 84 56 85
REMARK SMILES IDX 58 86 64 87 57 88 59 89 60 90 61 91 62 92
REMARK H PARENT 84 45 52 56
REMARK Flexibility Score: inf
ROOT
ATOM      1  O   UNL A   1      35.534  23.426  24.386  1.00  0.00    -0.374 OA
ENDROOT
BRANCH   1   2
ATOM      2  C   UNL A   1      35.114  24.430  25.311  1.00  0.00     0.202 C 
BRANCH   2   3
ATOM      3  C   UNL A   1      33.841  24.209  26.129  1.00  0.00     0.261 C 
BRANCH   3   4
ATOM      4  O   UNL A   1      32.854  25.247  25.992  1.00  0.00    -0.460 OA
BRANCH   4   5
ATOM      5  C   UNL A   1      31.549  24.987  25.786  1.00  0.00     0.330 C 
ATOM      6  O   UNL A   1      31.096  23.849  25.870  1.00  0.00    -0.247 OA
BRANCH   5   7
ATOM      7  C   UNL A   1      30.671  26.095  25.377  1.00  0.00     0.094 C 
ATOM      8  C   UNL A   1      30.362  26.400  24.112  1.00  0.00     0.019 C 
BRANCH   8   9
ATOM      9  C   UNL A   1      29.458  27.493  23.780  1.00  0.00     0.017 A 
ATOM     10  C   UNL A   1      28.095  27.139  23.695  1.00  0.00     0.012 A 
ATOM     11  C   UNL A   1      29.862  28.804  23.475  1.00  0.00     0.134 A 
ATOM     12  C   UNL A   1      27.141  28.057  23.265  1.00  0.00     0.001 A 
ATOM     13  C   UNL A   1      28.884  29.713  23.040  1.00  0.00     0.048 A 
ATOM     14  C   UNL A   1      27.539  29.344  22.926  1.00  0.00     0.004 A 
BRANCH  11  15
ATOM     15  O   UNL A   1      31.140  29.346  23.480  1.00  0.00    -0.457 OA
BRANCH  15  16
ATOM     16  C   UNL A   1      31.739  29.702  24.661  1.00  0.00     0.128 A 
ATOM     17  C   UNL A   1      31.163  30.692  25.464  1.00  0.00     0.047 A 
ATOM     18  C   UNL A   1      32.933  29.086  25.043  1.00  0.00     0.067 A 
ATOM     19  C   UNL A   1      31.741  31.002  26.699  1.00  0.00     0.005 A 
ATOM     20  C   UNL A   1      33.482  29.375  26.292  1.00  0.00     0.044 A 
ATOM     21  C   UNL A   1      32.893  30.331  27.120  1.00  0.00     0.021 A 
ATOM     22  Cl  UNL A   1      34.828  28.465  26.857  1.00  0.00    -0.084 Cl
ENDBRANCH  15  16
ENDBRANCH  11  15
ENDBRANCH   8   9
ENDBRANCH   5   7
ENDBRANCH   4   5
ENDBRANCH   3   4
ENDBRANCH   2   3
ENDBRANCH   1   2
BRANCH   1  23
ATOM     23  C   UNL A   1      35.420  22.068  24.839  1.00  0.00     0.202 C 
BRANCH  23  24
ATOM     24  C   UNL A   1      36.690  21.215  24.908  1.00  0.00     0.261 C 
BRANCH  24  25
ATOM     25  O   UNL A   1      37.868  22.020  24.972  1.00  0.00    -0.460 OA
BRANCH  25  26
ATOM     26  C   UNL A   1      38.845  21.520  25.772  1.00  0.00     0.338 C 
ATOM     27  O   UNL A   1      39.335  20.411  25.726  1.00  0.00    -0.246 OA
BRANCH  26  28
ATOM     28  C   UNL A   1      39.422  22.647  26.536  1.00  0.00     0.060 A 
ATOM     29  C   UNL A   1      38.876  23.923  26.322  1.00  0.00     0.016 A 
ATOM     30  C   UNL A   1      40.415  22.446  27.496  1.00  0.00     0.016 A 
ATOM     31  C   UNL A   1      39.352  25.017  27.032  1.00  0.00     0.010 A 
ATOM     32  C   UNL A   1      40.922  23.544  28.179  1.00  0.00     0.010 A 
ATOM     33  C   UNL A   1      40.428  24.832  27.902  1.00  0.00    -0.014 A 
BRANCH  33  34
ATOM     34  C   UNL A   1      41.273  25.984  28.259  1.00  0.00     0.031 A 
ATOM     35  C   UNL A   1      40.596  27.108  28.985  1.00  0.00     0.074 A 
ATOM     36  C   UNL A   1      42.555  26.056  27.875  1.00  0.00     0.049 A 
ATOM     37  N   UNL A   1      41.023  28.313  29.233  1.00  0.00    -0.248 NA
ATOM     38  C   UNL A   1      39.228  26.840  29.470  1.00  0.00     0.031 C 
ATOM     39  C   UNL A   1      43.291  25.002  27.183  1.00  0.00     0.029 A 
ATOM     40  N   UNL A   1      43.440  27.096  27.966  1.00  0.00    -0.354 N 
ATOM     41  C   UNL A   1      39.957  28.965  29.842  1.00  0.00     0.074 A 
ATOM     42  C   UNL A   1      38.866  28.025  29.928  1.00  0.00     0.031 C 
ATOM     43  C   UNL A   1      44.506  25.472  26.852  1.00  0.00     0.029 A 
ATOM     44  C   UNL A   1      44.604  26.868  27.274  1.00  0.00     0.049 A 
ATOM     45  H   UNL A   1      43.262  27.919  28.476  1.00  0.00     0.167 HD
ATOM     46  C   UNL A   1      39.897  30.241  30.283  1.00  0.00     0.034 A 
ATOM     47  C   UNL A   1      45.604  27.718  26.971  1.00  0.00     0.034 A 
ATOM     48  C   UNL A   1      40.998  31.154  30.183  1.00  0.00     0.049 A 
ATOM     49  C   UNL A   1      45.519  29.140  27.461  1.00  0.00     0.074 A 
ATOM     50  C   UNL A   1      41.087  32.452  30.646  1.00  0.00     0.029 A 
ATOM     51  N   UNL A   1      42.200  30.865  29.551  1.00  0.00    -0.354 N 
ATOM     52  N   UNL A   1      44.553  29.727  28.127  1.00  0.00    -0.248 NA
ATOM     53  C   UNL A   1      46.673  30.007  27.189  1.00  0.00     0.031 C 
ATOM     54  C   UNL A   1      42.327  32.963  30.253  1.00  0.00     0.029 A 
ATOM     55  C   UNL A   1      43.033  31.965  29.596  1.00  0.00     0.049 A 
ATOM     56  H   UNL A   1      42.425  30.003  29.132  1.00  0.00     0.167 HD
ATOM     57  C   UNL A   1      44.995  31.017  28.390  1.00  0.00     0.074 A 
ATOM     58  C   UNL A   1      46.321  31.125  27.812  1.00  0.00     0.031 C 
ATOM     59  C   UNL A   1      44.367  32.023  29.052  1.00  0.00     0.034 A 
BRANCH  46  60
ATOM     60  C   UNL A   1      38.597  30.707  30.882  1.00  0.00     0.023 A 
ATOM     61  C   UNL A   1      38.287  30.411  32.227  1.00  0.00     0.012 A 
ATOM     62  C   UNL A   1      37.674  31.434  30.107  1.00  0.00     0.148 A 
ATOM     63  C   UNL A   1      37.059  30.784  32.772  1.00  0.00     0.002 A 
ATOM     64  C   UNL A   1      36.476  31.851  30.673  1.00  0.00     0.091 A 
ATOM     65  F   UNL A   1      37.968  31.677  28.822  1.00  0.00    -0.205 F 
ATOM     66  C   UNL A   1      36.158  31.512  31.999  1.00  0.00     0.022 A 
BRANCH  64  67
ATOM     67  S   UNL A   1      35.291  32.865  29.784  1.00  0.00     0.127 S 
ATOM     68  O   UNL A   1      34.960  32.006  28.649  1.00  0.00    -0.237 OA
ATOM     69  O   UNL A   1      34.218  33.016  30.768  1.00  0.00    -0.237 OA
ATOM     70  O   UNL A   1      35.988  34.100  29.455  1.00  0.00    -0.744 OA
ENDBRANCH  64  67
ENDBRANCH  46  60
BRANCH  47  71
ATOM     71  C   UNL A   1      46.763  27.228  26.178  1.00  0.00     0.023 A 
ATOM     72  C   UNL A   1      46.812  27.475  24.794  1.00  0.00     0.012 A 
ATOM     73  C   UNL A   1      47.851  26.587  26.804  1.00  0.00     0.148 A 
ATOM     74  C   UNL A   1      47.918  27.082  24.041  1.00  0.00     0.002 A 
ATOM     75  C   UNL A   1      48.973  26.245  26.058  1.00  0.00     0.091 A 
ATOM     76  F   UNL A   1      47.779  26.359  28.122  1.00  0.00    -0.205 F 
ATOM     77  C   UNL A   1      49.003  26.479  24.674  1.00  0.00     0.022 A 
BRANCH  75  78
ATOM     78  S   UNL A   1      50.467  25.583  26.802  1.00  0.00     0.127 S 
ATOM     79  O   UNL A   1      50.814  26.632  27.758  1.00  0.00    -0.237 OA
ATOM     80  O   UNL A   1      49.974  24.341  27.401  1.00  0.00    -0.237 OA
ATOM     81  O   UNL A   1      51.408  25.396  25.707  1.00  0.00    -0.744 OA
ENDBRANCH  75  78
ENDBRANCH  47  71
BRANCH  59  82
ATOM     82  C   UNL A   1      45.122  33.308  29.256  1.00  0.00     0.023 A 
ATOM     83  C   UNL A   1      45.969  33.469  30.369  1.00  0.00     0.012 A 
ATOM     84  C   UNL A   1      45.076  34.311  28.266  1.00  0.00     0.148 A 
ATOM     85  C   UNL A   1      46.740  34.623  30.505  1.00  0.00     0.002 A 
ATOM     86  C   UNL A   1      45.888  35.430  28.380  1.00  0.00     0.091 A 
ATOM     87  F   UNL A   1      44.250  34.141  27.223  1.00  0.00    -0.205 F 
ATOM     88  C   UNL A   1      46.712  35.594  29.505  1.00  0.00     0.022 A 
BRANCH  86  89
ATOM     89  S   UNL A   1      45.998  36.674  27.090  1.00  0.00     0.127 S 
ATOM     90  O   UNL A   1      46.295  35.858  25.914  1.00  0.00    -0.237 OA
ATOM     91  O   UNL A   1      44.655  37.256  27.108  1.00  0.00    -0.237 OA
ATOM     92  O   UNL A   1      47.059  37.586  27.496  1.00  0.00    -0.744 OA
ENDBRANCH  86  89
ENDBRANCH  59  82
ENDBRANCH  33  34
ENDBRANCH  26  28
ENDBRANCH  25  26
ENDBRANCH  24  25
ENDBRANCH  23  24
ENDBRANCH   1  23
TORSDOF 20
ENDMDL
MODEL 3
REMARK VINA RESULT:     -10.9      2.266      3.305
REMARK SMILES O=C(/C=C/c1ccccc1Oc1cccc(Cl)c1)OCCOCCOC(=O)c1ccc(-c2c3nc(c(-c4cccc(S(=O)(=O)[O-])c4F)c4ccc([nH]4)c(-c4cccc(S(=O)(=O)[O-])c4F)c4nc(c(-c5cccc(S(=O)(=O)[O-])c5F)c5ccc2[nH]5)C=C4)C=C3)cc1
REMARK SMILES IDX 22 1 21 2 20 3 19 4 2 5 1 6 3 7 4 8 5 9 6 10 10 11 7 12 9 13
REMARK SMILES IDX 8 14 11 15 12 16 13 17 18 18 14 19 16 20 15 21 17 22 23 23
REMARK SMILES IDX 24 24 25 25 26 26 27 27 28 28 29 29 90 30 30 31 89 32 31 33
REMARK SMILES IDX 32 34 33 35 83 36 34 37 88 38 82 39 84 40 35 41 87 42 81 43
REMARK SMILES IDX 80 44 36 46 68 47 48 48 67 49 49 50 52 51 66 52 85 53 50 54
REMARK SMILES IDX 51 55 65 57 86 58 53 59 37 60 38 61 46 62 39 63 41 64 47 65
REMARK SMILES IDX 40 66 42 67 43 68 44 69 45 70 69 71 70 72 78 73 71 74 73 75
REMARK SMILES IDX 79 76 72 77 74 78 75 79 76 80 77 81 54 82 55 83 63 84 56 85
REMARK SMILES IDX 58 86 64 87 57 88 59 89 60 90 61 91 62 92
REMARK H PARENT 84 45 52 56
REMARK Flexibility Score: inf
ROOT
ATOM      1  O   UNL A   1      32.611  29.702  25.112  1.00  0.00    -0.374 OA
ENDROOT
BRANCH   1   2
ATOM      2  C   UNL A   1      31.818  28.902  24.233  1.00  0.00     0.202 C 
BRANCH   2   3
ATOM      3  C   UNL A   1      31.414  27.492  24.664  1.00  0.00     0.261 C 
BRANCH   3   4
ATOM      4  O   UNL A   1      32.006  27.052  25.901  1.00  0.00    -0.460 OA
BRANCH   4   5
ATOM      5  C   UNL A   1      32.109  25.752  26.234  1.00  0.00     0.330 C 
ATOM      6  O   UNL A   1      31.220  25.169  26.847  1.00  0.00    -0.247 OA
BRANCH   5   7
ATOM      7  C   UNL A   1      33.360  25.045  25.912  1.00  0.00     0.094 C 
ATOM      8  C   UNL A   1      33.677  23.818  26.337  1.00  0.00     0.019 C 
BRANCH   8   9
ATOM      9  C   UNL A   1      34.920  23.163  25.952  1.00  0.00     0.017 A 
ATOM     10  C   UNL A   1      35.983  24.035  25.635  1.00  0.00     0.012 A 
ATOM     11  C   UNL A   1      35.085  21.775  25.809  1.00  0.00     0.134 A 
ATOM     12  C   UNL A   1      37.187  23.546  25.134  1.00  0.00     0.001 A 
ATOM     13  C   UNL A   1      36.305  21.303  25.299  1.00  0.00     0.048 A 
ATOM     14  C   UNL A   1      37.343  22.178  24.954  1.00  0.00     0.004 A 
BRANCH  11  15
ATOM     15  O   UNL A   1      34.170  20.760  26.048  1.00  0.00    -0.457 OA
BRANCH  15  16
ATOM     16  C   UNL A   1      33.581  20.096  25.002  1.00  0.00     0.128 A 
ATOM     17  C   UNL A   1      32.657  20.758  24.187  1.00  0.00     0.047 A 
ATOM     18  C   UNL A   1      33.895  18.754  24.771  1.00  0.00     0.067 A 
ATOM     19  C   UNL A   1      32.112  20.097  23.082  1.00  0.00     0.005 A 
ATOM     20  C   UNL A   1      33.375  18.115  23.646  1.00  0.00     0.044 A 
ATOM     21  C   UNL A   1      32.485  18.779  22.802  1.00  0.00     0.021 A 
ATOM     22  Cl  UNL A   1      33.925  16.536  23.239  1.00  0.00    -0.084 Cl
ENDBRANCH  15  16
ENDBRANCH  11  15
ENDBRANCH   8   9
ENDBRANCH   5   7
ENDBRANCH   4   5
ENDBRANCH   3   4
ENDBRANCH   2   3
ENDBRANCH   1   2
BRANCH   1  23
ATOM     23  C   UNL A   1      31.885  30.575  25.991  1.00  0.00     0.202 C 
BRANCH  23  24
ATOM     24  C   UNL A   1      32.578  31.060  27.269  1.00  0.00     0.261 C 
BRANCH  24  25
ATOM     25  O   UNL A   1      33.536  32.084  26.998  1.00  0.00    -0.460 OA
BRANCH  25  26
ATOM     26  C   UNL A   1      33.450  33.161  27.821  1.00  0.00     0.338 C 
ATOM     27  O   UNL A   1      32.518  33.930  27.931  1.00  0.00    -0.246 OA
BRANCH  26  28
ATOM     28  C   UNL A   1      34.575  33.085  28.779  1.00  0.00     0.060 A 
ATOM     29  C   UNL A   1      35.756  33.771  28.449  1.00  0.00     0.016 A 
ATOM     30  C   UNL A   1      34.449  32.427  30.003  1.00  0.00     0.016 A 
ATOM     31  C   UNL A   1      36.836  33.765  29.320  1.00  0.00     0.010 A 
ATOM     32  C   UNL A   1      35.543  32.384  30.859  1.00  0.00     0.010 A 
ATOM     33  C   UNL A   1      36.749  33.005  30.488  1.00  0.00    -0.014 A 
BRANCH  33  34
ATOM     34  C   UNL A   1      37.985  32.556  31.150  1.00  0.00     0.031 A 
ATOM     35  C   UNL A   1      38.704  31.406  30.508  1.00  0.00     0.074 A 
ATOM     36  C   UNL A   1      38.392  33.091  32.309  1.00  0.00     0.049 A 
ATOM     37  N   UNL A   1      39.677  30.674  30.970  1.00  0.00    -0.248 NA
ATOM     38  C   UNL A   1      38.232  31.008  29.169  1.00  0.00     0.031 C 
ATOM     39  C   UNL A   1      37.760  34.219  32.987  1.00  0.00     0.029 A 
ATOM     40  N   UNL A   1      39.404  32.705  33.145  1.00  0.00    -0.354 N 
ATOM     41  C   UNL A   1      39.889  29.692  30.010  1.00  0.00     0.074 A 
ATOM     42  C   UNL A   1      38.947  29.921  28.941  1.00  0.00     0.031 C 
ATOM     43  C   UNL A   1      38.363  34.398  34.175  1.00  0.00     0.029 A 
ATOM     44  C   UNL A   1      39.387  33.369  34.347  1.00  0.00     0.049 A 
ATOM     45  H   UNL A   1      40.076  32.024  32.910  1.00  0.00     0.167 HD
ATOM     46  C   UNL A   1      40.789  28.684  30.027  1.00  0.00     0.034 A 
ATOM     47  C   UNL A   1      40.083  33.126  35.474  1.00  0.00     0.034 A 
ATOM     48  C   UNL A   1      41.712  28.479  31.105  1.00  0.00     0.049 A 
ATOM     49  C   UNL A   1      41.075  31.993  35.482  1.00  0.00     0.074 A 
ATOM     50  C   UNL A   1      42.713  27.535  31.215  1.00  0.00     0.029 A 
ATOM     51  N   UNL A   1      41.727  29.226  32.274  1.00  0.00    -0.354 N 
ATOM     52  N   UNL A   1      41.346  31.128  34.533  1.00  0.00    -0.248 NA
ATOM     53  C   UNL A   1      41.880  31.821  36.698  1.00  0.00     0.031 C 
ATOM     54  C   UNL A   1      43.304  27.681  32.474  1.00  0.00     0.029 A 
ATOM     55  C   UNL A   1      42.709  28.754  33.123  1.00  0.00     0.049 A 
ATOM     56  H   UNL A   1      41.126  29.980  32.472  1.00  0.00     0.167 HD
ATOM     57  C   UNL A   1      42.380  30.335  35.018  1.00  0.00     0.074 A 
ATOM     58  C   UNL A   1      42.686  30.827  36.348  1.00  0.00     0.031 C 
ATOM     59  C   UNL A   1      43.020  29.298  34.422  1.00  0.00     0.034 A 
BRANCH  46  60
ATOM     60  C   UNL A   1      40.786  27.733  28.860  1.00  0.00     0.023 A 
ATOM     61  C   UNL A   1      39.829  26.698  28.788  1.00  0.00     0.012 A 
ATOM     62  C   UNL A   1      41.741  27.860  27.833  1.00  0.00     0.148 A 
ATOM     63  C   UNL A   1      39.858  25.774  27.744  1.00  0.00     0.002 A 
ATOM     64  C   UNL A   1      41.728  26.970  26.767  1.00  0.00     0.091 A 
ATOM     65  F   UNL A   1      42.663  28.827  27.933  1.00  0.00    -0.205 F 
ATOM     66  C   UNL A   1      40.800  25.916  26.729  1.00  0.00     0.022 A 
BRANCH  64  67
ATOM     67  S   UNL A   1      42.846  27.123  25.371  1.00  0.00     0.127 S 
ATOM     68  O   UNL A   1      42.273  28.262  24.656  1.00  0.00    -0.237 OA
ATOM     69  O   UNL A   1      44.124  27.397  26.030  1.00  0.00    -0.237 OA
ATOM     70  O   UNL A   1      42.788  25.848  24.669  1.00  0.00    -0.744 OA
ENDBRANCH  64  67
ENDBRANCH  46  60
BRANCH  47  71
ATOM     71  C   UNL A   1      39.864  33.987  36.667  1.00  0.00     0.023 A 
ATOM     72  C   UNL A   1      38.789  33.713  37.533  1.00  0.00     0.012 A 
ATOM     73  C   UNL A   1      40.762  35.025  36.988  1.00  0.00     0.148 A 
ATOM     74  C   UNL A   1      38.602  34.467  38.691  1.00  0.00     0.002 A 
ATOM     75  C   UNL A   1      40.601  35.736  38.170  1.00  0.00     0.091 A 
ATOM     76  F   UNL A   1      41.776  35.267  36.146  1.00  0.00    -0.205 F 
ATOM     77  C   UNL A   1      39.514  35.469  39.017  1.00  0.00     0.022 A 
BRANCH  75  78
ATOM     78  S   UNL A   1      41.791  36.955  38.738  1.00  0.00     0.127 S 
ATOM     79  O   UNL A   1      40.918  38.026  39.212  1.00  0.00    -0.237 OA
ATOM     80  O   UNL A   1      42.491  36.218  39.791  1.00  0.00    -0.237 OA
ATOM     81  O   UNL A   1      42.610  37.281  37.579  1.00  0.00    -0.744 OA
ENDBRANCH  75  78
ENDBRANCH  47  71
BRANCH  59  82
ATOM     82  C   UNL A   1      44.166  28.661  35.161  1.00  0.00     0.023 A 
ATOM     83  C   UNL A   1      45.458  29.215  35.087  1.00  0.00     0.012 A 
ATOM     84  C   UNL A   1      43.923  27.576  36.027  1.00  0.00     0.148 A 
ATOM     85  C   UNL A   1      46.497  28.680  35.848  1.00  0.00     0.002 A 
ATOM     86  C   UNL A   1      44.947  27.086  36.823  1.00  0.00     0.091 A 
ATOM     87  F   UNL A   1      42.687  27.057  36.068  1.00  0.00    -0.205 F 
ATOM     88  C   UNL A   1      46.239  27.629  36.726  1.00  0.00     0.022 A 
BRANCH  86  89
ATOM     89  S   UNL A   1      44.681  25.811  38.059  1.00  0.00     0.127 S 
ATOM     90  O   UNL A   1      46.018  25.672  38.634  1.00  0.00    -0.237 OA
ATOM     91  O   UNL A   1      43.698  26.440  38.942  1.00  0.00    -0.237 OA
ATOM     92  O   UNL A   1      44.191  24.645  37.338  1.00  0.00    -0.744 OA
ENDBRANCH  86  89
ENDBRANCH  59  82
ENDBRANCH  33  34
ENDBRANCH  26  28
ENDBRANCH  25  26
ENDBRANCH  24  25
ENDBRANCH  23  24
ENDBRANCH   1  23
TORSDOF 20
ENDMDL
