MODEL 1
REMARK VINA RESULT:     -12.5      0.000      0.000
REMARK SMILES O=C(OCCOCCOC(=O)c1ccc(N2C(=O)C[C@H](c3c[nH]c4ccccc34)C2=O)cc1O)c1ccc(-c2c3nc(c(-c4cccc(S(=O)(=O)[O-])c4F)c4ccc([nH]4)c(-c4cccc(S(=O)(=O)[O-])c4F)c4nc(c(-c5cccc(S(=O)(=O)[O-])c5F)c5ccc2[nH]5)C=C4)C=C3)cc1
REMARK SMILES IDX 5 1 4 2 3 3 2 4 1 5 35 6 36 7 97 8 37 9 96 10 38 11 39 12
REMARK SMILES IDX 40 13 90 14 41 15 95 16 89 17 91 18 42 19 94 20 88 21 87 22
REMARK SMILES IDX 43 24 75 25 55 26 74 27 56 28 59 29 73 30 92 31 57 32 58 33
REMARK SMILES IDX 72 35 93 36 60 37 44 38 45 39 53 40 46 41 48 42 54 43 47 44
REMARK SMILES IDX 49 45 50 46 51 47 52 48 76 49 77 50 85 51 78 52 80 53 86 54
REMARK SMILES IDX 79 55 81 56 82 57 83 58 84 59 61 60 62 61 70 62 63 63 65 64
REMARK SMILES IDX 71 65 64 66 66 67 67 68 68 69 69 70 6 71 7 72 8 73 9 74
REMARK SMILES IDX 10 75 11 76 12 77 13 78 33 79 14 80 32 81 15 82 34 83 16 85
REMARK SMILES IDX 17 86 30 87 18 88 19 89 20 90 31 91 21 92 22 93 29 94 23 95
REMARK SMILES IDX 24 96 28 97 25 99 27 100 26 101
REMARK H PARENT 91 23 59 34 34 84 23 98
REMARK Flexibility Score: inf
ROOT
ATOM      1  C   UNL A   1      31.244  31.701  26.711  1.00  0.00     0.202 C 
ENDROOT
BRANCH   1   2
ATOM      2  C   UNL A   1      31.885  33.066  26.455  1.00  0.00     0.261 C 
BRANCH   2   3
ATOM      3  O   UNL A   1      32.443  33.589  27.669  1.00  0.00    -0.460 OA
BRANCH   3   4
ATOM      4  C   UNL A   1      33.705  34.019  27.892  1.00  0.00     0.338 C 
ATOM      5  O   UNL A   1      34.001  35.157  27.531  1.00  0.00    -0.246 OA
BRANCH   4   6
ATOM      6  C   UNL A   1      34.761  33.195  28.558  1.00  0.00     0.060 A 
ATOM      7  C   UNL A   1      34.548  31.967  29.191  1.00  0.00     0.016 A 
ATOM      8  C   UNL A   1      36.083  33.654  28.445  1.00  0.00     0.016 A 
ATOM      9  C   UNL A   1      35.589  31.225  29.723  1.00  0.00     0.010 A 
ATOM     10  C   UNL A   1      37.144  32.907  28.960  1.00  0.00     0.010 A 
ATOM     11  C   UNL A   1      36.888  31.694  29.609  1.00  0.00    -0.014 A 
BRANCH  11  12
ATOM     12  C   UNL A   1      37.951  30.942  30.283  1.00  0.00     0.031 A 
ATOM     13  C   UNL A   1      38.202  31.234  31.724  1.00  0.00     0.074 A 
ATOM     14  C   UNL A   1      38.608  29.981  29.615  1.00  0.00     0.049 A 
ATOM     15  N   UNL A   1      39.145  30.787  32.502  1.00  0.00    -0.248 NA
ATOM     16  C   UNL A   1      37.256  32.155  32.378  1.00  0.00     0.031 C 
ATOM     17  C   UNL A   1      38.333  29.579  28.233  1.00  0.00     0.029 A 
ATOM     18  N   UNL A   1      39.648  29.181  29.999  1.00  0.00    -0.354 N 
ATOM     19  C   UNL A   1      38.949  31.424  33.719  1.00  0.00     0.074 A 
ATOM     20  C   UNL A   1      37.780  32.262  33.588  1.00  0.00     0.031 C 
ATOM     21  C   UNL A   1      39.212  28.632  27.873  1.00  0.00     0.029 A 
ATOM     22  C   UNL A   1      40.144  28.413  28.973  1.00  0.00     0.049 A 
ATOM     23  H   UNL A   1      40.006  29.158  30.916  1.00  0.00     0.167 HD
ATOM     24  C   UNL A   1      39.702  31.321  34.837  1.00  0.00     0.034 A 
ATOM     25  C   UNL A   1      41.264  27.670  28.921  1.00  0.00     0.034 A 
ATOM     26  C   UNL A   1      40.860  30.476  34.917  1.00  0.00     0.049 A 
ATOM     27  C   UNL A   1      42.112  27.601  30.162  1.00  0.00     0.074 A 
ATOM     28  C   UNL A   1      41.722  30.289  35.977  1.00  0.00     0.029 A 
ATOM     29  N   UNL A   1      41.321  29.685  33.871  1.00  0.00    -0.354 N 
ATOM     30  N   UNL A   1      41.915  28.181  31.323  1.00  0.00    -0.248 NA
ATOM     31  C   UNL A   1      43.321  26.773  30.100  1.00  0.00     0.031 C 
ATOM     32  C   UNL A   1      42.727  29.410  35.560  1.00  0.00     0.029 A 
ATOM     33  C   UNL A   1      42.467  29.016  34.253  1.00  0.00     0.049 A 
ATOM     34  H   UNL A   1      40.893  29.611  32.988  1.00  0.00     0.167 HD
ATOM     35  C   UNL A   1      42.958  27.770  32.141  1.00  0.00     0.074 A 
ATOM     36  C   UNL A   1      43.780  26.881  31.341  1.00  0.00     0.031 C 
ATOM     37  C   UNL A   1      43.221  28.101  33.430  1.00  0.00     0.034 A 
BRANCH  24  38
ATOM     38  C   UNL A   1      39.319  32.195  35.999  1.00  0.00     0.023 A 
ATOM     39  C   UNL A   1      39.923  33.457  36.173  1.00  0.00     0.012 A 
ATOM     40  C   UNL A   1      38.397  31.733  36.958  1.00  0.00     0.148 A 
ATOM     41  C   UNL A   1      39.657  34.220  37.311  1.00  0.00     0.002 A 
ATOM     42  C   UNL A   1      38.102  32.518  38.065  1.00  0.00     0.091 A 
ATOM     43  F   UNL A   1      37.859  30.516  36.794  1.00  0.00    -0.205 F 
ATOM     44  C   UNL A   1      38.743  33.754  38.253  1.00  0.00     0.022 A 
BRANCH  42  45
ATOM     45  S   UNL A   1      36.895  32.026  39.300  1.00  0.00     0.127 S 
ATOM     46  O   UNL A   1      37.131  30.585  39.385  1.00  0.00    -0.237 OA
ATOM     47  O   UNL A   1      37.330  32.783  40.474  1.00  0.00    -0.237 OA
ATOM     48  O   UNL A   1      35.598  32.420  38.771  1.00  0.00    -0.744 OA
ENDBRANCH  42  45
ENDBRANCH  24  38
BRANCH  25  49
ATOM     49  C   UNL A   1      41.631  26.977  27.655  1.00  0.00     0.023 A 
ATOM     50  C   UNL A   1      42.154  27.713  26.576  1.00  0.00     0.012 A 
ATOM     51  C   UNL A   1      41.539  25.573  27.547  1.00  0.00     0.148 A 
ATOM     52  C   UNL A   1      42.570  27.065  25.410  1.00  0.00     0.002 A 
ATOM     53  C   UNL A   1      42.007  24.930  26.407  1.00  0.00     0.091 A 
ATOM     54  F   UNL A   1      41.026  24.891  28.581  1.00  0.00    -0.205 F 
ATOM     55  C   UNL A   1      42.510  25.676  25.331  1.00  0.00     0.022 A 
BRANCH  53  56
ATOM     56  S   UNL A   1      42.091  23.139  26.273  1.00  0.00     0.127 S 
ATOM     57  O   UNL A   1      40.683  22.765  26.376  1.00  0.00    -0.237 OA
ATOM     58  O   UNL A   1      42.678  22.964  24.944  1.00  0.00    -0.237 OA
ATOM     59  O   UNL A   1      42.943  22.699  27.369  1.00  0.00    -0.744 OA
ENDBRANCH  53  56
ENDBRANCH  25  49
BRANCH  37  60
ATOM     60  C   UNL A   1      44.421  27.469  34.075  1.00  0.00     0.023 A 
ATOM     61  C   UNL A   1      45.656  28.144  34.075  1.00  0.00     0.012 A 
ATOM     62  C   UNL A   1      44.276  26.272  34.804  1.00  0.00     0.148 A 
ATOM     63  C   UNL A   1      46.737  27.631  34.790  1.00  0.00     0.002 A 
ATOM     64  C   UNL A   1      45.339  25.796  35.556  1.00  0.00     0.091 A 
ATOM     65  F   UNL A   1      43.092  25.644  34.769  1.00  0.00    -0.205 F 
ATOM     66  C   UNL A   1      46.573  26.468  35.543  1.00  0.00     0.022 A 
BRANCH  64  67
ATOM     67  S   UNL A   1      45.185  24.378  36.646  1.00  0.00     0.127 S 
ATOM     68  O   UNL A   1      44.564  23.392  35.763  1.00  0.00    -0.237 OA
ATOM     69  O   UNL A   1      46.580  24.100  36.988  1.00  0.00    -0.237 OA
ATOM     70  O   UNL A   1      44.362  24.816  37.764  1.00  0.00    -0.744 OA
ENDBRANCH  64  67
ENDBRANCH  37  60
ENDBRANCH  11  12
ENDBRANCH   4   6
ENDBRANCH   3   4
ENDBRANCH   2   3
ENDBRANCH   1   2
BRANCH   1  71
ATOM     71  O   UNL A   1      32.169  30.627  26.873  1.00  0.00    -0.374 OA
BRANCH  71  72
ATOM     72  C   UNL A   1      32.581  29.957  25.674  1.00  0.00     0.202 C 
BRANCH  72  73
ATOM     73  C   UNL A   1      31.356  29.705  24.796  1.00  0.00     0.261 C 
BRANCH  73  74
ATOM     74  O   UNL A   1      31.831  29.208  23.539  1.00  0.00    -0.460 OA
BRANCH  74  75
ATOM     75  C   UNL A   1      30.933  28.484  22.832  1.00  0.00     0.341 C 
ATOM     76  O   UNL A   1      30.148  28.881  21.984  1.00  0.00    -0.246 OA
BRANCH  75  77
ATOM     77  C   UNL A   1      31.214  27.055  23.056  1.00  0.00     0.101 A 
ATOM     78  C   UNL A   1      30.142  26.234  23.443  1.00  0.00     0.022 A 
ATOM     79  C   UNL A   1      32.482  26.507  22.882  1.00  0.00     0.132 A 
ATOM     80  C   UNL A   1      30.337  24.869  23.662  1.00  0.00     0.028 A 
ATOM     81  C   UNL A   1      32.695  25.164  23.174  1.00  0.00     0.074 A 
ATOM     82  C   UNL A   1      31.631  24.350  23.591  1.00  0.00     0.055 A 
BRANCH  79  83
ATOM     83  O   UNL A   1      33.536  27.277  22.482  1.00  0.00    -0.507 OA
ATOM     84  H   UNL A   1      33.392  28.162  22.210  1.00  0.00     0.293 HD
ENDBRANCH  79  83
BRANCH  82  85
ATOM     85  N   UNL A   1      31.917  23.078  24.115  1.00  0.00    -0.250 N 
ATOM     86  C   UNL A   1      31.711  22.800  25.444  1.00  0.00     0.234 C 
ATOM     87  C   UNL A   1      32.253  21.960  23.391  1.00  0.00     0.241 C 
ATOM     88  O   UNL A   1      31.389  23.567  26.340  1.00  0.00    -0.274 OA
ATOM     89  C   UNL A   1      31.783  21.322  25.629  1.00  0.00     0.119 C 
ATOM     90  C   UNL A   1      32.501  20.834  24.375  1.00  0.00     0.121 C 
ATOM     91  O   UNL A   1      32.392  21.870  22.178  1.00  0.00    -0.273 OA
BRANCH  90  92
ATOM     92  C   UNL A   1      33.953  20.551  24.661  1.00  0.00    -0.010 A 
ATOM     93  C   UNL A   1      34.600  19.335  24.775  1.00  0.00     0.088 A 
ATOM     94  C   UNL A   1      34.959  21.563  24.832  1.00  0.00     0.003 A 
ATOM     95  N   UNL A   1      35.934  19.570  24.993  1.00  0.00    -0.361 N 
ATOM     96  C   UNL A   1      36.183  20.922  25.011  1.00  0.00     0.046 A 
ATOM     97  C   UNL A   1      34.935  22.975  24.817  1.00  0.00     0.010 A 
ATOM     98  H   UNL A   1      36.615  18.871  25.117  1.00  0.00     0.166 HD
ATOM     99  C   UNL A   1      37.386  21.622  25.170  1.00  0.00     0.026 A 
ATOM    100  C   UNL A   1      36.128  23.689  24.964  1.00  0.00     0.001 A 
ATOM    101  C   UNL A   1      37.335  23.020  25.137  1.00  0.00     0.002 A 
ENDBRANCH  90  92
ENDBRANCH  82  85
ENDBRANCH  75  77
ENDBRANCH  74  75
ENDBRANCH  73  74
ENDBRANCH  72  73
ENDBRANCH  71  72
ENDBRANCH   1  71
TORSDOF 20
ENDMDL
MODEL 2
REMARK VINA RESULT:     -12.2      1.597      7.561
REMARK SMILES O=C(OCCOCCOC(=O)c1ccc(N2C(=O)C[C@H](c3c[nH]c4ccccc34)C2=O)cc1O)c1ccc(-c2c3nc(c(-c4cccc(S(=O)(=O)[O-])c4F)c4ccc([nH]4)c(-c4cccc(S(=O)(=O)[O-])c4F)c4nc(c(-c5cccc(S(=O)(=O)[O-])c5F)c5ccc2[nH]5)C=C4)C=C3)cc1
REMARK SMILES IDX 5 1 4 2 3 3 2 4 1 5 35 6 36 7 97 8 37 9 96 10 38 11 39 12
REMARK SMILES IDX 40 13 90 14 41 15 95 16 89 17 91 18 42 19 94 20 88 21 87 22
REMARK SMILES IDX 43 24 75 25 55 26 74 27 56 28 59 29 73 30 92 31 57 32 58 33
REMARK SMILES IDX 72 35 93 36 60 37 44 38 45 39 53 40 46 41 48 42 54 43 47 44
REMARK SMILES IDX 49 45 50 46 51 47 52 48 76 49 77 50 85 51 78 52 80 53 86 54
REMARK SMILES IDX 79 55 81 56 82 57 83 58 84 59 61 60 62 61 70 62 63 63 65 64
REMARK SMILES IDX 71 65 64 66 66 67 67 68 68 69 69 70 6 71 7 72 8 73 9 74
REMARK SMILES IDX 10 75 11 76 12 77 13 78 33 79 14 80 32 81 15 82 34 83 16 85
REMARK SMILES IDX 17 86 30 87 18 88 19 89 20 90 31 91 21 92 22 93 29 94 23 95
REMARK SMILES IDX 24 96 28 97 25 99 27 100 26 101
REMARK H PARENT 91 23 59 34 34 84 23 98
REMARK Flexibility Score: inf
ROOT
ATOM      1  C   UNL A   1      31.765  31.392  26.718  1.00  0.00     0.202 C 
ENDROOT
BRANCH   1   2
ATOM      2  C   UNL A   1      32.957  32.311  26.986  1.00  0.00     0.261 C 
BRANCH   2   3
ATOM      3  O   UNL A   1      32.528  33.495  27.672  1.00  0.00    -0.460 OA
BRANCH   3   4
ATOM      4  C   UNL A   1      33.172  34.179  28.645  1.00  0.00     0.338 C 
ATOM      5  O   UNL A   1      32.687  35.244  29.022  1.00  0.00    -0.246 OA
BRANCH   4   6
ATOM      6  C   UNL A   1      34.436  33.713  29.294  1.00  0.00     0.060 A 
ATOM      7  C   UNL A   1      35.722  34.155  28.970  1.00  0.00     0.016 A 
ATOM      8  C   UNL A   1      34.300  32.835  30.381  1.00  0.00     0.016 A 
ATOM      9  C   UNL A   1      36.842  33.731  29.665  1.00  0.00     0.010 A 
ATOM     10  C   UNL A   1      35.417  32.414  31.104  1.00  0.00     0.010 A 
ATOM     11  C   UNL A   1      36.691  32.859  30.733  1.00  0.00    -0.014 A 
BRANCH  11  12
ATOM     12  C   UNL A   1      37.904  32.341  31.372  1.00  0.00     0.031 A 
ATOM     13  C   UNL A   1      38.633  31.236  30.687  1.00  0.00     0.074 A 
ATOM     14  C   UNL A   1      38.355  32.914  32.500  1.00  0.00     0.049 A 
ATOM     15  N   UNL A   1      39.656  30.544  31.099  1.00  0.00    -0.248 NA
ATOM     16  C   UNL A   1      38.143  30.861  29.348  1.00  0.00     0.031 C 
ATOM     17  C   UNL A   1      37.741  34.069  33.160  1.00  0.00     0.029 A 
ATOM     18  N   UNL A   1      39.420  32.596  33.296  1.00  0.00    -0.354 N 
ATOM     19  C   UNL A   1      39.890  29.605  30.103  1.00  0.00     0.074 A 
ATOM     20  C   UNL A   1      38.926  29.837  29.053  1.00  0.00     0.031 C 
ATOM     21  C   UNL A   1      38.419  34.338  34.285  1.00  0.00     0.029 A 
ATOM     22  C   UNL A   1      39.468  33.338  34.452  1.00  0.00     0.049 A 
ATOM     23  H   UNL A   1      40.083  31.906  33.066  1.00  0.00     0.167 HD
ATOM     24  C   UNL A   1      40.822  28.628  30.091  1.00  0.00     0.034 A 
ATOM     25  C   UNL A   1      40.236  33.175  35.544  1.00  0.00     0.034 A 
ATOM     26  C   UNL A   1      41.758  28.435  31.163  1.00  0.00     0.049 A 
ATOM     27  C   UNL A   1      41.240  32.056  35.530  1.00  0.00     0.074 A 
ATOM     28  C   UNL A   1      42.742  27.477  31.290  1.00  0.00     0.029 A 
ATOM     29  N   UNL A   1      41.804  29.221  32.308  1.00  0.00    -0.354 N 
ATOM     30  N   UNL A   1      41.482  31.183  34.579  1.00  0.00    -0.248 NA
ATOM     31  C   UNL A   1      42.085  31.900  36.719  1.00  0.00     0.031 C 
ATOM     32  C   UNL A   1      43.361  27.663  32.531  1.00  0.00     0.029 A 
ATOM     33  C   UNL A   1      42.790  28.763  33.158  1.00  0.00     0.049 A 
ATOM     34  H   UNL A   1      41.219  29.993  32.487  1.00  0.00     0.167 HD
ATOM     35  C   UNL A   1      42.523  30.390  35.039  1.00  0.00     0.074 A 
ATOM     36  C   UNL A   1      42.873  30.896  36.354  1.00  0.00     0.031 C 
ATOM     37  C   UNL A   1      43.130  29.336  34.439  1.00  0.00     0.034 A 
BRANCH  24  38
ATOM     38  C   UNL A   1      40.804  27.683  28.922  1.00  0.00     0.023 A 
ATOM     39  C   UNL A   1      39.928  26.578  28.911  1.00  0.00     0.012 A 
ATOM     40  C   UNL A   1      41.706  27.859  27.854  1.00  0.00     0.148 A 
ATOM     41  C   UNL A   1      39.988  25.635  27.884  1.00  0.00     0.002 A 
ATOM     42  C   UNL A   1      41.729  26.941  26.812  1.00  0.00     0.091 A 
ATOM     43  F   UNL A   1      42.555  28.895  27.899  1.00  0.00    -0.205 F 
ATOM     44  C   UNL A   1      40.883  25.819  26.833  1.00  0.00     0.022 A 
BRANCH  42  45
ATOM     45  S   UNL A   1      42.807  27.128  25.389  1.00  0.00     0.127 S 
ATOM     46  O   UNL A   1      44.118  27.249  26.026  1.00  0.00    -0.237 OA
ATOM     47  O   UNL A   1      42.592  25.870  24.674  1.00  0.00    -0.237 OA
ATOM     48  O   UNL A   1      42.339  28.313  24.685  1.00  0.00    -0.744 OA
ENDBRANCH  42  45
ENDBRANCH  24  38
BRANCH  25  49
ATOM     49  C   UNL A   1      40.050  34.076  36.716  1.00  0.00     0.023 A 
ATOM     50  C   UNL A   1      40.385  35.439  36.617  1.00  0.00     0.012 A 
ATOM     51  C   UNL A   1      39.461  33.600  37.907  1.00  0.00     0.148 A 
ATOM     52  C   UNL A   1      40.147  36.308  37.685  1.00  0.00     0.002 A 
ATOM     53  C   UNL A   1      39.175  34.480  38.944  1.00  0.00     0.091 A 
ATOM     54  F   UNL A   1      39.160  32.296  37.987  1.00  0.00    -0.205 F 
ATOM     55  C   UNL A   1      39.530  35.833  38.840  1.00  0.00     0.022 A 
BRANCH  53  56
ATOM     56  S   UNL A   1      38.264  33.983  40.411  1.00  0.00     0.127 S 
ATOM     57  O   UNL A   1      37.073  33.368  39.829  1.00  0.00    -0.237 OA
ATOM     58  O   UNL A   1      39.194  33.047  41.042  1.00  0.00    -0.237 OA
ATOM     59  O   UNL A   1      38.034  35.206  41.169  1.00  0.00    -0.744 OA
ENDBRANCH  53  56
ENDBRANCH  25  49
BRANCH  37  60
ATOM     60  C   UNL A   1      44.265  28.681  35.174  1.00  0.00     0.023 A 
ATOM     61  C   UNL A   1      45.569  29.198  35.056  1.00  0.00     0.012 A 
ATOM     62  C   UNL A   1      44.001  27.645  36.091  1.00  0.00     0.148 A 
ATOM     63  C   UNL A   1      46.601  28.684  35.840  1.00  0.00     0.002 A 
ATOM     64  C   UNL A   1      45.020  27.177  36.906  1.00  0.00     0.091 A 
ATOM     65  F   UNL A   1      42.752  27.163  36.167  1.00  0.00    -0.205 F 
ATOM     66  C   UNL A   1      46.323  27.688  36.776  1.00  0.00     0.022 A 
BRANCH  64  67
ATOM     67  S   UNL A   1      44.731  25.985  38.217  1.00  0.00     0.127 S 
ATOM     68  O   UNL A   1      43.721  26.669  39.023  1.00  0.00    -0.237 OA
ATOM     69  O   UNL A   1      44.237  24.825  37.475  1.00  0.00    -0.237 OA
ATOM     70  O   UNL A   1      46.016  25.784  38.871  1.00  0.00    -0.744 OA
ENDBRANCH  64  67
ENDBRANCH  37  60
ENDBRANCH  11  12
ENDBRANCH   4   6
ENDBRANCH   3   4
ENDBRANCH   2   3
ENDBRANCH   1   2
BRANCH   1  71
ATOM     71  O   UNL A   1      31.974  30.025  27.069  1.00  0.00    -0.374 OA
BRANCH  71  72
ATOM     72  C   UNL A   1      31.870  29.071  26.004  1.00  0.00     0.202 C 
BRANCH  72  73
ATOM     73  C   UNL A   1      31.023  29.667  24.880  1.00  0.00     0.261 C 
BRANCH  73  74
ATOM     74  O   UNL A   1      31.659  29.323  23.643  1.00  0.00    -0.460 OA
BRANCH  74  75
ATOM     75  C   UNL A   1      30.903  28.587  22.795  1.00  0.00     0.341 C 
ATOM     76  O   UNL A   1      30.236  28.980  21.850  1.00  0.00    -0.246 OA
BRANCH  75  77
ATOM     77  C   UNL A   1      31.205  27.164  23.026  1.00  0.00     0.101 A 
ATOM     78  C   UNL A   1      30.135  26.319  23.365  1.00  0.00     0.022 A 
ATOM     79  C   UNL A   1      32.491  26.643  22.904  1.00  0.00     0.132 A 
ATOM     80  C   UNL A   1      30.349  24.958  23.587  1.00  0.00     0.028 A 
ATOM     81  C   UNL A   1      32.719  25.304  23.201  1.00  0.00     0.074 A 
ATOM     82  C   UNL A   1      31.656  24.465  23.569  1.00  0.00     0.055 A 
BRANCH  79  83
ATOM     83  O   UNL A   1      33.543  27.437  22.552  1.00  0.00    -0.507 OA
ATOM     84  H   UNL A   1      33.823  27.475  21.659  1.00  0.00     0.293 HD
ENDBRANCH  79  83
BRANCH  82  85
ATOM     85  N   UNL A   1      31.946  23.198  24.101  1.00  0.00    -0.250 N 
ATOM     86  C   UNL A   1      31.716  22.918  25.425  1.00  0.00     0.234 C 
ATOM     87  C   UNL A   1      32.310  22.084  23.385  1.00  0.00     0.241 C 
ATOM     88  O   UNL A   1      31.367  23.683  26.314  1.00  0.00    -0.274 OA
ATOM     89  C   UNL A   1      31.802  21.442  25.614  1.00  0.00     0.119 C 
ATOM     90  C   UNL A   1      32.552  20.962  24.375  1.00  0.00     0.121 C 
ATOM     91  O   UNL A   1      32.476  21.993  22.175  1.00  0.00    -0.273 OA
BRANCH  90  92
ATOM     92  C   UNL A   1      34.000  20.696  24.691  1.00  0.00    -0.010 A 
ATOM     93  C   UNL A   1      34.666  19.489  24.791  1.00  0.00     0.088 A 
ATOM     94  C   UNL A   1      34.984  21.721  24.914  1.00  0.00     0.003 A 
ATOM     95  N   UNL A   1      35.989  19.741  25.049  1.00  0.00    -0.361 N 
ATOM     96  C   UNL A   1      36.214  21.097  25.109  1.00  0.00     0.046 A 
ATOM     97  C   UNL A   1      34.935  23.132  24.934  1.00  0.00     0.010 A 
ATOM     98  H   UNL A   1      36.680  19.051  25.174  1.00  0.00     0.166 HD
ATOM     99  C   UNL A   1      37.400  21.812  25.317  1.00  0.00     0.026 A 
ATOM    100  C   UNL A   1      36.111  23.862  25.130  1.00  0.00     0.001 A 
ATOM    101  C   UNL A   1      37.325  23.210  25.318  1.00  0.00     0.002 A 
ENDBRANCH  90  92
ENDBRANCH  82  85
ENDBRANCH  75  77
ENDBRANCH  74  75
ENDBRANCH  73  74
ENDBRANCH  72  73
ENDBRANCH  71  72
ENDBRANCH   1  71
TORSDOF 20
ENDMDL
MODEL 3
REMARK VINA RESULT:     -11.8      5.908     13.177
REMARK SMILES O=C(OCCOCCOC(=O)c1ccc(N2C(=O)C[C@H](c3c[nH]c4ccccc34)C2=O)cc1O)c1ccc(-c2c3nc(c(-c4cccc(S(=O)(=O)[O-])c4F)c4ccc([nH]4)c(-c4cccc(S(=O)(=O)[O-])c4F)c4nc(c(-c5cccc(S(=O)(=O)[O-])c5F)c5ccc2[nH]5)C=C4)C=C3)cc1
REMARK SMILES IDX 5 1 4 2 3 3 2 4 1 5 35 6 36 7 97 8 37 9 96 10 38 11 39 12
REMARK SMILES IDX 40 13 90 14 41 15 95 16 89 17 91 18 42 19 94 20 88 21 87 22
REMARK SMILES IDX 43 24 75 25 55 26 74 27 56 28 59 29 73 30 92 31 57 32 58 33
REMARK SMILES IDX 72 35 93 36 60 37 44 38 45 39 53 40 46 41 48 42 54 43 47 44
REMARK SMILES IDX 49 45 50 46 51 47 52 48 76 49 77 50 85 51 78 52 80 53 86 54
REMARK SMILES IDX 79 55 81 56 82 57 83 58 84 59 61 60 62 61 70 62 63 63 65 64
REMARK SMILES IDX 71 65 64 66 66 67 67 68 68 69 69 70 6 71 7 72 8 73 9 74
REMARK SMILES IDX 10 75 11 76 12 77 13 78 33 79 14 80 32 81 15 82 34 83 16 85
REMARK SMILES IDX 17 86 30 87 18 88 19 89 20 90 31 91 21 92 22 93 29 94 23 95
REMARK SMILES IDX 24 96 28 97 25 99 27 100 26 101
REMARK H PARENT 91 23 59 34 34 84 23 98
REMARK Flexibility Score: inf
ROOT
ATOM      1  C   UNL A   1      42.695  19.835  26.240  1.00  0.00     0.202 C 
ENDROOT
BRANCH   1   2
ATOM      2  C   UNL A   1      41.520  19.311  27.066  1.00  0.00     0.261 C 
BRANCH   2   3
ATOM      3  O   UNL A   1      40.757  20.405  27.595  1.00  0.00    -0.460 OA
BRANCH   3   4
ATOM      4  C   UNL A   1      40.183  21.428  26.921  1.00  0.00     0.338 C 
ATOM      5  O   UNL A   1      39.313  21.161  26.095  1.00  0.00    -0.246 OA
BRANCH   4   6
ATOM      6  C   UNL A   1      40.541  22.866  27.126  1.00  0.00     0.060 A 
ATOM      7  C   UNL A   1      39.961  23.946  26.455  1.00  0.00     0.016 A 
ATOM      8  C   UNL A   1      41.461  23.146  28.148  1.00  0.00     0.016 A 
ATOM      9  C   UNL A   1      40.293  25.258  26.751  1.00  0.00     0.010 A 
ATOM     10  C   UNL A   1      41.791  24.464  28.471  1.00  0.00     0.010 A 
ATOM     11  C   UNL A   1      41.208  25.518  27.759  1.00  0.00    -0.014 A 
BRANCH  11  12
ATOM     12  C   UNL A   1      41.622  26.909  27.968  1.00  0.00     0.031 A 
ATOM     13  C   UNL A   1      42.973  27.313  27.482  1.00  0.00     0.074 A 
ATOM     14  C   UNL A   1      40.761  27.781  28.517  1.00  0.00     0.049 A 
ATOM     15  N   UNL A   1      43.603  28.441  27.642  1.00  0.00    -0.248 NA
ATOM     16  C   UNL A   1      43.715  26.306  26.702  1.00  0.00     0.031 C 
ATOM     17  C   UNL A   1      39.387  27.467  28.916  1.00  0.00     0.029 A 
ATOM     18  N   UNL A   1      40.918  29.098  28.849  1.00  0.00    -0.354 N 
ATOM     19  C   UNL A   1      44.842  28.258  27.046  1.00  0.00     0.074 A 
ATOM     20  C   UNL A   1      44.864  26.924  26.491  1.00  0.00     0.031 C 
ATOM     21  C   UNL A   1      38.838  28.555  29.476  1.00  0.00     0.029 A 
ATOM     22  C   UNL A   1      39.841  29.612  29.530  1.00  0.00     0.049 A 
ATOM     23  H   UNL A   1      41.718  29.623  28.623  1.00  0.00     0.167 HD
ATOM     24  C   UNL A   1      45.871  29.132  26.991  1.00  0.00     0.034 A 
ATOM     25  C   UNL A   1      39.716  30.785  30.178  1.00  0.00     0.034 A 
ATOM     26  C   UNL A   1      45.802  30.447  27.562  1.00  0.00     0.049 A 
ATOM     27  C   UNL A   1      40.887  31.728  30.142  1.00  0.00     0.074 A 
ATOM     28  C   UNL A   1      46.771  31.428  27.596  1.00  0.00     0.029 A 
ATOM     29  N   UNL A   1      44.687  30.954  28.221  1.00  0.00    -0.354 N 
ATOM     30  N   UNL A   1      42.051  31.569  29.556  1.00  0.00    -0.248 NA
ATOM     31  C   UNL A   1      40.733  33.012  30.835  1.00  0.00     0.031 C 
ATOM     32  C   UNL A   1      46.254  32.516  28.306  1.00  0.00     0.029 A 
ATOM     33  C   UNL A   1      44.946  32.229  28.679  1.00  0.00     0.049 A 
ATOM     34  H   UNL A   1      43.836  30.473  28.342  1.00  0.00     0.167 HD
ATOM     35  C   UNL A   1      42.762  32.739  29.784  1.00  0.00     0.074 A 
ATOM     36  C   UNL A   1      41.888  33.604  30.557  1.00  0.00     0.031 C 
ATOM     37  C   UNL A   1      44.021  33.068  29.403  1.00  0.00     0.034 A 
BRANCH  24  38
ATOM     38  C   UNL A   1      47.145  28.646  26.357  1.00  0.00     0.023 A 
ATOM     39  C   UNL A   1      48.332  28.562  27.115  1.00  0.00     0.012 A 
ATOM     40  C   UNL A   1      47.178  28.331  24.985  1.00  0.00     0.148 A 
ATOM     41  C   UNL A   1      49.540  28.223  26.505  1.00  0.00     0.002 A 
ATOM     42  C   UNL A   1      48.376  27.950  24.394  1.00  0.00     0.091 A 
ATOM     43  F   UNL A   1      46.049  28.450  24.274  1.00  0.00    -0.205 F 
ATOM     44  C   UNL A   1      49.561  27.912  25.147  1.00  0.00     0.022 A 
BRANCH  42  45
ATOM     45  S   UNL A   1      48.488  27.476  22.666  1.00  0.00     0.127 S 
ATOM     46  O   UNL A   1      49.872  27.828  22.352  1.00  0.00    -0.237 OA
ATOM     47  O   UNL A   1      48.225  26.038  22.725  1.00  0.00    -0.237 OA
ATOM     48  O   UNL A   1      47.469  28.250  21.972  1.00  0.00    -0.744 OA
ENDBRANCH  42  45
ENDBRANCH  24  38
BRANCH  25  49
ATOM     49  C   UNL A   1      38.458  31.089  30.915  1.00  0.00     0.023 A 
ATOM     50  C   UNL A   1      38.375  30.842  32.297  1.00  0.00     0.012 A 
ATOM     51  C   UNL A   1      37.369  31.704  30.261  1.00  0.00     0.148 A 
ATOM     52  C   UNL A   1      37.226  31.191  33.012  1.00  0.00     0.002 A 
ATOM     53  C   UNL A   1      36.253  32.099  30.988  1.00  0.00     0.091 A 
ATOM     54  F   UNL A   1      37.463  31.919  28.941  1.00  0.00    -0.205 F 
ATOM     55  C   UNL A   1      36.174  31.831  32.363  1.00  0.00     0.022 A 
BRANCH  53  56
ATOM     56  S   UNL A   1      34.910  33.048  30.260  1.00  0.00     0.127 S 
ATOM     57  O   UNL A   1      34.384  32.109  29.272  1.00  0.00    -0.237 OA
ATOM     58  O   UNL A   1      34.041  33.275  31.415  1.00  0.00    -0.237 OA
ATOM     59  O   UNL A   1      35.523  34.254  29.721  1.00  0.00    -0.744 OA
ENDBRANCH  53  56
ENDBRANCH  25  49
BRANCH  37  60
ATOM     60  C   UNL A   1      44.520  34.436  29.773  1.00  0.00     0.023 A 
ATOM     61  C   UNL A   1      45.250  34.619  30.962  1.00  0.00     0.012 A 
ATOM     62  C   UNL A   1      44.385  35.502  28.862  1.00  0.00     0.148 A 
ATOM     63  C   UNL A   1      45.836  35.852  31.244  1.00  0.00     0.002 A 
ATOM     64  C   UNL A   1      45.014  36.709  29.123  1.00  0.00     0.091 A 
ATOM     65  F   UNL A   1      43.668  35.301  27.747  1.00  0.00    -0.205 F 
ATOM     66  C   UNL A   1      45.732  36.889  30.317  1.00  0.00     0.022 A 
BRANCH  64  67
ATOM     67  S   UNL A   1      45.036  38.057  27.938  1.00  0.00     0.127 S 
ATOM     68  O   UNL A   1      45.679  37.428  26.785  1.00  0.00    -0.237 OA
ATOM     69  O   UNL A   1      43.611  38.337  27.764  1.00  0.00    -0.237 OA
ATOM     70  O   UNL A   1      45.795  39.132  28.561  1.00  0.00    -0.744 OA
ENDBRANCH  64  67
ENDBRANCH  37  60
ENDBRANCH  11  12
ENDBRANCH   4   6
ENDBRANCH   3   4
ENDBRANCH   2   3
ENDBRANCH   1   2
BRANCH   1  71
ATOM     71  O   UNL A   1      42.852  19.216  24.964  1.00  0.00    -0.374 OA
BRANCH  71  72
ATOM     72  C   UNL A   1      44.181  19.195  24.426  1.00  0.00     0.202 C 
BRANCH  72  73
ATOM     73  C   UNL A   1      44.956  20.397  24.961  1.00  0.00     0.261 C 
BRANCH  73  74
ATOM     74  O   UNL A   1      44.735  21.482  24.051  1.00  0.00    -0.460 OA
BRANCH  74  75
ATOM     75  C   UNL A   1      44.202  22.596  24.605  1.00  0.00     0.341 C 
ATOM     76  O   UNL A   1      43.054  23.004  24.516  1.00  0.00    -0.246 OA
BRANCH  75  77
ATOM     77  C   UNL A   1      45.172  23.139  25.572  1.00  0.00     0.101 A 
ATOM     78  C   UNL A   1      44.880  22.990  26.938  1.00  0.00     0.022 A 
ATOM     79  C   UNL A   1      46.352  23.765  25.177  1.00  0.00     0.132 A 
ATOM     80  C   UNL A   1      45.762  23.472  27.908  1.00  0.00     0.028 A 
ATOM     81  C   UNL A   1      47.192  24.314  26.139  1.00  0.00     0.074 A 
ATOM     82  C   UNL A   1      46.887  24.193  27.503  1.00  0.00     0.055 A 
BRANCH  79  83
ATOM     83  O   UNL A   1      46.671  23.899  23.857  1.00  0.00    -0.507 OA
ATOM     84  H   UNL A   1      46.396  23.250  23.240  1.00  0.00     0.293 HD
ENDBRANCH  79  83
BRANCH  82  85
ATOM     85  N   UNL A   1      47.609  24.964  28.429  1.00  0.00    -0.250 N 
ATOM     86  C   UNL A   1      48.982  25.006  28.395  1.00  0.00     0.234 C 
ATOM     87  C   UNL A   1      47.079  25.860  29.325  1.00  0.00     0.241 C 
ATOM     88  O   UNL A   1      49.745  24.350  27.700  1.00  0.00    -0.274 OA
ATOM     89  C   UNL A   1      49.437  26.134  29.257  1.00  0.00     0.119 C 
ATOM     90  C   UNL A   1      48.226  26.430  30.136  1.00  0.00     0.121 C 
ATOM     91  O   UNL A   1      45.898  26.130  29.502  1.00  0.00    -0.273 OA
BRANCH  90  92
ATOM     92  C   UNL A   1      48.394  25.827  31.506  1.00  0.00    -0.010 A 
ATOM     93  C   UNL A   1      49.447  25.087  32.012  1.00  0.00     0.088 A 
ATOM     94  C   UNL A   1      47.446  25.969  32.578  1.00  0.00     0.003 A 
ATOM     95  N   UNL A   1      49.179  24.792  33.325  1.00  0.00    -0.361 N 
ATOM     96  C   UNL A   1      47.974  25.336  33.701  1.00  0.00     0.046 A 
ATOM     97  C   UNL A   1      46.194  26.611  32.693  1.00  0.00     0.010 A 
ATOM     98  H   UNL A   1      49.767  24.266  33.914  1.00  0.00     0.166 HD
ATOM     99  C   UNL A   1      47.316  25.319  34.937  1.00  0.00     0.026 A 
ATOM    100  C   UNL A   1      45.528  26.613  33.923  1.00  0.00     0.001 A 
ATOM    101  C   UNL A   1      46.083  25.976  35.027  1.00  0.00     0.002 A 
ENDBRANCH  90  92
ENDBRANCH  82  85
ENDBRANCH  75  77
ENDBRANCH  74  75
ENDBRANCH  73  74
ENDBRANCH  72  73
ENDBRANCH  71  72
ENDBRANCH   1  71
TORSDOF 20
ENDMDL
