MODEL 1
REMARK VINA RESULT:     -10.9      0.000      0.000
REMARK SMILES CC1=C[C@@H]([C@@H]2N=N[C@H](S)N2/N=C/c2ccc(C(=O)OCCOCCOC(=O)c3ccc(-c4c5nc(c(-c6cccc(S(=O)(=O)[O-])c6F)c6ccc([nH]6)c(-c6cccc(S(=O)(=O)[O-])c6F)c6nc(c(-c7cccc(S(=O)(=O)[O-])c7F)c7ccc4[nH]7)C=C6)C=C5)cc3)cc2)N=N1
REMARK SMILES IDX 22 1 21 2 20 3 19 4 17 5 18 6 16 7 13 8 14 9 92 10 15 11
REMARK SMILES IDX 91 12 12 13 11 14 10 15 5 16 6 17 7 18 8 19 4 20 1 21 2 22
REMARK SMILES IDX 3 23 94 24 93 25 9 26 23 28 24 29 25 30 26 31 27 32 28 33
REMARK SMILES IDX 29 34 90 35 30 36 89 37 31 38 32 39 33 40 83 41 34 42 88 43
REMARK SMILES IDX 82 44 84 45 35 46 87 47 81 48 80 49 36 51 68 52 48 53 67 54
REMARK SMILES IDX 49 55 52 56 66 57 85 58 50 59 51 60 65 62 86 63 53 64 37 65
REMARK SMILES IDX 38 66 46 67 39 68 41 69 47 70 40 71 42 72 43 73 44 74 45 75
REMARK SMILES IDX 69 76 70 77 78 78 71 79 73 80 79 81 72 82 74 83 75 84 76 85
REMARK SMILES IDX 77 86 54 87 55 88 63 89 56 90 58 91 64 92 57 93 59 94 60 95
REMARK SMILES IDX 61 96 62 97
REMARK H PARENT 9 27 84 50 52 61
REMARK Flexibility Score: inf
ROOT
ATOM      1  O   UNL A   1      43.284  18.272  25.341  1.00  0.00    -0.374 OA
ENDROOT
BRANCH   1   2
ATOM      2  C   UNL A   1      42.440  18.666  26.422  1.00  0.00     0.202 C 
BRANCH   2   3
ATOM      3  C   UNL A   1      41.095  19.323  26.103  1.00  0.00     0.261 C 
BRANCH   3   4
ATOM      4  O   UNL A   1      41.204  20.723  25.810  1.00  0.00    -0.460 OA
BRANCH   4   5
ATOM      5  C   UNL A   1      40.696  21.530  26.771  1.00  0.00     0.338 C 
ATOM      6  O   UNL A   1      41.212  21.814  27.841  1.00  0.00    -0.246 OA
BRANCH   5   7
ATOM      7  C   UNL A   1      39.462  22.193  26.304  1.00  0.00     0.060 A 
ATOM      8  C   UNL A   1      37.050  23.460  25.790  1.00  0.00    -0.005 A 
ATOM      9  C   UNL A   1      38.068  24.170  26.426  1.00  0.00     0.010 A 
ATOM     10  C   UNL A   1      37.255  22.151  25.335  1.00  0.00     0.010 A 
ATOM     11  C   UNL A   1      39.270  23.526  26.699  1.00  0.00     0.016 A 
ATOM     12  C   UNL A   1      38.477  21.518  25.576  1.00  0.00     0.016 A 
BRANCH   8  13
ATOM     13  C   UNL A   1      35.732  24.102  25.695  1.00  0.00     0.141 C 
ATOM     14  N   UNL A   1      35.108  24.171  24.563  1.00  0.00    -0.180 NA
BRANCH  14  15
ATOM     15  N   UNL A   1      33.893  24.759  24.547  1.00  0.00    -0.233 NA
ATOM     16  C   UNL A   1      33.683  26.044  23.885  1.00  0.00     0.274 C 
ATOM     17  N   UNL A   1      32.238  26.136  23.533  1.00  0.00    -0.161 NA
ATOM     18  N   UNL A   1      31.622  25.120  23.935  1.00  0.00    -0.153 NA
ATOM     19  C   UNL A   1      32.555  24.181  24.597  1.00  0.00     0.298 C 
BRANCH  16  20
ATOM     20  C   UNL A   1      34.112  27.239  24.773  1.00  0.00     0.201 C 
ATOM     21  C   UNL A   1      31.845  28.457  27.431  1.00  0.00     0.068 C 
ATOM     22  C   UNL A   1      32.723  28.177  26.268  1.00  0.00     0.058 C 
ATOM     23  C   UNL A   1      33.603  27.185  26.170  1.00  0.00     0.031 C 
ATOM     24  N   UNL A   1      32.675  28.951  25.135  1.00  0.00    -0.160 NA
ATOM     25  N   UNL A   1      33.480  28.500  24.266  1.00  0.00    -0.177 NA
ENDBRANCH  16  20
BRANCH  19  26
ATOM     26  S   UNL A   1      32.093  23.757  26.315  1.00  0.00    -0.128 SA
ATOM     27  H   UNL A   1      31.226  24.689  26.794  1.00  0.00     0.106 HD
ENDBRANCH  19  26
ENDBRANCH  14  15
ENDBRANCH   8  13
ENDBRANCH   5   7
ENDBRANCH   4   5
ENDBRANCH   3   4
ENDBRANCH   2   3
ENDBRANCH   1   2
BRANCH   1  28
ATOM     28  C   UNL A   1      44.685  18.513  25.407  1.00  0.00     0.202 C 
BRANCH  28  29
ATOM     29  C   UNL A   1      45.229  19.831  24.879  1.00  0.00     0.261 C 
BRANCH  29  30
ATOM     30  O   UNL A   1      44.211  20.805  24.729  1.00  0.00    -0.460 OA
BRANCH  30  31
ATOM     31  C   UNL A   1      44.682  22.071  24.619  1.00  0.00     0.338 C 
ATOM     32  O   UNL A   1      45.623  22.449  23.947  1.00  0.00    -0.246 OA
BRANCH  31  33
ATOM     33  C   UNL A   1      43.976  22.905  25.595  1.00  0.00     0.060 A 
ATOM     34  C   UNL A   1      43.020  23.769  25.063  1.00  0.00     0.016 A 
ATOM     35  C   UNL A   1      44.500  23.064  26.888  1.00  0.00     0.016 A 
ATOM     36  C   UNL A   1      42.789  24.947  25.727  1.00  0.00     0.010 A 
ATOM     37  C   UNL A   1      44.272  24.244  27.548  1.00  0.00     0.010 A 
ATOM     38  C   UNL A   1      43.501  25.207  26.907  1.00  0.00    -0.014 A 
BRANCH  38  39
ATOM     39  C   UNL A   1      43.312  26.497  27.523  1.00  0.00     0.031 A 
ATOM     40  C   UNL A   1      44.433  27.405  27.214  1.00  0.00     0.074 A 
ATOM     41  C   UNL A   1      42.224  26.810  28.248  1.00  0.00     0.049 A 
ATOM     42  N   UNL A   1      45.389  27.750  28.010  1.00  0.00    -0.248 NA
ATOM     43  C   UNL A   1      44.660  27.760  25.806  1.00  0.00     0.031 C 
ATOM     44  C   UNL A   1      40.965  26.069  28.378  1.00  0.00     0.029 A 
ATOM     45  N   UNL A   1      41.976  27.950  28.941  1.00  0.00    -0.354 N 
ATOM     46  C   UNL A   1      46.198  28.590  27.256  1.00  0.00     0.074 A 
ATOM     47  C   UNL A   1      45.849  28.360  25.881  1.00  0.00     0.031 C 
ATOM     48  C   UNL A   1      40.016  26.899  28.877  1.00  0.00     0.029 A 
ATOM     49  C   UNL A   1      40.633  28.166  29.228  1.00  0.00     0.049 A 
ATOM     50  H   UNL A   1      42.687  28.572  29.217  1.00  0.00     0.167 HD
ATOM     51  C   UNL A   1      46.869  29.614  27.846  1.00  0.00     0.034 A 
ATOM     52  C   UNL A   1      40.085  29.339  29.636  1.00  0.00     0.034 A 
ATOM     53  C   UNL A   1      46.937  29.431  29.276  1.00  0.00     0.049 A 
ATOM     54  C   UNL A   1      41.186  30.166  30.188  1.00  0.00     0.074 A 
ATOM     55  C   UNL A   1      47.469  28.472  30.113  1.00  0.00     0.029 A 
ATOM     56  N   UNL A   1      46.025  30.133  30.026  1.00  0.00    -0.354 N 
ATOM     57  N   UNL A   1      41.838  29.854  31.272  1.00  0.00    -0.248 NA
ATOM     58  C   UNL A   1      41.869  31.078  29.283  1.00  0.00     0.031 C 
ATOM     59  C   UNL A   1      46.530  28.352  31.179  1.00  0.00     0.029 A 
ATOM     60  C   UNL A   1      45.515  29.290  30.977  1.00  0.00     0.049 A 
ATOM     61  H   UNL A   1      45.779  31.078  29.901  1.00  0.00     0.167 HD
ATOM     62  C   UNL A   1      43.164  30.130  30.963  1.00  0.00     0.074 A 
ATOM     63  C   UNL A   1      43.109  30.976  29.771  1.00  0.00     0.031 C 
ATOM     64  C   UNL A   1      44.179  29.405  31.518  1.00  0.00     0.034 A 
BRANCH  51  65
ATOM     65  C   UNL A   1      47.081  30.968  27.213  1.00  0.00     0.023 A 
ATOM     66  C   UNL A   1      48.379  31.518  27.307  1.00  0.00     0.012 A 
ATOM     67  C   UNL A   1      46.045  31.842  26.801  1.00  0.00     0.148 A 
ATOM     68  C   UNL A   1      48.618  32.876  27.076  1.00  0.00     0.002 A 
ATOM     69  C   UNL A   1      46.301  33.173  26.501  1.00  0.00     0.091 A 
ATOM     70  F   UNL A   1      44.774  31.439  26.818  1.00  0.00    -0.205 F 
ATOM     71  C   UNL A   1      47.580  33.704  26.671  1.00  0.00     0.022 A 
BRANCH  69  72
ATOM     72  S   UNL A   1      45.000  34.280  25.940  1.00  0.00     0.127 S 
ATOM     73  O   UNL A   1      44.790  33.814  24.572  1.00  0.00    -0.237 OA
ATOM     74  O   UNL A   1      43.922  33.965  26.877  1.00  0.00    -0.237 OA
ATOM     75  O   UNL A   1      45.537  35.627  26.080  1.00  0.00    -0.744 OA
ENDBRANCH  69  72
ENDBRANCH  51  65
BRANCH  52  76
ATOM     76  C   UNL A   1      38.770  29.935  29.293  1.00  0.00     0.023 A 
ATOM     77  C   UNL A   1      38.024  29.416  28.215  1.00  0.00     0.012 A 
ATOM     78  C   UNL A   1      38.114  30.796  30.201  1.00  0.00     0.148 A 
ATOM     79  C   UNL A   1      36.664  29.719  28.064  1.00  0.00     0.002 A 
ATOM     80  C   UNL A   1      36.763  31.096  30.045  1.00  0.00     0.091 A 
ATOM     81  F   UNL A   1      38.789  31.242  31.267  1.00  0.00    -0.205 F 
ATOM     82  C   UNL A   1      36.031  30.550  28.984  1.00  0.00     0.022 A 
BRANCH  80  83
ATOM     83  S   UNL A   1      35.870  32.130  31.216  1.00  0.00     0.127 S 
ATOM     84  O   UNL A   1      35.949  31.335  32.441  1.00  0.00    -0.237 OA
ATOM     85  O   UNL A   1      36.678  33.347  31.222  1.00  0.00    -0.237 OA
ATOM     86  O   UNL A   1      34.523  32.272  30.678  1.00  0.00    -0.744 OA
ENDBRANCH  80  83
ENDBRANCH  52  76
BRANCH  64  87
ATOM     87  C   UNL A   1      43.841  28.475  32.657  1.00  0.00     0.023 A 
ATOM     88  C   UNL A   1      43.679  27.083  32.490  1.00  0.00     0.012 A 
ATOM     89  C   UNL A   1      43.859  29.005  33.956  1.00  0.00     0.148 A 
ATOM     90  C   UNL A   1      43.521  26.243  33.597  1.00  0.00     0.002 A 
ATOM     91  C   UNL A   1      43.751  28.164  35.056  1.00  0.00     0.091 A 
ATOM     92  F   UNL A   1      44.015  30.330  34.095  1.00  0.00    -0.205 F 
ATOM     93  C   UNL A   1      43.573  26.783  34.882  1.00  0.00     0.022 A 
BRANCH  91  94
ATOM     94  S   UNL A   1      43.938  28.785  36.726  1.00  0.00     0.127 S 
ATOM     95  O   UNL A   1      43.836  27.562  37.519  1.00  0.00    -0.237 OA
ATOM     96  O   UNL A   1      45.275  29.382  36.690  1.00  0.00    -0.237 OA
ATOM     97  O   UNL A   1      42.862  29.750  36.920  1.00  0.00    -0.744 OA
ENDBRANCH  91  94
ENDBRANCH  64  87
ENDBRANCH  38  39
ENDBRANCH  31  33
ENDBRANCH  30  31
ENDBRANCH  29  30
ENDBRANCH  28  29
ENDBRANCH   1  28
TORSDOF 21
ENDMDL
MODEL 2
REMARK VINA RESULT:     -10.7      2.842      9.525
REMARK SMILES CC1=C[C@@H]([C@@H]2N=N[C@H](S)N2/N=C/c2ccc(C(=O)OCCOCCOC(=O)c3ccc(-c4c5nc(c(-c6cccc(S(=O)(=O)[O-])c6F)c6ccc([nH]6)c(-c6cccc(S(=O)(=O)[O-])c6F)c6nc(c(-c7cccc(S(=O)(=O)[O-])c7F)c7ccc4[nH]7)C=C6)C=C5)cc3)cc2)N=N1
REMARK SMILES IDX 22 1 21 2 20 3 19 4 17 5 18 6 16 7 13 8 14 9 92 10 15 11
REMARK SMILES IDX 91 12 12 13 11 14 10 15 5 16 6 17 7 18 8 19 4 20 1 21 2 22
REMARK SMILES IDX 3 23 94 24 93 25 9 26 23 28 24 29 25 30 26 31 27 32 28 33
REMARK SMILES IDX 29 34 90 35 30 36 89 37 31 38 32 39 33 40 83 41 34 42 88 43
REMARK SMILES IDX 82 44 84 45 35 46 87 47 81 48 80 49 36 51 68 52 48 53 67 54
REMARK SMILES IDX 49 55 52 56 66 57 85 58 50 59 51 60 65 62 86 63 53 64 37 65
REMARK SMILES IDX 38 66 46 67 39 68 41 69 47 70 40 71 42 72 43 73 44 74 45 75
REMARK SMILES IDX 69 76 70 77 78 78 71 79 73 80 79 81 72 82 74 83 75 84 76 85
REMARK SMILES IDX 77 86 54 87 55 88 63 89 56 90 58 91 64 92 57 93 59 94 60 95
REMARK SMILES IDX 61 96 62 97
REMARK H PARENT 9 27 84 50 52 61
REMARK Flexibility Score: inf
ROOT
ATOM      1  O   UNL A   1      34.547  35.259  28.906  1.00  0.00    -0.374 OA
ENDROOT
BRANCH   1   2
ATOM      2  C   UNL A   1      34.232  34.392  27.817  1.00  0.00     0.202 C 
BRANCH   2   3
ATOM      3  C   UNL A   1      32.978  33.519  27.914  1.00  0.00     0.261 C 
BRANCH   3   4
ATOM      4  O   UNL A   1      33.253  32.116  27.786  1.00  0.00    -0.460 OA
BRANCH   4   5
ATOM      5  C   UNL A   1      32.348  31.442  27.038  1.00  0.00     0.338 C 
ATOM      6  O   UNL A   1      31.247  31.835  26.686  1.00  0.00    -0.246 OA
BRANCH   5   7
ATOM      7  C   UNL A   1      32.921  30.179  26.531  1.00  0.00     0.060 A 
ATOM      8  C   UNL A   1      33.739  27.636  25.791  1.00  0.00    -0.005 A 
ATOM      9  C   UNL A   1      32.496  28.101  25.363  1.00  0.00     0.010 A 
ATOM     10  C   UNL A   1      34.611  28.460  26.514  1.00  0.00     0.010 A 
ATOM     11  C   UNL A   1      32.080  29.370  25.751  1.00  0.00     0.016 A 
ATOM     12  C   UNL A   1      34.207  29.750  26.871  1.00  0.00     0.016 A 
BRANCH   8  13
ATOM     13  C   UNL A   1      34.062  26.225  25.533  1.00  0.00     0.141 C 
ATOM     14  N   UNL A   1      33.384  25.277  26.095  1.00  0.00    -0.180 NA
BRANCH  14  15
ATOM     15  N   UNL A   1      33.720  24.002  25.803  1.00  0.00    -0.233 NA
ATOM     16  C   UNL A   1      33.937  23.574  24.423  1.00  0.00     0.274 C 
ATOM     17  N   UNL A   1      34.818  22.373  24.460  1.00  0.00    -0.161 NA
ATOM     18  N   UNL A   1      35.082  22.057  25.645  1.00  0.00    -0.153 NA
ATOM     19  C   UNL A   1      34.442  23.005  26.585  1.00  0.00     0.298 C 
BRANCH  16  20
ATOM     20  C   UNL A   1      32.608  23.262  23.689  1.00  0.00     0.201 C 
ATOM     21  C   UNL A   1      29.969  25.849  23.501  1.00  0.00     0.068 C 
ATOM     22  C   UNL A   1      30.874  24.690  23.702  1.00  0.00     0.058 C 
ATOM     23  C   UNL A   1      31.986  24.435  23.017  1.00  0.00     0.031 C 
ATOM     24  N   UNL A   1      30.631  23.754  24.676  1.00  0.00    -0.160 NA
ATOM     25  N   UNL A   1      31.554  22.886  24.686  1.00  0.00    -0.177 NA
ENDBRANCH  16  20
BRANCH  19  26
ATOM     26  S   UNL A   1      33.335  22.211  27.806  1.00  0.00    -0.128 SA
ATOM     27  H   UNL A   1      33.123  20.915  27.450  1.00  0.00     0.106 HD
ENDBRANCH  19  26
ENDBRANCH  14  15
ENDBRANCH   8  13
ENDBRANCH   5   7
ENDBRANCH   4   5
ENDBRANCH   3   4
ENDBRANCH   2   3
ENDBRANCH   1   2
BRANCH   1  28
ATOM     28  C   UNL A   1      33.939  35.055  30.177  1.00  0.00     0.202 C 
BRANCH  28  29
ATOM     29  C   UNL A   1      34.722  34.325  31.256  1.00  0.00     0.261 C 
BRANCH  29  30
ATOM     30  O   UNL A   1      35.767  33.536  30.714  1.00  0.00    -0.460 OA
BRANCH  30  31
ATOM     31  C   UNL A   1      35.578  32.203  30.870  1.00  0.00     0.338 C 
ATOM     32  O   UNL A   1      34.813  31.654  31.640  1.00  0.00    -0.246 OA
BRANCH  31  33
ATOM     33  C   UNL A   1      36.591  31.504  30.076  1.00  0.00     0.060 A 
ATOM     34  C   UNL A   1      36.506  30.113  30.088  1.00  0.00     0.016 A 
ATOM     35  C   UNL A   1      37.746  32.186  29.658  1.00  0.00     0.016 A 
ATOM     36  C   UNL A   1      37.671  29.404  29.940  1.00  0.00     0.010 A 
ATOM     37  C   UNL A   1      38.910  31.475  29.515  1.00  0.00     0.010 A 
ATOM     38  C   UNL A   1      38.870  30.108  29.759  1.00  0.00    -0.014 A 
BRANCH  38  39
ATOM     39  C   UNL A   1      40.088  29.337  29.710  1.00  0.00     0.031 A 
ATOM     40  C   UNL A   1      40.663  29.161  31.058  1.00  0.00     0.074 A 
ATOM     41  C   UNL A   1      40.587  28.828  28.570  1.00  0.00     0.049 A 
ATOM     42  N   UNL A   1      41.689  29.773  31.545  1.00  0.00    -0.248 NA
ATOM     43  C   UNL A   1      39.866  28.427  32.052  1.00  0.00     0.031 C 
ATOM     44  C   UNL A   1      39.951  28.732  27.253  1.00  0.00     0.029 A 
ATOM     45  N   UNL A   1      41.758  28.166  28.388  1.00  0.00    -0.354 N 
ATOM     46  C   UNL A   1      41.815  29.286  32.840  1.00  0.00     0.074 A 
ATOM     47  C   UNL A   1      40.556  28.674  33.166  1.00  0.00     0.031 C 
ATOM     48  C   UNL A   1      40.627  27.829  26.501  1.00  0.00     0.029 A 
ATOM     49  C   UNL A   1      41.810  27.401  27.229  1.00  0.00     0.049 A 
ATOM     50  H   UNL A   1      42.507  28.223  29.024  1.00  0.00     0.167 HD
ATOM     51  C   UNL A   1      43.041  29.165  33.414  1.00  0.00     0.034 A 
ATOM     52  C   UNL A   1      42.718  26.431  26.955  1.00  0.00     0.034 A 
ATOM     53  C   UNL A   1      44.025  29.945  32.703  1.00  0.00     0.049 A 
ATOM     54  C   UNL A   1      43.890  26.670  27.833  1.00  0.00     0.074 A 
ATOM     55  C   UNL A   1      44.186  31.285  32.413  1.00  0.00     0.029 A 
ATOM     56  N   UNL A   1      44.821  29.262  31.816  1.00  0.00    -0.354 N 
ATOM     57  N   UNL A   1      44.662  27.714  27.725  1.00  0.00    -0.248 NA
ATOM     58  C   UNL A   1      43.919  25.998  29.124  1.00  0.00     0.031 C 
ATOM     59  C   UNL A   1      44.709  31.315  31.088  1.00  0.00     0.029 A 
ATOM     60  C   UNL A   1      44.908  29.998  30.665  1.00  0.00     0.049 A 
ATOM     61  H   UNL A   1      45.254  28.393  31.978  1.00  0.00     0.167 HD
ATOM     62  C   UNL A   1      44.893  28.105  29.038  1.00  0.00     0.074 A 
ATOM     63  C   UNL A   1      44.500  26.956  29.852  1.00  0.00     0.031 C 
ATOM     64  C   UNL A   1      45.092  29.418  29.353  1.00  0.00     0.034 A 
BRANCH  51  65
ATOM     65  C   UNL A   1      43.443  28.033  34.329  1.00  0.00     0.023 A 
ATOM     66  C   UNL A   1      44.006  28.392  35.574  1.00  0.00     0.012 A 
ATOM     67  C   UNL A   1      43.573  26.679  33.935  1.00  0.00     0.148 A 
ATOM     68  C   UNL A   1      44.719  27.472  36.348  1.00  0.00     0.002 A 
ATOM     69  C   UNL A   1      44.219  25.752  34.741  1.00  0.00     0.091 A 
ATOM     70  F   UNL A   1      43.192  26.290  32.718  1.00  0.00    -0.205 F 
ATOM     71  C   UNL A   1      44.826  26.151  35.933  1.00  0.00     0.022 A 
BRANCH  69  72
ATOM     72  S   UNL A   1      44.355  24.023  34.267  1.00  0.00     0.127 S 
ATOM     73  O   UNL A   1      44.925  24.132  32.927  1.00  0.00    -0.237 OA
ATOM     74  O   UNL A   1      45.265  23.508  35.291  1.00  0.00    -0.237 OA
ATOM     75  O   UNL A   1      43.004  23.483  34.345  1.00  0.00    -0.744 OA
ENDBRANCH  69  72
ENDBRANCH  51  65
BRANCH  52  76
ATOM     76  C   UNL A   1      42.535  25.138  26.251  1.00  0.00     0.023 A 
ATOM     77  C   UNL A   1      43.507  24.697  25.329  1.00  0.00     0.012 A 
ATOM     78  C   UNL A   1      41.577  24.203  26.703  1.00  0.00     0.148 A 
ATOM     79  C   UNL A   1      43.543  23.363  24.898  1.00  0.00     0.002 A 
ATOM     80  C   UNL A   1      41.615  22.880  26.271  1.00  0.00     0.091 A 
ATOM     81  F   UNL A   1      40.690  24.588  27.630  1.00  0.00    -0.205 F 
ATOM     82  C   UNL A   1      42.605  22.453  25.376  1.00  0.00     0.022 A 
BRANCH  80  83
ATOM     83  S   UNL A   1      40.461  21.640  26.875  1.00  0.00     0.127 S 
ATOM     84  O   UNL A   1      40.870  20.455  26.123  1.00  0.00    -0.237 OA
ATOM     85  O   UNL A   1      40.778  21.601  28.300  1.00  0.00    -0.237 OA
ATOM     86  O   UNL A   1      39.131  22.135  26.540  1.00  0.00    -0.744 OA
ENDBRANCH  80  83
ENDBRANCH  52  76
BRANCH  64  87
ATOM     87  C   UNL A   1      45.306  30.391  28.220  1.00  0.00     0.023 A 
ATOM     88  C   UNL A   1      44.242  31.000  27.519  1.00  0.00     0.012 A 
ATOM     89  C   UNL A   1      46.617  30.828  27.977  1.00  0.00     0.148 A 
ATOM     90  C   UNL A   1      44.488  32.012  26.585  1.00  0.00     0.002 A 
ATOM     91  C   UNL A   1      46.853  31.866  27.085  1.00  0.00     0.091 A 
ATOM     92  F   UNL A   1      47.614  30.239  28.654  1.00  0.00    -0.205 F 
ATOM     93  C   UNL A   1      45.793  32.455  26.379  1.00  0.00     0.022 A 
BRANCH  91  94
ATOM     94  S   UNL A   1      48.493  32.559  26.876  1.00  0.00     0.127 S 
ATOM     95  O   UNL A   1      48.275  33.543  25.817  1.00  0.00    -0.237 OA
ATOM     96  O   UNL A   1      48.761  33.131  28.198  1.00  0.00    -0.237 OA
ATOM     97  O   UNL A   1      49.362  31.443  26.526  1.00  0.00    -0.744 OA
ENDBRANCH  91  94
ENDBRANCH  64  87
ENDBRANCH  38  39
ENDBRANCH  31  33
ENDBRANCH  30  31
ENDBRANCH  29  30
ENDBRANCH  28  29
ENDBRANCH   1  28
TORSDOF 21
ENDMDL
MODEL 3
REMARK VINA RESULT:     -10.3      4.262     11.893
REMARK SMILES CC1=C[C@@H]([C@@H]2N=N[C@H](S)N2/N=C/c2ccc(C(=O)OCCOCCOC(=O)c3ccc(-c4c5nc(c(-c6cccc(S(=O)(=O)[O-])c6F)c6ccc([nH]6)c(-c6cccc(S(=O)(=O)[O-])c6F)c6nc(c(-c7cccc(S(=O)(=O)[O-])c7F)c7ccc4[nH]7)C=C6)C=C5)cc3)cc2)N=N1
REMARK SMILES IDX 22 1 21 2 20 3 19 4 17 5 18 6 16 7 13 8 14 9 92 10 15 11
REMARK SMILES IDX 91 12 12 13 11 14 10 15 5 16 6 17 7 18 8 19 4 20 1 21 2 22
REMARK SMILES IDX 3 23 94 24 93 25 9 26 23 28 24 29 25 30 26 31 27 32 28 33
REMARK SMILES IDX 29 34 90 35 30 36 89 37 31 38 32 39 33 40 83 41 34 42 88 43
REMARK SMILES IDX 82 44 84 45 35 46 87 47 81 48 80 49 36 51 68 52 48 53 67 54
REMARK SMILES IDX 49 55 52 56 66 57 85 58 50 59 51 60 65 62 86 63 53 64 37 65
REMARK SMILES IDX 38 66 46 67 39 68 41 69 47 70 40 71 42 72 43 73 44 74 45 75
REMARK SMILES IDX 69 76 70 77 78 78 71 79 73 80 79 81 72 82 74 83 75 84 76 85
REMARK SMILES IDX 77 86 54 87 55 88 63 89 56 90 58 91 64 92 57 93 59 94 60 95
REMARK SMILES IDX 61 96 62 97
REMARK H PARENT 9 27 84 50 52 61
REMARK Flexibility Score: inf
ROOT
ATOM      1  O   UNL A   1      32.658  34.377  28.918  1.00  0.00    -0.374 OA
ENDROOT
BRANCH   1   2
ATOM      2  C   UNL A   1      33.085  35.524  29.652  1.00  0.00     0.202 C 
BRANCH   2   3
ATOM      3  C   UNL A   1      33.411  35.363  31.140  1.00  0.00     0.261 C 
BRANCH   3   4
ATOM      4  O   UNL A   1      34.743  34.885  31.379  1.00  0.00    -0.460 OA
BRANCH   4   5
ATOM      5  C   UNL A   1      34.796  33.651  31.932  1.00  0.00     0.338 C 
ATOM      6  O   UNL A   1      33.998  32.740  31.775  1.00  0.00    -0.246 OA
BRANCH   5   7
ATOM      7  C   UNL A   1      36.067  33.453  32.657  1.00  0.00     0.060 A 
ATOM      8  C   UNL A   1      38.242  33.025  34.323  1.00  0.00    -0.005 A 
ATOM      9  C   UNL A   1      37.393  31.959  34.026  1.00  0.00     0.010 A 
ATOM     10  C   UNL A   1      38.061  34.281  33.729  1.00  0.00     0.010 A 
ATOM     11  C   UNL A   1      36.293  32.180  33.205  1.00  0.00     0.016 A 
ATOM     12  C   UNL A   1      36.977  34.492  32.873  1.00  0.00     0.016 A 
BRANCH   8  13
ATOM     13  C   UNL A   1      39.274  32.807  35.345  1.00  0.00     0.141 C 
ATOM     14  N   UNL A   1      39.254  33.466  36.459  1.00  0.00    -0.180 NA
BRANCH  14  15
ATOM     15  N   UNL A   1      40.221  33.207  37.364  1.00  0.00    -0.233 NA
ATOM     16  C   UNL A   1      39.933  33.190  38.796  1.00  0.00     0.274 C 
ATOM     17  N   UNL A   1      40.969  32.344  39.452  1.00  0.00    -0.161 NA
ATOM     18  N   UNL A   1      41.798  31.930  38.607  1.00  0.00    -0.153 NA
ATOM     19  C   UNL A   1      41.438  32.412  37.254  1.00  0.00     0.298 C 
BRANCH  16  20
ATOM     20  C   UNL A   1      39.913  34.614  39.408  1.00  0.00     0.201 C 
ATOM     21  C   UNL A   1      42.557  37.037  38.496  1.00  0.00     0.068 C 
ATOM     22  C   UNL A   1      41.583  36.079  39.077  1.00  0.00     0.058 C 
ATOM     23  C   UNL A   1      40.447  35.677  38.513  1.00  0.00     0.031 C 
ATOM     24  N   UNL A   1      41.804  35.487  40.295  1.00  0.00    -0.160 NA
ATOM     25  N   UNL A   1      40.864  34.681  40.565  1.00  0.00    -0.177 NA
ENDBRANCH  16  20
BRANCH  19  26
ATOM     26  S   UNL A   1      42.764  33.362  36.426  1.00  0.00    -0.128 SA
ATOM     27  H   UNL A   1      43.938  33.173  37.085  1.00  0.00     0.106 HD
ENDBRANCH  19  26
ENDBRANCH  14  15
ENDBRANCH   8  13
ENDBRANCH   5   7
ENDBRANCH   4   5
ENDBRANCH   3   4
ENDBRANCH   2   3
ENDBRANCH   1   2
BRANCH   1  28
ATOM     28  C   UNL A   1      33.536  33.765  27.980  1.00  0.00     0.202 C 
BRANCH  28  29
ATOM     29  C   UNL A   1      34.056  32.366  28.266  1.00  0.00     0.261 C 
BRANCH  29  30
ATOM     30  O   UNL A   1      35.400  32.201  27.849  1.00  0.00    -0.460 OA
BRANCH  30  31
ATOM     31  C   UNL A   1      36.298  32.823  28.650  1.00  0.00     0.338 C 
ATOM     32  O   UNL A   1      36.537  34.015  28.700  1.00  0.00    -0.246 OA
BRANCH  31  33
ATOM     33  C   UNL A   1      37.082  31.795  29.339  1.00  0.00     0.060 A 
ATOM     34  C   UNL A   1      38.241  32.248  29.967  1.00  0.00     0.016 A 
ATOM     35  C   UNL A   1      36.857  30.438  29.057  1.00  0.00     0.016 A 
ATOM     36  C   UNL A   1      39.292  31.371  30.068  1.00  0.00     0.010 A 
ATOM     37  C   UNL A   1      37.911  29.565  29.154  1.00  0.00     0.010 A 
ATOM     38  C   UNL A   1      39.138  30.073  29.562  1.00  0.00    -0.014 A 
BRANCH  38  39
ATOM     39  C   UNL A   1      40.295  29.211  29.590  1.00  0.00     0.031 A 
ATOM     40  C   UNL A   1      40.752  28.976  30.972  1.00  0.00     0.074 A 
ATOM     41  C   UNL A   1      40.837  28.678  28.481  1.00  0.00     0.049 A 
ATOM     42  N   UNL A   1      41.783  29.501  31.545  1.00  0.00    -0.248 NA
ATOM     43  C   UNL A   1      39.830  28.295  31.893  1.00  0.00     0.031 C 
ATOM     44  C   UNL A   1      40.294  28.646  27.119  1.00  0.00     0.029 A 
ATOM     45  N   UNL A   1      41.964  27.930  28.374  1.00  0.00    -0.354 N 
ATOM     46  C   UNL A   1      41.775  28.991  32.836  1.00  0.00     0.074 A 
ATOM     47  C   UNL A   1      40.452  28.475  33.059  1.00  0.00     0.031 C 
ATOM     48  C   UNL A   1      40.954  27.703  26.404  1.00  0.00     0.029 A 
ATOM     49  C   UNL A   1      42.043  27.176  27.209  1.00  0.00     0.049 A 
ATOM     50  H   UNL A   1      42.666  27.921  29.064  1.00  0.00     0.167 HD
ATOM     51  C   UNL A   1      42.942  28.769  33.497  1.00  0.00     0.034 A 
ATOM     52  C   UNL A   1      42.893  26.141  26.986  1.00  0.00     0.034 A 
ATOM     53  C   UNL A   1      44.032  29.478  32.873  1.00  0.00     0.049 A 
ATOM     54  C   UNL A   1      44.010  26.279  27.952  1.00  0.00     0.074 A 
ATOM     55  C   UNL A   1      44.316  30.805  32.619  1.00  0.00     0.029 A 
ATOM     56  N   UNL A   1      44.838  28.746  32.035  1.00  0.00    -0.354 N 
ATOM     57  N   UNL A   1      44.866  27.260  27.918  1.00  0.00    -0.248 NA
ATOM     58  C   UNL A   1      43.892  25.592  29.230  1.00  0.00     0.031 C 
ATOM     59  C   UNL A   1      44.938  30.809  31.336  1.00  0.00     0.029 A 
ATOM     60  C   UNL A   1      45.066  29.486  30.907  1.00  0.00     0.049 A 
ATOM     61  H   UNL A   1      45.190  27.844  32.215  1.00  0.00     0.167 HD
ATOM     62  C   UNL A   1      45.028  27.618  29.251  1.00  0.00     0.074 A 
ATOM     63  C   UNL A   1      44.488  26.494  30.015  1.00  0.00     0.031 C 
ATOM     64  C   UNL A   1      45.303  28.908  29.602  1.00  0.00     0.034 A 
BRANCH  51  65
ATOM     65  C   UNL A   1      43.187  27.599  34.420  1.00  0.00     0.023 A 
ATOM     66  C   UNL A   1      43.379  27.897  35.787  1.00  0.00     0.012 A 
ATOM     67  C   UNL A   1      43.524  26.290  33.997  1.00  0.00     0.148 A 
ATOM     68  C   UNL A   1      43.944  26.969  36.667  1.00  0.00     0.002 A 
ATOM     69  C   UNL A   1      44.014  25.348  34.891  1.00  0.00     0.091 A 
ATOM     70  F   UNL A   1      43.500  25.971  32.703  1.00  0.00    -0.205 F 
ATOM     71  C   UNL A   1      44.260  25.694  36.220  1.00  0.00     0.022 A 
BRANCH  69  72
ATOM     72  S   UNL A   1      44.408  23.672  34.372  1.00  0.00     0.127 S 
ATOM     73  O   UNL A   1      44.741  23.042  35.647  1.00  0.00    -0.237 OA
ATOM     74  O   UNL A   1      43.142  23.243  33.777  1.00  0.00    -0.237 OA
ATOM     75  O   UNL A   1      45.502  23.799  33.418  1.00  0.00    -0.744 OA
ENDBRANCH  69  72
ENDBRANCH  51  65
BRANCH  52  76
ATOM     76  C   UNL A   1      42.663  24.874  26.249  1.00  0.00     0.023 A 
ATOM     77  C   UNL A   1      43.616  24.427  25.310  1.00  0.00     0.012 A 
ATOM     78  C   UNL A   1      41.678  23.959  26.681  1.00  0.00     0.148 A 
ATOM     79  C   UNL A   1      43.607  23.105  24.842  1.00  0.00     0.002 A 
ATOM     80  C   UNL A   1      41.672  22.647  26.213  1.00  0.00     0.091 A 
ATOM     81  F   UNL A   1      40.809  24.347  27.623  1.00  0.00    -0.205 F 
ATOM     82  C   UNL A   1      42.642  22.214  25.301  1.00  0.00     0.022 A 
BRANCH  80  83
ATOM     83  S   UNL A   1      40.481  21.430  26.791  1.00  0.00     0.127 S 
ATOM     84  O   UNL A   1      40.742  21.411  28.230  1.00  0.00    -0.237 OA
ATOM     85  O   UNL A   1      39.212  22.042  26.406  1.00  0.00    -0.237 OA
ATOM     86  O   UNL A   1      40.813  20.188  26.104  1.00  0.00    -0.744 OA
ENDBRANCH  80  83
ENDBRANCH  52  76
BRANCH  64  87
ATOM     87  C   UNL A   1      45.674  29.875  28.505  1.00  0.00     0.023 A 
ATOM     88  C   UNL A   1      44.729  30.697  27.853  1.00  0.00     0.012 A 
ATOM     89  C   UNL A   1      47.039  30.076  28.250  1.00  0.00     0.148 A 
ATOM     90  C   UNL A   1      45.142  31.686  26.954  1.00  0.00     0.002 A 
ATOM     91  C   UNL A   1      47.448  31.091  27.395  1.00  0.00     0.091 A 
ATOM     92  F   UNL A   1      47.921  29.286  28.880  1.00  0.00    -0.205 F 
ATOM     93  C   UNL A   1      46.503  31.893  26.737  1.00  0.00     0.022 A 
BRANCH  91  94
ATOM     94  S   UNL A   1      49.183  31.483  27.178  1.00  0.00     0.127 S 
ATOM     95  O   UNL A   1      49.682  30.290  26.497  1.00  0.00    -0.237 OA
ATOM     96  O   UNL A   1      49.130  32.686  26.344  1.00  0.00    -0.237 OA
ATOM     97  O   UNL A   1      49.716  31.711  28.515  1.00  0.00    -0.744 OA
ENDBRANCH  91  94
ENDBRANCH  64  87
ENDBRANCH  38  39
ENDBRANCH  31  33
ENDBRANCH  30  31
ENDBRANCH  29  30
ENDBRANCH  28  29
ENDBRANCH   1  28
TORSDOF 21
ENDMDL
