MODEL 1
REMARK VINA RESULT:      -8.7      0.000      0.000
REMARK SMILES COc1cccc2c(C)cc(S[C@H](C)C(=O)Nc3ccc(C(=O)OCCOCCOC(=O)c4ccc(-c5c6nc(c(-c7cccc(S(=O)(=O)[O-])c7F)c7ccc([nH]7)c(-c7cccc(S(=O)(=O)[O-])c7F)c7nc(c(-c8cccc(S(=O)(=O)[O-])c8F)c8ccc5[nH]8)C=C7)C=C6)cc4)cc3)nc12
REMARK SMILES IDX 26 1 25 2 24 3 22 4 23 5 21 6 18 7 19 8 97 9 20 10 96 11
REMARK SMILES IDX 17 12 15 13 16 14 13 16 14 17 12 18 11 19 3 20 4 21 99 22
REMARK SMILES IDX 5 23 7 24 98 25 6 26 8 27 9 28 10 29 2 30 1 31 27 32 28 33
REMARK SMILES IDX 29 34 30 35 31 36 32 37 33 38 34 39 95 40 35 41 94 42 36 43
REMARK SMILES IDX 37 44 38 45 88 46 39 47 93 48 87 49 89 50 40 51 92 52 86 53
REMARK SMILES IDX 85 54 41 56 73 57 53 58 72 59 54 60 57 61 71 62 90 63 55 64
REMARK SMILES IDX 56 65 70 67 91 68 58 69 42 70 43 71 51 72 44 73 46 74 52 75
REMARK SMILES IDX 45 76 47 77 48 78 49 79 50 80 74 81 75 82 83 83 76 84 78 85
REMARK SMILES IDX 84 86 77 87 79 88 80 89 81 90 82 91 59 92 60 93 68 94 61 95
REMARK SMILES IDX 63 96 69 97 62 98 64 99 65 100 66 101 67 102
REMARK H PARENT 17 15 89 55 57 66
REMARK Flexibility Score: inf
ROOT
ATOM      1  C   UNL A   1      35.150  32.284  31.522  1.00  0.00     0.202 C 
ENDROOT
BRANCH   1   2
ATOM      2  C   UNL A   1      35.554  32.981  32.824  1.00  0.00     0.261 C 
BRANCH   2   3
ATOM      3  O   UNL A   1      36.962  32.855  33.058  1.00  0.00    -0.460 OA
BRANCH   3   4
ATOM      4  C   UNL A   1      37.641  34.023  33.110  1.00  0.00     0.338 C 
ATOM      5  O   UNL A   1      37.544  34.888  33.973  1.00  0.00    -0.246 OA
BRANCH   4   6
ATOM      6  C   UNL A   1      38.655  34.081  32.032  1.00  0.00     0.060 A 
ATOM      7  C   UNL A   1      40.592  34.493  30.075  1.00  0.00     0.041 A 
ATOM      8  C   UNL A   1      40.941  34.603  31.420  1.00  0.00     0.027 A 
ATOM      9  C   UNL A   1      39.341  33.994  29.719  1.00  0.00     0.027 A 
ATOM     10  C   UNL A   1      39.964  34.422  32.396  1.00  0.00     0.018 A 
ATOM     11  C   UNL A   1      38.360  33.802  30.693  1.00  0.00     0.018 A 
BRANCH   7  12
ATOM     12  N   UNL A   1      41.506  34.978  29.137  1.00  0.00    -0.325 N 
ATOM     13  C   UNL A   1      42.792  34.553  28.917  1.00  0.00     0.237 C 
ATOM     14  O   UNL A   1      43.344  34.982  27.893  1.00  0.00    -0.273 OA
ATOM     15  H   UNL A   1      41.190  35.714  28.564  1.00  0.00     0.169 HD
BRANCH  13  16
ATOM     16  C   UNL A   1      43.556  33.569  29.817  1.00  0.00     0.139 C 
ATOM     17  C   UNL A   1      43.102  32.119  29.675  1.00  0.00     0.030 C 
BRANCH  16  18
ATOM     18  S   UNL A   1      45.381  33.736  29.672  1.00  0.00    -0.093 SA
BRANCH  18  19
ATOM     19  C   UNL A   1      45.999  32.130  29.226  1.00  0.00     0.098 A 
ATOM     20  C   UNL A   1      44.633  29.493  27.078  1.00  0.00     0.145 A 
ATOM     21  C   UNL A   1      44.832  28.131  26.809  1.00  0.00     0.049 A 
ATOM     22  C   UNL A   1      45.459  30.198  27.982  1.00  0.00     0.114 A 
ATOM     23  C   UNL A   1      45.881  27.445  27.395  1.00  0.00     0.005 A 
ATOM     24  C   UNL A   1      46.533  29.489  28.574  1.00  0.00     0.007 A 
ATOM     25  N   UNL A   1      45.228  31.491  28.315  1.00  0.00    -0.238 NA
ATOM     26  C   UNL A   1      46.729  28.123  28.262  1.00  0.00     0.011 A 
ATOM     27  C   UNL A   1      47.367  30.177  29.484  1.00  0.00    -0.039 A 
ATOM     28  C   UNL A   1      48.523  29.511  30.183  1.00  0.00     0.045 C 
ATOM     29  C   UNL A   1      47.089  31.511  29.799  1.00  0.00     0.039 A 
BRANCH  20  30
ATOM     30  O   UNL A   1      43.532  29.991  26.413  1.00  0.00    -0.494 OA
ATOM     31  C   UNL A   1      42.387  29.146  26.371  1.00  0.00     0.278 C 
ENDBRANCH  20  30
ENDBRANCH  18  19
ENDBRANCH  16  18
ENDBRANCH  13  16
ENDBRANCH   7  12
ENDBRANCH   4   6
ENDBRANCH   3   4
ENDBRANCH   2   3
ENDBRANCH   1   2
BRANCH   1  32
ATOM     32  O   UNL A   1      34.099  32.893  30.772  1.00  0.00    -0.374 OA
BRANCH  32  33
ATOM     33  C   UNL A   1      34.477  33.773  29.710  1.00  0.00     0.202 C 
BRANCH  33  34
ATOM     34  C   UNL A   1      35.723  33.391  28.903  1.00  0.00     0.261 C 
BRANCH  34  35
ATOM     35  O   UNL A   1      35.388  32.733  27.668  1.00  0.00    -0.460 OA
BRANCH  35  36
ATOM     36  C   UNL A   1      34.949  31.461  27.797  1.00  0.00     0.338 C 
ATOM     37  O   UNL A   1      33.828  31.035  27.540  1.00  0.00    -0.246 OA
BRANCH  36  38
ATOM     38  C   UNL A   1      36.079  30.578  28.126  1.00  0.00     0.060 A 
ATOM     39  C   UNL A   1      35.986  29.790  29.282  1.00  0.00     0.016 A 
ATOM     40  C   UNL A   1      37.240  30.570  27.351  1.00  0.00     0.016 A 
ATOM     41  C   UNL A   1      37.073  29.024  29.697  1.00  0.00     0.010 A 
ATOM     42  C   UNL A   1      38.333  29.812  27.775  1.00  0.00     0.010 A 
ATOM     43  C   UNL A   1      38.267  29.066  28.966  1.00  0.00    -0.014 A 
BRANCH  43  44
ATOM     44  C   UNL A   1      39.507  28.467  29.510  1.00  0.00     0.031 A 
ATOM     45  C   UNL A   1      40.228  29.195  30.609  1.00  0.00     0.074 A 
ATOM     46  C   UNL A   1      40.012  27.335  28.992  1.00  0.00     0.049 A 
ATOM     47  N   UNL A   1      41.406  28.962  31.123  1.00  0.00    -0.248 NA
ATOM     48  C   UNL A   1      39.531  30.351  31.199  1.00  0.00     0.031 C 
ATOM     49  C   UNL A   1      39.387  26.534  27.942  1.00  0.00     0.029 A 
ATOM     50  N   UNL A   1      41.194  26.688  29.254  1.00  0.00    -0.354 N 
ATOM     51  C   UNL A   1      41.613  29.965  32.062  1.00  0.00     0.074 A 
ATOM     52  C   UNL A   1      40.437  30.809  32.050  1.00  0.00     0.031 C 
ATOM     53  C   UNL A   1      40.215  25.527  27.613  1.00  0.00     0.029 A 
ATOM     54  C   UNL A   1      41.440  25.636  28.403  1.00  0.00     0.049 A 
ATOM     55  H   UNL A   1      41.806  26.952  29.980  1.00  0.00     0.167 HD
ATOM     56  C   UNL A   1      42.684  30.163  32.865  1.00  0.00     0.034 A 
ATOM     57  C   UNL A   1      42.545  24.879  28.253  1.00  0.00     0.034 A 
ATOM     58  C   UNL A   1      43.837  29.306  32.885  1.00  0.00     0.049 A 
ATOM     59  C   UNL A   1      43.737  25.133  29.140  1.00  0.00     0.074 A 
ATOM     60  C   UNL A   1      44.959  29.394  33.689  1.00  0.00     0.029 A 
ATOM     61  N   UNL A   1      44.020  28.210  32.057  1.00  0.00    -0.354 N 
ATOM     62  N   UNL A   1      43.884  26.029  30.087  1.00  0.00    -0.248 NA
ATOM     63  C   UNL A   1      44.905  24.259  28.957  1.00  0.00     0.031 C 
ATOM     64  C   UNL A   1      45.832  28.363  33.329  1.00  0.00     0.029 A 
ATOM     65  C   UNL A   1      45.239  27.615  32.325  1.00  0.00     0.049 A 
ATOM     66  H   UNL A   1      43.377  27.901  31.378  1.00  0.00     0.167 HD
ATOM     67  C   UNL A   1      45.136  25.793  30.646  1.00  0.00     0.074 A 
ATOM     68  C   UNL A   1      45.707  24.670  29.932  1.00  0.00     0.031 C 
ATOM     69  C   UNL A   1      45.758  26.451  31.654  1.00  0.00     0.034 A 
BRANCH  56  70
ATOM     70  C   UNL A   1      42.653  31.341  33.799  1.00  0.00     0.023 A 
ATOM     71  C   UNL A   1      43.254  32.557  33.413  1.00  0.00     0.012 A 
ATOM     72  C   UNL A   1      41.984  31.263  35.036  1.00  0.00     0.148 A 
ATOM     73  C   UNL A   1      43.214  33.666  34.256  1.00  0.00     0.002 A 
ATOM     74  C   UNL A   1      41.909  32.386  35.852  1.00  0.00     0.091 A 
ATOM     75  F   UNL A   1      41.441  30.091  35.396  1.00  0.00    -0.205 F 
ATOM     76  C   UNL A   1      42.533  33.585  35.469  1.00  0.00     0.022 A 
BRANCH  74  77
ATOM     77  S   UNL A   1      40.990  32.401  37.395  1.00  0.00     0.127 S 
ATOM     78  O   UNL A   1      40.798  33.833  37.610  1.00  0.00    -0.237 OA
ATOM     79  O   UNL A   1      39.774  31.669  37.036  1.00  0.00    -0.237 OA
ATOM     80  O   UNL A   1      41.836  31.728  38.372  1.00  0.00    -0.744 OA
ENDBRANCH  74  77
ENDBRANCH  56  70
BRANCH  57  81
ATOM     81  C   UNL A   1      42.568  23.790  27.236  1.00  0.00     0.023 A 
ATOM     82  C   UNL A   1      43.225  24.004  26.009  1.00  0.00     0.012 A 
ATOM     83  C   UNL A   1      41.966  22.542  27.484  1.00  0.00     0.148 A 
ATOM     84  C   UNL A   1      43.257  23.004  25.037  1.00  0.00     0.002 A 
ATOM     85  C   UNL A   1      42.047  21.531  26.534  1.00  0.00     0.091 A 
ATOM     86  F   UNL A   1      41.332  22.363  28.652  1.00  0.00    -0.205 F 
ATOM     87  C   UNL A   1      42.679  21.765  25.302  1.00  0.00     0.022 A 
BRANCH  85  88
ATOM     88  S   UNL A   1      41.439  19.868  26.838  1.00  0.00     0.127 S 
ATOM     89  O   UNL A   1      40.374  19.753  25.846  1.00  0.00    -0.237 OA
ATOM     90  O   UNL A   1      42.626  19.058  26.566  1.00  0.00    -0.237 OA
ATOM     91  O   UNL A   1      41.010  19.856  28.231  1.00  0.00    -0.744 OA
ENDBRANCH  85  88
ENDBRANCH  57  81
BRANCH  69  92
ATOM     92  C   UNL A   1      47.101  25.945  32.113  1.00  0.00     0.023 A 
ATOM     93  C   UNL A   1      48.279  26.422  31.509  1.00  0.00     0.012 A 
ATOM     94  C   UNL A   1      47.189  25.093  33.233  1.00  0.00     0.148 A 
ATOM     95  C   UNL A   1      49.528  26.045  32.004  1.00  0.00     0.002 A 
ATOM     96  C   UNL A   1      48.434  24.762  33.751  1.00  0.00     0.091 A 
ATOM     97  F   UNL A   1      46.051  24.640  33.781  1.00  0.00    -0.205 F 
ATOM     98  C   UNL A   1      49.605  25.230  33.132  1.00  0.00     0.022 A 
BRANCH  96  99
ATOM     99  S   UNL A   1      48.630  23.804  35.258  1.00  0.00     0.127 S 
ATOM    100  O   UNL A   1      48.320  22.453  34.794  1.00  0.00    -0.237 OA
ATOM    101  O   UNL A   1      50.038  24.030  35.586  1.00  0.00    -0.237 OA
ATOM    102  O   UNL A   1      47.687  24.363  36.217  1.00  0.00    -0.744 OA
ENDBRANCH  96  99
ENDBRANCH  69  92
ENDBRANCH  43  44
ENDBRANCH  36  38
ENDBRANCH  35  36
ENDBRANCH  34  35
ENDBRANCH  33  34
ENDBRANCH  32  33
ENDBRANCH   1  32
TORSDOF 22
ENDMDL
MODEL 2
REMARK VINA RESULT:      -8.2      5.338      8.990
REMARK SMILES COc1cccc2c(C)cc(S[C@H](C)C(=O)Nc3ccc(C(=O)OCCOCCOC(=O)c4ccc(-c5c6nc(c(-c7cccc(S(=O)(=O)[O-])c7F)c7ccc([nH]7)c(-c7cccc(S(=O)(=O)[O-])c7F)c7nc(c(-c8cccc(S(=O)(=O)[O-])c8F)c8ccc5[nH]8)C=C7)C=C6)cc4)cc3)nc12
REMARK SMILES IDX 26 1 25 2 24 3 22 4 23 5 21 6 18 7 19 8 97 9 20 10 96 11
REMARK SMILES IDX 17 12 15 13 16 14 13 16 14 17 12 18 11 19 3 20 4 21 99 22
REMARK SMILES IDX 5 23 7 24 98 25 6 26 8 27 9 28 10 29 2 30 1 31 27 32 28 33
REMARK SMILES IDX 29 34 30 35 31 36 32 37 33 38 34 39 95 40 35 41 94 42 36 43
REMARK SMILES IDX 37 44 38 45 88 46 39 47 93 48 87 49 89 50 40 51 92 52 86 53
REMARK SMILES IDX 85 54 41 56 73 57 53 58 72 59 54 60 57 61 71 62 90 63 55 64
REMARK SMILES IDX 56 65 70 67 91 68 58 69 42 70 43 71 51 72 44 73 46 74 52 75
REMARK SMILES IDX 45 76 47 77 48 78 49 79 50 80 74 81 75 82 83 83 76 84 78 85
REMARK SMILES IDX 84 86 77 87 79 88 80 89 81 90 82 91 59 92 60 93 68 94 61 95
REMARK SMILES IDX 63 96 69 97 62 98 64 99 65 100 66 101 67 102
REMARK H PARENT 17 15 89 55 57 66
REMARK Flexibility Score: inf
ROOT
ATOM      1  C   UNL A   1      32.957  36.096  29.666  1.00  0.00     0.202 C 
ENDROOT
BRANCH   1   2
ATOM      2  C   UNL A   1      33.812  36.065  28.397  1.00  0.00     0.261 C 
BRANCH   2   3
ATOM      3  O   UNL A   1      34.696  34.937  28.400  1.00  0.00    -0.460 OA
BRANCH   3   4
ATOM      4  C   UNL A   1      34.128  33.764  28.043  1.00  0.00     0.338 C 
ATOM      5  O   UNL A   1      32.988  33.599  27.627  1.00  0.00    -0.246 OA
BRANCH   4   6
ATOM      6  C   UNL A   1      35.128  32.671  28.087  1.00  0.00     0.060 A 
ATOM      7  C   UNL A   1      36.846  30.505  28.412  1.00  0.00     0.041 A 
ATOM      8  C   UNL A   1      35.531  30.283  28.006  1.00  0.00     0.027 A 
ATOM      9  C   UNL A   1      37.349  31.803  28.465  1.00  0.00     0.027 A 
ATOM     10  C   UNL A   1      34.666  31.366  27.869  1.00  0.00     0.018 A 
ATOM     11  C   UNL A   1      36.489  32.893  28.321  1.00  0.00     0.018 A 
BRANCH   7  12
ATOM     12  N   UNL A   1      37.580  29.393  28.831  1.00  0.00    -0.325 N 
ATOM     13  C   UNL A   1      37.877  29.016  30.116  1.00  0.00     0.237 C 
ATOM     14  O   UNL A   1      38.357  27.881  30.258  1.00  0.00    -0.273 OA
ATOM     15  H   UNL A   1      37.927  28.809  28.118  1.00  0.00     0.169 HD
BRANCH  13  16
ATOM     16  C   UNL A   1      37.617  29.874  31.364  1.00  0.00     0.139 C 
ATOM     17  C   UNL A   1      36.165  30.315  31.521  1.00  0.00     0.030 C 
BRANCH  16  18
ATOM     18  S   UNL A   1      38.277  29.116  32.903  1.00  0.00    -0.093 SA
BRANCH  18  19
ATOM     19  C   UNL A   1      39.673  30.102  33.391  1.00  0.00     0.098 A 
ATOM     20  C   UNL A   1      42.617  31.260  31.540  1.00  0.00     0.145 A 
ATOM     21  C   UNL A   1      43.884  31.805  31.791  1.00  0.00     0.049 A 
ATOM     22  C   UNL A   1      41.703  30.998  32.585  1.00  0.00     0.114 A 
ATOM     23  C   UNL A   1      44.260  32.146  33.078  1.00  0.00     0.005 A 
ATOM     24  C   UNL A   1      42.094  31.354  33.899  1.00  0.00     0.007 A 
ATOM     25  N   UNL A   1      40.509  30.395  32.367  1.00  0.00    -0.238 NA
ATOM     26  C   UNL A   1      43.366  31.930  34.121  1.00  0.00     0.011 A 
ATOM     27  C   UNL A   1      41.193  31.095  34.957  1.00  0.00    -0.039 A 
ATOM     28  C   UNL A   1      41.520  31.416  36.392  1.00  0.00     0.045 C 
ATOM     29  C   UNL A   1      39.973  30.468  34.685  1.00  0.00     0.039 A 
BRANCH  20  30
ATOM     30  O   UNL A   1      42.437  30.975  30.202  1.00  0.00    -0.494 OA
ATOM     31  C   UNL A   1      43.174  29.870  29.690  1.00  0.00     0.278 C 
ENDBRANCH  20  30
ENDBRANCH  18  19
ENDBRANCH  16  18
ENDBRANCH  13  16
ENDBRANCH   7  12
ENDBRANCH   4   6
ENDBRANCH   3   4
ENDBRANCH   2   3
ENDBRANCH   1   2
BRANCH   1  32
ATOM     32  O   UNL A   1      33.004  37.297  30.438  1.00  0.00    -0.374 OA
BRANCH  32  33
ATOM     33  C   UNL A   1      33.226  37.162  31.844  1.00  0.00     0.202 C 
BRANCH  33  34
ATOM     34  C   UNL A   1      32.557  35.973  32.542  1.00  0.00     0.261 C 
BRANCH  34  35
ATOM     35  O   UNL A   1      32.961  34.715  31.975  1.00  0.00    -0.460 OA
BRANCH  35  36
ATOM     36  C   UNL A   1      33.395  33.796  32.868  1.00  0.00     0.338 C 
ATOM     37  O   UNL A   1      32.708  33.012  33.515  1.00  0.00    -0.246 OA
BRANCH  36  38
ATOM     38  C   UNL A   1      34.864  33.726  32.833  1.00  0.00     0.060 A 
ATOM     39  C   UNL A   1      35.526  33.204  33.954  1.00  0.00     0.016 A 
ATOM     40  C   UNL A   1      35.585  34.225  31.748  1.00  0.00     0.016 A 
ATOM     41  C   UNL A   1      36.917  33.221  34.015  1.00  0.00     0.010 A 
ATOM     42  C   UNL A   1      36.980  34.254  31.817  1.00  0.00     0.010 A 
ATOM     43  C   UNL A   1      37.649  33.786  32.963  1.00  0.00    -0.014 A 
BRANCH  43  44
ATOM     44  C   UNL A   1      39.100  34.044  33.105  1.00  0.00     0.031 A 
ATOM     45  C   UNL A   1      39.649  34.294  34.481  1.00  0.00     0.074 A 
ATOM     46  C   UNL A   1      39.897  34.118  32.025  1.00  0.00     0.049 A 
ATOM     47  N   UNL A   1      40.837  34.704  34.837  1.00  0.00    -0.248 NA
ATOM     48  C   UNL A   1      38.728  34.061  35.608  1.00  0.00     0.031 C 
ATOM     49  C   UNL A   1      39.479  33.872  30.648  1.00  0.00     0.029 A 
ATOM     50  N   UNL A   1      41.221  34.466  31.921  1.00  0.00    -0.354 N 
ATOM     51  C   UNL A   1      40.795  34.825  36.221  1.00  0.00     0.074 A 
ATOM     52  C   UNL A   1      39.465  34.441  36.642  1.00  0.00     0.031 C 
ATOM     53  C   UNL A   1      40.513  34.124  29.828  1.00  0.00     0.029 A 
ATOM     54  C   UNL A   1      41.652  34.584  30.620  1.00  0.00     0.049 A 
ATOM     55  H   UNL A   1      41.803  34.618  32.700  1.00  0.00     0.167 HD
ATOM     56  C   UNL A   1      41.778  35.216  37.065  1.00  0.00     0.034 A 
ATOM     57  C   UNL A   1      42.817  35.050  30.129  1.00  0.00     0.034 A 
ATOM     58  C   UNL A   1      43.102  35.574  36.638  1.00  0.00     0.049 A 
ATOM     59  C   UNL A   1      43.889  35.506  31.086  1.00  0.00     0.074 A 
ATOM     60  C   UNL A   1      44.184  35.945  37.416  1.00  0.00     0.029 A 
ATOM     61  N   UNL A   1      43.522  35.614  35.318  1.00  0.00    -0.354 N 
ATOM     62  N   UNL A   1      43.868  35.528  32.398  1.00  0.00    -0.248 NA
ATOM     63  C   UNL A   1      45.153  35.976  30.501  1.00  0.00     0.031 C 
ATOM     64  C   UNL A   1      45.253  36.234  36.562  1.00  0.00     0.029 A 
ATOM     65  C   UNL A   1      44.846  36.010  35.257  1.00  0.00     0.049 A 
ATOM     66  H   UNL A   1      42.961  35.393  34.540  1.00  0.00     0.167 HD
ATOM     67  C   UNL A   1      45.129  35.964  32.794  1.00  0.00     0.074 A 
ATOM     68  C   UNL A   1      45.890  36.194  31.583  1.00  0.00     0.031 C 
ATOM     69  C   UNL A   1      45.610  36.161  34.045  1.00  0.00     0.034 A 
BRANCH  56  70
ATOM     70  C   UNL A   1      41.464  35.262  38.535  1.00  0.00     0.023 A 
ATOM     71  C   UNL A   1      41.795  34.165  39.357  1.00  0.00     0.012 A 
ATOM     72  C   UNL A   1      40.890  36.411  39.113  1.00  0.00     0.148 A 
ATOM     73  C   UNL A   1      41.533  34.200  40.725  1.00  0.00     0.002 A 
ATOM     74  C   UNL A   1      40.673  36.456  40.486  1.00  0.00     0.091 A 
ATOM     75  F   UNL A   1      40.559  37.433  38.311  1.00  0.00    -0.205 F 
ATOM     76  C   UNL A   1      40.983  35.348  41.291  1.00  0.00     0.022 A 
BRANCH  74  77
ATOM     77  S   UNL A   1      40.041  37.918  41.316  1.00  0.00     0.127 S 
ATOM     78  O   UNL A   1      41.122  38.876  41.091  1.00  0.00    -0.237 OA
ATOM     79  O   UNL A   1      38.815  38.194  40.565  1.00  0.00    -0.237 OA
ATOM     80  O   UNL A   1      39.827  37.530  42.704  1.00  0.00    -0.744 OA
ENDBRANCH  74  77
ENDBRANCH  56  70
BRANCH  57  81
ATOM     81  C   UNL A   1      43.042  35.088  28.656  1.00  0.00     0.023 A 
ATOM     82  C   UNL A   1      42.620  36.213  27.921  1.00  0.00     0.012 A 
ATOM     83  C   UNL A   1      43.689  34.032  27.987  1.00  0.00     0.148 A 
ATOM     84  C   UNL A   1      42.814  36.271  26.541  1.00  0.00     0.002 A 
ATOM     85  C   UNL A   1      43.926  34.120  26.620  1.00  0.00     0.091 A 
ATOM     86  F   UNL A   1      44.069  32.964  28.702  1.00  0.00    -0.205 F 
ATOM     87  C   UNL A   1      43.475  35.232  25.892  1.00  0.00     0.022 A 
BRANCH  85  88
ATOM     88  S   UNL A   1      44.878  32.887  25.724  1.00  0.00     0.127 S 
ATOM     89  O   UNL A   1      44.247  31.645  26.162  1.00  0.00    -0.237 OA
ATOM     90  O   UNL A   1      44.615  33.255  24.333  1.00  0.00    -0.237 OA
ATOM     91  O   UNL A   1      46.261  33.076  26.144  1.00  0.00    -0.744 OA
ENDBRANCH  85  88
ENDBRANCH  57  81
BRANCH  69  92
ATOM     92  C   UNL A   1      47.048  36.581  34.197  1.00  0.00     0.023 A 
ATOM     93  C   UNL A   1      48.051  35.611  34.381  1.00  0.00     0.012 A 
ATOM     94  C   UNL A   1      47.410  37.934  34.028  1.00  0.00     0.148 A 
ATOM     95  C   UNL A   1      49.395  35.984  34.408  1.00  0.00     0.002 A 
ATOM     96  C   UNL A   1      48.752  38.290  34.007  1.00  0.00     0.091 A 
ATOM     97  F   UNL A   1      46.435  38.840  33.871  1.00  0.00    -0.205 F 
ATOM     98  C   UNL A   1      49.746  37.317  34.206  1.00  0.00     0.022 A 
BRANCH  96  99
ATOM     99  S   UNL A   1      49.302  39.962  33.652  1.00  0.00     0.127 S 
ATOM    100  O   UNL A   1      50.744  39.776  33.501  1.00  0.00    -0.237 OA
ATOM    101  O   UNL A   1      48.592  40.263  32.409  1.00  0.00    -0.237 OA
ATOM    102  O   UNL A   1      48.897  40.772  34.793  1.00  0.00    -0.744 OA
ENDBRANCH  96  99
ENDBRANCH  69  92
ENDBRANCH  43  44
ENDBRANCH  36  38
ENDBRANCH  35  36
ENDBRANCH  34  35
ENDBRANCH  33  34
ENDBRANCH  32  33
ENDBRANCH   1  32
TORSDOF 22
ENDMDL
MODEL 3
REMARK VINA RESULT:      -7.9      4.079      8.217
REMARK SMILES COc1cccc2c(C)cc(S[C@H](C)C(=O)Nc3ccc(C(=O)OCCOCCOC(=O)c4ccc(-c5c6nc(c(-c7cccc(S(=O)(=O)[O-])c7F)c7ccc([nH]7)c(-c7cccc(S(=O)(=O)[O-])c7F)c7nc(c(-c8cccc(S(=O)(=O)[O-])c8F)c8ccc5[nH]8)C=C7)C=C6)cc4)cc3)nc12
REMARK SMILES IDX 26 1 25 2 24 3 22 4 23 5 21 6 18 7 19 8 97 9 20 10 96 11
REMARK SMILES IDX 17 12 15 13 16 14 13 16 14 17 12 18 11 19 3 20 4 21 99 22
REMARK SMILES IDX 5 23 7 24 98 25 6 26 8 27 9 28 10 29 2 30 1 31 27 32 28 33
REMARK SMILES IDX 29 34 30 35 31 36 32 37 33 38 34 39 95 40 35 41 94 42 36 43
REMARK SMILES IDX 37 44 38 45 88 46 39 47 93 48 87 49 89 50 40 51 92 52 86 53
REMARK SMILES IDX 85 54 41 56 73 57 53 58 72 59 54 60 57 61 71 62 90 63 55 64
REMARK SMILES IDX 56 65 70 67 91 68 58 69 42 70 43 71 51 72 44 73 46 74 52 75
REMARK SMILES IDX 45 76 47 77 48 78 49 79 50 80 74 81 75 82 83 83 76 84 78 85
REMARK SMILES IDX 84 86 77 87 79 88 80 89 81 90 82 91 59 92 60 93 68 94 61 95
REMARK SMILES IDX 63 96 69 97 62 98 64 99 65 100 66 101 67 102
REMARK H PARENT 17 15 89 55 57 66
REMARK Flexibility Score: inf
ROOT
ATOM      1  C   UNL A   1      31.499  32.301  26.488  1.00  0.00     0.202 C 
ENDROOT
BRANCH   1   2
ATOM      2  C   UNL A   1      31.341  30.798  26.250  1.00  0.00     0.261 C 
BRANCH   2   3
ATOM      3  O   UNL A   1      32.023  30.043  27.260  1.00  0.00    -0.460 OA
BRANCH   3   4
ATOM      4  C   UNL A   1      33.218  29.536  26.886  1.00  0.00     0.338 C 
ATOM      5  O   UNL A   1      34.296  30.119  26.892  1.00  0.00    -0.246 OA
BRANCH   4   6
ATOM      6  C   UNL A   1      33.095  28.091  26.582  1.00  0.00     0.060 A 
ATOM      7  C   UNL A   1      32.867  25.457  25.710  1.00  0.00     0.041 A 
ATOM      8  C   UNL A   1      34.043  26.163  25.461  1.00  0.00     0.027 A 
ATOM      9  C   UNL A   1      31.896  25.995  26.553  1.00  0.00     0.027 A 
ATOM     10  C   UNL A   1      34.144  27.489  25.876  1.00  0.00     0.018 A 
ATOM     11  C   UNL A   1      31.996  27.321  26.978  1.00  0.00     0.018 A 
BRANCH   7  12
ATOM     12  N   UNL A   1      32.686  24.256  25.021  1.00  0.00    -0.325 N 
ATOM     13  C   UNL A   1      33.400  23.092  25.155  1.00  0.00     0.237 C 
ATOM     14  O   UNL A   1      32.927  22.090  24.596  1.00  0.00    -0.273 OA
ATOM     15  H   UNL A   1      31.958  24.242  24.357  1.00  0.00     0.169 HD
BRANCH  13  16
ATOM     16  C   UNL A   1      34.693  22.946  25.972  1.00  0.00     0.139 C 
ATOM     17  C   UNL A   1      34.506  22.232  27.307  1.00  0.00     0.030 C 
BRANCH  16  18
ATOM     18  S   UNL A   1      36.078  22.232  24.997  1.00  0.00    -0.093 SA
BRANCH  18  19
ATOM     19  C   UNL A   1      37.578  22.803  25.761  1.00  0.00     0.098 A 
ATOM     20  C   UNL A   1      40.648  21.054  26.733  1.00  0.00     0.145 A 
ATOM     21  C   UNL A   1      41.783  21.260  27.529  1.00  0.00     0.049 A 
ATOM     22  C   UNL A   1      39.670  22.058  26.562  1.00  0.00     0.114 A 
ATOM     23  C   UNL A   1      41.999  22.483  28.141  1.00  0.00     0.005 A 
ATOM     24  C   UNL A   1      39.901  23.307  27.188  1.00  0.00     0.007 A 
ATOM     25  N   UNL A   1      38.528  21.844  25.864  1.00  0.00    -0.238 NA
ATOM     26  C   UNL A   1      41.069  23.500  27.962  1.00  0.00     0.011 A 
ATOM     27  C   UNL A   1      38.930  24.323  27.031  1.00  0.00    -0.039 A 
ATOM     28  C   UNL A   1      39.068  25.679  27.671  1.00  0.00     0.045 C 
ATOM     29  C   UNL A   1      37.765  24.055  26.304  1.00  0.00     0.039 A 
BRANCH  20  30
ATOM     30  O   UNL A   1      40.606  19.771  26.225  1.00  0.00    -0.494 OA
ATOM     31  C   UNL A   1      41.857  19.107  26.088  1.00  0.00     0.278 C 
ENDBRANCH  20  30
ENDBRANCH  18  19
ENDBRANCH  16  18
ENDBRANCH  13  16
ENDBRANCH   7  12
ENDBRANCH   4   6
ENDBRANCH   3   4
ENDBRANCH   2   3
ENDBRANCH   1   2
BRANCH   1  32
ATOM     32  O   UNL A   1      32.665  32.716  27.200  1.00  0.00    -0.374 OA
BRANCH  32  33
ATOM     33  C   UNL A   1      32.542  33.859  28.049  1.00  0.00     0.202 C 
BRANCH  33  34
ATOM     34  C   UNL A   1      33.780  34.260  28.859  1.00  0.00     0.261 C 
BRANCH  34  35
ATOM     35  O   UNL A   1      33.509  35.345  29.762  1.00  0.00    -0.460 OA
BRANCH  35  36
ATOM     36  C   UNL A   1      33.462  35.005  31.070  1.00  0.00     0.338 C 
ATOM     37  O   UNL A   1      32.517  35.152  31.839  1.00  0.00    -0.246 OA
BRANCH  36  38
ATOM     38  C   UNL A   1      34.668  34.242  31.428  1.00  0.00     0.060 A 
ATOM     39  C   UNL A   1      34.502  33.032  32.119  1.00  0.00     0.016 A 
ATOM     40  C   UNL A   1      35.943  34.735  31.150  1.00  0.00     0.016 A 
ATOM     41  C   UNL A   1      35.615  32.331  32.578  1.00  0.00     0.010 A 
ATOM     42  C   UNL A   1      37.057  34.037  31.622  1.00  0.00     0.010 A 
ATOM     43  C   UNL A   1      36.897  32.854  32.367  1.00  0.00    -0.014 A 
BRANCH  43  44
ATOM     44  C   UNL A   1      38.073  32.270  33.051  1.00  0.00     0.031 A 
ATOM     45  C   UNL A   1      38.384  32.724  34.449  1.00  0.00     0.074 A 
ATOM     46  C   UNL A   1      38.880  31.402  32.417  1.00  0.00     0.049 A 
ATOM     47  N   UNL A   1      39.440  32.488  35.181  1.00  0.00    -0.248 NA
ATOM     48  C   UNL A   1      37.373  33.571  35.105  1.00  0.00     0.031 C 
ATOM     49  C   UNL A   1      38.663  30.875  31.072  1.00  0.00     0.029 A 
ATOM     50  N   UNL A   1      40.072  30.847  32.811  1.00  0.00    -0.354 N 
ATOM     51  C   UNL A   1      39.244  33.192  36.363  1.00  0.00     0.074 A 
ATOM     52  C   UNL A   1      37.967  33.863  36.253  1.00  0.00     0.031 C 
ATOM     53  C   UNL A   1      39.714  30.109  30.732  1.00  0.00     0.029 A 
ATOM     54  C   UNL A   1      40.690  30.123  31.819  1.00  0.00     0.049 A 
ATOM     55  H   UNL A   1      40.447  30.957  33.715  1.00  0.00     0.167 HD
ATOM     56  C   UNL A   1      40.055  33.269  37.444  1.00  0.00     0.034 A 
ATOM     57  C   UNL A   1      41.920  29.574  31.781  1.00  0.00     0.034 A 
ATOM     58  C   UNL A   1      41.312  32.582  37.552  1.00  0.00     0.049 A 
ATOM     59  C   UNL A   1      42.817  29.694  32.987  1.00  0.00     0.074 A 
ATOM     60  C   UNL A   1      42.191  32.560  38.620  1.00  0.00     0.029 A 
ATOM     61  N   UNL A   1      41.873  31.802  36.553  1.00  0.00    -0.354 N 
ATOM     62  N   UNL A   1      42.582  30.287  34.133  1.00  0.00    -0.248 NA
ATOM     63  C   UNL A   1      44.137  29.051  32.905  1.00  0.00     0.031 C 
ATOM     64  C   UNL A   1      43.296  31.786  38.257  1.00  0.00     0.029 A 
ATOM     65  C   UNL A   1      43.089  31.298  36.976  1.00  0.00     0.049 A 
ATOM     66  H   UNL A   1      41.465  31.632  35.673  1.00  0.00     0.167 HD
ATOM     67  C   UNL A   1      43.700  30.044  34.926  1.00  0.00     0.074 A 
ATOM     68  C   UNL A   1      44.612  29.250  34.129  1.00  0.00     0.031 C 
ATOM     69  C   UNL A   1      43.950  30.447  36.195  1.00  0.00     0.034 A 
BRANCH  56  70
ATOM     70  C   UNL A   1      39.601  34.114  38.603  1.00  0.00     0.023 A 
ATOM     71  C   UNL A   1      39.940  35.481  38.649  1.00  0.00     0.012 A 
ATOM     72  C   UNL A   1      38.792  33.568  39.619  1.00  0.00     0.148 A 
ATOM     73  C   UNL A   1      39.508  36.284  39.703  1.00  0.00     0.002 A 
ATOM     74  C   UNL A   1      38.328  34.385  40.643  1.00  0.00     0.091 A 
ATOM     75  F   UNL A   1      38.501  32.260  39.571  1.00  0.00    -0.205 F 
ATOM     76  C   UNL A   1      38.693  35.740  40.693  1.00  0.00     0.022 A 
BRANCH  74  77
ATOM     77  S   UNL A   1      37.212  33.793  41.920  1.00  0.00     0.127 S 
ATOM     78  O   UNL A   1      37.117  34.961  42.793  1.00  0.00    -0.237 OA
ATOM     79  O   UNL A   1      35.997  33.502  41.158  1.00  0.00    -0.237 OA
ATOM     80  O   UNL A   1      37.855  32.624  42.505  1.00  0.00    -0.744 OA
ENDBRANCH  74  77
ENDBRANCH  56  70
BRANCH  57  81
ATOM     81  C   UNL A   1      42.370  28.838  30.565  1.00  0.00     0.023 A 
ATOM     82  C   UNL A   1      42.021  27.482  30.409  1.00  0.00     0.012 A 
ATOM     83  C   UNL A   1      43.117  29.476  29.557  1.00  0.00     0.148 A 
ATOM     84  C   UNL A   1      42.433  26.769  29.283  1.00  0.00     0.002 A 
ATOM     85  C   UNL A   1      43.480  28.774  28.413  1.00  0.00     0.091 A 
ATOM     86  F   UNL A   1      43.452  30.762  29.732  1.00  0.00    -0.205 F 
ATOM     87  C   UNL A   1      43.152  27.415  28.281  1.00  0.00     0.022 A 
BRANCH  85  88
ATOM     88  S   UNL A   1      44.299  29.558  27.019  1.00  0.00     0.127 S 
ATOM     89  O   UNL A   1      44.509  28.426  26.121  1.00  0.00    -0.237 OA
ATOM     90  O   UNL A   1      43.289  30.519  26.576  1.00  0.00    -0.237 OA
ATOM     91  O   UNL A   1      45.507  30.165  27.565  1.00  0.00    -0.744 OA
ENDBRANCH  85  88
ENDBRANCH  57  81
BRANCH  69  92
ATOM     92  C   UNL A   1      45.225  29.987  36.850  1.00  0.00     0.023 A 
ATOM     93  C   UNL A   1      45.263  28.759  37.538  1.00  0.00     0.012 A 
ATOM     94  C   UNL A   1      46.417  30.720  36.668  1.00  0.00     0.148 A 
ATOM     95  C   UNL A   1      46.468  28.274  38.048  1.00  0.00     0.002 A 
ATOM     96  C   UNL A   1      47.619  30.207  37.136  1.00  0.00     0.091 A 
ATOM     97  F   UNL A   1      46.351  31.894  36.024  1.00  0.00    -0.205 F 
ATOM     98  C   UNL A   1      47.645  28.988  37.834  1.00  0.00     0.022 A 
BRANCH  96  99
ATOM     99  S   UNL A   1      49.198  31.003  36.818  1.00  0.00     0.127 S 
ATOM    100  O   UNL A   1      49.066  31.375  35.411  1.00  0.00    -0.237 OA
ATOM    101  O   UNL A   1      49.169  32.128  37.753  1.00  0.00    -0.237 OA
ATOM    102  O   UNL A   1      50.219  30.004  37.104  1.00  0.00    -0.744 OA
ENDBRANCH  96  99
ENDBRANCH  69  92
ENDBRANCH  43  44
ENDBRANCH  36  38
ENDBRANCH  35  36
ENDBRANCH  34  35
ENDBRANCH  33  34
ENDBRANCH  32  33
ENDBRANCH   1  32
TORSDOF 22
ENDMDL
