MODEL 1
REMARK VINA RESULT:     -11.8      0.000      0.000
REMARK SMILES COc1ccc(F)cc1[C@H](C)NC(=O)[C@H]1CC=CC[C@@H]1C(=O)OCCOCCOC(=O)c1ccc(-c2c3nc(c(-c4cccc(S(=O)(=O)[O-])c4F)c4ccc([nH]4)c(-c4cccc(S(=O)(=O)[O-])c4F)c4nc(c(-c5cccc(S(=O)(=O)[O-])c5F)c5ccc2[nH]5)C=C4)C=C3)cc1
REMARK SMILES IDX 25 1 24 2 23 3 21 4 22 5 20 6 15 7 16 8 17 9 19 10 18 11
REMARK SMILES IDX 13 12 12 13 14 15 10 16 11 17 9 18 3 19 4 20 5 21 8 22 6 23
REMARK SMILES IDX 7 24 2 25 1 26 26 27 27 28 28 29 29 30 30 31 31 32 32 33
REMARK SMILES IDX 33 34 94 35 34 36 93 37 35 38 36 39 37 40 87 41 38 42 92 43
REMARK SMILES IDX 86 44 88 45 39 46 91 47 85 48 84 49 40 51 72 52 52 53 71 54
REMARK SMILES IDX 53 55 56 56 70 57 89 58 54 59 55 60 69 62 90 63 57 64 41 65
REMARK SMILES IDX 42 66 50 67 43 68 45 69 51 70 44 71 46 72 47 73 48 74 49 75
REMARK SMILES IDX 73 76 74 77 82 78 75 79 77 80 83 81 76 82 78 83 79 84 80 85
REMARK SMILES IDX 81 86 58 87 59 88 67 89 60 90 62 91 68 92 61 93 63 94 64 95
REMARK SMILES IDX 65 96 66 97
REMARK H PARENT 12 14 88 50 56 61
REMARK Flexibility Score: inf
ROOT
ATOM      1  C   UNL A   1      35.590  24.014  24.806  1.00  0.00     0.202 C 
ENDROOT
BRANCH   1   2
ATOM      2  C   UNL A   1      34.872  24.079  23.453  1.00  0.00     0.261 C 
BRANCH   2   3
ATOM      3  O   UNL A   1      33.541  24.605  23.544  1.00  0.00    -0.463 OA
BRANCH   3   4
ATOM      4  C   UNL A   1      33.411  25.625  24.437  1.00  0.00     0.310 C 
ATOM      5  O   UNL A   1      33.747  26.782  24.211  1.00  0.00    -0.252 OA
BRANCH   4   6
ATOM      6  C   UNL A   1      32.673  25.177  25.699  1.00  0.00     0.115 C 
ATOM      7  C   UNL A   1      31.568  24.194  25.259  1.00  0.00     0.097 C 
ATOM      8  C   UNL A   1      30.399  24.909  24.558  1.00  0.00     0.041 C 
ATOM      9  C   UNL A   1      30.133  26.311  25.021  1.00  0.00    -0.030 C 
ATOM     10  C   UNL A   1      32.151  26.382  26.485  1.00  0.00     0.043 C 
ATOM     11  C   UNL A   1      30.905  26.967  25.896  1.00  0.00    -0.030 C 
BRANCH   7  12
ATOM     12  C   UNL A   1      31.039  23.311  26.380  1.00  0.00     0.224 C 
ATOM     13  N   UNL A   1      31.625  22.095  26.606  1.00  0.00    -0.349 N 
ATOM     14  H   UNL A   1      31.091  21.467  27.147  1.00  0.00     0.164 HD
ATOM     15  O   UNL A   1      30.075  23.625  27.077  1.00  0.00    -0.275 OA
BRANCH  13  16
ATOM     16  C   UNL A   1      32.925  21.586  26.165  1.00  0.00     0.113 C 
ATOM     17  C   UNL A   1      33.851  21.463  27.383  1.00  0.00     0.036 C 
BRANCH  16  18
ATOM     18  C   UNL A   1      32.796  20.270  25.416  1.00  0.00     0.019 A 
ATOM     19  C   UNL A   1      32.671  20.236  24.007  1.00  0.00     0.124 A 
ATOM     20  C   UNL A   1      32.609  19.009  23.331  1.00  0.00     0.050 A 
ATOM     21  C   UNL A   1      32.650  17.810  24.042  1.00  0.00     0.043 A 
ATOM     22  C   UNL A   1      32.817  19.047  26.114  1.00  0.00     0.049 A 
ATOM     23  C   UNL A   1      32.751  17.841  25.424  1.00  0.00     0.123 A 
ATOM     24  F   UNL A   1      32.803  16.689  26.105  1.00  0.00    -0.207 F 
BRANCH  19  25
ATOM     25  O   UNL A   1      32.679  21.440  23.353  1.00  0.00    -0.496 OA
ATOM     26  C   UNL A   1      31.791  21.555  22.241  1.00  0.00     0.278 C 
ENDBRANCH  19  25
ENDBRANCH  16  18
ENDBRANCH  13  16
ENDBRANCH   7  12
ENDBRANCH   4   6
ENDBRANCH   3   4
ENDBRANCH   2   3
ENDBRANCH   1   2
BRANCH   1  27
ATOM     27  O   UNL A   1      36.080  22.753  25.252  1.00  0.00    -0.374 OA
BRANCH  27  28
ATOM     28  C   UNL A   1      36.571  21.833  24.278  1.00  0.00     0.202 C 
BRANCH  28  29
ATOM     29  C   UNL A   1      37.642  20.823  24.708  1.00  0.00     0.261 C 
BRANCH  29  30
ATOM     30  O   UNL A   1      38.057  21.003  26.072  1.00  0.00    -0.460 OA
BRANCH  30  31
ATOM     31  C   UNL A   1      39.396  20.960  26.268  1.00  0.00     0.338 C 
ATOM     32  O   UNL A   1      40.171  20.097  25.874  1.00  0.00    -0.246 OA
BRANCH  31  33
ATOM     33  C   UNL A   1      39.861  22.222  26.866  1.00  0.00     0.060 A 
ATOM     34  C   UNL A   1      39.242  23.408  26.447  1.00  0.00     0.016 A 
ATOM     35  C   UNL A   1      40.937  22.256  27.754  1.00  0.00     0.016 A 
ATOM     36  C   UNL A   1      39.729  24.638  26.875  1.00  0.00     0.010 A 
ATOM     37  C   UNL A   1      41.435  23.493  28.171  1.00  0.00     0.010 A 
ATOM     38  C   UNL A   1      40.858  24.688  27.703  1.00  0.00    -0.014 A 
BRANCH  38  39
ATOM     39  C   UNL A   1      41.523  25.986  27.954  1.00  0.00     0.031 A 
ATOM     40  C   UNL A   1      40.761  27.064  28.674  1.00  0.00     0.074 A 
ATOM     41  C   UNL A   1      42.790  26.197  27.557  1.00  0.00     0.049 A 
ATOM     42  N   UNL A   1      41.132  28.282  28.970  1.00  0.00    -0.248 NA
ATOM     43  C   UNL A   1      39.400  26.725  29.124  1.00  0.00     0.031 C 
ATOM     44  C   UNL A   1      43.631  25.217  26.872  1.00  0.00     0.029 A 
ATOM     45  N   UNL A   1      43.583  27.313  27.659  1.00  0.00    -0.354 N 
ATOM     46  C   UNL A   1      40.048  28.861  29.616  1.00  0.00     0.074 A 
ATOM     47  C   UNL A   1      38.999  27.868  29.661  1.00  0.00     0.031 C 
ATOM     48  C   UNL A   1      44.818  25.783  26.596  1.00  0.00     0.029 A 
ATOM     49  C   UNL A   1      44.810  27.170  27.059  1.00  0.00     0.049 A 
ATOM     50  H   UNL A   1      43.298  28.136  28.119  1.00  0.00     0.167 HD
ATOM     51  C   UNL A   1      39.944  30.104  30.143  1.00  0.00     0.034 A 
ATOM     52  C   UNL A   1      45.807  28.062  26.889  1.00  0.00     0.034 A 
ATOM     53  C   UNL A   1      40.998  31.081  30.114  1.00  0.00     0.049 A 
ATOM     54  C   UNL A   1      45.651  29.452  27.451  1.00  0.00     0.074 A 
ATOM     55  C   UNL A   1      40.999  32.357  30.646  1.00  0.00     0.029 A 
ATOM     56  N   UNL A   1      42.236  30.893  29.518  1.00  0.00    -0.354 N 
ATOM     57  N   UNL A   1      44.656  29.957  28.139  1.00  0.00    -0.248 NA
ATOM     58  C   UNL A   1      46.766  30.386  27.238  1.00  0.00     0.031 C 
ATOM     59  C   UNL A   1      42.230  32.950  30.352  1.00  0.00     0.029 A 
ATOM     60  C   UNL A   1      43.006  32.034  29.661  1.00  0.00     0.049 A 
ATOM     61  H   UNL A   1      42.523  30.070  29.060  1.00  0.00     0.167 HD
ATOM     62  C   UNL A   1      45.037  31.253  28.469  1.00  0.00     0.074 A 
ATOM     63  C   UNL A   1      46.362  31.452  27.919  1.00  0.00     0.031 C 
ATOM     64  C   UNL A   1      44.345  32.198  29.154  1.00  0.00     0.034 A 
BRANCH  51  65
ATOM     65  C   UNL A   1      38.658  30.472  30.833  1.00  0.00     0.023 A 
ATOM     66  C   UNL A   1      38.495  30.172  32.200  1.00  0.00     0.012 A 
ATOM     67  C   UNL A   1      37.649  31.182  30.155  1.00  0.00     0.148 A 
ATOM     68  C   UNL A   1      37.340  30.557  32.878  1.00  0.00     0.002 A 
ATOM     69  C   UNL A   1      36.518  31.600  30.847  1.00  0.00     0.091 A 
ATOM     70  F   UNL A   1      37.813  31.436  28.849  1.00  0.00    -0.205 F 
ATOM     71  C   UNL A   1      36.359  31.281  32.205  1.00  0.00     0.022 A 
BRANCH  69  72
ATOM     72  S   UNL A   1      35.235  32.605  30.093  1.00  0.00     0.127 S 
ATOM     73  O   UNL A   1      34.732  31.709  29.053  1.00  0.00    -0.237 OA
ATOM     74  O   UNL A   1      34.315  32.819  31.210  1.00  0.00    -0.237 OA
ATOM     75  O   UNL A   1      35.897  33.809  29.611  1.00  0.00    -0.744 OA
ENDBRANCH  69  72
ENDBRANCH  51  65
BRANCH  52  76
ATOM     76  C   UNL A   1      47.058  27.644  26.198  1.00  0.00     0.023 A 
ATOM     77  C   UNL A   1      48.031  26.918  26.910  1.00  0.00     0.012 A 
ATOM     78  C   UNL A   1      47.264  27.911  24.830  1.00  0.00     0.148 A 
ATOM     79  C   UNL A   1      49.195  26.477  26.278  1.00  0.00     0.002 A 
ATOM     80  C   UNL A   1      48.398  27.421  24.192  1.00  0.00     0.091 A 
ATOM     81  F   UNL A   1      46.333  28.618  24.174  1.00  0.00    -0.205 F 
ATOM     82  C   UNL A   1      49.371  26.716  24.917  1.00  0.00     0.022 A 
BRANCH  80  83
ATOM     83  S   UNL A   1      48.646  27.559  22.418  1.00  0.00     0.127 S 
ATOM     84  O   UNL A   1      49.923  28.264  22.349  1.00  0.00    -0.237 OA
ATOM     85  O   UNL A   1      48.695  26.154  22.012  1.00  0.00    -0.237 OA
ATOM     86  O   UNL A   1      47.492  28.291  21.914  1.00  0.00    -0.744 OA
ENDBRANCH  80  83
ENDBRANCH  52  76
BRANCH  64  87
ATOM     87  C   UNL A   1      45.002  33.536  29.380  1.00  0.00     0.023 A 
ATOM     88  C   UNL A   1      45.835  33.722  30.501  1.00  0.00     0.012 A 
ATOM     89  C   UNL A   1      44.894  34.562  28.419  1.00  0.00     0.148 A 
ATOM     90  C   UNL A   1      46.535  34.916  30.671  1.00  0.00     0.002 A 
ATOM     91  C   UNL A   1      45.632  35.729  28.571  1.00  0.00     0.091 A 
ATOM     92  F   UNL A   1      44.084  34.370  27.367  1.00  0.00    -0.205 F 
ATOM     93  C   UNL A   1      46.445  35.912  29.702  1.00  0.00     0.022 A 
BRANCH  91  94
ATOM     94  S   UNL A   1      45.660  37.021  27.323  1.00  0.00     0.127 S 
ATOM     95  O   UNL A   1      46.582  37.989  27.917  1.00  0.00    -0.237 OA
ATOM     96  O   UNL A   1      46.189  36.314  26.156  1.00  0.00    -0.237 OA
ATOM     97  O   UNL A   1      44.284  37.476  27.183  1.00  0.00    -0.744 OA
ENDBRANCH  91  94
ENDBRANCH  64  87
ENDBRANCH  38  39
ENDBRANCH  31  33
ENDBRANCH  30  31
ENDBRANCH  29  30
ENDBRANCH  28  29
ENDBRANCH  27  28
ENDBRANCH   1  27
TORSDOF 21
ENDMDL
MODEL 2
REMARK VINA RESULT:     -11.4      5.080      8.001
REMARK SMILES COc1ccc(F)cc1[C@H](C)NC(=O)[C@H]1CC=CC[C@@H]1C(=O)OCCOCCOC(=O)c1ccc(-c2c3nc(c(-c4cccc(S(=O)(=O)[O-])c4F)c4ccc([nH]4)c(-c4cccc(S(=O)(=O)[O-])c4F)c4nc(c(-c5cccc(S(=O)(=O)[O-])c5F)c5ccc2[nH]5)C=C4)C=C3)cc1
REMARK SMILES IDX 25 1 24 2 23 3 21 4 22 5 20 6 15 7 16 8 17 9 19 10 18 11
REMARK SMILES IDX 13 12 12 13 14 15 10 16 11 17 9 18 3 19 4 20 5 21 8 22 6 23
REMARK SMILES IDX 7 24 2 25 1 26 26 27 27 28 28 29 29 30 30 31 31 32 32 33
REMARK SMILES IDX 33 34 94 35 34 36 93 37 35 38 36 39 37 40 87 41 38 42 92 43
REMARK SMILES IDX 86 44 88 45 39 46 91 47 85 48 84 49 40 51 72 52 52 53 71 54
REMARK SMILES IDX 53 55 56 56 70 57 89 58 54 59 55 60 69 62 90 63 57 64 41 65
REMARK SMILES IDX 42 66 50 67 43 68 45 69 51 70 44 71 46 72 47 73 48 74 49 75
REMARK SMILES IDX 73 76 74 77 82 78 75 79 77 80 83 81 76 82 78 83 79 84 80 85
REMARK SMILES IDX 81 86 58 87 59 88 67 89 60 90 62 91 68 92 61 93 63 94 64 95
REMARK SMILES IDX 65 96 66 97
REMARK H PARENT 12 14 88 50 56 61
REMARK Flexibility Score: inf
ROOT
ATOM      1  C   UNL A   1      33.297  30.025  26.435  1.00  0.00     0.202 C 
ENDROOT
BRANCH   1   2
ATOM      2  C   UNL A   1      33.293  28.582  26.953  1.00  0.00     0.261 C 
BRANCH   2   3
ATOM      3  O   UNL A   1      33.198  27.607  25.906  1.00  0.00    -0.463 OA
BRANCH   3   4
ATOM      4  C   UNL A   1      31.923  27.210  25.636  1.00  0.00     0.310 C 
ATOM      5  O   UNL A   1      30.974  27.396  26.389  1.00  0.00    -0.252 OA
BRANCH   4   6
ATOM      6  C   UNL A   1      31.801  26.629  24.228  1.00  0.00     0.115 C 
ATOM      7  C   UNL A   1      33.228  26.518  23.652  1.00  0.00     0.097 C 
ATOM      8  C   UNL A   1      33.812  27.892  23.277  1.00  0.00     0.041 C 
ATOM      9  C   UNL A   1      32.811  28.917  22.833  1.00  0.00    -0.030 C 
ATOM     10  C   UNL A   1      30.852  27.469  23.369  1.00  0.00     0.043 C 
ATOM     11  C   UNL A   1      31.486  28.724  22.857  1.00  0.00    -0.030 C 
BRANCH   7  12
ATOM     12  C   UNL A   1      33.350  25.563  22.473  1.00  0.00     0.224 C 
ATOM     13  N   UNL A   1      33.122  24.227  22.669  1.00  0.00    -0.349 N 
ATOM     14  H   UNL A   1      33.466  23.636  21.960  1.00  0.00     0.164 HD
ATOM     15  O   UNL A   1      33.685  25.931  21.349  1.00  0.00    -0.275 OA
BRANCH  13  16
ATOM     16  C   UNL A   1      32.443  23.545  23.773  1.00  0.00     0.113 C 
ATOM     17  C   UNL A   1      30.952  23.413  23.435  1.00  0.00     0.036 C 
BRANCH  16  18
ATOM     18  C   UNL A   1      33.076  22.199  24.085  1.00  0.00     0.019 A 
ATOM     19  C   UNL A   1      34.391  22.107  24.597  1.00  0.00     0.124 A 
ATOM     20  C   UNL A   1      34.936  20.859  24.930  1.00  0.00     0.050 A 
ATOM     21  C   UNL A   1      34.194  19.694  24.741  1.00  0.00     0.043 A 
ATOM     22  C   UNL A   1      32.353  21.008  23.886  1.00  0.00     0.049 A 
ATOM     23  C   UNL A   1      32.913  19.779  24.219  1.00  0.00     0.123 A 
ATOM     24  F   UNL A   1      32.196  18.661  24.050  1.00  0.00    -0.207 F 
BRANCH  19  25
ATOM     25  O   UNL A   1      35.062  23.285  24.804  1.00  0.00    -0.496 OA
ATOM     26  C   UNL A   1      36.249  23.199  25.591  1.00  0.00     0.278 C 
ENDBRANCH  19  25
ENDBRANCH  16  18
ENDBRANCH  13  16
ENDBRANCH   7  12
ENDBRANCH   4   6
ENDBRANCH   3   4
ENDBRANCH   2   3
ENDBRANCH   1   2
BRANCH   1  27
ATOM     27  O   UNL A   1      32.101  30.540  25.857  1.00  0.00    -0.374 OA
BRANCH  27  28
ATOM     28  C   UNL A   1      31.359  31.514  26.589  1.00  0.00     0.202 C 
BRANCH  28  29
ATOM     29  C   UNL A   1      31.919  32.940  26.677  1.00  0.00     0.261 C 
BRANCH  29  30
ATOM     30  O   UNL A   1      32.300  33.302  28.015  1.00  0.00    -0.460 OA
BRANCH  30  31
ATOM     31  C   UNL A   1      33.414  34.066  28.099  1.00  0.00     0.338 C 
ATOM     32  O   UNL A   1      33.472  35.290  28.089  1.00  0.00    -0.246 OA
BRANCH  31  33
ATOM     33  C   UNL A   1      34.582  33.226  28.414  1.00  0.00     0.060 A 
ATOM     34  C   UNL A   1      34.356  32.043  29.130  1.00  0.00     0.016 A 
ATOM     35  C   UNL A   1      35.879  33.628  28.092  1.00  0.00     0.016 A 
ATOM     36  C   UNL A   1      35.432  31.279  29.572  1.00  0.00     0.010 A 
ATOM     37  C   UNL A   1      36.959  32.868  28.549  1.00  0.00     0.010 A 
ATOM     38  C   UNL A   1      36.740  31.714  29.324  1.00  0.00    -0.014 A 
BRANCH  38  39
ATOM     39  C   UNL A   1      37.874  31.045  30.000  1.00  0.00     0.031 A 
ATOM     40  C   UNL A   1      38.217  31.444  31.408  1.00  0.00     0.074 A 
ATOM     41  C   UNL A   1      38.578  30.087  29.373  1.00  0.00     0.049 A 
ATOM     42  N   UNL A   1      39.184  31.016  32.177  1.00  0.00    -0.248 NA
ATOM     43  C   UNL A   1      37.354  32.460  32.037  1.00  0.00     0.031 C 
ATOM     44  C   UNL A   1      38.321  29.604  28.018  1.00  0.00     0.029 A 
ATOM     45  N   UNL A   1      39.667  29.362  29.791  1.00  0.00    -0.354 N 
ATOM     46  C   UNL A   1      39.063  31.723  33.366  1.00  0.00     0.074 A 
ATOM     47  C   UNL A   1      37.937  32.617  33.217  1.00  0.00     0.031 C 
ATOM     48  C   UNL A   1      39.242  28.675  27.707  1.00  0.00     0.029 A 
ATOM     49  C   UNL A   1      40.166  28.519  28.829  1.00  0.00     0.049 A 
ATOM     50  H   UNL A   1      40.052  29.440  30.694  1.00  0.00     0.167 HD
ATOM     51  C   UNL A   1      39.811  31.622  34.489  1.00  0.00     0.034 A 
ATOM     52  C   UNL A   1      41.256  27.724  28.846  1.00  0.00     0.034 A 
ATOM     53  C   UNL A   1      40.917  30.716  34.640  1.00  0.00     0.049 A 
ATOM     54  C   UNL A   1      42.096  27.658  30.095  1.00  0.00     0.074 A 
ATOM     55  C   UNL A   1      41.720  30.519  35.748  1.00  0.00     0.029 A 
ATOM     56  N   UNL A   1      41.381  29.860  33.651  1.00  0.00    -0.354 N 
ATOM     57  N   UNL A   1      41.917  28.264  31.244  1.00  0.00    -0.248 NA
ATOM     58  C   UNL A   1      43.273  26.777  30.061  1.00  0.00     0.031 C 
ATOM     59  C   UNL A   1      42.683  29.560  35.423  1.00  0.00     0.029 A 
ATOM     60  C   UNL A   1      42.463  29.139  34.122  1.00  0.00     0.049 A 
ATOM     61  H   UNL A   1      40.996  29.779  32.749  1.00  0.00     0.167 HD
ATOM     62  C   UNL A   1      42.934  27.815  32.078  1.00  0.00     0.074 A 
ATOM     63  C   UNL A   1      43.720  26.872  31.308  1.00  0.00     0.031 C 
ATOM     64  C   UNL A   1      43.203  28.164  33.361  1.00  0.00     0.034 A 
BRANCH  51  65
ATOM     65  C   UNL A   1      39.440  32.485  35.664  1.00  0.00     0.023 A 
ATOM     66  C   UNL A   1      38.717  31.923  36.735  1.00  0.00     0.012 A 
ATOM     67  C   UNL A   1      39.872  33.823  35.748  1.00  0.00     0.148 A 
ATOM     68  C   UNL A   1      38.414  32.683  37.864  1.00  0.00     0.002 A 
ATOM     69  C   UNL A   1      39.603  34.562  36.893  1.00  0.00     0.091 A 
ATOM     70  F   UNL A   1      40.538  34.345  34.708  1.00  0.00    -0.205 F 
ATOM     71  C   UNL A   1      38.868  33.997  37.947  1.00  0.00     0.022 A 
BRANCH  69  72
ATOM     72  S   UNL A   1      40.212  36.235  37.133  1.00  0.00     0.127 S 
ATOM     73  O   UNL A   1      39.337  36.717  38.201  1.00  0.00    -0.237 OA
ATOM     74  O   UNL A   1      41.598  36.003  37.539  1.00  0.00    -0.237 OA
ATOM     75  O   UNL A   1      40.058  36.908  35.851  1.00  0.00    -0.744 OA
ENDBRANCH  69  72
ENDBRANCH  51  65
BRANCH  52  76
ATOM     76  C   UNL A   1      41.578  26.891  27.653  1.00  0.00     0.023 A 
ATOM     77  C   UNL A   1      42.250  27.475  26.563  1.00  0.00     0.012 A 
ATOM     78  C   UNL A   1      41.274  25.516  27.617  1.00  0.00     0.148 A 
ATOM     79  C   UNL A   1      42.602  26.710  25.451  1.00  0.00     0.002 A 
ATOM     80  C   UNL A   1      41.676  24.747  26.531  1.00  0.00     0.091 A 
ATOM     81  F   UNL A   1      40.619  24.982  28.657  1.00  0.00    -0.205 F 
ATOM     82  C   UNL A   1      42.327  25.344  25.441  1.00  0.00     0.022 A 
BRANCH  80  83
ATOM     83  S   UNL A   1      41.490  22.961  26.489  1.00  0.00     0.127 S 
ATOM     84  O   UNL A   1      42.277  22.606  25.310  1.00  0.00    -0.237 OA
ATOM     85  O   UNL A   1      42.083  22.567  27.767  1.00  0.00    -0.237 OA
ATOM     86  O   UNL A   1      40.058  22.715  26.389  1.00  0.00    -0.744 OA
ENDBRANCH  80  83
ENDBRANCH  52  76
BRANCH  64  87
ATOM     87  C   UNL A   1      44.379  27.513  34.043  1.00  0.00     0.023 A 
ATOM     88  C   UNL A   1      45.656  28.100  33.939  1.00  0.00     0.012 A 
ATOM     89  C   UNL A   1      44.196  26.397  34.884  1.00  0.00     0.148 A 
ATOM     90  C   UNL A   1      46.736  27.574  34.647  1.00  0.00     0.002 A 
ATOM     91  C   UNL A   1      45.267  25.908  35.624  1.00  0.00     0.091 A 
ATOM     92  F   UNL A   1      42.976  25.845  34.957  1.00  0.00    -0.205 F 
ATOM     93  C   UNL A   1      46.539  26.489  35.498  1.00  0.00     0.022 A 
BRANCH  91  94
ATOM     94  S   UNL A   1      45.084  24.584  36.824  1.00  0.00     0.127 S 
ATOM     95  O   UNL A   1      44.927  23.417  35.957  1.00  0.00    -0.237 OA
ATOM     96  O   UNL A   1      46.357  24.640  37.545  1.00  0.00    -0.237 OA
ATOM     97  O   UNL A   1      43.918  24.926  37.627  1.00  0.00    -0.744 OA
ENDBRANCH  91  94
ENDBRANCH  64  87
ENDBRANCH  38  39
ENDBRANCH  31  33
ENDBRANCH  30  31
ENDBRANCH  29  30
ENDBRANCH  28  29
ENDBRANCH  27  28
ENDBRANCH   1  27
TORSDOF 21
ENDMDL
MODEL 3
REMARK VINA RESULT:     -11.4      2.479      8.421
REMARK SMILES COc1ccc(F)cc1[C@H](C)NC(=O)[C@H]1CC=CC[C@@H]1C(=O)OCCOCCOC(=O)c1ccc(-c2c3nc(c(-c4cccc(S(=O)(=O)[O-])c4F)c4ccc([nH]4)c(-c4cccc(S(=O)(=O)[O-])c4F)c4nc(c(-c5cccc(S(=O)(=O)[O-])c5F)c5ccc2[nH]5)C=C4)C=C3)cc1
REMARK SMILES IDX 25 1 24 2 23 3 21 4 22 5 20 6 15 7 16 8 17 9 19 10 18 11
REMARK SMILES IDX 13 12 12 13 14 15 10 16 11 17 9 18 3 19 4 20 5 21 8 22 6 23
REMARK SMILES IDX 7 24 2 25 1 26 26 27 27 28 28 29 29 30 30 31 31 32 32 33
REMARK SMILES IDX 33 34 94 35 34 36 93 37 35 38 36 39 37 40 87 41 38 42 92 43
REMARK SMILES IDX 86 44 88 45 39 46 91 47 85 48 84 49 40 51 72 52 52 53 71 54
REMARK SMILES IDX 53 55 56 56 70 57 89 58 54 59 55 60 69 62 90 63 57 64 41 65
REMARK SMILES IDX 42 66 50 67 43 68 45 69 51 70 44 71 46 72 47 73 48 74 49 75
REMARK SMILES IDX 73 76 74 77 82 78 75 79 77 80 83 81 76 82 78 83 79 84 80 85
REMARK SMILES IDX 81 86 58 87 59 88 67 89 60 90 62 91 68 92 61 93 63 94 64 95
REMARK SMILES IDX 65 96 66 97
REMARK H PARENT 12 14 88 50 56 61
REMARK Flexibility Score: inf
ROOT
ATOM      1  C   UNL A   1      37.370  22.480  25.706  1.00  0.00     0.202 C 
ENDROOT
BRANCH   1   2
ATOM      2  C   UNL A   1      36.670  23.122  24.503  1.00  0.00     0.261 C 
BRANCH   2   3
ATOM      3  O   UNL A   1      35.244  22.979  24.537  1.00  0.00    -0.463 OA
BRANCH   3   4
ATOM      4  C   UNL A   1      34.569  24.153  24.389  1.00  0.00     0.310 C 
ATOM      5  O   UNL A   1      34.464  24.999  25.271  1.00  0.00    -0.252 OA
BRANCH   4   6
ATOM      6  C   UNL A   1      34.075  24.342  22.955  1.00  0.00     0.115 C 
ATOM      7  C   UNL A   1      32.879  25.316  23.007  1.00  0.00     0.097 C 
ATOM      8  C   UNL A   1      31.618  24.657  23.593  1.00  0.00     0.041 C 
ATOM      9  C   UNL A   1      31.484  23.185  23.338  1.00  0.00    -0.030 C 
ATOM     10  C   UNL A   1      33.747  22.996  22.306  1.00  0.00     0.043 C 
ATOM     11  C   UNL A   1      32.429  22.442  22.747  1.00  0.00    -0.030 C 
BRANCH   7  12
ATOM     12  C   UNL A   1      32.552  25.969  21.672  1.00  0.00     0.224 C 
ATOM     13  N   UNL A   1      31.827  27.130  21.655  1.00  0.00    -0.349 N 
ATOM     14  H   UNL A   1      31.423  27.359  20.786  1.00  0.00     0.164 HD
ATOM     15  O   UNL A   1      32.878  25.479  20.593  1.00  0.00    -0.275 OA
BRANCH  13  16
ATOM     16  C   UNL A   1      31.560  28.082  22.736  1.00  0.00     0.113 C 
ATOM     17  C   UNL A   1      32.722  29.080  22.818  1.00  0.00     0.036 C 
BRANCH  16  18
ATOM     18  C   UNL A   1      30.223  28.783  22.559  1.00  0.00     0.019 A 
ATOM     19  C   UNL A   1      29.018  28.187  23.000  1.00  0.00     0.124 A 
ATOM     20  C   UNL A   1      27.802  28.875  22.877  1.00  0.00     0.050 A 
ATOM     21  C   UNL A   1      27.765  30.143  22.301  1.00  0.00     0.043 A 
ATOM     22  C   UNL A   1      30.158  30.056  21.963  1.00  0.00     0.049 A 
ATOM     23  C   UNL A   1      28.941  30.720  21.848  1.00  0.00     0.123 A 
ATOM     24  F   UNL A   1      28.907  31.944  21.305  1.00  0.00    -0.207 F 
BRANCH  19  25
ATOM     25  O   UNL A   1      29.114  26.958  23.599  1.00  0.00    -0.496 OA
ATOM     26  C   UNL A   1      27.888  26.383  24.049  1.00  0.00     0.278 C 
ENDBRANCH  19  25
ENDBRANCH  16  18
ENDBRANCH  13  16
ENDBRANCH   7  12
ENDBRANCH   4   6
ENDBRANCH   3   4
ENDBRANCH   2   3
ENDBRANCH   1   2
BRANCH   1  27
ATOM     27  O   UNL A   1      38.516  21.667  25.468  1.00  0.00    -0.374 OA
BRANCH  27  28
ATOM     28  C   UNL A   1      38.318  20.285  25.177  1.00  0.00     0.202 C 
BRANCH  28  29
ATOM     29  C   UNL A   1      39.298  19.268  25.775  1.00  0.00     0.261 C 
BRANCH  29  30
ATOM     30  O   UNL A   1      40.665  19.553  25.437  1.00  0.00    -0.460 OA
BRANCH  30  31
ATOM     31  C   UNL A   1      41.477  19.773  26.497  1.00  0.00     0.338 C 
ATOM     32  O   UNL A   1      42.237  18.969  27.024  1.00  0.00    -0.246 OA
BRANCH  31  33
ATOM     33  C   UNL A   1      41.488  21.205  26.838  1.00  0.00     0.060 A 
ATOM     34  C   UNL A   1      41.511  22.125  25.780  1.00  0.00     0.016 A 
ATOM     35  C   UNL A   1      41.560  21.640  28.162  1.00  0.00     0.016 A 
ATOM     36  C   UNL A   1      41.658  23.484  26.041  1.00  0.00     0.010 A 
ATOM     37  C   UNL A   1      41.721  23.003  28.422  1.00  0.00     0.010 A 
ATOM     38  C   UNL A   1      41.811  23.925  27.362  1.00  0.00    -0.014 A 
BRANCH  38  39
ATOM     39  C   UNL A   1      42.213  25.325  27.622  1.00  0.00     0.031 A 
ATOM     40  C   UNL A   1      43.587  25.774  27.210  1.00  0.00     0.074 A 
ATOM     41  C   UNL A   1      41.361  26.186  28.207  1.00  0.00     0.049 A 
ATOM     42  N   UNL A   1      44.159  26.938  27.370  1.00  0.00    -0.248 NA
ATOM     43  C   UNL A   1      44.430  24.779  26.524  1.00  0.00     0.031 C 
ATOM     44  C   UNL A   1      39.998  25.867  28.627  1.00  0.00     0.029 A 
ATOM     45  N   UNL A   1      41.528  27.501  28.562  1.00  0.00    -0.354 N 
ATOM     46  C   UNL A   1      45.431  26.812  26.829  1.00  0.00     0.074 A 
ATOM     47  C   UNL A   1      45.556  25.456  26.345  1.00  0.00     0.031 C 
ATOM     48  C   UNL A   1      39.457  26.954  29.204  1.00  0.00     0.029 A 
ATOM     49  C   UNL A   1      40.444  28.033  29.218  1.00  0.00     0.049 A 
ATOM     50  H   UNL A   1      42.345  28.013  28.367  1.00  0.00     0.167 HD
ATOM     51  C   UNL A   1      46.402  27.749  26.726  1.00  0.00     0.034 A 
ATOM     52  C   UNL A   1      40.274  29.247  29.781  1.00  0.00     0.034 A 
ATOM     53  C   UNL A   1      46.266  29.104  27.189  1.00  0.00     0.049 A 
ATOM     54  C   UNL A   1      41.385  30.261  29.687  1.00  0.00     0.074 A 
ATOM     55  C   UNL A   1      47.182  30.135  27.105  1.00  0.00     0.029 A 
ATOM     56  N   UNL A   1      45.145  29.613  27.828  1.00  0.00    -0.354 N 
ATOM     57  N   UNL A   1      42.550  30.157  29.092  1.00  0.00    -0.248 NA
ATOM     58  C   UNL A   1      41.150  31.569  30.316  1.00  0.00     0.031 C 
ATOM     59  C   UNL A   1      46.625  31.264  27.712  1.00  0.00     0.029 A 
ATOM     60  C   UNL A   1      45.351  30.943  28.151  1.00  0.00     0.049 A 
ATOM     61  H   UNL A   1      44.326  29.103  28.023  1.00  0.00     0.167 HD
ATOM     62  C   UNL A   1      43.170  31.391  29.246  1.00  0.00     0.074 A 
ATOM     63  C   UNL A   1      42.247  32.235  29.977  1.00  0.00     0.031 C 
ATOM     64  C   UNL A   1      44.401  31.786  28.832  1.00  0.00     0.034 A 
BRANCH  51  65
ATOM     65  C   UNL A   1      47.690  27.359  26.052  1.00  0.00     0.023 A 
ATOM     66  C   UNL A   1      48.683  26.687  26.793  1.00  0.00     0.012 A 
ATOM     67  C   UNL A   1      47.886  27.582  24.676  1.00  0.00     0.148 A 
ATOM     68  C   UNL A   1      49.859  26.260  26.179  1.00  0.00     0.002 A 
ATOM     69  C   UNL A   1      49.042  27.116  24.061  1.00  0.00     0.091 A 
ATOM     70  F   UNL A   1      46.939  28.245  23.995  1.00  0.00    -0.205 F 
ATOM     71  C   UNL A   1      50.032  26.463  24.812  1.00  0.00     0.022 A 
BRANCH  69  72
ATOM     72  S   UNL A   1      49.324  27.257  22.292  1.00  0.00     0.127 S 
ATOM     73  O   UNL A   1      50.782  27.178  22.220  1.00  0.00    -0.237 OA
ATOM     74  O   UNL A   1      48.624  26.080  21.775  1.00  0.00    -0.237 OA
ATOM     75  O   UNL A   1      48.748  28.532  21.892  1.00  0.00    -0.744 OA
ENDBRANCH  69  72
ENDBRANCH  51  65
BRANCH  52  76
ATOM     76  C   UNL A   1      38.978  29.580  30.435  1.00  0.00     0.023 A 
ATOM     77  C   UNL A   1      38.729  29.127  31.745  1.00  0.00     0.012 A 
ATOM     78  C   UNL A   1      38.019  30.388  29.793  1.00  0.00     0.148 A 
ATOM     79  C   UNL A   1      37.542  29.458  32.399  1.00  0.00     0.002 A 
ATOM     80  C   UNL A   1      36.864  30.761  30.470  1.00  0.00     0.091 A 
ATOM     81  F   UNL A   1      38.268  30.795  28.541  1.00  0.00    -0.205 F 
ATOM     82  C   UNL A   1      36.617  30.286  31.767  1.00  0.00     0.022 A 
BRANCH  80  83
ATOM     83  S   UNL A   1      35.682  31.932  29.793  1.00  0.00     0.127 S 
ATOM     84  O   UNL A   1      36.556  33.008  29.334  1.00  0.00    -0.237 OA
ATOM     85  O   UNL A   1      35.058  31.147  28.728  1.00  0.00    -0.237 OA
ATOM     86  O   UNL A   1      34.788  32.271  30.892  1.00  0.00    -0.744 OA
ENDBRANCH  80  83
ENDBRANCH  52  76
BRANCH  64  87
ATOM     87  C   UNL A   1      44.831  33.200  29.128  1.00  0.00     0.023 A 
ATOM     88  C   UNL A   1      45.492  33.487  30.339  1.00  0.00     0.012 A 
ATOM     89  C   UNL A   1      44.691  34.213  28.158  1.00  0.00     0.148 A 
ATOM     90  C   UNL A   1      45.990  34.766  30.586  1.00  0.00     0.002 A 
ATOM     91  C   UNL A   1      45.233  35.471  28.392  1.00  0.00     0.091 A 
ATOM     92  F   UNL A   1      44.046  33.922  27.019  1.00  0.00    -0.205 F 
ATOM     93  C   UNL A   1      45.874  35.751  29.610  1.00  0.00     0.022 A 
BRANCH  91  94
ATOM     94  S   UNL A   1      45.224  36.770  27.151  1.00  0.00     0.127 S 
ATOM     95  O   UNL A   1      45.880  36.110  26.023  1.00  0.00    -0.237 OA
ATOM     96  O   UNL A   1      43.793  37.013  26.965  1.00  0.00    -0.237 OA
ATOM     97  O   UNL A   1      45.957  37.887  27.732  1.00  0.00    -0.744 OA
ENDBRANCH  91  94
ENDBRANCH  64  87
ENDBRANCH  38  39
ENDBRANCH  31  33
ENDBRANCH  30  31
ENDBRANCH  29  30
ENDBRANCH  28  29
ENDBRANCH  27  28
ENDBRANCH   1  27
TORSDOF 21
ENDMDL
