MODEL 1
REMARK VINA RESULT:     -12.4      0.000      0.000
REMARK SMILES C[C@H]1CC[C@H]([NH2+]Cc2c(C(=O)OCCOCCOC(=O)c3ccc(-c4c5nc(c(-c6cccc(S(=O)(=O)[O-])c6F)c6ccc([nH]6)c(-c6cccc(S(=O)(=O)[O-])c6F)c6nc(c(-c7cccc(S(=O)(=O)[O-])c7F)c7ccc4[nH]7)C=C6)C=C5)cc3)n(Cc3ccccc3F)c3ccccc23)CC1
REMARK SMILES IDX 15 1 14 2 13 3 12 4 10 5 11 6 9 7 8 8 98 9 84 10 93 11 97 12
REMARK SMILES IDX 94 13 96 14 95 15 7 16 6 17 5 20 1 21 2 22 3 23 100 24 4 25
REMARK SMILES IDX 99 26 85 27 86 28 87 29 91 30 88 31 90 32 92 33 89 34 16 35
REMARK SMILES IDX 17 36 18 37 19 38 20 39 21 40 22 41 83 42 23 43 82 44 24 45
REMARK SMILES IDX 25 46 26 47 76 48 27 49 81 50 75 51 77 52 28 53 80 54 74 55
REMARK SMILES IDX 73 56 29 58 61 59 41 60 60 61 42 62 45 63 59 64 78 65 43 66
REMARK SMILES IDX 44 67 58 69 79 70 46 71 30 72 31 73 39 74 32 75 34 76 40 77
REMARK SMILES IDX 33 78 35 79 36 80 37 81 38 82 62 83 63 84 71 85 64 86 66 87
REMARK SMILES IDX 72 88 65 89 67 90 68 91 69 92 70 93 47 94 48 95 56 96 49 97
REMARK SMILES IDX 51 98 57 99 50 100 52 101 53 102 54 103 55 104
REMARK H PARENT 6 18 6 19 77 57 45 68
REMARK Flexibility Score: inf
ROOT
ATOM      1  O   UNL A   1      39.547  21.093  25.740  1.00  0.00    -0.374 OA
ENDROOT
BRANCH   1   2
ATOM      2  C   UNL A   1      38.412  21.939  25.870  1.00  0.00     0.202 C 
BRANCH   2   3
ATOM      3  C   UNL A   1      37.475  22.103  24.668  1.00  0.00     0.261 C 
BRANCH   3   4
ATOM      4  O   UNL A   1      36.548  23.203  24.750  1.00  0.00    -0.459 OA
BRANCH   4   5
ATOM      5  C   UNL A   1      35.596  23.206  23.770  1.00  0.00     0.355 C 
ATOM      6  O   UNL A   1      35.856  23.254  22.576  1.00  0.00    -0.244 OA
BRANCH   5   7
ATOM      7  C   UNL A   1      34.233  23.160  24.305  1.00  0.00     0.137 A 
ATOM      8  C   UNL A   1      33.402  22.072  24.647  1.00  0.00     0.047 A 
ATOM      9  C   UNL A   1      32.225  22.619  25.275  1.00  0.00     0.009 A 
ATOM     10  N   UNL A   1      33.577  24.312  24.752  1.00  0.00    -0.330 N 
ATOM     11  C   UNL A   1      32.431  23.979  25.454  1.00  0.00     0.050 A 
ATOM     12  C   UNL A   1      31.046  22.039  25.800  1.00  0.00     0.011 A 
ATOM     13  C   UNL A   1      31.559  24.757  26.239  1.00  0.00     0.027 A 
ATOM     14  C   UNL A   1      30.141  22.822  26.523  1.00  0.00     0.001 A 
ATOM     15  C   UNL A   1      30.410  24.161  26.760  1.00  0.00     0.002 A 
BRANCH   8  16
ATOM     16  C   UNL A   1      33.585  20.572  24.576  1.00  0.00     0.300 C 
BRANCH  16  17
ATOM     17  N   UNL A   1      32.642  19.861  23.745  1.00  0.00    -0.340 N 
ATOM     18  H   UNL A   1      31.745  20.341  23.841  1.00  0.00     0.346 HD
ATOM     19  H   UNL A   1      33.083  19.872  22.826  1.00  0.00     0.346 HD
BRANCH  17  20
ATOM     20  C   UNL A   1      32.384  18.427  23.982  1.00  0.00     0.182 C 
ATOM     21  C   UNL A   1      35.520  15.586  25.283  1.00  0.00     0.007 C 
ATOM     22  C   UNL A   1      34.518  16.644  24.850  1.00  0.00    -0.014 C 
ATOM     23  C   UNL A   1      33.280  16.690  25.736  1.00  0.00     0.009 C 
ATOM     24  C   UNL A   1      34.020  16.449  23.425  1.00  0.00     0.009 C 
ATOM     25  C   UNL A   1      32.492  17.965  25.453  1.00  0.00     0.065 C 
ATOM     26  C   UNL A   1      33.284  17.693  22.956  1.00  0.00     0.065 C 
ENDBRANCH  17  20
ENDBRANCH  16  17
ENDBRANCH   8  16
BRANCH  10  27
ATOM     27  C   UNL A   1      34.047  25.695  24.616  1.00  0.00     0.161 C 
BRANCH  27  28
ATOM     28  C   UNL A   1      33.061  26.593  23.910  1.00  0.00     0.008 A 
ATOM     29  C   UNL A   1      32.522  26.258  22.658  1.00  0.00     0.008 A 
ATOM     30  C   UNL A   1      32.613  27.768  24.517  1.00  0.00     0.128 A 
ATOM     31  C   UNL A   1      31.567  27.071  22.044  1.00  0.00     0.001 A 
ATOM     32  C   UNL A   1      31.655  28.581  23.915  1.00  0.00     0.039 A 
ATOM     33  F   UNL A   1      33.087  28.123  25.717  1.00  0.00    -0.207 F 
ATOM     34  C   UNL A   1      31.127  28.231  22.675  1.00  0.00     0.003 A 
ENDBRANCH  27  28
ENDBRANCH  10  27
ENDBRANCH   5   7
ENDBRANCH   4   5
ENDBRANCH   3   4
ENDBRANCH   2   3
ENDBRANCH   1   2
BRANCH   1  35
ATOM     35  C   UNL A   1      40.444  20.992  26.849  1.00  0.00     0.202 C 
BRANCH  35  36
ATOM     36  C   UNL A   1      41.929  20.733  26.554  1.00  0.00     0.261 C 
BRANCH  36  37
ATOM     37  O   UNL A   1      42.745  21.847  26.942  1.00  0.00    -0.460 OA
BRANCH  37  38
ATOM     38  C   UNL A   1      42.739  22.892  26.072  1.00  0.00     0.338 C 
ATOM     39  O   UNL A   1      42.807  22.843  24.858  1.00  0.00    -0.246 OA
BRANCH  38  40
ATOM     40  C   UNL A   1      42.317  24.074  26.845  1.00  0.00     0.060 A 
ATOM     41  C   UNL A   1      41.454  25.016  26.293  1.00  0.00     0.016 A 
ATOM     42  C   UNL A   1      42.950  24.311  28.076  1.00  0.00     0.016 A 
ATOM     43  C   UNL A   1      41.261  26.218  26.964  1.00  0.00     0.010 A 
ATOM     44  C   UNL A   1      42.791  25.541  28.716  1.00  0.00     0.010 A 
ATOM     45  C   UNL A   1      41.968  26.512  28.144  1.00  0.00    -0.014 A 
BRANCH  45  46
ATOM     46  C   UNL A   1      41.709  27.811  28.775  1.00  0.00     0.031 A 
ATOM     47  C   UNL A   1      42.638  28.906  28.384  1.00  0.00     0.074 A 
ATOM     48  C   UNL A   1      40.655  28.160  29.542  1.00  0.00     0.049 A 
ATOM     49  N   UNL A   1      43.458  29.573  29.131  1.00  0.00    -0.248 NA
ATOM     50  C   UNL A   1      42.666  29.267  26.960  1.00  0.00     0.031 C 
ATOM     51  C   UNL A   1      39.412  27.423  29.768  1.00  0.00     0.029 A 
ATOM     52  N   UNL A   1      40.442  29.349  30.196  1.00  0.00    -0.354 N 
ATOM     53  C   UNL A   1      43.992  30.556  28.303  1.00  0.00     0.074 A 
ATOM     54  C   UNL A   1      43.553  30.260  26.960  1.00  0.00     0.031 C 
ATOM     55  C   UNL A   1      38.496  28.265  30.299  1.00  0.00     0.029 A 
ATOM     56  C   UNL A   1      39.122  29.551  30.570  1.00  0.00     0.049 A 
ATOM     57  H   UNL A   1      41.160  29.996  30.381  1.00  0.00     0.167 HD
ATOM     58  C   UNL A   1      44.624  31.667  28.762  1.00  0.00     0.034 A 
ATOM     59  C   UNL A   1      38.573  30.714  30.996  1.00  0.00     0.034 A 
ATOM     60  C   UNL A   1      44.923  31.646  30.160  1.00  0.00     0.049 A 
ATOM     61  C   UNL A   1      39.658  31.617  31.454  1.00  0.00     0.074 A 
ATOM     62  C   UNL A   1      45.712  30.898  31.005  1.00  0.00     0.029 A 
ATOM     63  N   UNL A   1      44.130  32.428  30.960  1.00  0.00    -0.354 N 
ATOM     64  N   UNL A   1      40.345  31.477  32.554  1.00  0.00    -0.248 NA
ATOM     65  C   UNL A   1      40.116  32.673  30.561  1.00  0.00     0.031 C 
ATOM     66  C   UNL A   1      45.109  31.003  32.293  1.00  0.00     0.029 A 
ATOM     67  C   UNL A   1      43.955  31.776  32.152  1.00  0.00     0.049 A 
ATOM     68  H   UNL A   1      43.753  33.305  30.720  1.00  0.00     0.167 HD
ATOM     69  C   UNL A   1      41.525  32.167  32.325  1.00  0.00     0.074 A 
ATOM     70  C   UNL A   1      41.253  33.009  31.170  1.00  0.00     0.031 C 
ATOM     71  C   UNL A   1      42.705  31.775  32.889  1.00  0.00     0.034 A 
BRANCH  58  72
ATOM     72  C   UNL A   1      44.718  32.936  27.970  1.00  0.00     0.023 A 
ATOM     73  C   UNL A   1      43.533  33.552  27.525  1.00  0.00     0.012 A 
ATOM     74  C   UNL A   1      45.944  33.423  27.469  1.00  0.00     0.148 A 
ATOM     75  C   UNL A   1      43.570  34.631  26.636  1.00  0.00     0.002 A 
ATOM     76  C   UNL A   1      45.979  34.540  26.645  1.00  0.00     0.091 A 
ATOM     77  F   UNL A   1      47.071  32.736  27.707  1.00  0.00    -0.205 F 
ATOM     78  C   UNL A   1      44.794  35.141  26.213  1.00  0.00     0.022 A 
BRANCH  76  79
ATOM     79  S   UNL A   1      47.549  35.260  26.161  1.00  0.00     0.127 S 
ATOM     80  O   UNL A   1      47.949  34.388  25.061  1.00  0.00    -0.237 OA
ATOM     81  O   UNL A   1      47.166  36.616  25.770  1.00  0.00    -0.237 OA
ATOM     82  O   UNL A   1      48.356  35.200  27.374  1.00  0.00    -0.744 OA
ENDBRANCH  76  79
ENDBRANCH  58  72
BRANCH  59  83
ATOM     83  C   UNL A   1      37.177  31.217  30.925  1.00  0.00     0.023 A 
ATOM     84  C   UNL A   1      36.531  31.597  32.122  1.00  0.00     0.012 A 
ATOM     85  C   UNL A   1      36.570  31.583  29.706  1.00  0.00     0.148 A 
ATOM     86  C   UNL A   1      35.356  32.359  32.108  1.00  0.00     0.002 A 
ATOM     87  C   UNL A   1      35.384  32.319  29.697  1.00  0.00     0.091 A 
ATOM     88  F   UNL A   1      37.192  31.304  28.553  1.00  0.00    -0.205 F 
ATOM     89  C   UNL A   1      34.785  32.725  30.895  1.00  0.00     0.022 A 
BRANCH  87  90
ATOM     90  S   UNL A   1      34.599  32.785  28.148  1.00  0.00     0.127 S 
ATOM     91  O   UNL A   1      35.646  33.554  27.473  1.00  0.00    -0.237 OA
ATOM     92  O   UNL A   1      34.309  31.488  27.545  1.00  0.00    -0.237 OA
ATOM     93  O   UNL A   1      33.446  33.584  28.547  1.00  0.00    -0.744 OA
ENDBRANCH  87  90
ENDBRANCH  59  83
BRANCH  71  94
ATOM     94  C   UNL A   1      42.668  30.962  34.155  1.00  0.00     0.023 A 
ATOM     95  C   UNL A   1      42.745  31.562  35.424  1.00  0.00     0.012 A 
ATOM     96  C   UNL A   1      42.399  29.580  34.071  1.00  0.00     0.148 A 
ATOM     97  C   UNL A   1      42.588  30.797  36.581  1.00  0.00     0.002 A 
ATOM     98  C   UNL A   1      42.199  28.835  35.228  1.00  0.00     0.091 A 
ATOM     99  F   UNL A   1      42.315  29.024  32.853  1.00  0.00    -0.205 F 
ATOM    100  C   UNL A   1      42.302  29.442  36.487  1.00  0.00     0.022 A 
BRANCH  98 101
ATOM    101  S   UNL A   1      41.731  27.103  35.201  1.00  0.00     0.127 S 
ATOM    102  O   UNL A   1      41.285  26.886  36.577  1.00  0.00    -0.237 OA
ATOM    103  O   UNL A   1      40.661  27.089  34.203  1.00  0.00    -0.237 OA
ATOM    104  O   UNL A   1      42.926  26.366  34.813  1.00  0.00    -0.744 OA
ENDBRANCH  98 101
ENDBRANCH  71  94
ENDBRANCH  45  46
ENDBRANCH  38  40
ENDBRANCH  37  38
ENDBRANCH  36  37
ENDBRANCH  35  36
ENDBRANCH   1  35
TORSDOF 22
ENDMDL
MODEL 2
REMARK VINA RESULT:     -12.1      2.833      9.204
REMARK SMILES C[C@H]1CC[C@H]([NH2+]Cc2c(C(=O)OCCOCCOC(=O)c3ccc(-c4c5nc(c(-c6cccc(S(=O)(=O)[O-])c6F)c6ccc([nH]6)c(-c6cccc(S(=O)(=O)[O-])c6F)c6nc(c(-c7cccc(S(=O)(=O)[O-])c7F)c7ccc4[nH]7)C=C6)C=C5)cc3)n(Cc3ccccc3F)c3ccccc23)CC1
REMARK SMILES IDX 15 1 14 2 13 3 12 4 10 5 11 6 9 7 8 8 98 9 84 10 93 11 97 12
REMARK SMILES IDX 94 13 96 14 95 15 7 16 6 17 5 20 1 21 2 22 3 23 100 24 4 25
REMARK SMILES IDX 99 26 85 27 86 28 87 29 91 30 88 31 90 32 92 33 89 34 16 35
REMARK SMILES IDX 17 36 18 37 19 38 20 39 21 40 22 41 83 42 23 43 82 44 24 45
REMARK SMILES IDX 25 46 26 47 76 48 27 49 81 50 75 51 77 52 28 53 80 54 74 55
REMARK SMILES IDX 73 56 29 58 61 59 41 60 60 61 42 62 45 63 59 64 78 65 43 66
REMARK SMILES IDX 44 67 58 69 79 70 46 71 30 72 31 73 39 74 32 75 34 76 40 77
REMARK SMILES IDX 33 78 35 79 36 80 37 81 38 82 62 83 63 84 71 85 64 86 66 87
REMARK SMILES IDX 72 88 65 89 67 90 68 91 69 92 70 93 47 94 48 95 56 96 49 97
REMARK SMILES IDX 51 98 57 99 50 100 52 101 53 102 54 103 55 104
REMARK H PARENT 6 18 6 19 77 57 45 68
REMARK Flexibility Score: inf
ROOT
ATOM      1  O   UNL A   1      33.632  29.177  26.058  1.00  0.00    -0.374 OA
ENDROOT
BRANCH   1   2
ATOM      2  C   UNL A   1      32.945  28.283  25.193  1.00  0.00     0.202 C 
BRANCH   2   3
ATOM      3  C   UNL A   1      33.756  27.473  24.174  1.00  0.00     0.261 C 
BRANCH   3   4
ATOM      4  O   UNL A   1      33.259  27.503  22.822  1.00  0.00    -0.459 OA
BRANCH   4   5
ATOM      5  C   UNL A   1      33.138  26.270  22.244  1.00  0.00     0.355 C 
ATOM      6  O   UNL A   1      33.339  26.058  21.057  1.00  0.00    -0.244 OA
BRANCH   5   7
ATOM      7  C   UNL A   1      32.728  25.237  23.198  1.00  0.00     0.137 A 
ATOM      8  C   UNL A   1      31.526  25.055  23.916  1.00  0.00     0.047 A 
ATOM      9  C   UNL A   1      31.621  23.781  24.584  1.00  0.00     0.009 A 
ATOM     10  N   UNL A   1      33.492  24.086  23.412  1.00  0.00    -0.330 N 
ATOM     11  C   UNL A   1      32.774  23.151  24.138  1.00  0.00     0.050 A 
ATOM     12  C   UNL A   1      30.758  23.073  25.454  1.00  0.00     0.011 A 
ATOM     13  C   UNL A   1      33.036  21.800  24.436  1.00  0.00     0.027 A 
ATOM     14  C   UNL A   1      31.048  21.752  25.809  1.00  0.00     0.001 A 
ATOM     15  C   UNL A   1      32.162  21.117  25.283  1.00  0.00     0.002 A 
BRANCH   8  16
ATOM     16  C   UNL A   1      30.238  25.845  23.990  1.00  0.00     0.300 C 
BRANCH  16  17
ATOM     17  N   UNL A   1      30.132  26.960  23.079  1.00  0.00    -0.340 N 
ATOM     18  H   UNL A   1      31.084  27.217  22.815  1.00  0.00     0.346 HD
ATOM     19  H   UNL A   1      29.522  26.606  22.343  1.00  0.00     0.346 HD
BRANCH  17  20
ATOM     20  C   UNL A   1      29.459  28.202  23.509  1.00  0.00     0.182 C 
ATOM     21  C   UNL A   1      27.899  31.220  20.670  1.00  0.00     0.007 C 
ATOM     22  C   UNL A   1      28.457  30.118  21.557  1.00  0.00    -0.014 C 
ATOM     23  C   UNL A   1      27.441  29.591  22.563  1.00  0.00     0.009 C 
ATOM     24  C   UNL A   1      29.673  30.555  22.361  1.00  0.00     0.009 C 
ATOM     25  C   UNL A   1      27.952  28.292  23.177  1.00  0.00     0.065 C 
ATOM     26  C   UNL A   1      30.358  29.343  22.968  1.00  0.00     0.065 C 
ENDBRANCH  17  20
ENDBRANCH  16  17
ENDBRANCH   8  16
BRANCH  10  27
ATOM     27  C   UNL A   1      34.831  23.813  22.877  1.00  0.00     0.161 C 
BRANCH  27  28
ATOM     28  C   UNL A   1      35.809  23.346  23.927  1.00  0.00     0.008 A 
ATOM     29  C   UNL A   1      36.632  22.227  23.723  1.00  0.00     0.008 A 
ATOM     30  C   UNL A   1      35.960  24.056  25.120  1.00  0.00     0.128 A 
ATOM     31  C   UNL A   1      37.573  21.841  24.681  1.00  0.00     0.001 A 
ATOM     32  C   UNL A   1      36.902  23.682  26.077  1.00  0.00     0.039 A 
ATOM     33  F   UNL A   1      35.209  25.138  25.354  1.00  0.00    -0.207 F 
ATOM     34  C   UNL A   1      37.714  22.573  25.857  1.00  0.00     0.003 A 
ENDBRANCH  27  28
ENDBRANCH  10  27
ENDBRANCH   5   7
ENDBRANCH   4   5
ENDBRANCH   3   4
ENDBRANCH   2   3
ENDBRANCH   1   2
BRANCH   1  35
ATOM     35  C   UNL A   1      32.884  29.831  27.085  1.00  0.00     0.202 C 
BRANCH  35  36
ATOM     36  C   UNL A   1      33.121  31.334  27.303  1.00  0.00     0.261 C 
BRANCH  36  37
ATOM     37  O   UNL A   1      34.083  31.570  28.340  1.00  0.00    -0.460 OA
BRANCH  37  38
ATOM     38  C   UNL A   1      35.178  32.277  27.954  1.00  0.00     0.338 C 
ATOM     39  O   UNL A   1      35.219  33.437  27.589  1.00  0.00    -0.246 OA
BRANCH  38  40
ATOM     40  C   UNL A   1      36.351  31.480  28.358  1.00  0.00     0.060 A 
ATOM     41  C   UNL A   1      37.401  32.064  29.062  1.00  0.00     0.016 A 
ATOM     42  C   UNL A   1      36.458  30.172  27.859  1.00  0.00     0.016 A 
ATOM     43  C   UNL A   1      38.577  31.341  29.227  1.00  0.00     0.010 A 
ATOM     44  C   UNL A   1      37.659  29.474  27.983  1.00  0.00     0.010 A 
ATOM     45  C   UNL A   1      38.735  30.070  28.642  1.00  0.00    -0.014 A 
BRANCH  45  46
ATOM     46  C   UNL A   1      40.016  29.389  28.859  1.00  0.00     0.031 A 
ATOM     47  C   UNL A   1      40.351  29.098  30.279  1.00  0.00     0.074 A 
ATOM     48  C   UNL A   1      40.845  28.874  27.926  1.00  0.00     0.049 A 
ATOM     49  N   UNL A   1      41.345  29.540  30.981  1.00  0.00    -0.248 NA
ATOM     50  C   UNL A   1      39.422  28.222  31.007  1.00  0.00     0.031 C 
ATOM     51  C   UNL A   1      40.592  28.669  26.501  1.00  0.00     0.029 A 
ATOM     52  N   UNL A   1      42.079  28.302  28.116  1.00  0.00    -0.354 N 
ATOM     53  C   UNL A   1      41.263  28.867  32.197  1.00  0.00     0.074 A 
ATOM     54  C   UNL A   1      40.010  28.150  32.199  1.00  0.00     0.031 C 
ATOM     55  C   UNL A   1      41.525  27.820  26.011  1.00  0.00     0.029 A 
ATOM     56  C   UNL A   1      42.506  27.529  27.046  1.00  0.00     0.049 A 
ATOM     57  H   UNL A   1      42.610  28.430  28.934  1.00  0.00     0.167 HD
ATOM     58  C   UNL A   1      42.290  28.779  33.081  1.00  0.00     0.034 A 
ATOM     59  C   UNL A   1      43.543  26.658  27.044  1.00  0.00     0.034 A 
ATOM     60  C   UNL A   1      43.400  29.633  32.789  1.00  0.00     0.049 A 
ATOM     61  C   UNL A   1      44.444  26.981  28.177  1.00  0.00     0.074 A 
ATOM     62  C   UNL A   1      43.630  30.989  32.721  1.00  0.00     0.029 A 
ATOM     63  N   UNL A   1      44.512  29.024  32.267  1.00  0.00    -0.354 N 
ATOM     64  N   UNL A   1      45.241  28.012  28.240  1.00  0.00    -0.248 NA
ATOM     65  C   UNL A   1      44.354  26.185  29.394  1.00  0.00     0.031 C 
ATOM     66  C   UNL A   1      44.729  31.151  31.827  1.00  0.00     0.029 A 
ATOM     67  C   UNL A   1      45.082  29.882  31.364  1.00  0.00     0.049 A 
ATOM     68  H   UNL A   1      44.843  28.127  32.500  1.00  0.00     0.167 HD
ATOM     69  C   UNL A   1      45.463  28.206  29.594  1.00  0.00     0.074 A 
ATOM     70  C   UNL A   1      45.039  26.968  30.228  1.00  0.00     0.031 C 
ATOM     71  C   UNL A   1      45.678  29.450  30.114  1.00  0.00     0.034 A 
BRANCH  58  72
ATOM     72  C   UNL A   1      42.411  27.670  34.083  1.00  0.00     0.023 A 
ATOM     73  C   UNL A   1      41.947  27.884  35.394  1.00  0.00     0.012 A 
ATOM     74  C   UNL A   1      43.161  26.503  33.828  1.00  0.00     0.148 A 
ATOM     75  C   UNL A   1      42.197  26.954  36.408  1.00  0.00     0.002 A 
ATOM     76  C   UNL A   1      43.343  25.549  34.820  1.00  0.00     0.091 A 
ATOM     77  F   UNL A   1      43.789  26.368  32.651  1.00  0.00    -0.205 F 
ATOM     78  C   UNL A   1      42.876  25.774  36.117  1.00  0.00     0.022 A 
BRANCH  76  79
ATOM     79  S   UNL A   1      44.141  23.988  34.439  1.00  0.00     0.127 S 
ATOM     80  O   UNL A   1      43.846  23.842  33.017  1.00  0.00    -0.237 OA
ATOM     81  O   UNL A   1      45.542  24.264  34.757  1.00  0.00    -0.237 OA
ATOM     82  O   UNL A   1      43.507  23.035  35.342  1.00  0.00    -0.744 OA
ENDBRANCH  76  79
ENDBRANCH  58  72
BRANCH  59  83
ATOM     83  C   UNL A   1      43.791  25.440  26.229  1.00  0.00     0.023 A 
ATOM     84  C   UNL A   1      44.961  25.379  25.440  1.00  0.00     0.012 A 
ATOM     85  C   UNL A   1      43.061  24.248  26.415  1.00  0.00     0.148 A 
ATOM     86  C   UNL A   1      45.416  24.169  24.902  1.00  0.00     0.002 A 
ATOM     87  C   UNL A   1      43.505  23.050  25.854  1.00  0.00     0.091 A 
ATOM     88  F   UNL A   1      41.989  24.254  27.218  1.00  0.00    -0.205 F 
ATOM     89  C   UNL A   1      44.691  23.003  25.113  1.00  0.00     0.022 A 
BRANCH  87  90
ATOM     90  S   UNL A   1      42.576  21.527  26.079  1.00  0.00     0.127 S 
ATOM     91  O   UNL A   1      42.653  21.313  27.526  1.00  0.00    -0.237 OA
ATOM     92  O   UNL A   1      41.253  21.893  25.585  1.00  0.00    -0.237 OA
ATOM     93  O   UNL A   1      43.306  20.534  25.298  1.00  0.00    -0.744 OA
ENDBRANCH  87  90
ENDBRANCH  59  83
BRANCH  71  94
ATOM     94  C   UNL A   1      46.211  30.530  29.211  1.00  0.00     0.023 A 
ATOM     95  C   UNL A   1      47.590  30.740  29.038  1.00  0.00     0.012 A 
ATOM     96  C   UNL A   1      45.308  31.251  28.403  1.00  0.00     0.148 A 
ATOM     97  C   UNL A   1      48.056  31.667  28.106  1.00  0.00     0.002 A 
ATOM     98  C   UNL A   1      45.783  32.140  27.444  1.00  0.00     0.091 A 
ATOM     99  F   UNL A   1      43.994  31.031  28.569  1.00  0.00    -0.205 F 
ATOM    100  C   UNL A   1      47.159  32.355  27.300  1.00  0.00     0.022 A 
BRANCH  98 101
ATOM    101  S   UNL A   1      44.705  33.000  26.296  1.00  0.00     0.127 S 
ATOM    102  O   UNL A   1      43.924  31.901  25.728  1.00  0.00    -0.237 OA
ATOM    103  O   UNL A   1      43.953  33.887  27.185  1.00  0.00    -0.237 OA
ATOM    104  O   UNL A   1      45.580  33.688  25.357  1.00  0.00    -0.744 OA
ENDBRANCH  98 101
ENDBRANCH  71  94
ENDBRANCH  45  46
ENDBRANCH  38  40
ENDBRANCH  37  38
ENDBRANCH  36  37
ENDBRANCH  35  36
ENDBRANCH   1  35
TORSDOF 22
ENDMDL
MODEL 3
REMARK VINA RESULT:     -12.0      3.916      9.714
REMARK SMILES C[C@H]1CC[C@H]([NH2+]Cc2c(C(=O)OCCOCCOC(=O)c3ccc(-c4c5nc(c(-c6cccc(S(=O)(=O)[O-])c6F)c6ccc([nH]6)c(-c6cccc(S(=O)(=O)[O-])c6F)c6nc(c(-c7cccc(S(=O)(=O)[O-])c7F)c7ccc4[nH]7)C=C6)C=C5)cc3)n(Cc3ccccc3F)c3ccccc23)CC1
REMARK SMILES IDX 15 1 14 2 13 3 12 4 10 5 11 6 9 7 8 8 98 9 84 10 93 11 97 12
REMARK SMILES IDX 94 13 96 14 95 15 7 16 6 17 5 20 1 21 2 22 3 23 100 24 4 25
REMARK SMILES IDX 99 26 85 27 86 28 87 29 91 30 88 31 90 32 92 33 89 34 16 35
REMARK SMILES IDX 17 36 18 37 19 38 20 39 21 40 22 41 83 42 23 43 82 44 24 45
REMARK SMILES IDX 25 46 26 47 76 48 27 49 81 50 75 51 77 52 28 53 80 54 74 55
REMARK SMILES IDX 73 56 29 58 61 59 41 60 60 61 42 62 45 63 59 64 78 65 43 66
REMARK SMILES IDX 44 67 58 69 79 70 46 71 30 72 31 73 39 74 32 75 34 76 40 77
REMARK SMILES IDX 33 78 35 79 36 80 37 81 38 82 62 83 63 84 71 85 64 86 66 87
REMARK SMILES IDX 72 88 65 89 67 90 68 91 69 92 70 93 47 94 48 95 56 96 49 97
REMARK SMILES IDX 51 98 57 99 50 100 52 101 53 102 54 103 55 104
REMARK H PARENT 6 18 6 19 77 57 45 68
REMARK Flexibility Score: inf
ROOT
ATOM      1  O   UNL A   1      34.046  29.114  25.655  1.00  0.00    -0.374 OA
ENDROOT
BRANCH   1   2
ATOM      2  C   UNL A   1      33.429  28.852  24.402  1.00  0.00     0.202 C 
BRANCH   2   3
ATOM      3  C   UNL A   1      33.484  27.427  23.838  1.00  0.00     0.261 C 
BRANCH   3   4
ATOM      4  O   UNL A   1      33.216  27.307  22.427  1.00  0.00    -0.459 OA
BRANCH   4   5
ATOM      5  C   UNL A   1      33.087  26.019  21.990  1.00  0.00     0.355 C 
ATOM      6  O   UNL A   1      33.276  25.677  20.831  1.00  0.00    -0.244 OA
BRANCH   5   7
ATOM      7  C   UNL A   1      32.686  25.098  23.056  1.00  0.00     0.137 A 
ATOM      8  C   UNL A   1      31.478  24.972  23.774  1.00  0.00     0.047 A 
ATOM      9  C   UNL A   1      31.593  23.790  24.592  1.00  0.00     0.009 A 
ATOM     10  N   UNL A   1      33.475  24.000  23.416  1.00  0.00    -0.330 N 
ATOM     11  C   UNL A   1      32.768  23.140  24.240  1.00  0.00     0.050 A 
ATOM     12  C   UNL A   1      30.733  23.170  25.530  1.00  0.00     0.011 A 
ATOM     13  C   UNL A   1      33.056  21.843  24.701  1.00  0.00     0.027 A 
ATOM     14  C   UNL A   1      31.048  21.909  26.044  1.00  0.00     0.001 A 
ATOM     15  C   UNL A   1      32.186  21.243  25.613  1.00  0.00     0.002 A 
BRANCH   8  16
ATOM     16  C   UNL A   1      30.171  25.732  23.736  1.00  0.00     0.300 C 
BRANCH  16  17
ATOM     17  N   UNL A   1      30.281  27.172  23.732  1.00  0.00    -0.340 N 
ATOM     18  H   UNL A   1      29.917  27.498  24.629  1.00  0.00     0.346 HD
ATOM     19  H   UNL A   1      31.271  27.332  23.543  1.00  0.00     0.346 HD
BRANCH  17  20
ATOM     20  C   UNL A   1      29.603  27.961  22.685  1.00  0.00     0.182 C 
ATOM     21  C   UNL A   1      27.624  31.842  23.475  1.00  0.00     0.007 C 
ATOM     22  C   UNL A   1      28.341  30.511  23.309  1.00  0.00    -0.014 C 
ATOM     23  C   UNL A   1      29.392  30.534  22.206  1.00  0.00     0.009 C 
ATOM     24  C   UNL A   1      27.400  29.361  22.984  1.00  0.00     0.009 C 
ATOM     25  C   UNL A   1      30.281  29.301  22.316  1.00  0.00     0.065 C 
ATOM     26  C   UNL A   1      28.125  28.035  23.144  1.00  0.00     0.065 C 
ENDBRANCH  17  20
ENDBRANCH  16  17
ENDBRANCH   8  16
BRANCH  10  27
ATOM     27  C   UNL A   1      34.828  23.699  22.936  1.00  0.00     0.161 C 
BRANCH  27  28
ATOM     28  C   UNL A   1      35.834  23.537  24.049  1.00  0.00     0.008 A 
ATOM     29  C   UNL A   1      35.674  24.178  25.287  1.00  0.00     0.008 A 
ATOM     30  C   UNL A   1      36.935  22.692  23.890  1.00  0.00     0.128 A 
ATOM     31  C   UNL A   1      36.584  23.972  26.327  1.00  0.00     0.001 A 
ATOM     32  C   UNL A   1      37.843  22.475  24.925  1.00  0.00     0.039 A 
ATOM     33  F   UNL A   1      37.122  22.048  22.733  1.00  0.00    -0.207 F 
ATOM     34  C   UNL A   1      37.666  23.115  26.149  1.00  0.00     0.003 A 
ENDBRANCH  27  28
ENDBRANCH  10  27
ENDBRANCH   5   7
ENDBRANCH   4   5
ENDBRANCH   3   4
ENDBRANCH   2   3
ENDBRANCH   1   2
BRANCH   1  35
ATOM     35  C   UNL A   1      33.239  29.653  26.705  1.00  0.00     0.202 C 
BRANCH  35  36
ATOM     36  C   UNL A   1      33.617  31.030  27.270  1.00  0.00     0.261 C 
BRANCH  36  37
ATOM     37  O   UNL A   1      34.648  30.926  28.263  1.00  0.00    -0.460 OA
BRANCH  37  38
ATOM     38  C   UNL A   1      35.818  31.536  27.939  1.00  0.00     0.338 C 
ATOM     39  O   UNL A   1      35.978  32.690  27.585  1.00  0.00    -0.246 OA
BRANCH  38  40
ATOM     40  C   UNL A   1      36.895  30.640  28.397  1.00  0.00     0.060 A 
ATOM     41  C   UNL A   1      38.167  31.135  28.673  1.00  0.00     0.016 A 
ATOM     42  C   UNL A   1      36.651  29.257  28.371  1.00  0.00     0.016 A 
ATOM     43  C   UNL A   1      39.203  30.233  28.883  1.00  0.00     0.010 A 
ATOM     44  C   UNL A   1      37.707  28.360  28.531  1.00  0.00     0.010 A 
ATOM     45  C   UNL A   1      38.995  28.847  28.757  1.00  0.00    -0.014 A 
BRANCH  45  46
ATOM     46  C   UNL A   1      40.152  27.974  28.984  1.00  0.00     0.031 A 
ATOM     47  C   UNL A   1      40.798  28.105  30.318  1.00  0.00     0.074 A 
ATOM     48  C   UNL A   1      40.602  26.978  28.192  1.00  0.00     0.049 A 
ATOM     49  N   UNL A   1      42.004  28.486  30.598  1.00  0.00    -0.248 NA
ATOM     50  C   UNL A   1      39.961  27.799  31.486  1.00  0.00     0.031 C 
ATOM     51  C   UNL A   1      39.948  26.375  27.032  1.00  0.00     0.029 A 
ATOM     52  N   UNL A   1      41.726  26.207  28.360  1.00  0.00    -0.354 N 
ATOM     53  C   UNL A   1      42.134  28.311  31.971  1.00  0.00     0.074 A 
ATOM     54  C   UNL A   1      40.824  27.986  32.483  1.00  0.00     0.031 C 
ATOM     55  C   UNL A   1      40.557  25.200  26.749  1.00  0.00     0.029 A 
ATOM     56  C   UNL A   1      41.714  25.035  27.618  1.00  0.00     0.049 A 
ATOM     57  H   UNL A   1      42.469  26.463  28.951  1.00  0.00     0.167 HD
ATOM     58  C   UNL A   1      43.329  28.265  32.616  1.00  0.00     0.034 A 
ATOM     59  C   UNL A   1      42.548  23.979  27.765  1.00  0.00     0.034 A 
ATOM     60  C   UNL A   1      44.450  28.653  31.816  1.00  0.00     0.049 A 
ATOM     61  C   UNL A   1      43.760  24.423  28.497  1.00  0.00     0.074 A 
ATOM     62  C   UNL A   1      44.882  29.798  31.184  1.00  0.00     0.029 A 
ATOM     63  N   UNL A   1      45.262  27.638  31.379  1.00  0.00    -0.354 N 
ATOM     64  N   UNL A   1      44.709  25.171  28.006  1.00  0.00    -0.248 NA
ATOM     65  C   UNL A   1      43.863  24.138  29.922  1.00  0.00     0.031 C 
ATOM     66  C   UNL A   1      45.714  29.359  30.113  1.00  0.00     0.029 A 
ATOM     67  C   UNL A   1      45.709  27.962  30.125  1.00  0.00     0.049 A 
ATOM     68  H   UNL A   1      45.485  26.820  31.879  1.00  0.00     0.167 HD
ATOM     69  C   UNL A   1      45.314  25.748  29.112  1.00  0.00     0.074 A 
ATOM     70  C   UNL A   1      44.868  24.951  30.245  1.00  0.00     0.031 C 
ATOM     71  C   UNL A   1      45.868  26.995  29.056  1.00  0.00     0.034 A 
BRANCH  58  72
ATOM     72  C   UNL A   1      43.521  27.570  33.930  1.00  0.00     0.023 A 
ATOM     73  C   UNL A   1      43.724  28.345  35.088  1.00  0.00     0.012 A 
ATOM     74  C   UNL A   1      43.721  26.177  34.024  1.00  0.00     0.148 A 
ATOM     75  C   UNL A   1      44.085  27.749  36.300  1.00  0.00     0.002 A 
ATOM     76  C   UNL A   1      44.007  25.583  35.246  1.00  0.00     0.091 A 
ATOM     77  F   UNL A   1      43.738  25.438  32.905  1.00  0.00    -0.205 F 
ATOM     78  C   UNL A   1      44.204  26.365  36.386  1.00  0.00     0.022 A 
BRANCH  76  79
ATOM     79  S   UNL A   1      44.079  23.797  35.389  1.00  0.00     0.127 S 
ATOM     80  O   UNL A   1      45.104  23.461  34.406  1.00  0.00    -0.237 OA
ATOM     81  O   UNL A   1      44.474  23.609  36.785  1.00  0.00    -0.237 OA
ATOM     82  O   UNL A   1      42.719  23.361  35.095  1.00  0.00    -0.744 OA
ENDBRANCH  76  79
ENDBRANCH  58  72
BRANCH  59  83
ATOM     83  C   UNL A   1      42.359  22.537  27.459  1.00  0.00     0.023 A 
ATOM     84  C   UNL A   1      41.111  21.940  27.745  1.00  0.00     0.012 A 
ATOM     85  C   UNL A   1      43.265  21.812  26.656  1.00  0.00     0.148 A 
ATOM     86  C   UNL A   1      40.757  20.696  27.210  1.00  0.00     0.002 A 
ATOM     87  C   UNL A   1      42.917  20.561  26.147  1.00  0.00     0.091 A 
ATOM     88  F   UNL A   1      44.427  22.378  26.304  1.00  0.00    -0.205 F 
ATOM     89  C   UNL A   1      41.658  20.008  26.406  1.00  0.00     0.022 A 
BRANCH  87  90
ATOM     90  S   UNL A   1      44.068  19.627  25.129  1.00  0.00     0.127 S 
ATOM     91  O   UNL A   1      44.010  20.331  23.847  1.00  0.00    -0.237 OA
ATOM     92  O   UNL A   1      45.323  19.783  25.856  1.00  0.00    -0.237 OA
ATOM     93  O   UNL A   1      43.510  18.279  25.087  1.00  0.00    -0.744 OA
ENDBRANCH  87  90
ENDBRANCH  59  83
BRANCH  71  94
ATOM     94  C   UNL A   1      46.317  27.528  27.723  1.00  0.00     0.023 A 
ATOM     95  C   UNL A   1      45.581  28.504  27.028  1.00  0.00     0.012 A 
ATOM     96  C   UNL A   1      47.583  27.151  27.228  1.00  0.00     0.148 A 
ATOM     97  C   UNL A   1      46.080  29.066  25.853  1.00  0.00     0.002 A 
ATOM     98  C   UNL A   1      48.092  27.750  26.081  1.00  0.00     0.091 A 
ATOM     99  F   UNL A   1      48.280  26.228  27.909  1.00  0.00    -0.205 F 
ATOM    100  C   UNL A   1      47.337  28.704  25.386  1.00  0.00     0.022 A 
BRANCH  98 101
ATOM    101  S   UNL A   1      49.742  27.416  25.460  1.00  0.00     0.127 S 
ATOM    102  O   UNL A   1      49.691  25.975  25.218  1.00  0.00    -0.237 OA
ATOM    103  O   UNL A   1      49.787  28.237  24.249  1.00  0.00    -0.237 OA
ATOM    104  O   UNL A   1      50.663  27.836  26.507  1.00  0.00    -0.744 OA
ENDBRANCH  98 101
ENDBRANCH  71  94
ENDBRANCH  45  46
ENDBRANCH  38  40
ENDBRANCH  37  38
ENDBRANCH  36  37
ENDBRANCH  35  36
ENDBRANCH   1  35
TORSDOF 22
ENDMDL
