MODEL 1
REMARK VINA RESULT:     -12.0      0.000      0.000
REMARK SMILES COc1cc([C@H]2c3c(-c4ccccc4)n[nH]c3C(=O)N2c2ccc(C(=O)OCCOCCOC(=O)c3ccc(-c4c5nc(c(-c6cccc(S(=O)(=O)[O-])c6F)c6ccc([nH]6)c(-c6cccc(S(=O)(=O)[O-])c6F)c6nc(c(-c7cccc(S(=O)(=O)[O-])c7F)c7ccc4[nH]7)C=C6)C=C5)cc3)cc2)ccc1O
REMARK SMILES IDX 30 1 29 2 28 3 27 4 25 5 26 6 24 7 21 8 22 9 100 10 23 11
REMARK SMILES IDX 99 12 20 13 6 14 7 15 8 16 17 17 18 18 15 19 16 20 19 21
REMARK SMILES IDX 5 23 3 24 4 25 103 26 102 27 101 28 2 29 1 30 104 31 9 33
REMARK SMILES IDX 10 34 14 35 11 36 13 37 12 38 31 39 32 40 33 41 34 42 35 43
REMARK SMILES IDX 36 44 37 45 98 46 38 47 97 48 39 49 40 50 41 51 91 52 42 53
REMARK SMILES IDX 96 54 90 55 92 56 43 57 95 58 89 59 88 60 44 62 76 63 56 64
REMARK SMILES IDX 75 65 57 66 60 67 74 68 93 69 58 70 59 71 73 73 94 74 61 75
REMARK SMILES IDX 45 76 46 77 54 78 47 79 49 80 55 81 48 82 50 83 51 84 52 85
REMARK SMILES IDX 53 86 77 87 78 88 86 89 79 90 81 91 87 92 80 93 82 94 83 95
REMARK SMILES IDX 84 96 85 97 62 98 63 99 71 100 64 101 66 102 72 103 65 104
REMARK SMILES IDX 67 105 68 106 69 107 70 108
REMARK H PARENT 16 22 104 32 92 61 60 72
REMARK Flexibility Score: inf
ROOT
ATOM      1  O   UNL A   1      42.361  20.457  26.467  1.00  0.00    -0.374 OA
ENDROOT
BRANCH   1   2
ATOM      2  C   UNL A   1      41.073  20.093  25.971  1.00  0.00     0.202 C 
BRANCH   2   3
ATOM      3  C   UNL A   1      39.843  20.863  26.456  1.00  0.00     0.261 C 
BRANCH   3   4
ATOM      4  O   UNL A   1      39.103  21.484  25.395  1.00  0.00    -0.460 OA
BRANCH   4   5
ATOM      5  C   UNL A   1      38.001  20.795  25.011  1.00  0.00     0.338 C 
ATOM      6  O   UNL A   1      37.970  19.706  24.460  1.00  0.00    -0.246 OA
BRANCH   5   7
ATOM      7  C   UNL A   1      36.776  21.465  25.490  1.00  0.00     0.060 A 
ATOM      8  C   UNL A   1      34.364  22.748  26.055  1.00  0.00     0.045 A 
ATOM      9  C   UNL A   1      34.358  21.413  25.650  1.00  0.00     0.027 A 
ATOM     10  C   UNL A   1      35.585  23.407  26.261  1.00  0.00     0.027 A 
ATOM     11  C   UNL A   1      35.561  20.784  25.331  1.00  0.00     0.018 A 
ATOM     12  C   UNL A   1      36.797  22.757  26.012  1.00  0.00     0.018 A 
BRANCH   8  13
ATOM     13  N   UNL A   1      33.152  23.454  26.163  1.00  0.00    -0.295 N 
ATOM     14  C   UNL A   1      33.010  24.821  25.577  1.00  0.00     0.156 C 
ATOM     15  C   UNL A   1      31.601  25.103  25.928  1.00  0.00     0.038 A 
ATOM     16  C   UNL A   1      30.581  26.065  25.861  1.00  0.00     0.099 A 
ATOM     17  C   UNL A   1      31.051  24.027  26.564  1.00  0.00     0.129 A 
ATOM     18  C   UNL A   1      31.949  22.939  26.673  1.00  0.00     0.277 C 
ATOM     19  N   UNL A   1      29.470  25.601  26.480  1.00  0.00    -0.174 NA
ATOM     20  N   UNL A   1      29.799  24.357  26.917  1.00  0.00    -0.272 N 
ATOM     21  O   UNL A   1      31.697  21.819  27.105  1.00  0.00    -0.267 OA
ATOM     22  H   UNL A   1      29.195  23.771  27.427  1.00  0.00     0.190 HD
BRANCH  14  23
ATOM     23  C   UNL A   1      33.096  24.826  24.057  1.00  0.00    -0.016 A 
ATOM     24  C   UNL A   1      33.528  26.094  21.986  1.00  0.00     0.160 A 
ATOM     25  C   UNL A   1      33.489  26.001  23.390  1.00  0.00     0.056 A 
ATOM     26  C   UNL A   1      33.152  24.976  21.237  1.00  0.00     0.157 A 
ATOM     27  C   UNL A   1      32.790  23.789  21.877  1.00  0.00     0.050 A 
ATOM     28  C   UNL A   1      32.781  23.706  23.271  1.00  0.00     0.010 A 
BRANCH  24  29
ATOM     29  O   UNL A   1      33.900  27.340  21.573  1.00  0.00    -0.493 OA
ATOM     30  C   UNL A   1      33.592  28.483  22.346  1.00  0.00     0.278 C 
ENDBRANCH  24  29
BRANCH  26  31
ATOM     31  O   UNL A   1      33.062  24.926  19.876  1.00  0.00    -0.504 OA
ATOM     32  H   UNL A   1      32.252  24.690  19.469  1.00  0.00     0.293 HD
ENDBRANCH  26  31
ENDBRANCH  14  23
BRANCH  16  33
ATOM     33  C   UNL A   1      30.605  27.377  25.230  1.00  0.00     0.002 A 
ATOM     34  C   UNL A   1      29.917  27.596  24.032  1.00  0.00     0.010 A 
ATOM     35  C   UNL A   1      31.335  28.427  25.799  1.00  0.00     0.010 A 
ATOM     36  C   UNL A   1      29.944  28.856  23.425  1.00  0.00     0.001 A 
ATOM     37  C   UNL A   1      31.357  29.686  25.196  1.00  0.00     0.001 A 
ATOM     38  C   UNL A   1      30.660  29.901  24.010  1.00  0.00     0.000 A 
ENDBRANCH  16  33
ENDBRANCH   8  13
ENDBRANCH   5   7
ENDBRANCH   4   5
ENDBRANCH   3   4
ENDBRANCH   2   3
ENDBRANCH   1   2
BRANCH   1  39
ATOM     39  C   UNL A   1      42.846  21.787  26.303  1.00  0.00     0.202 C 
BRANCH  39  40
ATOM     40  C   UNL A   1      42.615  22.804  27.410  1.00  0.00     0.261 C 
BRANCH  40  41
ATOM     41  O   UNL A   1      43.285  24.022  27.152  1.00  0.00    -0.460 OA
BRANCH  41  42
ATOM     42  C   UNL A   1      42.544  24.908  26.450  1.00  0.00     0.338 C 
ATOM     43  O   UNL A   1      42.549  25.086  25.244  1.00  0.00    -0.246 OA
BRANCH  42  44
ATOM     44  C   UNL A   1      41.830  25.758  27.403  1.00  0.00     0.060 A 
ATOM     45  C   UNL A   1      40.857  26.585  26.840  1.00  0.00     0.016 A 
ATOM     46  C   UNL A   1      42.421  26.016  28.648  1.00  0.00     0.016 A 
ATOM     47  C   UNL A   1      40.707  27.836  27.379  1.00  0.00     0.010 A 
ATOM     48  C   UNL A   1      42.291  27.275  29.167  1.00  0.00     0.010 A 
ATOM     49  C   UNL A   1      41.515  28.191  28.463  1.00  0.00    -0.014 A 
BRANCH  49  50
ATOM     50  C   UNL A   1      41.405  29.535  28.970  1.00  0.00     0.031 A 
ATOM     51  C   UNL A   1      42.626  30.303  28.645  1.00  0.00     0.074 A 
ATOM     52  C   UNL A   1      40.283  29.984  29.560  1.00  0.00     0.049 A 
ATOM     53  N   UNL A   1      43.544  30.686  29.468  1.00  0.00    -0.248 NA
ATOM     54  C   UNL A   1      43.012  30.415  27.225  1.00  0.00     0.031 C 
ATOM     55  C   UNL A   1      38.982  29.315  29.665  1.00  0.00     0.029 A 
ATOM     56  N   UNL A   1      40.026  31.214  30.076  1.00  0.00    -0.354 N 
ATOM     57  C   UNL A   1      44.473  31.347  28.672  1.00  0.00     0.074 A 
ATOM     58  C   UNL A   1      44.249  30.899  27.328  1.00  0.00     0.031 C 
ATOM     59  C   UNL A   1      38.032  30.238  29.944  1.00  0.00     0.029 A 
ATOM     60  C   UNL A   1      38.671  31.527  30.146  1.00  0.00     0.049 A 
ATOM     61  H   UNL A   1      40.735  31.830  30.372  1.00  0.00     0.167 HD
ATOM     62  C   UNL A   1      45.092  32.465  29.132  1.00  0.00     0.034 A 
ATOM     63  C   UNL A   1      38.138  32.773  30.253  1.00  0.00     0.034 A 
ATOM     64  C   UNL A   1      44.996  32.549  30.571  1.00  0.00     0.049 A 
ATOM     65  C   UNL A   1      39.219  33.673  30.726  1.00  0.00     0.074 A 
ATOM     66  C   UNL A   1      45.373  31.731  31.617  1.00  0.00     0.029 A 
ATOM     67  N   UNL A   1      44.047  33.407  31.073  1.00  0.00    -0.354 N 
ATOM     68  N   UNL A   1      39.753  33.582  31.912  1.00  0.00    -0.248 NA
ATOM     69  C   UNL A   1      40.038  34.333  29.718  1.00  0.00     0.031 C 
ATOM     70  C   UNL A   1      44.312  31.836  32.564  1.00  0.00     0.029 A 
ATOM     71  C   UNL A   1      43.391  32.772  32.092  1.00  0.00     0.049 A 
ATOM     72  H   UNL A   1      43.871  34.322  30.754  1.00  0.00     0.167 HD
ATOM     73  C   UNL A   1      41.116  33.713  31.680  1.00  0.00     0.074 A 
ATOM     74  C   UNL A   1      41.223  34.273  30.332  1.00  0.00     0.031 C 
ATOM     75  C   UNL A   1      42.024  33.059  32.464  1.00  0.00     0.034 A 
BRANCH  62  76
ATOM     76  C   UNL A   1      45.372  33.686  28.283  1.00  0.00     0.023 A 
ATOM     77  C   UNL A   1      44.247  34.373  27.779  1.00  0.00     0.012 A 
ATOM     78  C   UNL A   1      46.628  34.020  27.720  1.00  0.00     0.148 A 
ATOM     79  C   UNL A   1      44.356  35.283  26.724  1.00  0.00     0.002 A 
ATOM     80  C   UNL A   1      46.743  34.980  26.724  1.00  0.00     0.091 A 
ATOM     81  F   UNL A   1      47.723  33.331  28.041  1.00  0.00    -0.205 F 
ATOM     82  C   UNL A   1      45.605  35.588  26.196  1.00  0.00     0.022 A 
BRANCH  80  83
ATOM     83  S   UNL A   1      48.341  35.435  26.032  1.00  0.00     0.127 S 
ATOM     84  O   UNL A   1      49.229  35.190  27.164  1.00  0.00    -0.237 OA
ATOM     85  O   UNL A   1      48.463  34.483  24.927  1.00  0.00    -0.237 OA
ATOM     86  O   UNL A   1      48.213  36.824  25.610  1.00  0.00    -0.744 OA
ENDBRANCH  80  83
ENDBRANCH  62  76
BRANCH  63  87
ATOM     87  C   UNL A   1      36.876  33.315  29.682  1.00  0.00     0.023 A 
ATOM     88  C   UNL A   1      36.444  32.899  28.405  1.00  0.00     0.012 A 
ATOM     89  C   UNL A   1      35.956  34.014  30.494  1.00  0.00     0.148 A 
ATOM     90  C   UNL A   1      35.135  33.146  27.966  1.00  0.00     0.002 A 
ATOM     91  C   UNL A   1      34.659  34.264  30.052  1.00  0.00     0.091 A 
ATOM     92  F   UNL A   1      36.318  34.348  31.738  1.00  0.00    -0.205 F 
ATOM     93  C   UNL A   1      34.241  33.822  28.791  1.00  0.00     0.022 A 
BRANCH  91  94
ATOM     94  S   UNL A   1      33.444  35.100  31.082  1.00  0.00     0.127 S 
ATOM     95  O   UNL A   1      32.290  35.178  30.185  1.00  0.00    -0.237 OA
ATOM     96  O   UNL A   1      33.295  34.164  32.193  1.00  0.00    -0.237 OA
ATOM     97  O   UNL A   1      34.028  36.392  31.421  1.00  0.00    -0.744 OA
ENDBRANCH  91  94
ENDBRANCH  63  87
BRANCH  75  98
ATOM     98  C   UNL A   1      41.523  32.397  33.723  1.00  0.00     0.023 A 
ATOM     99  C   UNL A   1      41.072  31.059  33.762  1.00  0.00     0.012 A 
ATOM    100  C   UNL A   1      41.677  33.094  34.930  1.00  0.00     0.148 A 
ATOM    101  C   UNL A   1      40.762  30.443  34.979  1.00  0.00     0.002 A 
ATOM    102  C   UNL A   1      41.414  32.466  36.139  1.00  0.00     0.091 A 
ATOM    103  F   UNL A   1      42.113  34.363  34.874  1.00  0.00    -0.205 F 
ATOM    104  C   UNL A   1      40.946  31.143  36.169  1.00  0.00     0.022 A 
BRANCH 102 105
ATOM    105  S   UNL A   1      41.755  33.277  37.701  1.00  0.00     0.127 S 
ATOM    106  O   UNL A   1      40.816  34.396  37.673  1.00  0.00    -0.237 OA
ATOM    107  O   UNL A   1      41.435  32.230  38.674  1.00  0.00    -0.237 OA
ATOM    108  O   UNL A   1      43.166  33.641  37.665  1.00  0.00    -0.744 OA
ENDBRANCH 102 105
ENDBRANCH  75  98
ENDBRANCH  49  50
ENDBRANCH  42  44
ENDBRANCH  41  42
ENDBRANCH  40  41
ENDBRANCH  39  40
ENDBRANCH   1  39
TORSDOF 22
ENDMDL
MODEL 2
REMARK VINA RESULT:     -12.0      2.446      7.231
REMARK SMILES COc1cc([C@H]2c3c(-c4ccccc4)n[nH]c3C(=O)N2c2ccc(C(=O)OCCOCCOC(=O)c3ccc(-c4c5nc(c(-c6cccc(S(=O)(=O)[O-])c6F)c6ccc([nH]6)c(-c6cccc(S(=O)(=O)[O-])c6F)c6nc(c(-c7cccc(S(=O)(=O)[O-])c7F)c7ccc4[nH]7)C=C6)C=C5)cc3)cc2)ccc1O
REMARK SMILES IDX 30 1 29 2 28 3 27 4 25 5 26 6 24 7 21 8 22 9 100 10 23 11
REMARK SMILES IDX 99 12 20 13 6 14 7 15 8 16 17 17 18 18 15 19 16 20 19 21
REMARK SMILES IDX 5 23 3 24 4 25 103 26 102 27 101 28 2 29 1 30 104 31 9 33
REMARK SMILES IDX 10 34 14 35 11 36 13 37 12 38 31 39 32 40 33 41 34 42 35 43
REMARK SMILES IDX 36 44 37 45 98 46 38 47 97 48 39 49 40 50 41 51 91 52 42 53
REMARK SMILES IDX 96 54 90 55 92 56 43 57 95 58 89 59 88 60 44 62 76 63 56 64
REMARK SMILES IDX 75 65 57 66 60 67 74 68 93 69 58 70 59 71 73 73 94 74 61 75
REMARK SMILES IDX 45 76 46 77 54 78 47 79 49 80 55 81 48 82 50 83 51 84 52 85
REMARK SMILES IDX 53 86 77 87 78 88 86 89 79 90 81 91 87 92 80 93 82 94 83 95
REMARK SMILES IDX 84 96 85 97 62 98 63 99 71 100 64 101 66 102 72 103 65 104
REMARK SMILES IDX 67 105 68 106 69 107 70 108
REMARK H PARENT 16 22 104 32 92 61 60 72
REMARK Flexibility Score: inf
ROOT
ATOM      1  O   UNL A   1      42.686  21.588  26.873  1.00  0.00    -0.374 OA
ENDROOT
BRANCH   1   2
ATOM      2  C   UNL A   1      41.662  21.184  25.964  1.00  0.00     0.202 C 
BRANCH   2   3
ATOM      3  C   UNL A   1      40.246  20.950  26.493  1.00  0.00     0.261 C 
BRANCH   3   4
ATOM      4  O   UNL A   1      39.275  21.854  25.946  1.00  0.00    -0.460 OA
BRANCH   4   5
ATOM      5  C   UNL A   1      38.223  21.244  25.350  1.00  0.00     0.338 C 
ATOM      6  O   UNL A   1      38.251  20.233  24.666  1.00  0.00    -0.246 OA
BRANCH   5   7
ATOM      7  C   UNL A   1      36.954  21.875  25.762  1.00  0.00     0.060 A 
ATOM      8  C   UNL A   1      34.451  23.025  26.204  1.00  0.00     0.045 A 
ATOM      9  C   UNL A   1      34.553  21.647  26.011  1.00  0.00     0.027 A 
ATOM     10  C   UNL A   1      35.613  23.808  26.265  1.00  0.00     0.027 A 
ATOM     11  C   UNL A   1      35.800  21.079  25.751  1.00  0.00     0.018 A 
ATOM     12  C   UNL A   1      36.872  23.230  26.077  1.00  0.00     0.018 A 
BRANCH   8  13
ATOM     13  N   UNL A   1      33.184  23.636  26.244  1.00  0.00    -0.295 N 
ATOM     14  C   UNL A   1      32.934  24.921  25.526  1.00  0.00     0.156 C 
ATOM     15  C   UNL A   1      31.503  25.119  25.849  1.00  0.00     0.038 A 
ATOM     16  C   UNL A   1      30.408  25.982  25.688  1.00  0.00     0.099 A 
ATOM     17  C   UNL A   1      31.040  24.069  26.589  1.00  0.00     0.129 A 
ATOM     18  C   UNL A   1      32.024  23.076  26.804  1.00  0.00     0.277 C 
ATOM     19  N   UNL A   1      29.335  25.491  26.352  1.00  0.00    -0.174 NA
ATOM     20  N   UNL A   1      29.763  24.328  26.909  1.00  0.00    -0.272 N 
ATOM     21  O   UNL A   1      31.863  21.987  27.346  1.00  0.00    -0.267 OA
ATOM     22  H   UNL A   1      29.206  23.747  27.476  1.00  0.00     0.190 HD
BRANCH  14  23
ATOM     23  C   UNL A   1      33.029  24.783  24.012  1.00  0.00    -0.016 A 
ATOM     24  C   UNL A   1      33.362  25.872  21.825  1.00  0.00     0.160 A 
ATOM     25  C   UNL A   1      33.321  25.916  23.231  1.00  0.00     0.056 A 
ATOM     26  C   UNL A   1      33.091  24.656  21.191  1.00  0.00     0.157 A 
ATOM     27  C   UNL A   1      32.830  23.512  21.947  1.00  0.00     0.050 A 
ATOM     28  C   UNL A   1      32.819  23.567  23.343  1.00  0.00     0.010 A 
BRANCH  24  29
ATOM     29  O   UNL A   1      33.626  27.099  21.288  1.00  0.00    -0.493 OA
ATOM     30  C   UNL A   1      33.889  28.212  22.119  1.00  0.00     0.278 C 
ENDBRANCH  24  29
BRANCH  26  31
ATOM     31  O   UNL A   1      33.015  24.464  19.842  1.00  0.00    -0.504 OA
ATOM     32  H   UNL A   1      32.179  24.372  19.429  1.00  0.00     0.293 HD
ENDBRANCH  26  31
ENDBRANCH  14  23
BRANCH  16  33
ATOM     33  C   UNL A   1      30.328  27.222  24.930  1.00  0.00     0.002 A 
ATOM     34  C   UNL A   1      29.435  27.339  23.859  1.00  0.00     0.010 A 
ATOM     35  C   UNL A   1      31.159  28.304  25.246  1.00  0.00     0.010 A 
ATOM     36  C   UNL A   1      29.362  28.529  23.130  1.00  0.00     0.001 A 
ATOM     37  C   UNL A   1      31.081  29.495  24.521  1.00  0.00     0.001 A 
ATOM     38  C   UNL A   1      30.181  29.608  23.464  1.00  0.00     0.000 A 
ENDBRANCH  16  33
ENDBRANCH   8  13
ENDBRANCH   5   7
ENDBRANCH   4   5
ENDBRANCH   3   4
ENDBRANCH   2   3
ENDBRANCH   1   2
BRANCH   1  39
ATOM     39  C   UNL A   1      42.979  22.969  27.060  1.00  0.00     0.202 C 
BRANCH  39  40
ATOM     40  C   UNL A   1      42.021  23.831  27.867  1.00  0.00     0.261 C 
BRANCH  40  41
ATOM     41  O   UNL A   1      41.899  25.130  27.325  1.00  0.00    -0.460 OA
BRANCH  41  42
ATOM     42  C   UNL A   1      40.681  25.383  26.795  1.00  0.00     0.338 C 
ATOM     43  O   UNL A   1      40.174  24.853  25.821  1.00  0.00    -0.246 OA
BRANCH  42  44
ATOM     44  C   UNL A   1      40.113  26.535  27.493  1.00  0.00     0.060 A 
ATOM     45  C   UNL A   1      40.380  27.772  26.904  1.00  0.00     0.016 A 
ATOM     46  C   UNL A   1      39.757  26.397  28.843  1.00  0.00     0.016 A 
ATOM     47  C   UNL A   1      40.600  28.833  27.742  1.00  0.00     0.010 A 
ATOM     48  C   UNL A   1      40.005  27.449  29.680  1.00  0.00     0.010 A 
ATOM     49  C   UNL A   1      40.520  28.616  29.121  1.00  0.00    -0.014 A 
BRANCH  49  50
ATOM     50  C   UNL A   1      40.832  29.720  29.993  1.00  0.00     0.031 A 
ATOM     51  C   UNL A   1      39.588  30.361  30.467  1.00  0.00     0.074 A 
ATOM     52  C   UNL A   1      42.096  30.006  30.355  1.00  0.00     0.049 A 
ATOM     53  N   UNL A   1      39.130  31.517  30.120  1.00  0.00    -0.248 NA
ATOM     54  C   UNL A   1      38.608  29.520  31.180  1.00  0.00     0.031 C 
ATOM     55  C   UNL A   1      43.313  29.230  30.095  1.00  0.00     0.029 A 
ATOM     56  N   UNL A   1      42.545  30.998  31.167  1.00  0.00    -0.354 N 
ATOM     57  C   UNL A   1      37.937  31.647  30.822  1.00  0.00     0.074 A 
ATOM     58  C   UNL A   1      37.542  30.320  31.199  1.00  0.00     0.031 C 
ATOM     59  C   UNL A   1      44.279  29.622  30.959  1.00  0.00     0.029 A 
ATOM     60  C   UNL A   1      43.785  30.739  31.744  1.00  0.00     0.049 A 
ATOM     61  H   UNL A   1      42.036  31.824  31.334  1.00  0.00     0.167 HD
ATOM     62  C   UNL A   1      37.578  32.850  31.341  1.00  0.00     0.034 A 
ATOM     63  C   UNL A   1      44.298  31.340  32.851  1.00  0.00     0.034 A 
ATOM     64  C   UNL A   1      38.306  33.921  30.703  1.00  0.00     0.049 A 
ATOM     65  C   UNL A   1      43.534  32.594  33.063  1.00  0.00     0.074 A 
ATOM     66  C   UNL A   1      38.444  34.358  29.400  1.00  0.00     0.029 A 
ATOM     67  N   UNL A   1      39.371  34.440  31.399  1.00  0.00    -0.354 N 
ATOM     68  N   UNL A   1      43.587  33.607  32.244  1.00  0.00    -0.248 NA
ATOM     69  C   UNL A   1      42.345  32.526  33.901  1.00  0.00     0.031 C 
ATOM     70  C   UNL A   1      39.815  34.732  29.282  1.00  0.00     0.029 A 
ATOM     71  C   UNL A   1      40.419  34.588  30.532  1.00  0.00     0.049 A 
ATOM     72  H   UNL A   1      39.378  34.666  32.357  1.00  0.00     0.167 HD
ATOM     73  C   UNL A   1      42.262  34.003  32.111  1.00  0.00     0.074 A 
ATOM     74  C   UNL A   1      41.559  33.372  33.228  1.00  0.00     0.031 C 
ATOM     75  C   UNL A   1      41.806  34.533  30.937  1.00  0.00     0.034 A 
BRANCH  62  76
ATOM     76  C   UNL A   1      36.937  33.026  32.701  1.00  0.00     0.023 A 
ATOM     77  C   UNL A   1      35.839  33.910  32.768  1.00  0.00     0.012 A 
ATOM     78  C   UNL A   1      37.507  32.621  33.932  1.00  0.00     0.148 A 
ATOM     79  C   UNL A   1      35.386  34.422  33.987  1.00  0.00     0.002 A 
ATOM     80  C   UNL A   1      37.006  33.073  35.145  1.00  0.00     0.091 A 
ATOM     81  F   UNL A   1      38.625  31.895  33.959  1.00  0.00    -0.205 F 
ATOM     82  C   UNL A   1      35.968  34.003  35.177  1.00  0.00     0.022 A 
BRANCH  80  83
ATOM     83  S   UNL A   1      37.703  32.533  36.714  1.00  0.00     0.127 S 
ATOM     84  O   UNL A   1      37.689  31.082  36.556  1.00  0.00    -0.237 OA
ATOM     85  O   UNL A   1      39.029  33.150  36.673  1.00  0.00    -0.237 OA
ATOM     86  O   UNL A   1      36.827  33.071  37.747  1.00  0.00    -0.744 OA
ENDBRANCH  80  83
ENDBRANCH  62  76
BRANCH  63  87
ATOM     87  C   UNL A   1      45.167  30.775  33.917  1.00  0.00     0.023 A 
ATOM     88  C   UNL A   1      46.375  31.421  34.257  1.00  0.00     0.012 A 
ATOM     89  C   UNL A   1      44.685  29.777  34.792  1.00  0.00     0.148 A 
ATOM     90  C   UNL A   1      47.062  31.101  35.438  1.00  0.00     0.002 A 
ATOM     91  C   UNL A   1      45.373  29.456  35.960  1.00  0.00     0.091 A 
ATOM     92  F   UNL A   1      43.502  29.208  34.531  1.00  0.00    -0.205 F 
ATOM     93  C   UNL A   1      46.557  30.124  36.292  1.00  0.00     0.022 A 
BRANCH  91  94
ATOM     94  S   UNL A   1      44.757  28.231  37.124  1.00  0.00     0.127 S 
ATOM     95  O   UNL A   1      44.933  26.987  36.374  1.00  0.00    -0.237 OA
ATOM     96  O   UNL A   1      45.671  28.400  38.252  1.00  0.00    -0.237 OA
ATOM     97  O   UNL A   1      43.368  28.585  37.381  1.00  0.00    -0.744 OA
ENDBRANCH  91  94
ENDBRANCH  63  87
BRANCH  75  98
ATOM     98  C   UNL A   1      42.822  34.899  29.884  1.00  0.00     0.023 A 
ATOM     99  C   UNL A   1      43.419  36.175  29.801  1.00  0.00     0.012 A 
ATOM    100  C   UNL A   1      43.312  33.868  29.068  1.00  0.00     0.148 A 
ATOM    101  C   UNL A   1      44.466  36.420  28.905  1.00  0.00     0.002 A 
ATOM    102  C   UNL A   1      44.381  34.100  28.214  1.00  0.00     0.091 A 
ATOM    103  F   UNL A   1      42.736  32.660  29.165  1.00  0.00    -0.205 F 
ATOM    104  C   UNL A   1      44.955  35.378  28.121  1.00  0.00     0.022 A 
BRANCH 102 105
ATOM    105  S   UNL A   1      45.130  32.767  27.279  1.00  0.00     0.127 S 
ATOM    106  O   UNL A   1      45.423  31.790  28.325  1.00  0.00    -0.237 OA
ATOM    107  O   UNL A   1      44.054  32.383  26.364  1.00  0.00    -0.237 OA
ATOM    108  O   UNL A   1      46.293  33.346  26.617  1.00  0.00    -0.744 OA
ENDBRANCH 102 105
ENDBRANCH  75  98
ENDBRANCH  49  50
ENDBRANCH  42  44
ENDBRANCH  41  42
ENDBRANCH  40  41
ENDBRANCH  39  40
ENDBRANCH   1  39
TORSDOF 22
ENDMDL
MODEL 3
REMARK VINA RESULT:     -11.3      5.217     13.114
REMARK SMILES COc1cc([C@H]2c3c(-c4ccccc4)n[nH]c3C(=O)N2c2ccc(C(=O)OCCOCCOC(=O)c3ccc(-c4c5nc(c(-c6cccc(S(=O)(=O)[O-])c6F)c6ccc([nH]6)c(-c6cccc(S(=O)(=O)[O-])c6F)c6nc(c(-c7cccc(S(=O)(=O)[O-])c7F)c7ccc4[nH]7)C=C6)C=C5)cc3)cc2)ccc1O
REMARK SMILES IDX 30 1 29 2 28 3 27 4 25 5 26 6 24 7 21 8 22 9 100 10 23 11
REMARK SMILES IDX 99 12 20 13 6 14 7 15 8 16 17 17 18 18 15 19 16 20 19 21
REMARK SMILES IDX 5 23 3 24 4 25 103 26 102 27 101 28 2 29 1 30 104 31 9 33
REMARK SMILES IDX 10 34 14 35 11 36 13 37 12 38 31 39 32 40 33 41 34 42 35 43
REMARK SMILES IDX 36 44 37 45 98 46 38 47 97 48 39 49 40 50 41 51 91 52 42 53
REMARK SMILES IDX 96 54 90 55 92 56 43 57 95 58 89 59 88 60 44 62 76 63 56 64
REMARK SMILES IDX 75 65 57 66 60 67 74 68 93 69 58 70 59 71 73 73 94 74 61 75
REMARK SMILES IDX 45 76 46 77 54 78 47 79 49 80 55 81 48 82 50 83 51 84 52 85
REMARK SMILES IDX 53 86 77 87 78 88 86 89 79 90 81 91 87 92 80 93 82 94 83 95
REMARK SMILES IDX 84 96 85 97 62 98 63 99 71 100 64 101 66 102 72 103 65 104
REMARK SMILES IDX 67 105 68 106 69 107 70 108
REMARK H PARENT 16 22 104 32 92 61 60 72
REMARK Flexibility Score: inf
ROOT
ATOM      1  O   UNL A   1      34.133  35.077  28.504  1.00  0.00    -0.374 OA
ENDROOT
BRANCH   1   2
ATOM      2  C   UNL A   1      33.217  34.949  29.590  1.00  0.00     0.202 C 
BRANCH   2   3
ATOM      3  C   UNL A   1      33.729  35.128  31.021  1.00  0.00     0.261 C 
BRANCH   3   4
ATOM      4  O   UNL A   1      34.224  33.915  31.606  1.00  0.00    -0.460 OA
BRANCH   4   5
ATOM      5  C   UNL A   1      35.566  33.760  31.510  1.00  0.00     0.338 C 
ATOM      6  O   UNL A   1      36.266  33.999  30.538  1.00  0.00    -0.246 OA
BRANCH   5   7
ATOM      7  C   UNL A   1      36.144  33.397  32.818  1.00  0.00     0.060 A 
ATOM      8  C   UNL A   1      37.472  32.967  35.233  1.00  0.00     0.045 A 
ATOM      9  C   UNL A   1      36.687  34.108  35.071  1.00  0.00     0.027 A 
ATOM     10  C   UNL A   1      37.516  32.001  34.216  1.00  0.00     0.027 A 
ATOM     11  C   UNL A   1      36.054  34.341  33.850  1.00  0.00     0.018 A 
ATOM     12  C   UNL A   1      36.824  32.197  33.018  1.00  0.00     0.018 A 
BRANCH   8  13
ATOM     13  N   UNL A   1      38.289  32.832  36.371  1.00  0.00    -0.295 N 
ATOM     14  C   UNL A   1      39.776  32.784  36.242  1.00  0.00     0.156 C 
ATOM     15  C   UNL A   1      40.151  32.665  37.668  1.00  0.00     0.038 A 
ATOM     16  C   UNL A   1      41.232  32.532  38.554  1.00  0.00     0.099 A 
ATOM     17  C   UNL A   1      39.034  32.695  38.452  1.00  0.00     0.129 A 
ATOM     18  C   UNL A   1      37.847  32.873  37.704  1.00  0.00     0.277 C 
ATOM     19  N   UNL A   1      40.776  32.434  39.825  1.00  0.00    -0.174 NA
ATOM     20  N   UNL A   1      39.423  32.518  39.724  1.00  0.00    -0.272 N 
ATOM     21  O   UNL A   1      36.715  33.035  38.149  1.00  0.00    -0.267 OA
ATOM     22  H   UNL A   1      38.806  32.458  40.488  1.00  0.00     0.190 HD
BRANCH  14  23
ATOM     23  C   UNL A   1      40.369  34.093  35.738  1.00  0.00    -0.016 A 
ATOM     24  C   UNL A   1      41.786  35.253  34.085  1.00  0.00     0.160 A 
ATOM     25  C   UNL A   1      41.156  34.092  34.571  1.00  0.00     0.056 A 
ATOM     26  C   UNL A   1      41.626  36.443  34.800  1.00  0.00     0.157 A 
ATOM     27  C   UNL A   1      40.825  36.474  35.943  1.00  0.00     0.050 A 
ATOM     28  C   UNL A   1      40.186  35.319  36.397  1.00  0.00     0.010 A 
BRANCH  24  29
ATOM     29  O   UNL A   1      42.524  34.997  32.965  1.00  0.00    -0.493 OA
ATOM     30  C   UNL A   1      43.274  36.019  32.341  1.00  0.00     0.278 C 
ENDBRANCH  24  29
BRANCH  26  31
ATOM     31  O   UNL A   1      42.229  37.632  34.508  1.00  0.00    -0.504 OA
ATOM     32  H   UNL A   1      42.994  37.898  34.981  1.00  0.00     0.293 HD
ENDBRANCH  26  31
ENDBRANCH  14  23
BRANCH  16  33
ATOM     33  C   UNL A   1      42.658  32.511  38.258  1.00  0.00     0.002 A 
ATOM     34  C   UNL A   1      43.550  31.877  39.129  1.00  0.00     0.010 A 
ATOM     35  C   UNL A   1      43.156  33.145  37.113  1.00  0.00     0.010 A 
ATOM     36  C   UNL A   1      44.919  31.862  38.845  1.00  0.00     0.001 A 
ATOM     37  C   UNL A   1      44.522  33.124  36.827  1.00  0.00     0.001 A 
ATOM     38  C   UNL A   1      45.403  32.481  37.693  1.00  0.00     0.000 A 
ENDBRANCH  16  33
ENDBRANCH   8  13
ENDBRANCH   5   7
ENDBRANCH   4   5
ENDBRANCH   3   4
ENDBRANCH   2   3
ENDBRANCH   1   2
BRANCH   1  39
ATOM     39  C   UNL A   1      34.506  33.936  27.737  1.00  0.00     0.202 C 
BRANCH  39  40
ATOM     40  C   UNL A   1      33.739  32.635  27.918  1.00  0.00     0.261 C 
BRANCH  40  41
ATOM     41  O   UNL A   1      34.340  31.803  28.890  1.00  0.00    -0.460 OA
BRANCH  41  42
ATOM     42  C   UNL A   1      35.210  30.908  28.372  1.00  0.00     0.338 C 
ATOM     43  O   UNL A   1      35.073  30.245  27.358  1.00  0.00    -0.246 OA
BRANCH  42  44
ATOM     44  C   UNL A   1      36.304  30.734  29.327  1.00  0.00     0.060 A 
ATOM     45  C   UNL A   1      37.423  31.534  29.095  1.00  0.00     0.016 A 
ATOM     46  C   UNL A   1      36.357  29.552  30.080  1.00  0.00     0.016 A 
ATOM     47  C   UNL A   1      38.652  30.986  29.348  1.00  0.00     0.010 A 
ATOM     48  C   UNL A   1      37.585  28.994  30.306  1.00  0.00     0.010 A 
ATOM     49  C   UNL A   1      38.705  29.679  29.842  1.00  0.00    -0.014 A 
BRANCH  49  50
ATOM     50  C   UNL A   1      40.004  29.084  30.029  1.00  0.00     0.031 A 
ATOM     51  C   UNL A   1      40.467  29.299  31.417  1.00  0.00     0.074 A 
ATOM     52  C   UNL A   1      40.606  28.369  29.061  1.00  0.00     0.049 A 
ATOM     53  N   UNL A   1      41.411  30.087  31.806  1.00  0.00    -0.248 NA
ATOM     54  C   UNL A   1      39.611  28.803  32.512  1.00  0.00     0.031 C 
ATOM     55  C   UNL A   1      40.053  27.939  27.773  1.00  0.00     0.029 A 
ATOM     56  N   UNL A   1      41.813  27.747  29.089  1.00  0.00    -0.354 N 
ATOM     57  C   UNL A   1      41.441  29.942  33.189  1.00  0.00     0.074 A 
ATOM     58  C   UNL A   1      40.168  29.398  33.567  1.00  0.00     0.031 C 
ATOM     59  C   UNL A   1      40.800  26.917  27.292  1.00  0.00     0.029 A 
ATOM     60  C   UNL A   1      41.933  26.704  28.175  1.00  0.00     0.049 A 
ATOM     61  H   UNL A   1      42.537  28.009  29.702  1.00  0.00     0.167 HD
ATOM     62  C   UNL A   1      42.627  29.937  33.849  1.00  0.00     0.034 A 
ATOM     63  C   UNL A   1      42.838  25.690  28.225  1.00  0.00     0.034 A 
ATOM     64  C   UNL A   1      43.668  30.522  33.037  1.00  0.00     0.049 A 
ATOM     65  C   UNL A   1      43.930  26.122  29.132  1.00  0.00     0.074 A 
ATOM     66  C   UNL A   1      43.847  31.745  32.422  1.00  0.00     0.029 A 
ATOM     67  N   UNL A   1      44.522  29.646  32.410  1.00  0.00    -0.354 N 
ATOM     68  N   UNL A   1      44.742  27.103  28.851  1.00  0.00    -0.248 NA
ATOM     69  C   UNL A   1      43.800  25.802  30.547  1.00  0.00     0.031 C 
ATOM     70  C   UNL A   1      44.455  31.440  31.169  1.00  0.00     0.029 A 
ATOM     71  C   UNL A   1      44.695  30.066  31.119  1.00  0.00     0.049 A 
ATOM     72  H   UNL A   1      44.937  28.852  32.819  1.00  0.00     0.167 HD
ATOM     73  C   UNL A   1      44.829  27.820  30.037  1.00  0.00     0.074 A 
ATOM     74  C   UNL A   1      44.314  26.920  31.069  1.00  0.00     0.031 C 
ATOM     75  C   UNL A   1      45.005  29.175  30.023  1.00  0.00     0.034 A 
BRANCH  62  76
ATOM     76  C   UNL A   1      42.947  29.015  35.006  1.00  0.00     0.023 A 
ATOM     77  C   UNL A   1      43.642  29.588  36.093  1.00  0.00     0.012 A 
ATOM     78  C   UNL A   1      42.873  27.601  34.969  1.00  0.00     0.148 A 
ATOM     79  C   UNL A   1      44.291  28.797  37.045  1.00  0.00     0.002 A 
ATOM     80  C   UNL A   1      43.455  26.820  35.958  1.00  0.00     0.091 A 
ATOM     81  F   UNL A   1      42.353  26.974  33.915  1.00  0.00    -0.205 F 
ATOM     82  C   UNL A   1      44.197  27.412  36.979  1.00  0.00     0.022 A 
BRANCH  80  83
ATOM     83  S   UNL A   1      43.333  25.025  35.936  1.00  0.00     0.127 S 
ATOM     84  O   UNL A   1      41.906  24.827  36.171  1.00  0.00    -0.237 OA
ATOM     85  O   UNL A   1      43.789  24.716  34.581  1.00  0.00    -0.237 OA
ATOM     86  O   UNL A   1      44.224  24.550  36.987  1.00  0.00    -0.744 OA
ENDBRANCH  80  83
ENDBRANCH  62  76
BRANCH  63  87
ATOM     87  C   UNL A   1      42.691  24.268  27.818  1.00  0.00     0.023 A 
ATOM     88  C   UNL A   1      41.520  23.555  28.155  1.00  0.00     0.012 A 
ATOM     89  C   UNL A   1      43.559  23.694  26.863  1.00  0.00     0.148 A 
ATOM     90  C   UNL A   1      41.214  22.331  27.542  1.00  0.00     0.002 A 
ATOM     91  C   UNL A   1      43.256  22.475  26.262  1.00  0.00     0.091 A 
ATOM     92  F   UNL A   1      44.634  24.388  26.470  1.00  0.00    -0.205 F 
ATOM     93  C   UNL A   1      42.078  21.794  26.592  1.00  0.00     0.022 A 
BRANCH  91  94
ATOM     94  S   UNL A   1      44.310  21.744  25.001  1.00  0.00     0.127 S 
ATOM     95  O   UNL A   1      44.106  22.653  23.873  1.00  0.00    -0.237 OA
ATOM     96  O   UNL A   1      45.629  21.826  25.624  1.00  0.00    -0.237 OA
ATOM     97  O   UNL A   1      43.799  20.396  24.785  1.00  0.00    -0.744 OA
ENDBRANCH  91  94
ENDBRANCH  63  87
BRANCH  75  98
ATOM     98  C   UNL A   1      45.342  29.831  28.707  1.00  0.00     0.023 A 
ATOM     99  C   UNL A   1      44.363  30.214  27.765  1.00  0.00     0.012 A 
ATOM    100  C   UNL A   1      46.672  30.224  28.499  1.00  0.00     0.148 A 
ATOM    101  C   UNL A   1      44.712  30.954  26.630  1.00  0.00     0.002 A 
ATOM    102  C   UNL A   1      47.008  30.998  27.398  1.00  0.00     0.091 A 
ATOM    103  F   UNL A   1      47.588  29.855  29.408  1.00  0.00    -0.205 F 
ATOM    104  C   UNL A   1      46.033  31.358  26.454  1.00  0.00     0.022 A 
BRANCH 102 105
ATOM    105  S   UNL A   1      48.665  31.650  27.190  1.00  0.00     0.127 S 
ATOM    106  O   UNL A   1      48.963  32.154  28.529  1.00  0.00    -0.237 OA
ATOM    107  O   UNL A   1      49.423  30.460  26.799  1.00  0.00    -0.237 OA
ATOM    108  O   UNL A   1      48.570  32.662  26.145  1.00  0.00    -0.744 OA
ENDBRANCH 102 105
ENDBRANCH  75  98
ENDBRANCH  49  50
ENDBRANCH  42  44
ENDBRANCH  41  42
ENDBRANCH  40  41
ENDBRANCH  39  40
ENDBRANCH   1  39
TORSDOF 22
ENDMDL
