MODEL 1
REMARK VINA RESULT:     -11.9      0.000      0.000
REMARK SMILES O=C(OCCOCCOC(=O)c1ccc(-c2c3nc(c(-c4cccc(S(=O)(=O)[O-])c4F)c4ccc([nH]4)c(-c4cccc(S(=O)(=O)[O-])c4F)c4nc(c(-c5cccc(S(=O)(=O)[O-])c5F)c5ccc2[nH]5)C=C4)C=C3)cc1)C1=C([O-])N(c2ccc3c(c2)OCCO3)CC1
REMARK SMILES IDX 7 1 6 2 5 3 4 4 3 5 2 6 1 7 75 8 76 9 90 10 77 11 78 12
REMARK SMILES IDX 89 13 79 14 80 15 84 16 81 17 83 18 82 19 85 20 88 21 86 22
REMARK SMILES IDX 87 23 8 24 9 25 10 26 11 27 12 28 13 29 74 30 14 31 73 32
REMARK SMILES IDX 15 33 16 34 17 35 67 36 18 37 72 38 66 39 68 40 19 41 71 42
REMARK SMILES IDX 65 43 64 44 20 46 52 47 32 48 51 49 33 50 36 51 50 52 69 53
REMARK SMILES IDX 34 54 35 55 49 57 70 58 37 59 21 60 22 61 30 62 23 63 25 64
REMARK SMILES IDX 31 65 24 66 26 67 27 68 28 69 29 70 53 71 54 72 62 73 55 74
REMARK SMILES IDX 57 75 63 76 56 77 58 78 59 79 60 80 61 81 38 82 39 83 47 84
REMARK SMILES IDX 40 85 42 86 48 87 41 88 43 89 44 90 45 91 46 92
REMARK H PARENT 68 45 36 56
REMARK Flexibility Score: inf
ROOT
ATOM      1  C   UNL A   1      35.804  20.507  25.064  1.00  0.00     0.202 C 
ENDROOT
BRANCH   1   2
ATOM      2  O   UNL A   1      35.451  21.557  25.982  1.00  0.00    -0.374 OA
BRANCH   2   3
ATOM      3  C   UNL A   1      34.136  21.446  26.537  1.00  0.00     0.202 C 
BRANCH   3   4
ATOM      4  C   UNL A   1      33.236  20.447  25.805  1.00  0.00     0.261 C 
BRANCH   4   5
ATOM      5  O   UNL A   1      32.188  21.111  25.082  1.00  0.00    -0.460 OA
BRANCH   5   6
ATOM      6  C   UNL A   1      32.236  21.411  23.763  1.00  0.00     0.335 C 
ATOM      7  O   UNL A   1      32.347  20.505  22.942  1.00  0.00    -0.247 OA
BRANCH   6   8
ATOM      8  C   UNL A   1      32.112  22.805  23.335  1.00  0.00     0.048 C 
ATOM      9  C   UNL A   1      33.193  23.571  23.113  1.00  0.00    -0.026 C 
ATOM     10  C   UNL A   1      30.899  23.692  23.374  1.00  0.00     0.066 C 
ATOM     11  O   UNL A   1      34.489  23.173  23.141  1.00  0.00    -0.860 OA
ATOM     12  N   UNL A   1      32.874  24.881  22.836  1.00  0.00    -0.354 N 
ATOM     13  C   UNL A   1      31.403  25.020  22.790  1.00  0.00     0.126 C 
BRANCH  12  14
ATOM     14  C   UNL A   1      33.476  26.026  23.402  1.00  0.00     0.044 A 
ATOM     15  C   UNL A   1      33.596  27.172  22.604  1.00  0.00     0.030 A 
ATOM     16  C   UNL A   1      33.622  26.121  24.792  1.00  0.00     0.076 A 
ATOM     17  C   UNL A   1      33.684  28.428  23.194  1.00  0.00     0.052 A 
ATOM     18  C   UNL A   1      33.596  27.375  25.382  1.00  0.00     0.163 A 
ATOM     19  C   UNL A   1      33.576  28.519  24.577  1.00  0.00     0.161 A 
ATOM     20  O   UNL A   1      33.407  27.403  26.739  1.00  0.00    -0.486 OA
ATOM     21  O   UNL A   1      33.271  29.752  25.103  1.00  0.00    -0.486 OA
ATOM     22  C   UNL A   1      32.921  28.663  27.223  1.00  0.00     0.271 C 
ATOM     23  C   UNL A   1      32.296  29.522  26.131  1.00  0.00     0.271 C 
ENDBRANCH  12  14
ENDBRANCH   6   8
ENDBRANCH   5   6
ENDBRANCH   4   5
ENDBRANCH   3   4
ENDBRANCH   2   3
ENDBRANCH   1   2
BRANCH   1  24
ATOM     24  C   UNL A   1      37.316  20.295  24.974  1.00  0.00     0.261 C 
BRANCH  24  25
ATOM     25  O   UNL A   1      37.986  21.382  25.620  1.00  0.00    -0.460 OA
BRANCH  25  26
ATOM     26  C   UNL A   1      39.221  21.083  26.100  1.00  0.00     0.338 C 
ATOM     27  O   UNL A   1      39.832  20.048  25.972  1.00  0.00    -0.246 OA
BRANCH  26  28
ATOM     28  C   UNL A   1      39.811  22.337  26.625  1.00  0.00     0.060 A 
ATOM     29  C   UNL A   1      39.271  23.547  26.169  1.00  0.00     0.016 A 
ATOM     30  C   UNL A   1      40.824  22.327  27.588  1.00  0.00     0.016 A 
ATOM     31  C   UNL A   1      39.763  24.755  26.652  1.00  0.00     0.010 A 
ATOM     32  C   UNL A   1      41.324  23.536  28.065  1.00  0.00     0.010 A 
ATOM     33  C   UNL A   1      40.819  24.749  27.570  1.00  0.00    -0.014 A 
BRANCH  33  34
ATOM     34  C   UNL A   1      41.559  25.997  27.843  1.00  0.00     0.031 A 
ATOM     35  C   UNL A   1      40.834  27.086  28.579  1.00  0.00     0.074 A 
ATOM     36  C   UNL A   1      42.821  26.164  27.414  1.00  0.00     0.049 A 
ATOM     37  N   UNL A   1      41.229  28.294  28.872  1.00  0.00    -0.248 NA
ATOM     38  C   UNL A   1      39.468  26.769  29.039  1.00  0.00     0.031 C 
ATOM     39  C   UNL A   1      43.608  25.168  26.688  1.00  0.00     0.029 A 
ATOM     40  N   UNL A   1      43.648  27.253  27.502  1.00  0.00    -0.354 N 
ATOM     41  C   UNL A   1      40.154  28.893  29.516  1.00  0.00     0.074 A 
ATOM     42  C   UNL A   1      39.085  27.922  29.563  1.00  0.00     0.031 C 
ATOM     43  C   UNL A   1      44.797  25.708  26.363  1.00  0.00     0.029 A 
ATOM     44  C   UNL A   1      44.839  27.089  26.837  1.00  0.00     0.049 A 
ATOM     45  H   UNL A   1      43.412  28.073  27.993  1.00  0.00     0.167 HD
ATOM     46  C   UNL A   1      40.071  30.139  30.034  1.00  0.00     0.034 A 
ATOM     47  C   UNL A   1      45.834  27.972  26.617  1.00  0.00     0.034 A 
ATOM     48  C   UNL A   1      41.146  31.090  29.989  1.00  0.00     0.049 A 
ATOM     49  C   UNL A   1      45.711  29.361  27.190  1.00  0.00     0.074 A 
ATOM     50  C   UNL A   1      41.190  32.364  30.522  1.00  0.00     0.029 A 
ATOM     51  N   UNL A   1      42.362  30.872  29.359  1.00  0.00    -0.354 N 
ATOM     52  N   UNL A   1      44.738  29.878  27.904  1.00  0.00    -0.248 NA
ATOM     53  C   UNL A   1      46.834  30.279  26.956  1.00  0.00     0.031 C 
ATOM     54  C   UNL A   1      42.426  32.928  30.190  1.00  0.00     0.029 A 
ATOM     55  C   UNL A   1      43.163  31.993  29.479  1.00  0.00     0.049 A 
ATOM     56  H   UNL A   1      42.617  30.043  28.894  1.00  0.00     0.167 HD
ATOM     57  C   UNL A   1      45.148  31.165  28.234  1.00  0.00     0.074 A 
ATOM     58  C   UNL A   1      46.466  31.342  27.658  1.00  0.00     0.031 C 
ATOM     59  C   UNL A   1      44.493  32.121  28.939  1.00  0.00     0.034 A 
BRANCH  46  60
ATOM     60  C   UNL A   1      38.781  30.530  30.703  1.00  0.00     0.023 A 
ATOM     61  C   UNL A   1      38.607  30.288  32.081  1.00  0.00     0.012 A 
ATOM     62  C   UNL A   1      37.754  31.162  29.976  1.00  0.00     0.148 A 
ATOM     63  C   UNL A   1      37.418  30.639  32.718  1.00  0.00     0.002 A 
ATOM     64  C   UNL A   1      36.591  31.550  30.628  1.00  0.00     0.091 A 
ATOM     65  F   UNL A   1      37.928  31.355  28.661  1.00  0.00    -0.205 F 
ATOM     66  C   UNL A   1      36.416  31.278  31.995  1.00  0.00     0.022 A 
BRANCH  64  67
ATOM     67  S   UNL A   1      35.272  32.447  29.803  1.00  0.00     0.127 S 
ATOM     68  O   UNL A   1      34.346  32.694  30.908  1.00  0.00    -0.237 OA
ATOM     69  O   UNL A   1      35.970  33.637  29.315  1.00  0.00    -0.237 OA
ATOM     70  O   UNL A   1      34.775  31.562  28.758  1.00  0.00    -0.744 OA
ENDBRANCH  64  67
ENDBRANCH  46  60
BRANCH  47  71
ATOM     71  C   UNL A   1      47.043  27.561  25.849  1.00  0.00     0.023 A 
ATOM     72  C   UNL A   1      48.076  26.862  26.503  1.00  0.00     0.012 A 
ATOM     73  C   UNL A   1      47.169  27.846  24.475  1.00  0.00     0.148 A 
ATOM     74  C   UNL A   1      49.226  26.480  25.810  1.00  0.00     0.002 A 
ATOM     75  C   UNL A   1      48.293  27.415  23.779  1.00  0.00     0.091 A 
ATOM     76  F   UNL A   1      46.183  28.527  23.874  1.00  0.00    -0.205 F 
ATOM     77  C   UNL A   1      49.330  26.746  24.448  1.00  0.00     0.022 A 
BRANCH  75  78
ATOM     78  S   UNL A   1      48.457  27.604  22.001  1.00  0.00     0.127 S 
ATOM     79  O   UNL A   1      47.175  28.204  21.644  1.00  0.00    -0.237 OA
ATOM     80  O   UNL A   1      49.608  28.502  21.900  1.00  0.00    -0.237 OA
ATOM     81  O   UNL A   1      48.695  26.263  21.484  1.00  0.00    -0.744 OA
ENDBRANCH  75  78
ENDBRANCH  47  71
BRANCH  59  82
ATOM     82  C   UNL A   1      45.201  33.431  29.166  1.00  0.00     0.023 A 
ATOM     83  C   UNL A   1      45.966  33.622  30.334  1.00  0.00     0.012 A 
ATOM     84  C   UNL A   1      45.177  34.437  28.181  1.00  0.00     0.148 A 
ATOM     85  C   UNL A   1      46.669  34.810  30.531  1.00  0.00     0.002 A 
ATOM     86  C   UNL A   1      45.921  35.596  28.361  1.00  0.00     0.091 A 
ATOM     87  F   UNL A   1      44.429  34.240  27.084  1.00  0.00    -0.205 F 
ATOM     88  C   UNL A   1      46.657  35.790  29.541  1.00  0.00     0.022 A 
BRANCH  86  89
ATOM     89  S   UNL A   1      46.046  36.864  27.094  1.00  0.00     0.127 S 
ATOM     90  O   UNL A   1      46.301  36.064  25.898  1.00  0.00    -0.237 OA
ATOM     91  O   UNL A   1      44.721  37.483  27.143  1.00  0.00    -0.237 OA
ATOM     92  O   UNL A   1      47.135  37.737  27.507  1.00  0.00    -0.744 OA
ENDBRANCH  86  89
ENDBRANCH  59  82
ENDBRANCH  33  34
ENDBRANCH  26  28
ENDBRANCH  25  26
ENDBRANCH  24  25
ENDBRANCH   1  24
TORSDOF 18
ENDMDL
MODEL 2
REMARK VINA RESULT:     -11.8      1.607      2.136
REMARK SMILES O=C(OCCOCCOC(=O)c1ccc(-c2c3nc(c(-c4cccc(S(=O)(=O)[O-])c4F)c4ccc([nH]4)c(-c4cccc(S(=O)(=O)[O-])c4F)c4nc(c(-c5cccc(S(=O)(=O)[O-])c5F)c5ccc2[nH]5)C=C4)C=C3)cc1)C1=C([O-])N(c2ccc3c(c2)OCCO3)CC1
REMARK SMILES IDX 7 1 6 2 5 3 4 4 3 5 2 6 1 7 75 8 76 9 90 10 77 11 78 12
REMARK SMILES IDX 89 13 79 14 80 15 84 16 81 17 83 18 82 19 85 20 88 21 86 22
REMARK SMILES IDX 87 23 8 24 9 25 10 26 11 27 12 28 13 29 74 30 14 31 73 32
REMARK SMILES IDX 15 33 16 34 17 35 67 36 18 37 72 38 66 39 68 40 19 41 71 42
REMARK SMILES IDX 65 43 64 44 20 46 52 47 32 48 51 49 33 50 36 51 50 52 69 53
REMARK SMILES IDX 34 54 35 55 49 57 70 58 37 59 21 60 22 61 30 62 23 63 25 64
REMARK SMILES IDX 31 65 24 66 26 67 27 68 28 69 29 70 53 71 54 72 62 73 55 74
REMARK SMILES IDX 57 75 63 76 56 77 58 78 59 79 60 80 61 81 38 82 39 83 47 84
REMARK SMILES IDX 40 85 42 86 48 87 41 88 43 89 44 90 45 91 46 92
REMARK H PARENT 68 45 36 56
REMARK Flexibility Score: inf
ROOT
ATOM      1  C   UNL A   1      35.870  22.133  23.962  1.00  0.00     0.202 C 
ENDROOT
BRANCH   1   2
ATOM      2  O   UNL A   1      34.770  22.353  24.862  1.00  0.00    -0.374 OA
BRANCH   2   3
ATOM      3  C   UNL A   1      34.051  21.168  25.226  1.00  0.00     0.202 C 
BRANCH   3   4
ATOM      4  C   UNL A   1      32.758  21.440  25.999  1.00  0.00     0.261 C 
BRANCH   4   5
ATOM      5  O   UNL A   1      32.186  22.707  25.644  1.00  0.00    -0.460 OA
BRANCH   5   6
ATOM      6  C   UNL A   1      31.959  23.719  26.514  1.00  0.00     0.335 C 
ATOM      7  O   UNL A   1      31.428  23.476  27.595  1.00  0.00    -0.247 OA
BRANCH   6   8
ATOM      8  C   UNL A   1      32.389  25.075  26.173  1.00  0.00     0.048 C 
ATOM      9  C   UNL A   1      31.502  26.046  25.900  1.00  0.00    -0.026 C 
ATOM     10  C   UNL A   1      33.755  25.549  25.763  1.00  0.00     0.066 C 
ATOM     11  O   UNL A   1      30.152  25.961  25.996  1.00  0.00    -0.860 OA
ATOM     12  N   UNL A   1      32.098  27.215  25.485  1.00  0.00    -0.354 N 
ATOM     13  C   UNL A   1      33.565  27.058  25.549  1.00  0.00     0.126 C 
BRANCH  12  14
ATOM     14  C   UNL A   1      31.717  27.999  24.374  1.00  0.00     0.044 A 
ATOM     15  C   UNL A   1      31.524  27.354  23.145  1.00  0.00     0.030 A 
ATOM     16  C   UNL A   1      31.215  29.293  24.575  1.00  0.00     0.076 A 
ATOM     17  C   UNL A   1      30.690  27.917  22.184  1.00  0.00     0.052 A 
ATOM     18  C   UNL A   1      30.298  29.801  23.669  1.00  0.00     0.163 A 
ATOM     19  C   UNL A   1      30.004  29.083  22.504  1.00  0.00     0.161 A 
ATOM     20  O   UNL A   1      29.594  30.905  24.073  1.00  0.00    -0.486 OA
ATOM     21  O   UNL A   1      28.914  29.402  21.729  1.00  0.00    -0.486 OA
ATOM     22  C   UNL A   1      28.371  31.101  23.348  1.00  0.00     0.271 C 
ATOM     23  C   UNL A   1      27.891  29.844  22.634  1.00  0.00     0.271 C 
ENDBRANCH  12  14
ENDBRANCH   6   8
ENDBRANCH   5   6
ENDBRANCH   4   5
ENDBRANCH   3   4
ENDBRANCH   2   3
ENDBRANCH   1   2
BRANCH   1  24
ATOM     24  C   UNL A   1      36.833  21.059  24.470  1.00  0.00     0.261 C 
BRANCH  24  25
ATOM     25  O   UNL A   1      37.380  21.471  25.727  1.00  0.00    -0.460 OA
BRANCH  25  26
ATOM     26  C   UNL A   1      38.693  21.171  25.901  1.00  0.00     0.338 C 
ATOM     27  O   UNL A   1      39.286  20.195  25.505  1.00  0.00    -0.246 OA
BRANCH  26  28
ATOM     28  C   UNL A   1      39.352  22.367  26.474  1.00  0.00     0.060 A 
ATOM     29  C   UNL A   1      38.827  23.621  26.135  1.00  0.00     0.016 A 
ATOM     30  C   UNL A   1      40.417  22.262  27.374  1.00  0.00     0.016 A 
ATOM     31  C   UNL A   1      39.385  24.778  26.669  1.00  0.00     0.010 A 
ATOM     32  C   UNL A   1      40.983  23.419  27.902  1.00  0.00     0.010 A 
ATOM     33  C   UNL A   1      40.490  24.678  27.521  1.00  0.00    -0.014 A 
BRANCH  33  34
ATOM     34  C   UNL A   1      41.285  25.882  27.833  1.00  0.00     0.031 A 
ATOM     35  C   UNL A   1      40.602  26.985  28.590  1.00  0.00     0.074 A 
ATOM     36  C   UNL A   1      42.559  26.000  27.423  1.00  0.00     0.049 A 
ATOM     37  N   UNL A   1      41.051  28.165  28.918  1.00  0.00    -0.248 NA
ATOM     38  C   UNL A   1      39.218  26.722  29.026  1.00  0.00     0.031 C 
ATOM     39  C   UNL A   1      43.306  24.987  26.680  1.00  0.00     0.029 A 
ATOM     40  N   UNL A   1      43.434  27.046  27.548  1.00  0.00    -0.354 N 
ATOM     41  C   UNL A   1      39.997  28.798  29.566  1.00  0.00     0.074 A 
ATOM     42  C   UNL A   1      38.883  27.878  29.576  1.00  0.00     0.031 C 
ATOM     43  C   UNL A   1      44.523  25.478  26.382  1.00  0.00     0.029 A 
ATOM     44  C   UNL A   1      44.625  26.844  26.892  1.00  0.00     0.049 A 
ATOM     45  H   UNL A   1      43.231  27.864  28.057  1.00  0.00     0.167 HD
ATOM     46  C   UNL A   1      39.966  30.033  30.114  1.00  0.00     0.034 A 
ATOM     47  C   UNL A   1      45.662  27.684  26.705  1.00  0.00     0.034 A 
ATOM     48  C   UNL A   1      41.085  30.933  30.106  1.00  0.00     0.049 A 
ATOM     49  C   UNL A   1      45.598  29.062  27.313  1.00  0.00     0.074 A 
ATOM     50  C   UNL A   1      41.183  32.190  30.672  1.00  0.00     0.029 A 
ATOM     51  N   UNL A   1      42.297  30.674  29.484  1.00  0.00    -0.354 N 
ATOM     52  N   UNL A   1      44.642  29.606  28.030  1.00  0.00    -0.248 NA
ATOM     53  C   UNL A   1      46.766  29.931  27.115  1.00  0.00     0.031 C 
ATOM     54  C   UNL A   1      42.448  32.704  30.368  1.00  0.00     0.029 A 
ATOM     55  C   UNL A   1      43.148  31.752  29.641  1.00  0.00     0.049 A 
ATOM     56  H   UNL A   1      42.518  29.846  29.001  1.00  0.00     0.167 HD
ATOM     57  C   UNL A   1      45.107  30.863  28.398  1.00  0.00     0.074 A 
ATOM     58  C   UNL A   1      46.439  30.993  27.841  1.00  0.00     0.031 C 
ATOM     59  C   UNL A   1      44.489  31.832  29.119  1.00  0.00     0.034 A 
BRANCH  46  60
ATOM     60  C   UNL A   1      38.688  30.468  30.779  1.00  0.00     0.023 A 
ATOM     61  C   UNL A   1      38.489  30.207  32.151  1.00  0.00     0.012 A 
ATOM     62  C   UNL A   1      37.697  31.158  30.056  1.00  0.00     0.148 A 
ATOM     63  C   UNL A   1      37.311  30.597  32.784  1.00  0.00     0.002 A 
ATOM     64  C   UNL A   1      36.546  31.585  30.704  1.00  0.00     0.091 A 
ATOM     65  F   UNL A   1      37.892  31.369  28.747  1.00  0.00    -0.205 F 
ATOM     66  C   UNL A   1      36.345  31.294  32.064  1.00  0.00     0.022 A 
BRANCH  64  67
ATOM     67  S   UNL A   1      35.276  32.555  29.885  1.00  0.00     0.127 S 
ATOM     68  O   UNL A   1      34.308  32.746  30.965  1.00  0.00    -0.237 OA
ATOM     69  O   UNL A   1      36.010  33.762  29.505  1.00  0.00    -0.237 OA
ATOM     70  O   UNL A   1      34.811  31.748  28.766  1.00  0.00    -0.744 OA
ENDBRANCH  64  67
ENDBRANCH  46  60
BRANCH  47  71
ATOM     71  C   UNL A   1      46.860  27.236  25.941  1.00  0.00     0.023 A 
ATOM     72  C   UNL A   1      47.812  26.406  26.565  1.00  0.00     0.012 A 
ATOM     73  C   UNL A   1      47.055  27.615  24.598  1.00  0.00     0.148 A 
ATOM     74  C   UNL A   1      48.950  25.985  25.875  1.00  0.00     0.002 A 
ATOM     75  C   UNL A   1      48.163  27.148  23.900  1.00  0.00     0.091 A 
ATOM     76  F   UNL A   1      46.146  28.418  24.027  1.00  0.00    -0.205 F 
ATOM     77  C   UNL A   1      49.121  26.347  24.542  1.00  0.00     0.022 A 
BRANCH  75  78
ATOM     78  S   UNL A   1      48.402  27.460  22.148  1.00  0.00     0.127 S 
ATOM     79  O   UNL A   1      49.567  28.340  22.157  1.00  0.00    -0.237 OA
ATOM     80  O   UNL A   1      48.651  26.113  21.635  1.00  0.00    -0.237 OA
ATOM     81  O   UNL A   1      47.159  28.060  21.683  1.00  0.00    -0.744 OA
ENDBRANCH  75  78
ENDBRANCH  47  71
BRANCH  59  82
ATOM     82  C   UNL A   1      45.256  33.100  29.388  1.00  0.00     0.023 A 
ATOM     83  C   UNL A   1      46.210  33.137  30.423  1.00  0.00     0.012 A 
ATOM     84  C   UNL A   1      45.087  34.226  28.558  1.00  0.00     0.148 A 
ATOM     85  C   UNL A   1      46.964  34.289  30.648  1.00  0.00     0.002 A 
ATOM     86  C   UNL A   1      45.877  35.351  28.756  1.00  0.00     0.091 A 
ATOM     87  F   UNL A   1      44.161  34.174  27.590  1.00  0.00    -0.205 F 
ATOM     88  C   UNL A   1      46.807  35.390  29.808  1.00  0.00     0.022 A 
BRANCH  86  89
ATOM     89  S   UNL A   1      45.815  36.773  27.659  1.00  0.00     0.127 S 
ATOM     90  O   UNL A   1      46.066  36.156  26.359  1.00  0.00    -0.237 OA
ATOM     91  O   UNL A   1      44.447  37.254  27.853  1.00  0.00    -0.237 OA
ATOM     92  O   UNL A   1      46.848  37.686  28.128  1.00  0.00    -0.744 OA
ENDBRANCH  86  89
ENDBRANCH  59  82
ENDBRANCH  33  34
ENDBRANCH  26  28
ENDBRANCH  25  26
ENDBRANCH  24  25
ENDBRANCH   1  24
TORSDOF 18
ENDMDL
MODEL 3
REMARK VINA RESULT:     -11.7      1.517      2.084
REMARK SMILES O=C(OCCOCCOC(=O)c1ccc(-c2c3nc(c(-c4cccc(S(=O)(=O)[O-])c4F)c4ccc([nH]4)c(-c4cccc(S(=O)(=O)[O-])c4F)c4nc(c(-c5cccc(S(=O)(=O)[O-])c5F)c5ccc2[nH]5)C=C4)C=C3)cc1)C1=C([O-])N(c2ccc3c(c2)OCCO3)CC1
REMARK SMILES IDX 7 1 6 2 5 3 4 4 3 5 2 6 1 7 75 8 76 9 90 10 77 11 78 12
REMARK SMILES IDX 89 13 79 14 80 15 84 16 81 17 83 18 82 19 85 20 88 21 86 22
REMARK SMILES IDX 87 23 8 24 9 25 10 26 11 27 12 28 13 29 74 30 14 31 73 32
REMARK SMILES IDX 15 33 16 34 17 35 67 36 18 37 72 38 66 39 68 40 19 41 71 42
REMARK SMILES IDX 65 43 64 44 20 46 52 47 32 48 51 49 33 50 36 51 50 52 69 53
REMARK SMILES IDX 34 54 35 55 49 57 70 58 37 59 21 60 22 61 30 62 23 63 25 64
REMARK SMILES IDX 31 65 24 66 26 67 27 68 28 69 29 70 53 71 54 72 62 73 55 74
REMARK SMILES IDX 57 75 63 76 56 77 58 78 59 79 60 80 61 81 38 82 39 83 47 84
REMARK SMILES IDX 40 85 42 86 48 87 41 88 43 89 44 90 45 91 46 92
REMARK H PARENT 68 45 36 56
REMARK Flexibility Score: inf
ROOT
ATOM      1  C   UNL A   1      35.618  21.608  26.111  1.00  0.00     0.202 C 
ENDROOT
BRANCH   1   2
ATOM      2  O   UNL A   1      34.257  21.145  26.067  1.00  0.00    -0.374 OA
BRANCH   2   3
ATOM      3  C   UNL A   1      33.872  20.540  24.827  1.00  0.00     0.202 C 
BRANCH   3   4
ATOM      4  C   UNL A   1      33.149  21.491  23.871  1.00  0.00     0.261 C 
BRANCH   4   5
ATOM      5  O   UNL A   1      33.488  22.861  24.131  1.00  0.00    -0.460 OA
BRANCH   5   6
ATOM      6  C   UNL A   1      34.173  23.658  23.277  1.00  0.00     0.335 C 
ATOM      7  O   UNL A   1      35.309  23.339  22.935  1.00  0.00    -0.247 OA
BRANCH   6   8
ATOM      8  C   UNL A   1      33.536  24.863  22.744  1.00  0.00     0.048 C 
ATOM      9  C   UNL A   1      33.358  25.958  23.502  1.00  0.00    -0.026 C 
ATOM     10  C   UNL A   1      32.724  25.015  21.489  1.00  0.00     0.066 C 
ATOM     11  O   UNL A   1      33.807  26.151  24.766  1.00  0.00    -0.860 OA
ATOM     12  N   UNL A   1      32.636  26.940  22.863  1.00  0.00    -0.354 N 
ATOM     13  C   UNL A   1      32.344  26.503  21.482  1.00  0.00     0.126 C 
BRANCH  12  14
ATOM     14  C   UNL A   1      31.556  27.670  23.405  1.00  0.00     0.044 A 
ATOM     15  C   UNL A   1      31.831  28.615  24.404  1.00  0.00     0.030 A 
ATOM     16  C   UNL A   1      30.328  27.700  22.730  1.00  0.00     0.076 A 
ATOM     17  C   UNL A   1      30.969  29.686  24.609  1.00  0.00     0.052 A 
ATOM     18  C   UNL A   1      29.526  28.824  22.854  1.00  0.00     0.163 A 
ATOM     19  C   UNL A   1      29.880  29.833  23.756  1.00  0.00     0.161 A 
ATOM     20  O   UNL A   1      28.517  28.954  21.934  1.00  0.00    -0.486 OA
ATOM     21  O   UNL A   1      29.281  31.069  23.711  1.00  0.00    -0.486 OA
ATOM     22  C   UNL A   1      28.040  30.300  21.796  1.00  0.00     0.271 C 
ATOM     23  C   UNL A   1      29.018  31.340  22.326  1.00  0.00     0.271 C 
ENDBRANCH  12  14
ENDBRANCH   6   8
ENDBRANCH   5   6
ENDBRANCH   4   5
ENDBRANCH   3   4
ENDBRANCH   2   3
ENDBRANCH   1   2
BRANCH   1  24
ATOM     24  C   UNL A   1      36.553  20.748  25.259  1.00  0.00     0.261 C 
BRANCH  24  25
ATOM     25  O   UNL A   1      37.779  21.456  25.043  1.00  0.00    -0.460 OA
BRANCH  25  26
ATOM     26  C   UNL A   1      38.820  21.035  25.808  1.00  0.00     0.338 C 
ATOM     27  O   UNL A   1      39.282  19.920  25.876  1.00  0.00    -0.246 OA
BRANCH  26  28
ATOM     28  C   UNL A   1      39.460  22.237  26.390  1.00  0.00     0.060 A 
ATOM     29  C   UNL A   1      38.924  23.486  26.049  1.00  0.00     0.016 A 
ATOM     30  C   UNL A   1      40.518  22.141  27.299  1.00  0.00     0.016 A 
ATOM     31  C   UNL A   1      39.464  24.647  26.591  1.00  0.00     0.010 A 
ATOM     32  C   UNL A   1      41.067  23.304  27.834  1.00  0.00     0.010 A 
ATOM     33  C   UNL A   1      40.563  24.558  27.452  1.00  0.00    -0.014 A 
BRANCH  33  34
ATOM     34  C   UNL A   1      41.341  25.770  27.775  1.00  0.00     0.031 A 
ATOM     35  C   UNL A   1      40.645  26.855  28.545  1.00  0.00     0.074 A 
ATOM     36  C   UNL A   1      42.612  25.910  27.362  1.00  0.00     0.049 A 
ATOM     37  N   UNL A   1      41.078  28.038  28.884  1.00  0.00    -0.248 NA
ATOM     38  C   UNL A   1      39.266  26.568  28.983  1.00  0.00     0.031 C 
ATOM     39  C   UNL A   1      43.371  24.916  26.606  1.00  0.00     0.029 A 
ATOM     40  N   UNL A   1      43.473  26.968  27.496  1.00  0.00    -0.354 N 
ATOM     41  C   UNL A   1      40.017  28.649  29.541  1.00  0.00     0.074 A 
ATOM     42  C   UNL A   1      38.916  27.713  29.545  1.00  0.00     0.031 C 
ATOM     43  C   UNL A   1      44.581  25.427  26.311  1.00  0.00     0.029 A 
ATOM     44  C   UNL A   1      44.664  26.789  26.834  1.00  0.00     0.049 A 
ATOM     45  H   UNL A   1      43.260  27.777  28.014  1.00  0.00     0.167 HD
ATOM     46  C   UNL A   1      39.970  29.878  30.103  1.00  0.00     0.034 A 
ATOM     47  C   UNL A   1      45.689  27.645  26.654  1.00  0.00     0.034 A 
ATOM     48  C   UNL A   1      41.076  30.794  30.101  1.00  0.00     0.049 A 
ATOM     49  C   UNL A   1      45.607  29.016  27.276  1.00  0.00     0.074 A 
ATOM     50  C   UNL A   1      41.158  32.046  30.680  1.00  0.00     0.029 A 
ATOM     51  N   UNL A   1      42.290  30.558  29.472  1.00  0.00    -0.354 N 
ATOM     52  N   UNL A   1      44.645  29.539  28.000  1.00  0.00    -0.248 NA
ATOM     53  C   UNL A   1      46.761  29.904  27.083  1.00  0.00     0.031 C 
ATOM     54  C   UNL A   1      42.414  32.581  30.377  1.00  0.00     0.029 A 
ATOM     55  C   UNL A   1      43.126  31.647  29.639  1.00  0.00     0.049 A 
ATOM     56  H   UNL A   1      42.522  29.739  28.980  1.00  0.00     0.167 HD
ATOM     57  C   UNL A   1      45.094  30.799  28.380  1.00  0.00     0.074 A 
ATOM     58  C   UNL A   1      46.422  30.953  27.821  1.00  0.00     0.031 C 
ATOM     59  C   UNL A   1      44.464  31.751  29.113  1.00  0.00     0.034 A 
BRANCH  46  60
ATOM     60  C   UNL A   1      38.688  30.287  30.775  1.00  0.00     0.023 A 
ATOM     61  C   UNL A   1      38.457  29.926  32.119  1.00  0.00     0.012 A 
ATOM     62  C   UNL A   1      37.726  31.053  30.090  1.00  0.00     0.148 A 
ATOM     63  C   UNL A   1      37.274  30.291  32.758  1.00  0.00     0.002 A 
ATOM     64  C   UNL A   1      36.570  31.453  30.748  1.00  0.00     0.091 A 
ATOM     65  F   UNL A   1      37.952  31.360  28.805  1.00  0.00    -0.205 F 
ATOM     66  C   UNL A   1      36.337  31.063  32.077  1.00  0.00     0.022 A 
BRANCH  64  67
ATOM     67  S   UNL A   1      35.338  32.511  29.984  1.00  0.00     0.127 S 
ATOM     68  O   UNL A   1      34.914  31.696  28.846  1.00  0.00    -0.237 OA
ATOM     69  O   UNL A   1      34.340  32.638  31.047  1.00  0.00    -0.237 OA
ATOM     70  O   UNL A   1      36.024  33.749  29.643  1.00  0.00    -0.744 OA
ENDBRANCH  64  67
ENDBRANCH  46  60
BRANCH  47  71
ATOM     71  C   UNL A   1      46.891  27.223  25.881  1.00  0.00     0.023 A 
ATOM     72  C   UNL A   1      47.833  26.363  26.478  1.00  0.00     0.012 A 
ATOM     73  C   UNL A   1      47.098  27.654  24.556  1.00  0.00     0.148 A 
ATOM     74  C   UNL A   1      48.975  25.965  25.781  1.00  0.00     0.002 A 
ATOM     75  C   UNL A   1      48.210  27.211  23.849  1.00  0.00     0.091 A 
ATOM     76  F   UNL A   1      46.198  28.485  24.011  1.00  0.00    -0.205 F 
ATOM     77  C   UNL A   1      49.158  26.380  24.465  1.00  0.00     0.022 A 
BRANCH  75  78
ATOM     78  S   UNL A   1      48.465  27.593  22.113  1.00  0.00     0.127 S 
ATOM     79  O   UNL A   1      49.605  28.502  22.171  1.00  0.00    -0.237 OA
ATOM     80  O   UNL A   1      48.758  26.272  21.555  1.00  0.00    -0.237 OA
ATOM     81  O   UNL A   1      47.212  28.175  21.651  1.00  0.00    -0.744 OA
ENDBRANCH  75  78
ENDBRANCH  47  71
BRANCH  59  82
ATOM     82  C   UNL A   1      45.213  33.028  29.393  1.00  0.00     0.023 A 
ATOM     83  C   UNL A   1      46.043  33.120  30.527  1.00  0.00     0.012 A 
ATOM     84  C   UNL A   1      45.158  34.102  28.484  1.00  0.00     0.148 A 
ATOM     85  C   UNL A   1      46.783  34.277  30.769  1.00  0.00     0.002 A 
ATOM     86  C   UNL A   1      45.937  35.231  28.704  1.00  0.00     0.091 A 
ATOM     87  F   UNL A   1      44.349  33.998  27.420  1.00  0.00    -0.205 F 
ATOM     88  C   UNL A   1      46.740  35.326  29.853  1.00  0.00     0.022 A 
BRANCH  86  89
ATOM     89  S   UNL A   1      46.022  36.584  27.526  1.00  0.00     0.127 S 
ATOM     90  O   UNL A   1      47.028  37.448  28.139  1.00  0.00    -0.237 OA
ATOM     91  O   UNL A   1      46.463  35.906  26.306  1.00  0.00    -0.237 OA
ATOM     92  O   UNL A   1      44.679  37.141  27.455  1.00  0.00    -0.744 OA
ENDBRANCH  86  89
ENDBRANCH  59  82
ENDBRANCH  33  34
ENDBRANCH  26  28
ENDBRANCH  25  26
ENDBRANCH  24  25
ENDBRANCH   1  24
TORSDOF 18
ENDMDL
