MODEL 1
REMARK VINA RESULT:     -10.9      0.000      0.000
REMARK SMILES CCC(CC)NC(=O)N[C@@H]1C=C[C@@H](C(=O)OCCOCCOC(=O)c2ccc(-c3c4nc(c(-c5cccc(S(=O)(=O)[O-])c5F)c5ccc([nH]5)c(-c5cccc(S(=O)(=O)[O-])c5F)c5nc(c(-c6cccc(S(=O)(=O)[O-])c6F)c6ccc3[nH]6)C=C5)C=C4)cc2)C1
REMARK SMILES IDX 19 1 18 2 17 3 16 4 14 5 15 6 13 7 10 8 11 9 88 10 12 11
REMARK SMILES IDX 9 12 6 13 7 14 8 16 3 18 2 19 1 20 4 21 5 22 20 23 21 24
REMARK SMILES IDX 22 25 23 26 24 27 25 28 26 29 87 30 27 31 86 32 28 33 29 34
REMARK SMILES IDX 30 35 80 36 31 37 85 38 79 39 81 40 32 41 84 42 78 43 77 44
REMARK SMILES IDX 33 46 65 47 45 48 64 49 46 50 49 51 63 52 82 53 47 54 48 55
REMARK SMILES IDX 62 57 83 58 50 59 34 60 35 61 43 62 36 63 38 64 44 65 37 66
REMARK SMILES IDX 39 67 40 68 41 69 42 70 66 71 67 72 75 73 68 74 70 75 76 76
REMARK SMILES IDX 69 77 71 78 72 79 73 80 74 81 51 82 52 83 60 84 53 85 55 86
REMARK SMILES IDX 61 87 54 88 56 89 57 90 58 91 59 92
REMARK H PARENT 6 15 9 17 81 45 49 56
REMARK Flexibility Score: inf
ROOT
ATOM      1  O   UNL A   1      33.058  28.391  25.488  1.00  0.00    -0.374 OA
ENDROOT
BRANCH   1   2
ATOM      2  C   UNL A   1      32.853  27.278  24.614  1.00  0.00     0.202 C 
BRANCH   2   3
ATOM      3  C   UNL A   1      32.527  27.612  23.155  1.00  0.00     0.261 C 
BRANCH   3   4
ATOM      4  O   UNL A   1      31.712  26.581  22.575  1.00  0.00    -0.463 OA
BRANCH   4   5
ATOM      5  C   UNL A   1      32.373  25.587  21.930  1.00  0.00     0.312 C 
ATOM      6  O   UNL A   1      33.289  25.757  21.132  1.00  0.00    -0.252 OA
BRANCH   5   7
ATOM      7  C   UNL A   1      31.883  24.196  22.320  1.00  0.00     0.124 C 
ATOM      8  C   UNL A   1      32.373  22.806  24.314  1.00  0.00     0.107 C 
ATOM      9  C   UNL A   1      31.112  23.591  24.447  1.00  0.00    -0.006 C 
ATOM     10  C   UNL A   1      32.894  23.202  22.923  1.00  0.00     0.048 C 
ATOM     11  C   UNL A   1      30.836  24.330  23.372  1.00  0.00    -0.014 C 
BRANCH   8  12
ATOM     12  N   UNL A   1      32.039  21.404  24.418  1.00  0.00    -0.332 N 
ATOM     13  N   UNL A   1      33.803  20.393  25.636  1.00  0.00    -0.335 N 
ATOM     14  C   UNL A   1      32.637  20.348  24.982  1.00  0.00     0.315 C 
ATOM     15  H   UNL A   1      34.085  19.507  25.962  1.00  0.00     0.165 HD
ATOM     16  O   UNL A   1      32.064  19.257  24.900  1.00  0.00    -0.249 OA
ATOM     17  H   UNL A   1      31.188  21.177  23.979  1.00  0.00     0.165 HD
BRANCH  13  18
ATOM     18  C   UNL A   1      34.758  21.444  25.984  1.00  0.00     0.083 C 
BRANCH  18  19
ATOM     19  C   UNL A   1      34.664  21.771  27.482  1.00  0.00     0.021 C 
ATOM     20  C   UNL A   1      33.293  22.311  27.866  1.00  0.00     0.006 C 
ENDBRANCH  18  19
BRANCH  18  21
ATOM     21  C   UNL A   1      36.164  21.084  25.473  1.00  0.00     0.021 C 
ATOM     22  C   UNL A   1      36.690  21.958  24.345  1.00  0.00     0.006 C 
ENDBRANCH  18  21
ENDBRANCH  13  18
ENDBRANCH   8  12
ENDBRANCH   5   7
ENDBRANCH   4   5
ENDBRANCH   3   4
ENDBRANCH   2   3
ENDBRANCH   1   2
BRANCH   1  23
ATOM     23  C   UNL A   1      32.679  29.683  25.015  1.00  0.00     0.202 C 
BRANCH  23  24
ATOM     24  C   UNL A   1      31.844  30.564  25.954  1.00  0.00     0.261 C 
BRANCH  24  25
ATOM     25  O   UNL A   1      32.403  30.676  27.274  1.00  0.00    -0.460 OA
BRANCH  25  26
ATOM     26  C   UNL A   1      33.169  31.778  27.457  1.00  0.00     0.338 C 
ATOM     27  O   UNL A   1      32.785  32.944  27.479  1.00  0.00    -0.246 OA
BRANCH  26  28
ATOM     28  C   UNL A   1      34.552  31.410  27.808  1.00  0.00     0.060 A 
ATOM     29  C   UNL A   1      34.803  30.056  28.059  1.00  0.00     0.016 A 
ATOM     30  C   UNL A   1      35.559  32.362  27.986  1.00  0.00     0.016 A 
ATOM     31  C   UNL A   1      36.041  29.656  28.551  1.00  0.00     0.010 A 
ATOM     32  C   UNL A   1      36.805  31.956  28.484  1.00  0.00     0.010 A 
ATOM     33  C   UNL A   1      37.037  30.607  28.811  1.00  0.00    -0.014 A 
BRANCH  33  34
ATOM     34  C   UNL A   1      38.256  30.178  29.539  1.00  0.00     0.031 A 
ATOM     35  C   UNL A   1      38.491  30.661  30.946  1.00  0.00     0.074 A 
ATOM     36  C   UNL A   1      39.116  29.309  28.977  1.00  0.00     0.049 A 
ATOM     37  N   UNL A   1      39.424  30.314  31.794  1.00  0.00    -0.248 NA
ATOM     38  C   UNL A   1      37.549  31.666  31.467  1.00  0.00     0.031 C 
ATOM     39  C   UNL A   1      39.010  28.777  27.619  1.00  0.00     0.029 A 
ATOM     40  N   UNL A   1      40.250  28.722  29.481  1.00  0.00    -0.354 N 
ATOM     41  C   UNL A   1      39.192  31.061  32.942  1.00  0.00     0.074 A 
ATOM     42  C   UNL A   1      38.044  31.901  32.674  1.00  0.00     0.031 C 
ATOM     43  C   UNL A   1      40.044  27.950  27.394  1.00  0.00     0.029 A 
ATOM     44  C   UNL A   1      40.886  27.896  28.587  1.00  0.00     0.049 A 
ATOM     45  H   UNL A   1      40.577  28.880  30.397  1.00  0.00     0.167 HD
ATOM     46  C   UNL A   1      39.857  31.035  34.123  1.00  0.00     0.034 A 
ATOM     47  C   UNL A   1      42.019  27.174  28.717  1.00  0.00     0.034 A 
ATOM     48  C   UNL A   1      40.984  30.186  34.400  1.00  0.00     0.049 A 
ATOM     49  C   UNL A   1      42.737  27.160  30.041  1.00  0.00     0.074 A 
ATOM     50  C   UNL A   1      41.690  30.051  35.582  1.00  0.00     0.029 A 
ATOM     51  N   UNL A   1      41.580  29.335  33.482  1.00  0.00    -0.354 N 
ATOM     52  N   UNL A   1      42.416  27.761  31.162  1.00  0.00    -0.248 NA
ATOM     53  C   UNL A   1      43.949  26.332  30.130  1.00  0.00     0.031 C 
ATOM     54  C   UNL A   1      42.725  29.133  35.373  1.00  0.00     0.029 A 
ATOM     55  C   UNL A   1      42.651  28.681  34.065  1.00  0.00     0.049 A 
ATOM     56  H   UNL A   1      41.283  29.214  32.550  1.00  0.00     0.167 HD
ATOM     57  C   UNL A   1      43.368  27.362  32.095  1.00  0.00     0.074 A 
ATOM     58  C   UNL A   1      44.259  26.445  31.415  1.00  0.00     0.031 C 
ATOM     59  C   UNL A   1      43.504  27.735  33.393  1.00  0.00     0.034 A 
BRANCH  46  60
ATOM     60  C   UNL A   1      39.352  31.928  35.226  1.00  0.00     0.023 A 
ATOM     61  C   UNL A   1      38.375  31.441  36.119  1.00  0.00     0.012 A 
ATOM     62  C   UNL A   1      39.882  33.218  35.417  1.00  0.00     0.148 A 
ATOM     63  C   UNL A   1      37.914  32.234  37.169  1.00  0.00     0.002 A 
ATOM     64  C   UNL A   1      39.444  33.989  36.489  1.00  0.00     0.091 A 
ATOM     65  F   UNL A   1      40.790  33.672  34.542  1.00  0.00    -0.205 F 
ATOM     66  C   UNL A   1      38.455  33.503  37.359  1.00  0.00     0.022 A 
BRANCH  64  67
ATOM     67  S   UNL A   1      40.132  35.606  36.859  1.00  0.00     0.127 S 
ATOM     68  O   UNL A   1      39.631  35.838  38.213  1.00  0.00    -0.237 OA
ATOM     69  O   UNL A   1      41.572  35.356  36.776  1.00  0.00    -0.237 OA
ATOM     70  O   UNL A   1      39.615  36.504  35.835  1.00  0.00    -0.744 OA
ENDBRANCH  64  67
ENDBRANCH  46  60
BRANCH  47  71
ATOM     71  C   UNL A   1      42.512  26.358  27.573  1.00  0.00     0.023 A 
ATOM     72  C   UNL A   1      43.395  26.929  26.637  1.00  0.00     0.012 A 
ATOM     73  C   UNL A   1      42.128  25.012  27.423  1.00  0.00     0.148 A 
ATOM     74  C   UNL A   1      43.864  26.182  25.556  1.00  0.00     0.002 A 
ATOM     75  C   UNL A   1      42.644  24.257  26.376  1.00  0.00     0.091 A 
ATOM     76  F   UNL A   1      41.271  24.491  28.313  1.00  0.00    -0.205 F 
ATOM     77  C   UNL A   1      43.499  24.844  25.431  1.00  0.00     0.022 A 
BRANCH  75  78
ATOM     78  S   UNL A   1      42.333  22.494  26.225  1.00  0.00     0.127 S 
ATOM     79  O   UNL A   1      42.890  21.983  27.475  1.00  0.00    -0.237 OA
ATOM     80  O   UNL A   1      40.873  22.449  26.136  1.00  0.00    -0.237 OA
ATOM     81  O   UNL A   1      43.017  22.080  25.007  1.00  0.00    -0.744 OA
ENDBRANCH  75  78
ENDBRANCH  47  71
BRANCH  59  82
ATOM     82  C   UNL A   1      44.651  27.142  34.170  1.00  0.00     0.023 A 
ATOM     83  C   UNL A   1      45.870  27.843  34.258  1.00  0.00     0.012 A 
ATOM     84  C   UNL A   1      44.508  25.918  34.856  1.00  0.00     0.148 A 
ATOM     85  C   UNL A   1      46.941  27.318  34.981  1.00  0.00     0.002 A 
ATOM     86  C   UNL A   1      45.565  25.424  35.613  1.00  0.00     0.091 A 
ATOM     87  F   UNL A   1      43.349  25.253  34.745  1.00  0.00    -0.205 F 
ATOM     88  C   UNL A   1      46.785  26.115  35.666  1.00  0.00     0.022 A 
BRANCH  86  89
ATOM     89  S   UNL A   1      45.414  23.929  36.598  1.00  0.00     0.127 S 
ATOM     90  O   UNL A   1      46.799  23.466  36.653  1.00  0.00    -0.237 OA
ATOM     91  O   UNL A   1      44.890  24.437  37.866  1.00  0.00    -0.237 OA
ATOM     92  O   UNL A   1      44.489  23.070  35.869  1.00  0.00    -0.744 OA
ENDBRANCH  86  89
ENDBRANCH  59  82
ENDBRANCH  33  34
ENDBRANCH  26  28
ENDBRANCH  25  26
ENDBRANCH  24  25
ENDBRANCH  23  24
ENDBRANCH   1  23
TORSDOF 21
ENDMDL
MODEL 2
REMARK VINA RESULT:     -10.7      5.035     10.277
REMARK SMILES CCC(CC)NC(=O)N[C@@H]1C=C[C@@H](C(=O)OCCOCCOC(=O)c2ccc(-c3c4nc(c(-c5cccc(S(=O)(=O)[O-])c5F)c5ccc([nH]5)c(-c5cccc(S(=O)(=O)[O-])c5F)c5nc(c(-c6cccc(S(=O)(=O)[O-])c6F)c6ccc3[nH]6)C=C5)C=C4)cc2)C1
REMARK SMILES IDX 19 1 18 2 17 3 16 4 14 5 15 6 13 7 10 8 11 9 88 10 12 11
REMARK SMILES IDX 9 12 6 13 7 14 8 16 3 18 2 19 1 20 4 21 5 22 20 23 21 24
REMARK SMILES IDX 22 25 23 26 24 27 25 28 26 29 87 30 27 31 86 32 28 33 29 34
REMARK SMILES IDX 30 35 80 36 31 37 85 38 79 39 81 40 32 41 84 42 78 43 77 44
REMARK SMILES IDX 33 46 65 47 45 48 64 49 46 50 49 51 63 52 82 53 47 54 48 55
REMARK SMILES IDX 62 57 83 58 50 59 34 60 35 61 43 62 36 63 38 64 44 65 37 66
REMARK SMILES IDX 39 67 40 68 41 69 42 70 66 71 67 72 75 73 68 74 70 75 76 76
REMARK SMILES IDX 69 77 71 78 72 79 73 80 74 81 51 82 52 83 60 84 53 85 55 86
REMARK SMILES IDX 61 87 54 88 56 89 57 90 58 91 59 92
REMARK H PARENT 6 15 9 17 81 45 49 56
REMARK Flexibility Score: inf
ROOT
ATOM      1  O   UNL A   1      35.457  21.717  26.281  1.00  0.00    -0.374 OA
ENDROOT
BRANCH   1   2
ATOM      2  C   UNL A   1      34.097  21.533  26.682  1.00  0.00     0.202 C 
BRANCH   2   3
ATOM      3  C   UNL A   1      33.451  22.693  27.447  1.00  0.00     0.261 C 
BRANCH   3   4
ATOM      4  O   UNL A   1      32.705  23.531  26.551  1.00  0.00    -0.463 OA
BRANCH   4   5
ATOM      5  C   UNL A   1      31.356  23.515  26.700  1.00  0.00     0.312 C 
ATOM      6  O   UNL A   1      30.761  22.986  27.634  1.00  0.00    -0.252 OA
BRANCH   5   7
ATOM      7  C   UNL A   1      30.624  24.260  25.588  1.00  0.00     0.124 C 
ATOM      8  C   UNL A   1      31.411  26.018  24.026  1.00  0.00     0.107 C 
ATOM      9  C   UNL A   1      31.480  24.648  23.443  1.00  0.00    -0.006 C 
ATOM     10  C   UNL A   1      30.858  25.775  25.441  1.00  0.00     0.048 C 
ATOM     11  C   UNL A   1      31.046  23.699  24.273  1.00  0.00    -0.014 C 
BRANCH   8  12
ATOM     12  N   UNL A   1      30.530  26.811  23.200  1.00  0.00    -0.332 N 
ATOM     13  N   UNL A   1      31.153  29.071  23.550  1.00  0.00    -0.335 N 
ATOM     14  C   UNL A   1      30.400  28.124  22.978  1.00  0.00     0.315 C 
ATOM     15  H   UNL A   1      30.891  29.979  23.271  1.00  0.00     0.165 HD
ATOM     16  O   UNL A   1      29.530  28.484  22.179  1.00  0.00    -0.249 OA
ATOM     17  H   UNL A   1      29.885  26.268  22.691  1.00  0.00     0.165 HD
BRANCH  13  18
ATOM     18  C   UNL A   1      32.274  29.079  24.489  1.00  0.00     0.083 C 
BRANCH  18  19
ATOM     19  C   UNL A   1      33.596  29.300  23.736  1.00  0.00     0.021 C 
ATOM     20  C   UNL A   1      34.050  28.048  22.998  1.00  0.00     0.006 C 
ENDBRANCH  18  19
BRANCH  18  21
ATOM     21  C   UNL A   1      32.001  30.058  25.644  1.00  0.00     0.021 C 
ATOM     22  C   UNL A   1      32.217  29.494  27.040  1.00  0.00     0.006 C 
ENDBRANCH  18  21
ENDBRANCH  13  18
ENDBRANCH   8  12
ENDBRANCH   5   7
ENDBRANCH   4   5
ENDBRANCH   3   4
ENDBRANCH   2   3
ENDBRANCH   1   2
BRANCH   1  23
ATOM     23  C   UNL A   1      35.890  21.060  25.091  1.00  0.00     0.202 C 
BRANCH  23  24
ATOM     24  C   UNL A   1      37.359  20.622  25.019  1.00  0.00     0.261 C 
BRANCH  24  25
ATOM     25  O   UNL A   1      38.285  21.705  25.212  1.00  0.00    -0.460 OA
BRANCH  25  26
ATOM     26  C   UNL A   1      39.299  21.419  26.062  1.00  0.00     0.338 C 
ATOM     27  O   UNL A   1      39.922  20.362  26.134  1.00  0.00    -0.246 OA
BRANCH  26  28
ATOM     28  C   UNL A   1      39.713  22.615  26.815  1.00  0.00     0.060 A 
ATOM     29  C   UNL A   1      39.062  23.815  26.507  1.00  0.00     0.016 A 
ATOM     30  C   UNL A   1      40.772  22.598  27.728  1.00  0.00     0.016 A 
ATOM     31  C   UNL A   1      39.507  25.012  27.057  1.00  0.00     0.010 A 
ATOM     32  C   UNL A   1      41.220  23.807  28.280  1.00  0.00     0.010 A 
ATOM     33  C   UNL A   1      40.617  25.025  27.913  1.00  0.00    -0.014 A 
BRANCH  33  34
ATOM     34  C   UNL A   1      41.199  26.332  28.303  1.00  0.00     0.031 A 
ATOM     35  C   UNL A   1      42.635  26.636  27.969  1.00  0.00     0.074 A 
ATOM     36  C   UNL A   1      40.434  27.270  28.891  1.00  0.00     0.049 A 
ATOM     37  N   UNL A   1      43.298  27.755  28.113  1.00  0.00    -0.248 NA
ATOM     38  C   UNL A   1      43.429  25.538  27.394  1.00  0.00     0.031 C 
ATOM     39  C   UNL A   1      39.036  27.096  29.279  1.00  0.00     0.029 A 
ATOM     40  N   UNL A   1      40.730  28.557  29.266  1.00  0.00    -0.354 N 
ATOM     41  C   UNL A   1      44.586  27.495  27.661  1.00  0.00     0.074 A 
ATOM     42  C   UNL A   1      44.619  26.105  27.259  1.00  0.00     0.031 C 
ATOM     43  C   UNL A   1      38.597  28.232  29.848  1.00  0.00     0.029 A 
ATOM     44  C   UNL A   1      39.682  29.211  29.867  1.00  0.00     0.049 A 
ATOM     45  H   UNL A   1      41.611  28.972  29.118  1.00  0.00     0.167 HD
ATOM     46  C   UNL A   1      45.640  28.341  27.563  1.00  0.00     0.034 A 
ATOM     47  C   UNL A   1      39.605  30.458  30.374  1.00  0.00     0.034 A 
ATOM     48  C   UNL A   1      45.604  29.729  27.940  1.00  0.00     0.049 A 
ATOM     49  C   UNL A   1      40.791  31.380  30.250  1.00  0.00     0.074 A 
ATOM     50  C   UNL A   1      46.605  30.678  27.829  1.00  0.00     0.029 A 
ATOM     51  N   UNL A   1      44.514  30.365  28.513  1.00  0.00    -0.354 N 
ATOM     52  N   UNL A   1      41.952  31.160  29.683  1.00  0.00    -0.248 NA
ATOM     53  C   UNL A   1      40.637  32.737  30.795  1.00  0.00     0.031 C 
ATOM     54  C   UNL A   1      46.126  31.884  28.353  1.00  0.00     0.029 A 
ATOM     55  C   UNL A   1      44.820  31.691  28.772  1.00  0.00     0.049 A 
ATOM     56  H   UNL A   1      43.648  29.937  28.707  1.00  0.00     0.167 HD
ATOM     57  C   UNL A   1      42.656  32.357  29.778  1.00  0.00     0.074 A 
ATOM     58  C   UNL A   1      41.778  33.306  30.430  1.00  0.00     0.031 C 
ATOM     59  C   UNL A   1      43.922  32.639  29.379  1.00  0.00     0.034 A 
BRANCH  46  60
ATOM     60  C   UNL A   1      46.919  27.796  26.982  1.00  0.00     0.023 A 
ATOM     61  C   UNL A   1      47.905  27.275  27.845  1.00  0.00     0.012 A 
ATOM     62  C   UNL A   1      47.121  27.743  25.590  1.00  0.00     0.148 A 
ATOM     63  C   UNL A   1      49.083  26.735  27.334  1.00  0.00     0.002 A 
ATOM     64  C   UNL A   1      48.282  27.168  25.086  1.00  0.00     0.091 A 
ATOM     65  F   UNL A   1      46.183  28.267  24.788  1.00  0.00    -0.205 F 
ATOM     66  C   UNL A   1      49.267  26.673  25.954  1.00  0.00     0.022 A 
BRANCH  64  67
ATOM     67  S   UNL A   1      48.578  26.978  23.324  1.00  0.00     0.127 S 
ATOM     68  O   UNL A   1      48.088  25.620  23.087  1.00  0.00    -0.237 OA
ATOM     69  O   UNL A   1      47.741  28.035  22.754  1.00  0.00    -0.237 OA
ATOM     70  O   UNL A   1      50.009  27.171  23.136  1.00  0.00    -0.744 OA
ENDBRANCH  64  67
ENDBRANCH  46  60
BRANCH  47  71
ATOM     71  C   UNL A   1      38.337  30.928  30.997  1.00  0.00     0.023 A 
ATOM     72  C   UNL A   1      38.123  30.738  32.375  1.00  0.00     0.012 A 
ATOM     73  C   UNL A   1      37.351  31.583  30.233  1.00  0.00     0.148 A 
ATOM     74  C   UNL A   1      36.938  31.166  32.976  1.00  0.00     0.002 A 
ATOM     75  C   UNL A   1      36.199  32.057  30.848  1.00  0.00     0.091 A 
ATOM     76  F   UNL A   1      37.564  31.736  28.918  1.00  0.00    -0.205 F 
ATOM     77  C   UNL A   1      35.982  31.836  32.216  1.00  0.00     0.022 A 
BRANCH  75  78
ATOM     78  S   UNL A   1      34.986  33.048  29.970  1.00  0.00     0.127 S 
ATOM     79  O   UNL A   1      35.825  34.073  29.354  1.00  0.00    -0.237 OA
ATOM     80  O   UNL A   1      34.415  32.076  29.037  1.00  0.00    -0.237 OA
ATOM     81  O   UNL A   1      34.053  33.516  30.988  1.00  0.00    -0.744 OA
ENDBRANCH  75  78
ENDBRANCH  47  71
BRANCH  59  82
ATOM     82  C   UNL A   1      44.432  34.037  29.623  1.00  0.00     0.023 A 
ATOM     83  C   UNL A   1      45.041  34.352  30.854  1.00  0.00     0.012 A 
ATOM     84  C   UNL A   1      44.357  35.023  28.618  1.00  0.00     0.148 A 
ATOM     85  C   UNL A   1      45.529  35.636  31.098  1.00  0.00     0.002 A 
ATOM     86  C   UNL A   1      44.889  36.287  28.852  1.00  0.00     0.091 A 
ATOM     87  F   UNL A   1      43.757  34.714  27.460  1.00  0.00    -0.205 F 
ATOM     88  C   UNL A   1      45.463  36.599  30.094  1.00  0.00     0.022 A 
BRANCH  86  89
ATOM     89  S   UNL A   1      44.924  37.555  27.579  1.00  0.00     0.127 S 
ATOM     90  O   UNL A   1      45.505  38.686  28.300  1.00  0.00    -0.237 OA
ATOM     91  O   UNL A   1      45.800  36.963  26.567  1.00  0.00    -0.237 OA
ATOM     92  O   UNL A   1      43.541  37.721  27.151  1.00  0.00    -0.744 OA
ENDBRANCH  86  89
ENDBRANCH  59  82
ENDBRANCH  33  34
ENDBRANCH  26  28
ENDBRANCH  25  26
ENDBRANCH  24  25
ENDBRANCH  23  24
ENDBRANCH   1  23
TORSDOF 21
ENDMDL
MODEL 3
REMARK VINA RESULT:     -10.6      4.617      9.968
REMARK SMILES CCC(CC)NC(=O)N[C@@H]1C=C[C@@H](C(=O)OCCOCCOC(=O)c2ccc(-c3c4nc(c(-c5cccc(S(=O)(=O)[O-])c5F)c5ccc([nH]5)c(-c5cccc(S(=O)(=O)[O-])c5F)c5nc(c(-c6cccc(S(=O)(=O)[O-])c6F)c6ccc3[nH]6)C=C5)C=C4)cc2)C1
REMARK SMILES IDX 19 1 18 2 17 3 16 4 14 5 15 6 13 7 10 8 11 9 88 10 12 11
REMARK SMILES IDX 9 12 6 13 7 14 8 16 3 18 2 19 1 20 4 21 5 22 20 23 21 24
REMARK SMILES IDX 22 25 23 26 24 27 25 28 26 29 87 30 27 31 86 32 28 33 29 34
REMARK SMILES IDX 30 35 80 36 31 37 85 38 79 39 81 40 32 41 84 42 78 43 77 44
REMARK SMILES IDX 33 46 65 47 45 48 64 49 46 50 49 51 63 52 82 53 47 54 48 55
REMARK SMILES IDX 62 57 83 58 50 59 34 60 35 61 43 62 36 63 38 64 44 65 37 66
REMARK SMILES IDX 39 67 40 68 41 69 42 70 66 71 67 72 75 73 68 74 70 75 76 76
REMARK SMILES IDX 69 77 71 78 72 79 73 80 74 81 51 82 52 83 60 84 53 85 55 86
REMARK SMILES IDX 61 87 54 88 56 89 57 90 58 91 59 92
REMARK H PARENT 6 15 9 17 81 45 49 56
REMARK Flexibility Score: inf
ROOT
ATOM      1  O   UNL A   1      35.346  21.410  26.170  1.00  0.00    -0.374 OA
ENDROOT
BRANCH   1   2
ATOM      2  C   UNL A   1      33.974  21.469  26.570  1.00  0.00     0.202 C 
BRANCH   2   3
ATOM      3  C   UNL A   1      33.456  22.840  27.017  1.00  0.00     0.261 C 
BRANCH   3   4
ATOM      4  O   UNL A   1      32.595  23.402  26.013  1.00  0.00    -0.463 OA
BRANCH   4   5
ATOM      5  C   UNL A   1      31.321  23.665  26.398  1.00  0.00     0.312 C 
ATOM      6  O   UNL A   1      30.820  23.304  27.459  1.00  0.00    -0.252 OA
BRANCH   5   7
ATOM      7  C   UNL A   1      30.551  24.499  25.379  1.00  0.00     0.124 C 
ATOM      8  C   UNL A   1      31.351  26.080  23.645  1.00  0.00     0.107 C 
ATOM      9  C   UNL A   1      31.114  24.707  23.115  1.00  0.00    -0.006 C 
ATOM     10  C   UNL A   1      30.993  25.954  25.135  1.00  0.00     0.048 C 
ATOM     11  C   UNL A   1      30.670  23.855  24.040  1.00  0.00    -0.014 C 
BRANCH   8  12
ATOM     12  N   UNL A   1      30.487  26.990  22.928  1.00  0.00    -0.332 N 
ATOM     13  N   UNL A   1      31.341  29.165  23.329  1.00  0.00    -0.335 N 
ATOM     14  C   UNL A   1      30.463  28.320  22.777  1.00  0.00     0.315 C 
ATOM     15  H   UNL A   1      31.144  30.106  23.114  1.00  0.00     0.165 HD
ATOM     16  O   UNL A   1      29.573  28.797  22.067  1.00  0.00    -0.249 OA
ATOM     17  H   UNL A   1      29.759  26.534  22.448  1.00  0.00     0.165 HD
BRANCH  13  18
ATOM     18  C   UNL A   1      32.525  29.025  24.176  1.00  0.00     0.083 C 
BRANCH  18  19
ATOM     19  C   UNL A   1      33.799  29.270  23.352  1.00  0.00     0.021 C 
ATOM     20  C   UNL A   1      34.085  28.128  22.386  1.00  0.00     0.006 C 
ENDBRANCH  18  19
BRANCH  18  21
ATOM     21  C   UNL A   1      32.384  29.883  25.445  1.00  0.00     0.021 C 
ATOM     22  C   UNL A   1      32.115  29.111  26.727  1.00  0.00     0.006 C 
ENDBRANCH  18  21
ENDBRANCH  13  18
ENDBRANCH   8  12
ENDBRANCH   5   7
ENDBRANCH   4   5
ENDBRANCH   3   4
ENDBRANCH   2   3
ENDBRANCH   1   2
BRANCH   1  23
ATOM     23  C   UNL A   1      35.687  20.519  25.108  1.00  0.00     0.202 C 
BRANCH  23  24
ATOM     24  C   UNL A   1      37.165  20.139  24.951  1.00  0.00     0.261 C 
BRANCH  24  25
ATOM     25  O   UNL A   1      38.059  21.251  25.124  1.00  0.00    -0.460 OA
BRANCH  25  26
ATOM     26  C   UNL A   1      39.133  20.980  25.903  1.00  0.00     0.338 C 
ATOM     27  O   UNL A   1      39.770  19.930  25.936  1.00  0.00    -0.246 OA
BRANCH  26  28
ATOM     28  C   UNL A   1      39.585  22.183  26.622  1.00  0.00     0.060 A 
ATOM     29  C   UNL A   1      39.040  23.407  26.215  1.00  0.00     0.016 A 
ATOM     30  C   UNL A   1      40.584  22.143  27.599  1.00  0.00     0.016 A 
ATOM     31  C   UNL A   1      39.536  24.598  26.733  1.00  0.00     0.010 A 
ATOM     32  C   UNL A   1      41.083  23.346  28.119  1.00  0.00     0.010 A 
ATOM     33  C   UNL A   1      40.591  24.580  27.655  1.00  0.00    -0.014 A 
BRANCH  33  34
ATOM     34  C   UNL A   1      41.240  25.865  28.017  1.00  0.00     0.031 A 
ATOM     35  C   UNL A   1      42.651  26.137  27.567  1.00  0.00     0.074 A 
ATOM     36  C   UNL A   1      40.555  26.811  28.685  1.00  0.00     0.049 A 
ATOM     37  N   UNL A   1      43.354  27.235  27.673  1.00  0.00    -0.248 NA
ATOM     38  C   UNL A   1      43.362  25.030  26.907  1.00  0.00     0.031 C 
ATOM     39  C   UNL A   1      39.190  26.666  29.188  1.00  0.00     0.029 A 
ATOM     40  N   UNL A   1      40.917  28.082  29.055  1.00  0.00    -0.354 N 
ATOM     41  C   UNL A   1      44.591  26.951  27.108  1.00  0.00     0.074 A 
ATOM     42  C   UNL A   1      44.552  25.568  26.681  1.00  0.00     0.031 C 
ATOM     43  C   UNL A   1      38.833  27.801  29.811  1.00  0.00     0.029 A 
ATOM     44  C   UNL A   1      39.943  28.751  29.755  1.00  0.00     0.049 A 
ATOM     45  H   UNL A   1      41.794  28.476  28.839  1.00  0.00     0.167 HD
ATOM     46  C   UNL A   1      45.656  27.771  26.934  1.00  0.00     0.034 A 
ATOM     47  C   UNL A   1      39.944  29.990  30.288  1.00  0.00     0.034 A 
ATOM     48  C   UNL A   1      45.691  29.151  27.338  1.00  0.00     0.049 A 
ATOM     49  C   UNL A   1      41.139  30.882  30.079  1.00  0.00     0.074 A 
ATOM     50  C   UNL A   1      46.705  30.075  27.158  1.00  0.00     0.029 A 
ATOM     51  N   UNL A   1      44.672  29.804  28.013  1.00  0.00    -0.354 N 
ATOM     52  N   UNL A   1      42.242  30.643  29.411  1.00  0.00    -0.248 NA
ATOM     53  C   UNL A   1      41.070  32.231  30.659  1.00  0.00     0.031 C 
ATOM     54  C   UNL A   1      46.306  31.283  27.742  1.00  0.00     0.029 A 
ATOM     55  C   UNL A   1      45.036  31.116  28.268  1.00  0.00     0.049 A 
ATOM     56  H   UNL A   1      43.814  29.395  28.273  1.00  0.00     0.167 HD
ATOM     57  C   UNL A   1      42.985  31.818  29.467  1.00  0.00     0.074 A 
ATOM     58  C   UNL A   1      42.192  32.777  30.207  1.00  0.00     0.031 C 
ATOM     59  C   UNL A   1      44.220  32.076  28.966  1.00  0.00     0.034 A 
BRANCH  46  60
ATOM     60  C   UNL A   1      46.866  27.204  26.238  1.00  0.00     0.023 A 
ATOM     61  C   UNL A   1      47.000  27.363  24.843  1.00  0.00     0.012 A 
ATOM     62  C   UNL A   1      47.893  26.571  26.964  1.00  0.00     0.148 A 
ATOM     63  C   UNL A   1      48.124  26.876  24.177  1.00  0.00     0.002 A 
ATOM     64  C   UNL A   1      49.028  26.123  26.298  1.00  0.00     0.091 A 
ATOM     65  F   UNL A   1      47.734  26.406  28.285  1.00  0.00    -0.205 F 
ATOM     66  C   UNL A   1      49.142  26.265  24.906  1.00  0.00     0.022 A 
BRANCH  64  67
ATOM     67  S   UNL A   1      50.424  25.387  27.159  1.00  0.00     0.127 S 
ATOM     68  O   UNL A   1      50.824  26.472  28.054  1.00  0.00    -0.237 OA
ATOM     69  O   UNL A   1      49.805  24.242  27.828  1.00  0.00    -0.237 OA
ATOM     70  O   UNL A   1      51.389  25.035  26.127  1.00  0.00    -0.744 OA
ENDBRANCH  64  67
ENDBRANCH  46  60
BRANCH  47  71
ATOM     71  C   UNL A   1      38.746  30.480  31.025  1.00  0.00     0.023 A 
ATOM     72  C   UNL A   1      38.675  30.326  32.423  1.00  0.00     0.012 A 
ATOM     73  C   UNL A   1      37.689  31.118  30.349  1.00  0.00     0.148 A 
ATOM     74  C   UNL A   1      37.559  30.774  33.130  1.00  0.00     0.002 A 
ATOM     75  C   UNL A   1      36.606  31.613  31.067  1.00  0.00     0.091 A 
ATOM     76  F   UNL A   1      37.765  31.236  29.016  1.00  0.00    -0.205 F 
ATOM     77  C   UNL A   1      36.530  31.428  32.455  1.00  0.00     0.022 A 
BRANCH  75  78
ATOM     78  S   UNL A   1      35.310  32.586  30.292  1.00  0.00     0.127 S 
ATOM     79  O   UNL A   1      36.045  33.770  29.856  1.00  0.00    -0.237 OA
ATOM     80  O   UNL A   1      34.869  31.701  29.212  1.00  0.00    -0.237 OA
ATOM     81  O   UNL A   1      34.311  32.802  31.330  1.00  0.00    -0.744 OA
ENDBRANCH  75  78
ENDBRANCH  47  71
BRANCH  59  82
ATOM     82  C   UNL A   1      44.787  33.454  29.189  1.00  0.00     0.023 A 
ATOM     83  C   UNL A   1      44.504  34.483  28.269  1.00  0.00     0.012 A 
ATOM     84  C   UNL A   1      45.556  33.746  30.335  1.00  0.00     0.148 A 
ATOM     85  C   UNL A   1      45.009  35.768  28.462  1.00  0.00     0.002 A 
ATOM     86  C   UNL A   1      46.017  35.041  30.544  1.00  0.00     0.091 A 
ATOM     87  F   UNL A   1      45.835  32.752  31.191  1.00  0.00    -0.205 F 
ATOM     88  C   UNL A   1      45.756  36.050  29.604  1.00  0.00     0.022 A 
BRANCH  86  89
ATOM     89  S   UNL A   1      46.908  35.506  32.034  1.00  0.00     0.127 S 
ATOM     90  O   UNL A   1      47.446  36.814  31.665  1.00  0.00    -0.237 OA
ATOM     91  O   UNL A   1      45.845  35.545  33.039  1.00  0.00    -0.237 OA
ATOM     92  O   UNL A   1      47.894  34.453  32.246  1.00  0.00    -0.744 OA
ENDBRANCH  86  89
ENDBRANCH  59  82
ENDBRANCH  33  34
ENDBRANCH  26  28
ENDBRANCH  25  26
ENDBRANCH  24  25
ENDBRANCH  23  24
ENDBRANCH   1  23
TORSDOF 21
ENDMDL
