MODEL 1
REMARK VINA RESULT:     -10.8      0.000      0.000
REMARK SMILES COCC[C@@]1(C(=O)OCCOCCOC(=O)c2ccc(-c3c4nc(c(-c5cccc(S(=O)(=O)[O-])c5F)c5ccc([nH]5)c(-c5cccc(S(=O)(=O)[O-])c5F)c5nc(c(-c6cccc(S(=O)(=O)[O-])c6F)c6ccc3[nH]6)C=C5)C=C4)cc2)CCCN(c2cc(OC)nc(N)n2)C1
REMARK SMILES IDX 11 1 10 2 9 3 8 4 6 5 7 6 5 7 80 8 93 9 81 10 83 11 82 12
REMARK SMILES IDX 4 13 3 14 2 15 1 16 84 17 85 18 92 19 86 20 90 21 89 22
REMARK SMILES IDX 87 23 88 24 91 25 12 28 13 29 14 30 15 31 16 32 17 33 18 34
REMARK SMILES IDX 79 35 19 36 78 37 20 38 21 39 22 40 72 41 23 42 77 43 71 44
REMARK SMILES IDX 73 45 24 46 76 47 70 48 69 49 25 51 57 52 37 53 56 54 38 55
REMARK SMILES IDX 41 56 55 57 74 58 39 59 40 60 54 62 75 63 42 64 26 65 27 66
REMARK SMILES IDX 35 67 28 68 30 69 36 70 29 71 31 72 32 73 33 74 34 75 58 76
REMARK SMILES IDX 59 77 67 78 60 79 62 80 68 81 61 82 63 83 64 84 65 85 66 86
REMARK SMILES IDX 43 87 44 88 52 89 45 90 47 91 53 92 46 93 48 94 49 95 50 96
REMARK SMILES IDX 51 97
REMARK H PARENT 91 26 91 27 73 50 41 61
REMARK Flexibility Score: inf
ROOT
ATOM      1  O   UNL A   1      37.756  21.307  24.652  1.00  0.00    -0.374 OA
ENDROOT
BRANCH   1   2
ATOM      2  C   UNL A   1      36.612  21.744  23.931  1.00  0.00     0.202 C 
BRANCH   2   3
ATOM      3  C   UNL A   1      36.277  23.241  23.873  1.00  0.00     0.261 C 
BRANCH   3   4
ATOM      4  O   UNL A   1      35.068  23.637  24.527  1.00  0.00    -0.463 OA
BRANCH   4   5
ATOM      5  C   UNL A   1      33.944  23.073  23.989  1.00  0.00     0.314 C 
ATOM      6  O   UNL A   1      33.876  22.675  22.831  1.00  0.00    -0.252 OA
BRANCH   5   7
ATOM      7  C   UNL A   1      32.810  22.918  25.019  1.00  0.00     0.088 C 
ATOM      8  C   UNL A   1      33.458  22.979  26.433  1.00  0.00     0.022 C 
ATOM      9  C   UNL A   1      32.143  21.557  24.780  1.00  0.00     0.137 C 
ATOM     10  C   UNL A   1      34.291  21.739  26.784  1.00  0.00     0.023 C 
ATOM     11  N   UNL A   1      33.026  20.464  25.160  1.00  0.00    -0.355 N 
ATOM     12  C   UNL A   1      33.537  20.436  26.517  1.00  0.00     0.118 C 
BRANCH   7  13
ATOM     13  C   UNL A   1      31.788  24.080  24.820  1.00  0.00     0.049 C 
BRANCH  13  14
ATOM     14  C   UNL A   1      31.513  25.007  26.012  1.00  0.00     0.161 C 
BRANCH  14  15
ATOM     15  O   UNL A   1      31.597  26.377  25.636  1.00  0.00    -0.385 OA
ATOM     16  C   UNL A   1      31.747  27.257  26.745  1.00  0.00     0.194 C 
ENDBRANCH  14  15
ENDBRANCH  13  14
ENDBRANCH   7  13
BRANCH  11  17
ATOM     17  C   UNL A   1      33.120  19.406  24.283  1.00  0.00     0.138 A 
ATOM     18  C   UNL A   1      33.808  18.258  24.600  1.00  0.00     0.115 A 
ATOM     19  N   UNL A   1      32.475  19.523  23.108  1.00  0.00    -0.196 NA
ATOM     20  C   UNL A   1      33.774  17.254  23.664  1.00  0.00     0.219 A 
ATOM     21  C   UNL A   1      32.548  18.509  22.245  1.00  0.00     0.225 A 
ATOM     22  N   UNL A   1      33.188  17.367  22.465  1.00  0.00    -0.177 NA
BRANCH  20  23
ATOM     23  O   UNL A   1      34.405  16.075  24.010  1.00  0.00    -0.481 OA
ATOM     24  C   UNL A   1      34.432  15.870  25.426  1.00  0.00     0.280 C 
ENDBRANCH  20  23
BRANCH  21  25
ATOM     25  N   UNL A   1      31.879  18.638  21.056  1.00  0.00    -0.368 N 
ATOM     26  H   UNL A   1      32.286  18.308  20.222  1.00  0.00     0.159 HD
ATOM     27  H   UNL A   1      30.989  19.061  21.035  1.00  0.00     0.159 HD
ENDBRANCH  21  25
ENDBRANCH  11  17
ENDBRANCH   5   7
ENDBRANCH   4   5
ENDBRANCH   3   4
ENDBRANCH   2   3
ENDBRANCH   1   2
BRANCH   1  28
ATOM     28  C   UNL A   1      37.844  19.934  25.024  1.00  0.00     0.202 C 
BRANCH  28  29
ATOM     29  C   UNL A   1      39.160  19.423  25.616  1.00  0.00     0.261 C 
BRANCH  29  30
ATOM     30  O   UNL A   1      40.164  20.451  25.717  1.00  0.00    -0.460 OA
BRANCH  30  31
ATOM     31  C   UNL A   1      40.802  20.501  26.909  1.00  0.00     0.338 C 
ATOM     32  O   UNL A   1      41.380  19.584  27.479  1.00  0.00    -0.246 OA
BRANCH  31  33
ATOM     33  C   UNL A   1      40.870  21.885  27.401  1.00  0.00     0.060 A 
ATOM     34  C   UNL A   1      40.110  22.860  26.739  1.00  0.00     0.016 A 
ATOM     35  C   UNL A   1      41.783  22.242  28.392  1.00  0.00     0.016 A 
ATOM     36  C   UNL A   1      40.302  24.209  27.029  1.00  0.00     0.010 A 
ATOM     37  C   UNL A   1      41.982  23.595  28.673  1.00  0.00     0.010 A 
ATOM     38  C   UNL A   1      41.276  24.583  27.962  1.00  0.00    -0.014 A 
BRANCH  38  39
ATOM     39  C   UNL A   1      41.693  26.000  28.081  1.00  0.00     0.031 A 
ATOM     40  C   UNL A   1      43.072  26.385  27.619  1.00  0.00     0.074 A 
ATOM     41  C   UNL A   1      40.875  26.914  28.630  1.00  0.00     0.049 A 
ATOM     42  N   UNL A   1      43.699  27.524  27.748  1.00  0.00    -0.248 NA
ATOM     43  C   UNL A   1      43.850  25.343  26.927  1.00  0.00     0.031 C 
ATOM     44  C   UNL A   1      39.512  26.656  29.093  1.00  0.00     0.029 A 
ATOM     45  N   UNL A   1      41.091  28.235  28.929  1.00  0.00    -0.354 N 
ATOM     46  C   UNL A   1      44.958  27.326  27.193  1.00  0.00     0.074 A 
ATOM     47  C   UNL A   1      45.005  25.959  26.722  1.00  0.00     0.031 C 
ATOM     48  C   UNL A   1      39.027  27.775  29.657  1.00  0.00     0.029 A 
ATOM     49  C   UNL A   1      40.057  28.812  29.627  1.00  0.00     0.049 A 
ATOM     50  H   UNL A   1      41.905  28.722  28.668  1.00  0.00     0.167 HD
ATOM     51  C   UNL A   1      45.981  28.205  27.081  1.00  0.00     0.034 A 
ATOM     52  C   UNL A   1      39.971  30.026  30.208  1.00  0.00     0.034 A 
ATOM     53  C   UNL A   1      45.916  29.569  27.530  1.00  0.00     0.049 A 
ATOM     54  C   UNL A   1      41.133  30.980  30.092  1.00  0.00     0.074 A 
ATOM     55  C   UNL A   1      46.882  30.554  27.425  1.00  0.00     0.029 A 
ATOM     56  N   UNL A   1      44.830  30.137  28.175  1.00  0.00    -0.354 N 
ATOM     57  N   UNL A   1      42.279  30.813  29.478  1.00  0.00    -0.248 NA
ATOM     58  C   UNL A   1      40.982  32.298  30.728  1.00  0.00     0.031 C 
ATOM     59  C   UNL A   1      46.385  31.715  28.027  1.00  0.00     0.029 A 
ATOM     60  C   UNL A   1      45.102  31.458  28.484  1.00  0.00     0.049 A 
ATOM     61  H   UNL A   1      43.989  29.670  28.383  1.00  0.00     0.167 HD
ATOM     62  C   UNL A   1      42.966  32.016  29.614  1.00  0.00     0.074 A 
ATOM     63  C   UNL A   1      42.105  32.905  30.365  1.00  0.00     0.031 C 
ATOM     64  C   UNL A   1      44.202  32.350  29.168  1.00  0.00     0.034 A 
BRANCH  51  65
ATOM     65  C   UNL A   1      47.251  27.729  26.431  1.00  0.00     0.023 A 
ATOM     66  C   UNL A   1      48.249  27.116  27.215  1.00  0.00     0.012 A 
ATOM     67  C   UNL A   1      47.431  27.834  25.038  1.00  0.00     0.148 A 
ATOM     68  C   UNL A   1      49.418  26.637  26.625  1.00  0.00     0.002 A 
ATOM     69  C   UNL A   1      48.582  27.318  24.452  1.00  0.00     0.091 A 
ATOM     70  F   UNL A   1      46.483  28.445  24.314  1.00  0.00    -0.205 F 
ATOM     71  C   UNL A   1      49.579  26.728  25.245  1.00  0.00     0.022 A 
BRANCH  69  72
ATOM     72  S   UNL A   1      48.846  27.323  22.675  1.00  0.00     0.127 S 
ATOM     73  O   UNL A   1      48.387  25.985  22.305  1.00  0.00    -0.237 OA
ATOM     74  O   UNL A   1      47.971  28.411  22.235  1.00  0.00    -0.237 OA
ATOM     75  O   UNL A   1      50.267  27.574  22.483  1.00  0.00    -0.744 OA
ENDBRANCH  69  72
ENDBRANCH  51  65
BRANCH  52  76
ATOM     76  C   UNL A   1      38.726  30.416  30.928  1.00  0.00     0.023 A 
ATOM     77  C   UNL A   1      38.590  30.099  32.294  1.00  0.00     0.012 A 
ATOM     78  C   UNL A   1      37.693  31.124  30.282  1.00  0.00     0.148 A 
ATOM     79  C   UNL A   1      37.437  30.456  32.995  1.00  0.00     0.002 A 
ATOM     80  C   UNL A   1      36.573  31.527  31.001  1.00  0.00     0.091 A 
ATOM     81  F   UNL A   1      37.831  31.400  28.978  1.00  0.00    -0.205 F 
ATOM     82  C   UNL A   1      36.436  31.179  32.353  1.00  0.00     0.022 A 
BRANCH  80  83
ATOM     83  S   UNL A   1      35.301  32.577  30.290  1.00  0.00     0.127 S 
ATOM     84  O   UNL A   1      34.291  32.582  31.346  1.00  0.00    -0.237 OA
ATOM     85  O   UNL A   1      36.016  33.844  30.114  1.00  0.00    -0.237 OA
ATOM     86  O   UNL A   1      34.913  31.934  29.044  1.00  0.00    -0.744 OA
ENDBRANCH  80  83
ENDBRANCH  52  76
BRANCH  64  87
ATOM     87  C   UNL A   1      44.694  33.750  29.420  1.00  0.00     0.023 A 
ATOM     88  C   UNL A   1      45.296  34.071  30.651  1.00  0.00     0.012 A 
ATOM     89  C   UNL A   1      44.671  34.709  28.387  1.00  0.00     0.148 A 
ATOM     90  C   UNL A   1      45.858  35.331  30.855  1.00  0.00     0.002 A 
ATOM     91  C   UNL A   1      45.272  35.946  28.582  1.00  0.00     0.091 A 
ATOM     92  F   UNL A   1      44.078  34.386  27.228  1.00  0.00    -0.205 F 
ATOM     93  C   UNL A   1      45.858  36.262  29.818  1.00  0.00     0.022 A 
BRANCH  91  94
ATOM     94  S   UNL A   1      45.408  37.171  27.275  1.00  0.00     0.127 S 
ATOM     95  O   UNL A   1      44.003  37.479  27.007  1.00  0.00    -0.237 OA
ATOM     96  O   UNL A   1      46.153  38.245  27.933  1.00  0.00    -0.237 OA
ATOM     97  O   UNL A   1      46.121  36.519  26.184  1.00  0.00    -0.744 OA
ENDBRANCH  91  94
ENDBRANCH  64  87
ENDBRANCH  38  39
ENDBRANCH  31  33
ENDBRANCH  30  31
ENDBRANCH  29  30
ENDBRANCH  28  29
ENDBRANCH   1  28
TORSDOF 23
ENDMDL
MODEL 2
REMARK VINA RESULT:     -10.6      2.496      4.304
REMARK SMILES COCC[C@@]1(C(=O)OCCOCCOC(=O)c2ccc(-c3c4nc(c(-c5cccc(S(=O)(=O)[O-])c5F)c5ccc([nH]5)c(-c5cccc(S(=O)(=O)[O-])c5F)c5nc(c(-c6cccc(S(=O)(=O)[O-])c6F)c6ccc3[nH]6)C=C5)C=C4)cc2)CCCN(c2cc(OC)nc(N)n2)C1
REMARK SMILES IDX 11 1 10 2 9 3 8 4 6 5 7 6 5 7 80 8 93 9 81 10 83 11 82 12
REMARK SMILES IDX 4 13 3 14 2 15 1 16 84 17 85 18 92 19 86 20 90 21 89 22
REMARK SMILES IDX 87 23 88 24 91 25 12 28 13 29 14 30 15 31 16 32 17 33 18 34
REMARK SMILES IDX 79 35 19 36 78 37 20 38 21 39 22 40 72 41 23 42 77 43 71 44
REMARK SMILES IDX 73 45 24 46 76 47 70 48 69 49 25 51 57 52 37 53 56 54 38 55
REMARK SMILES IDX 41 56 55 57 74 58 39 59 40 60 54 62 75 63 42 64 26 65 27 66
REMARK SMILES IDX 35 67 28 68 30 69 36 70 29 71 31 72 32 73 33 74 34 75 58 76
REMARK SMILES IDX 59 77 67 78 60 79 62 80 68 81 61 82 63 83 64 84 65 85 66 86
REMARK SMILES IDX 43 87 44 88 52 89 45 90 47 91 53 92 46 93 48 94 49 95 50 96
REMARK SMILES IDX 51 97
REMARK H PARENT 91 26 91 27 73 50 41 61
REMARK Flexibility Score: inf
ROOT
ATOM      1  O   UNL A   1      37.267  21.572  24.694  1.00  0.00    -0.374 OA
ENDROOT
BRANCH   1   2
ATOM      2  C   UNL A   1      36.064  22.145  24.200  1.00  0.00     0.202 C 
BRANCH   2   3
ATOM      3  C   UNL A   1      35.725  23.606  24.531  1.00  0.00     0.261 C 
BRANCH   3   4
ATOM      4  O   UNL A   1      34.423  24.050  24.140  1.00  0.00    -0.463 OA
BRANCH   4   5
ATOM      5  C   UNL A   1      33.767  24.750  25.115  1.00  0.00     0.314 C 
ATOM      6  O   UNL A   1      34.153  25.833  25.544  1.00  0.00    -0.252 OA
BRANCH   5   7
ATOM      7  C   UNL A   1      32.457  24.070  25.552  1.00  0.00     0.088 C 
ATOM      8  C   UNL A   1      32.151  22.948  24.517  1.00  0.00     0.022 C 
ATOM      9  C   UNL A   1      31.353  25.135  25.549  1.00  0.00     0.137 C 
ATOM     10  C   UNL A   1      31.717  23.478  23.144  1.00  0.00     0.023 C 
ATOM     11  N   UNL A   1      31.023  25.547  24.192  1.00  0.00    -0.355 N 
ATOM     12  C   UNL A   1      30.611  24.527  23.247  1.00  0.00     0.118 C 
BRANCH   7  13
ATOM     13  C   UNL A   1      32.651  23.477  26.982  1.00  0.00     0.049 C 
BRANCH  13  14
ATOM     14  C   UNL A   1      33.995  22.808  27.306  1.00  0.00     0.161 C 
BRANCH  14  15
ATOM     15  O   UNL A   1      33.826  21.434  27.635  1.00  0.00    -0.385 OA
ATOM     16  C   UNL A   1      33.640  20.601  26.497  1.00  0.00     0.194 C 
ENDBRANCH  14  15
ENDBRANCH  13  14
ENDBRANCH   7  13
BRANCH  11  17
ATOM     17  C   UNL A   1      30.891  26.899  23.965  1.00  0.00     0.138 A 
ATOM     18  C   UNL A   1      30.296  27.392  22.828  1.00  0.00     0.115 A 
ATOM     19  N   UNL A   1      31.336  27.728  24.928  1.00  0.00    -0.196 NA
ATOM     20  C   UNL A   1      30.172  28.757  22.753  1.00  0.00     0.219 A 
ATOM     21  C   UNL A   1      31.215  29.042  24.734  1.00  0.00     0.225 A 
ATOM     22  N   UNL A   1      30.657  29.605  23.669  1.00  0.00    -0.177 NA
BRANCH  20  23
ATOM     23  O   UNL A   1      29.512  29.250  21.643  1.00  0.00    -0.481 OA
ATOM     24  C   UNL A   1      28.426  30.111  21.996  1.00  0.00     0.280 C 
ENDBRANCH  20  23
BRANCH  21  25
ATOM     25  N   UNL A   1      31.663  29.875  25.725  1.00  0.00    -0.368 N 
ATOM     26  H   UNL A   1      32.320  30.579  25.518  1.00  0.00     0.159 HD
ATOM     27  H   UNL A   1      31.328  29.768  26.645  1.00  0.00     0.159 HD
ENDBRANCH  21  25
ENDBRANCH  11  17
ENDBRANCH   5   7
ENDBRANCH   4   5
ENDBRANCH   3   4
ENDBRANCH   2   3
ENDBRANCH   1   2
BRANCH   1  28
ATOM     28  C   UNL A   1      37.395  20.153  24.695  1.00  0.00     0.202 C 
BRANCH  28  29
ATOM     29  C   UNL A   1      38.722  19.543  25.155  1.00  0.00     0.261 C 
BRANCH  29  30
ATOM     30  O   UNL A   1      39.128  20.003  26.457  1.00  0.00    -0.460 OA
BRANCH  30  31
ATOM     31  C   UNL A   1      40.429  20.366  26.547  1.00  0.00     0.338 C 
ATOM     32  O   UNL A   1      41.402  19.741  26.143  1.00  0.00    -0.246 OA
BRANCH  31  33
ATOM     33  C   UNL A   1      40.549  21.736  27.069  1.00  0.00     0.060 A 
ATOM     34  C   UNL A   1      39.814  22.750  26.438  1.00  0.00     0.016 A 
ATOM     35  C   UNL A   1      41.484  22.040  28.056  1.00  0.00     0.016 A 
ATOM     36  C   UNL A   1      40.054  24.085  26.755  1.00  0.00     0.010 A 
ATOM     37  C   UNL A   1      41.732  23.379  28.364  1.00  0.00     0.010 A 
ATOM     38  C   UNL A   1      41.051  24.405  27.684  1.00  0.00    -0.014 A 
BRANCH  38  39
ATOM     39  C   UNL A   1      41.516  25.805  27.828  1.00  0.00     0.031 A 
ATOM     40  C   UNL A   1      42.900  26.155  27.355  1.00  0.00     0.074 A 
ATOM     41  C   UNL A   1      40.736  26.732  28.410  1.00  0.00     0.049 A 
ATOM     42  N   UNL A   1      43.567  27.269  27.501  1.00  0.00    -0.248 NA
ATOM     43  C   UNL A   1      43.634  25.104  26.628  1.00  0.00     0.031 C 
ATOM     44  C   UNL A   1      39.373  26.509  28.886  1.00  0.00     0.029 A 
ATOM     45  N   UNL A   1      41.001  28.039  28.735  1.00  0.00    -0.354 N 
ATOM     46  C   UNL A   1      44.811  27.043  26.923  1.00  0.00     0.074 A 
ATOM     47  C   UNL A   1      44.806  25.686  26.421  1.00  0.00     0.031 C 
ATOM     48  C   UNL A   1      38.933  27.630  29.483  1.00  0.00     0.029 A 
ATOM     49  C   UNL A   1      39.997  28.633  29.462  1.00  0.00     0.049 A 
ATOM     50  H   UNL A   1      41.827  28.504  28.474  1.00  0.00     0.167 HD
ATOM     51  C   UNL A   1      45.861  27.890  26.817  1.00  0.00     0.034 A 
ATOM     52  C   UNL A   1      39.959  29.836  30.071  1.00  0.00     0.034 A 
ATOM     53  C   UNL A   1      45.848  29.245  27.296  1.00  0.00     0.049 A 
ATOM     54  C   UNL A   1      41.150  30.753  29.960  1.00  0.00     0.074 A 
ATOM     55  C   UNL A   1      46.845  30.199  27.200  1.00  0.00     0.029 A 
ATOM     56  N   UNL A   1      44.790  29.833  27.970  1.00  0.00    -0.354 N 
ATOM     57  N   UNL A   1      42.282  30.563  29.325  1.00  0.00    -0.248 NA
ATOM     58  C   UNL A   1      41.052  32.060  30.627  1.00  0.00     0.031 C 
ATOM     59  C   UNL A   1      46.395  31.362  27.835  1.00  0.00     0.029 A 
ATOM     60  C   UNL A   1      45.110  31.137  28.304  1.00  0.00     0.049 A 
ATOM     61  H   UNL A   1      43.937  29.389  28.180  1.00  0.00     0.167 HD
ATOM     62  C   UNL A   1      43.010  31.739  29.478  1.00  0.00     0.074 A 
ATOM     63  C   UNL A   1      42.189  32.639  30.261  1.00  0.00     0.031 C 
ATOM     64  C   UNL A   1      44.250  32.042  29.022  1.00  0.00     0.034 A 
BRANCH  51  65
ATOM     65  C   UNL A   1      47.105  27.387  26.137  1.00  0.00     0.023 A 
ATOM     66  C   UNL A   1      47.317  27.669  24.772  1.00  0.00     0.012 A 
ATOM     67  C   UNL A   1      48.091  26.689  26.862  1.00  0.00     0.148 A 
ATOM     68  C   UNL A   1      48.481  27.242  24.134  1.00  0.00     0.002 A 
ATOM     69  C   UNL A   1      49.266  26.302  26.227  1.00  0.00     0.091 A 
ATOM     70  F   UNL A   1      47.858  26.408  28.151  1.00  0.00    -0.205 F 
ATOM     71  C   UNL A   1      49.458  26.569  24.862  1.00  0.00     0.022 A 
BRANCH  69  72
ATOM     72  S   UNL A   1      50.613  25.495  27.101  1.00  0.00     0.127 S 
ATOM     73  O   UNL A   1      50.979  26.515  28.084  1.00  0.00    -0.237 OA
ATOM     74  O   UNL A   1      49.956  24.315  27.662  1.00  0.00    -0.237 OA
ATOM     75  O   UNL A   1      51.624  25.204  26.094  1.00  0.00    -0.744 OA
ENDBRANCH  69  72
ENDBRANCH  51  65
BRANCH  52  76
ATOM     76  C   UNL A   1      38.738  30.250  30.818  1.00  0.00     0.023 A 
ATOM     77  C   UNL A   1      38.623  29.931  32.185  1.00  0.00     0.012 A 
ATOM     78  C   UNL A   1      37.707  30.981  30.195  1.00  0.00     0.148 A 
ATOM     79  C   UNL A   1      37.493  30.311  32.910  1.00  0.00     0.002 A 
ATOM     80  C   UNL A   1      36.611  31.406  30.938  1.00  0.00     0.091 A 
ATOM     81  F   UNL A   1      37.824  31.259  28.889  1.00  0.00    -0.205 F 
ATOM     82  C   UNL A   1      36.494  31.057  32.291  1.00  0.00     0.022 A 
BRANCH  80  83
ATOM     83  S   UNL A   1      35.347  32.485  30.257  1.00  0.00     0.127 S 
ATOM     84  O   UNL A   1      36.117  33.684  29.937  1.00  0.00    -0.237 OA
ATOM     85  O   UNL A   1      34.886  31.719  29.096  1.00  0.00    -0.237 OA
ATOM     86  O   UNL A   1      34.349  32.633  31.307  1.00  0.00    -0.744 OA
ENDBRANCH  80  83
ENDBRANCH  52  76
BRANCH  64  87
ATOM     87  C   UNL A   1      44.792  33.419  29.298  1.00  0.00     0.023 A 
ATOM     88  C   UNL A   1      45.491  33.671  30.493  1.00  0.00     0.012 A 
ATOM     89  C   UNL A   1      44.715  34.425  28.313  1.00  0.00     0.148 A 
ATOM     90  C   UNL A   1      46.095  34.909  30.711  1.00  0.00     0.002 A 
ATOM     91  C   UNL A   1      45.358  35.639  28.518  1.00  0.00     0.091 A 
ATOM     92  F   UNL A   1      44.031  34.167  27.188  1.00  0.00    -0.205 F 
ATOM     93  C   UNL A   1      46.040  35.886  29.719  1.00  0.00     0.022 A 
BRANCH  91  94
ATOM     94  S   UNL A   1      45.425  36.920  27.259  1.00  0.00     0.127 S 
ATOM     95  O   UNL A   1      46.297  37.911  27.889  1.00  0.00    -0.237 OA
ATOM     96  O   UNL A   1      46.026  36.210  26.129  1.00  0.00    -0.237 OA
ATOM     97  O   UNL A   1      44.049  37.347  27.044  1.00  0.00    -0.744 OA
ENDBRANCH  91  94
ENDBRANCH  64  87
ENDBRANCH  38  39
ENDBRANCH  31  33
ENDBRANCH  30  31
ENDBRANCH  29  30
ENDBRANCH  28  29
ENDBRANCH   1  28
TORSDOF 23
ENDMDL
MODEL 3
REMARK VINA RESULT:     -10.5      4.718      6.622
REMARK SMILES COCC[C@@]1(C(=O)OCCOCCOC(=O)c2ccc(-c3c4nc(c(-c5cccc(S(=O)(=O)[O-])c5F)c5ccc([nH]5)c(-c5cccc(S(=O)(=O)[O-])c5F)c5nc(c(-c6cccc(S(=O)(=O)[O-])c6F)c6ccc3[nH]6)C=C5)C=C4)cc2)CCCN(c2cc(OC)nc(N)n2)C1
REMARK SMILES IDX 11 1 10 2 9 3 8 4 6 5 7 6 5 7 80 8 93 9 81 10 83 11 82 12
REMARK SMILES IDX 4 13 3 14 2 15 1 16 84 17 85 18 92 19 86 20 90 21 89 22
REMARK SMILES IDX 87 23 88 24 91 25 12 28 13 29 14 30 15 31 16 32 17 33 18 34
REMARK SMILES IDX 79 35 19 36 78 37 20 38 21 39 22 40 72 41 23 42 77 43 71 44
REMARK SMILES IDX 73 45 24 46 76 47 70 48 69 49 25 51 57 52 37 53 56 54 38 55
REMARK SMILES IDX 41 56 55 57 74 58 39 59 40 60 54 62 75 63 42 64 26 65 27 66
REMARK SMILES IDX 35 67 28 68 30 69 36 70 29 71 31 72 32 73 33 74 34 75 58 76
REMARK SMILES IDX 59 77 67 78 60 79 62 80 68 81 61 82 63 83 64 84 65 85 66 86
REMARK SMILES IDX 43 87 44 88 52 89 45 90 47 91 53 92 46 93 48 94 49 95 50 96
REMARK SMILES IDX 51 97
REMARK H PARENT 91 26 91 27 73 50 41 61
REMARK Flexibility Score: inf
ROOT
ATOM      1  O   UNL A   1      40.397  21.965  26.525  1.00  0.00    -0.374 OA
ENDROOT
BRANCH   1   2
ATOM      2  C   UNL A   1      39.004  21.706  26.411  1.00  0.00     0.202 C 
BRANCH   2   3
ATOM      3  C   UNL A   1      38.150  22.553  25.456  1.00  0.00     0.261 C 
BRANCH   3   4
ATOM      4  O   UNL A   1      36.810  22.817  25.883  1.00  0.00    -0.463 OA
BRANCH   4   5
ATOM      5  C   UNL A   1      35.858  22.380  25.004  1.00  0.00     0.314 C 
ATOM      6  O   UNL A   1      35.994  21.381  24.304  1.00  0.00    -0.252 OA
BRANCH   5   7
ATOM      7  C   UNL A   1      34.575  23.229  25.051  1.00  0.00     0.088 C 
ATOM      8  C   UNL A   1      34.334  23.621  26.538  1.00  0.00     0.022 C 
ATOM      9  C   UNL A   1      33.423  22.368  24.517  1.00  0.00     0.137 C 
ATOM     10  C   UNL A   1      33.894  22.446  27.421  1.00  0.00     0.023 C 
ATOM     11  N   UNL A   1      33.092  21.297  25.447  1.00  0.00    -0.355 N 
ATOM     12  C   UNL A   1      32.739  21.656  26.807  1.00  0.00     0.118 C 
BRANCH   7  13
ATOM     13  C   UNL A   1      34.778  24.496  24.162  1.00  0.00     0.049 C 
BRANCH  13  14
ATOM     14  C   UNL A   1      34.025  25.776  24.554  1.00  0.00     0.161 C 
BRANCH  14  15
ATOM     15  O   UNL A   1      32.957  26.047  23.654  1.00  0.00    -0.385 OA
ATOM     16  C   UNL A   1      33.169  25.515  22.351  1.00  0.00     0.194 C 
ENDBRANCH  14  15
ENDBRANCH  13  14
ENDBRANCH   7  13
BRANCH  11  17
ATOM     17  C   UNL A   1      32.902  20.043  24.911  1.00  0.00     0.138 A 
ATOM     18  C   UNL A   1      33.002  18.903  25.673  1.00  0.00     0.115 A 
ATOM     19  N   UNL A   1      32.572  19.976  23.608  1.00  0.00    -0.196 NA
ATOM     20  C   UNL A   1      32.729  17.720  25.032  1.00  0.00     0.219 A 
ATOM     21  C   UNL A   1      32.377  18.773  23.067  1.00  0.00     0.225 A 
ATOM     22  N   UNL A   1      32.454  17.622  23.725  1.00  0.00    -0.177 NA
BRANCH  20  23
ATOM     23  O   UNL A   1      32.761  16.581  25.814  1.00  0.00    -0.481 OA
ATOM     24  C   UNL A   1      33.855  15.723  25.477  1.00  0.00     0.280 C 
ENDBRANCH  20  23
BRANCH  21  25
ATOM     25  N   UNL A   1      32.033  18.719  21.742  1.00  0.00    -0.368 N 
ATOM     26  H   UNL A   1      31.141  18.397  21.477  1.00  0.00     0.159 HD
ATOM     27  H   UNL A   1      32.678  19.004  21.054  1.00  0.00     0.159 HD
ENDBRANCH  21  25
ENDBRANCH  11  17
ENDBRANCH   5   7
ENDBRANCH   4   5
ENDBRANCH   3   4
ENDBRANCH   2   3
ENDBRANCH   1   2
BRANCH   1  28
ATOM     28  C   UNL A   1      41.313  20.973  26.070  1.00  0.00     0.202 C 
BRANCH  28  29
ATOM     29  C   UNL A   1      42.711  21.421  25.632  1.00  0.00     0.261 C 
BRANCH  29  30
ATOM     30  O   UNL A   1      42.723  22.748  25.074  1.00  0.00    -0.460 OA
BRANCH  30  31
ATOM     31  C   UNL A   1      43.587  23.602  25.670  1.00  0.00     0.338 C 
ATOM     32  O   UNL A   1      44.808  23.607  25.574  1.00  0.00    -0.246 OA
BRANCH  31  33
ATOM     33  C   UNL A   1      42.858  24.680  26.356  1.00  0.00     0.060 A 
ATOM     34  C   UNL A   1      43.357  25.986  26.251  1.00  0.00     0.016 A 
ATOM     35  C   UNL A   1      41.798  24.387  27.213  1.00  0.00     0.016 A 
ATOM     36  C   UNL A   1      42.831  26.999  27.049  1.00  0.00     0.010 A 
ATOM     37  C   UNL A   1      41.280  25.401  28.019  1.00  0.00     0.010 A 
ATOM     38  C   UNL A   1      41.823  26.697  27.973  1.00  0.00    -0.014 A 
BRANCH  38  39
ATOM     39  C   UNL A   1      41.448  27.680  29.017  1.00  0.00     0.031 A 
ATOM     40  C   UNL A   1      42.210  27.677  30.314  1.00  0.00     0.074 A 
ATOM     41  C   UNL A   1      40.420  28.525  28.829  1.00  0.00     0.049 A 
ATOM     42  N   UNL A   1      41.976  28.344  31.412  1.00  0.00    -0.248 NA
ATOM     43  C   UNL A   1      43.390  26.797  30.383  1.00  0.00     0.031 C 
ATOM     44  C   UNL A   1      39.626  28.628  27.606  1.00  0.00     0.029 A 
ATOM     45  N   UNL A   1      39.844  29.429  29.686  1.00  0.00    -0.354 N 
ATOM     46  C   UNL A   1      42.949  27.936  32.317  1.00  0.00     0.074 A 
ATOM     47  C   UNL A   1      43.780  26.966  31.638  1.00  0.00     0.031 C 
ATOM     48  C   UNL A   1      38.636  29.515  27.805  1.00  0.00     0.029 A 
ATOM     49  C   UNL A   1      38.707  30.012  29.178  1.00  0.00     0.049 A 
ATOM     50  H   UNL A   1      40.209  29.639  30.575  1.00  0.00     0.167 HD
ATOM     51  C   UNL A   1      43.136  28.337  33.596  1.00  0.00     0.034 A 
ATOM     52  C   UNL A   1      37.808  30.824  29.770  1.00  0.00     0.034 A 
ATOM     53  C   UNL A   1      42.320  29.319  34.255  1.00  0.00     0.049 A 
ATOM     54  C   UNL A   1      38.024  31.237  31.204  1.00  0.00     0.074 A 
ATOM     55  C   UNL A   1      42.452  29.826  35.535  1.00  0.00     0.029 A 
ATOM     56  N   UNL A   1      41.216  29.936  33.688  1.00  0.00    -0.354 N 
ATOM     57  N   UNL A   1      39.005  30.921  32.015  1.00  0.00    -0.248 NA
ATOM     58  C   UNL A   1      37.024  32.138  31.799  1.00  0.00     0.031 C 
ATOM     59  C   UNL A   1      41.413  30.738  35.749  1.00  0.00     0.029 A 
ATOM     60  C   UNL A   1      40.651  30.815  34.594  1.00  0.00     0.049 A 
ATOM     61  H   UNL A   1      40.885  29.774  32.776  1.00  0.00     0.167 HD
ATOM     62  C   UNL A   1      38.765  31.617  33.197  1.00  0.00     0.074 A 
ATOM     63  C   UNL A   1      37.549  32.376  32.994  1.00  0.00     0.031 C 
ATOM     64  C   UNL A   1      39.481  31.618  34.349  1.00  0.00     0.034 A 
BRANCH  51  65
ATOM     65  C   UNL A   1      44.279  27.730  34.364  1.00  0.00     0.023 A 
ATOM     66  C   UNL A   1      45.521  28.396  34.408  1.00  0.00     0.012 A 
ATOM     67  C   UNL A   1      44.108  26.535  35.089  1.00  0.00     0.148 A 
ATOM     68  C   UNL A   1      46.582  27.867  35.142  1.00  0.00     0.002 A 
ATOM     69  C   UNL A   1      45.158  26.036  35.851  1.00  0.00     0.091 A 
ATOM     70  F   UNL A   1      42.928  25.904  35.012  1.00  0.00    -0.205 F 
ATOM     71  C   UNL A   1      46.397  26.696  35.871  1.00  0.00     0.022 A 
BRANCH  69  72
ATOM     72  S   UNL A   1      44.993  24.574  36.882  1.00  0.00     0.127 S 
ATOM     73  O   UNL A   1      44.434  23.608  35.936  1.00  0.00    -0.237 OA
ATOM     74  O   UNL A   1      46.378  24.313  37.274  1.00  0.00    -0.237 OA
ATOM     75  O   UNL A   1      44.115  24.956  37.979  1.00  0.00    -0.744 OA
ENDBRANCH  69  72
ENDBRANCH  51  65
BRANCH  52  76
ATOM     76  C   UNL A   1      36.636  31.321  28.996  1.00  0.00     0.023 A 
ATOM     77  C   UNL A   1      36.513  32.700  28.738  1.00  0.00     0.012 A 
ATOM     78  C   UNL A   1      35.662  30.438  28.489  1.00  0.00     0.148 A 
ATOM     79  C   UNL A   1      35.428  33.193  28.011  1.00  0.00     0.002 A 
ATOM     80  C   UNL A   1      34.615  30.930  27.717  1.00  0.00     0.091 A 
ATOM     81  F   UNL A   1      35.785  29.132  28.761  1.00  0.00    -0.205 F 
ATOM     82  C   UNL A   1      34.487  32.309  27.491  1.00  0.00     0.022 A 
BRANCH  80  83
ATOM     83  S   UNL A   1      33.437  29.852  26.895  1.00  0.00     0.127 S 
ATOM     84  O   UNL A   1      34.299  29.104  25.984  1.00  0.00    -0.237 OA
ATOM     85  O   UNL A   1      32.902  29.075  28.016  1.00  0.00    -0.237 OA
ATOM     86  O   UNL A   1      32.466  30.737  26.267  1.00  0.00    -0.744 OA
ENDBRANCH  80  83
ENDBRANCH  52  76
BRANCH  64  87
ATOM     87  C   UNL A   1      39.016  32.504  35.473  1.00  0.00     0.023 A 
ATOM     88  C   UNL A   1      38.113  32.005  36.431  1.00  0.00     0.012 A 
ATOM     89  C   UNL A   1      39.574  33.786  35.646  1.00  0.00     0.148 A 
ATOM     90  C   UNL A   1      37.762  32.777  37.539  1.00  0.00     0.002 A 
ATOM     91  C   UNL A   1      39.256  34.530  36.776  1.00  0.00     0.091 A 
ATOM     92  F   UNL A   1      40.421  34.246  34.713  1.00  0.00    -0.205 F 
ATOM     93  C   UNL A   1      38.343  34.030  37.718  1.00  0.00     0.022 A 
BRANCH  91  94
ATOM     94  S   UNL A   1      40.028  36.110  37.141  1.00  0.00     0.127 S 
ATOM     95  O   UNL A   1      41.403  35.709  37.438  1.00  0.00    -0.237 OA
ATOM     96  O   UNL A   1      39.864  36.833  35.879  1.00  0.00    -0.237 OA
ATOM     97  O   UNL A   1      39.287  36.672  38.262  1.00  0.00    -0.744 OA
ENDBRANCH  91  94
ENDBRANCH  64  87
ENDBRANCH  38  39
ENDBRANCH  31  33
ENDBRANCH  30  31
ENDBRANCH  29  30
ENDBRANCH  28  29
ENDBRANCH   1  28
TORSDOF 23
ENDMDL
