MODEL 1
REMARK VINA RESULT:     -12.1      0.000      0.000
REMARK SMILES O=C(Cc1ccc(-c2ccn(C(F)F)c(=O)c2)cc1)OCCOCCOC(=O)c1ccc(-c2c3nc(c(-c4cccc(S(=O)(=O)[O-])c4F)c4ccc([nH]4)c(-c4cccc(S(=O)(=O)[O-])c4F)c4nc(c(-c5cccc(S(=O)(=O)[O-])c5F)c5ccc2[nH]5)C=C4)C=C3)cc1
REMARK SMILES IDX 23 1 22 2 21 3 20 4 2 5 1 6 3 7 4 8 5 9 19 10 6 11 18 12
REMARK SMILES IDX 7 13 8 14 9 15 17 16 10 17 15 18 11 19 16 20 12 21 13 22
REMARK SMILES IDX 14 23 24 24 25 25 26 26 27 27 28 28 29 29 30 30 91 31 31 32
REMARK SMILES IDX 90 33 32 34 33 35 34 36 84 37 35 38 89 39 83 40 85 41 36 42
REMARK SMILES IDX 88 43 82 44 81 45 37 47 69 48 49 49 68 50 50 51 53 52 67 53
REMARK SMILES IDX 86 54 51 55 52 56 66 58 87 59 54 60 38 61 39 62 47 63 40 64
REMARK SMILES IDX 42 65 48 66 41 67 43 68 44 69 45 70 46 71 70 72 71 73 79 74
REMARK SMILES IDX 72 75 74 76 80 77 73 78 75 79 76 80 77 81 78 82 55 83 56 84
REMARK SMILES IDX 64 85 57 86 59 87 65 88 58 89 60 90 61 91 62 92 63 93
REMARK H PARENT 85 46 53 57
REMARK Flexibility Score: inf
ROOT
ATOM      1  O   UNL A   1      35.178  21.815  26.064  1.00  0.00    -0.374 OA
ENDROOT
BRANCH   1   2
ATOM      2  C   UNL A   1      34.407  21.604  27.244  1.00  0.00     0.202 C 
BRANCH   2   3
ATOM      3  C   UNL A   1      33.049  22.293  27.326  1.00  0.00     0.261 C 
BRANCH   3   4
ATOM      4  O   UNL A   1      32.592  22.842  26.077  1.00  0.00    -0.463 OA
BRANCH   4   5
ATOM      5  C   UNL A   1      32.228  22.148  24.976  1.00  0.00     0.310 C 
ATOM      6  O   UNL A   1      31.777  21.008  25.103  1.00  0.00    -0.252 OA
BRANCH   5   7
ATOM      7  C   UNL A   1      32.458  22.712  23.591  1.00  0.00     0.158 C 
BRANCH   7   8
ATOM      8  C   UNL A   1      31.775  24.017  23.297  1.00  0.00    -0.037 A 
ATOM      9  C   UNL A   1      30.444  24.211  23.685  1.00  0.00     0.005 A 
ATOM     10  C   UNL A   1      32.492  25.070  22.707  1.00  0.00     0.005 A 
ATOM     11  C   UNL A   1      29.853  25.460  23.537  1.00  0.00     0.009 A 
ATOM     12  C   UNL A   1      31.896  26.321  22.560  1.00  0.00     0.009 A 
ATOM     13  C   UNL A   1      30.577  26.523  22.983  1.00  0.00    -0.018 A 
BRANCH  13  14
ATOM     14  C   UNL A   1      29.928  27.826  22.797  1.00  0.00    -0.011 A 
ATOM     15  C   UNL A   1      30.637  28.950  22.224  1.00  0.00     0.027 A 
ATOM     16  C   UNL A   1      28.632  27.957  23.128  1.00  0.00     0.080 A 
ATOM     17  C   UNL A   1      30.004  30.105  22.002  1.00  0.00     0.095 A 
ATOM     18  C   UNL A   1      27.917  29.241  22.894  1.00  0.00     0.255 A 
ATOM     19  N   UNL A   1      28.669  30.256  22.322  1.00  0.00    -0.258 N 
ATOM     20  O   UNL A   1      26.733  29.323  23.203  1.00  0.00    -0.269 OA
BRANCH  19  21
ATOM     21  C   UNL A   1      27.997  31.503  22.076  1.00  0.00     0.451 C 
ATOM     22  F   UNL A   1      27.668  32.125  23.233  1.00  0.00    -0.185 F 
ATOM     23  F   UNL A   1      28.773  32.342  21.349  1.00  0.00    -0.185 F 
ENDBRANCH  19  21
ENDBRANCH  13  14
ENDBRANCH   7   8
ENDBRANCH   5   7
ENDBRANCH   4   5
ENDBRANCH   3   4
ENDBRANCH   2   3
ENDBRANCH   1   2
BRANCH   1  24
ATOM     24  C   UNL A   1      35.457  20.648  25.277  1.00  0.00     0.202 C 
BRANCH  24  25
ATOM     25  C   UNL A   1      36.929  20.327  24.991  1.00  0.00     0.261 C 
BRANCH  25  26
ATOM     26  O   UNL A   1      37.789  21.436  25.289  1.00  0.00    -0.460 OA
BRANCH  26  27
ATOM     27  C   UNL A   1      38.960  21.111  25.886  1.00  0.00     0.338 C 
ATOM     28  O   UNL A   1      39.569  20.057  25.784  1.00  0.00    -0.246 OA
BRANCH  27  29
ATOM     29  C   UNL A   1      39.532  22.321  26.507  1.00  0.00     0.060 A 
ATOM     30  C   UNL A   1      39.007  23.563  26.123  1.00  0.00     0.016 A 
ATOM     31  C   UNL A   1      40.561  22.241  27.448  1.00  0.00     0.016 A 
ATOM     32  C   UNL A   1      39.553  24.738  26.634  1.00  0.00     0.010 A 
ATOM     33  C   UNL A   1      41.112  23.418  27.952  1.00  0.00     0.010 A 
ATOM     34  C   UNL A   1      40.637  24.668  27.514  1.00  0.00    -0.014 A 
BRANCH  34  35
ATOM     35  C   UNL A   1      41.395  25.892  27.856  1.00  0.00     0.031 A 
ATOM     36  C   UNL A   1      40.680  26.990  28.592  1.00  0.00     0.074 A 
ATOM     37  C   UNL A   1      42.677  26.034  27.481  1.00  0.00     0.049 A 
ATOM     38  N   UNL A   1      41.098  28.186  28.904  1.00  0.00    -0.248 NA
ATOM     39  C   UNL A   1      39.300  26.701  29.024  1.00  0.00     0.031 C 
ATOM     40  C   UNL A   1      43.464  25.030  26.768  1.00  0.00     0.029 A 
ATOM     41  N   UNL A   1      43.529  27.101  27.616  1.00  0.00    -0.354 N 
ATOM     42  C   UNL A   1      40.023  28.810  29.527  1.00  0.00     0.074 A 
ATOM     43  C   UNL A   1      38.932  27.862  29.547  1.00  0.00     0.031 C 
ATOM     44  C   UNL A   1      44.674  25.544  26.488  1.00  0.00     0.029 A 
ATOM     45  C   UNL A   1      44.730  26.923  26.970  1.00  0.00     0.049 A 
ATOM     46  H   UNL A   1      43.302  27.913  28.123  1.00  0.00     0.167 HD
ATOM     47  C   UNL A   1      39.956  30.060  30.038  1.00  0.00     0.034 A 
ATOM     48  C   UNL A   1      45.739  27.791  26.760  1.00  0.00     0.034 A 
ATOM     49  C   UNL A   1      41.055  30.986  30.026  1.00  0.00     0.049 A 
ATOM     50  C   UNL A   1      45.630  29.185  27.319  1.00  0.00     0.074 A 
ATOM     51  C   UNL A   1      41.116  32.253  30.577  1.00  0.00     0.029 A 
ATOM     52  N   UNL A   1      42.276  30.754  29.413  1.00  0.00    -0.354 N 
ATOM     53  N   UNL A   1      44.656  29.723  28.015  1.00  0.00    -0.248 NA
ATOM     54  C   UNL A   1      46.768  30.087  27.088  1.00  0.00     0.031 C 
ATOM     55  C   UNL A   1      42.360  32.806  30.257  1.00  0.00     0.029 A 
ATOM     56  C   UNL A   1      43.091  31.864  29.548  1.00  0.00     0.049 A 
ATOM     57  H   UNL A   1      42.526  29.923  28.949  1.00  0.00     0.167 HD
ATOM     58  C   UNL A   1      45.079  31.008  28.334  1.00  0.00     0.074 A 
ATOM     59  C   UNL A   1      46.404  31.162  27.772  1.00  0.00     0.031 C 
ATOM     60  C   UNL A   1      44.427  31.979  29.022  1.00  0.00     0.034 A 
BRANCH  47  61
ATOM     61  C   UNL A   1      38.656  30.501  30.656  1.00  0.00     0.023 A 
ATOM     62  C   UNL A   1      38.412  30.275  32.025  1.00  0.00     0.012 A 
ATOM     63  C   UNL A   1      37.698  31.192  29.888  1.00  0.00     0.148 A 
ATOM     64  C   UNL A   1      37.224  30.704  32.615  1.00  0.00     0.002 A 
ATOM     65  C   UNL A   1      36.538  31.658  30.492  1.00  0.00     0.091 A 
ATOM     66  F   UNL A   1      37.937  31.375  28.581  1.00  0.00    -0.205 F 
ATOM     67  C   UNL A   1      36.293  31.405  31.852  1.00  0.00     0.022 A 
BRANCH  65  68
ATOM     68  S   UNL A   1      35.315  32.641  29.616  1.00  0.00     0.127 S 
ATOM     69  O   UNL A   1      36.125  33.758  29.135  1.00  0.00    -0.237 OA
ATOM     70  O   UNL A   1      34.873  31.716  28.572  1.00  0.00    -0.237 OA
ATOM     71  O   UNL A   1      34.297  32.986  30.597  1.00  0.00    -0.744 OA
ENDBRANCH  65  68
ENDBRANCH  47  61
BRANCH  48  72
ATOM     72  C   UNL A   1      46.941  27.365  25.990  1.00  0.00     0.023 A 
ATOM     73  C   UNL A   1      47.921  26.568  26.610  1.00  0.00     0.012 A 
ATOM     74  C   UNL A   1      47.111  27.738  24.641  1.00  0.00     0.148 A 
ATOM     75  C   UNL A   1      49.066  26.178  25.913  1.00  0.00     0.002 A 
ATOM     76  C   UNL A   1      48.225  27.299  23.936  1.00  0.00     0.091 A 
ATOM     77  F   UNL A   1      46.174  28.509  24.073  1.00  0.00    -0.205 F 
ATOM     78  C   UNL A   1      49.213  26.534  24.575  1.00  0.00     0.022 A 
BRANCH  76  79
ATOM     79  S   UNL A   1      48.436  27.604  22.179  1.00  0.00     0.127 S 
ATOM     80  O   UNL A   1      48.653  26.254  21.666  1.00  0.00    -0.237 OA
ATOM     81  O   UNL A   1      47.149  28.201  21.821  1.00  0.00    -0.237 OA
ATOM     82  O   UNL A   1      49.571  28.510  22.069  1.00  0.00    -0.744 OA
ENDBRANCH  76  79
ENDBRANCH  48  72
BRANCH  60  83
ATOM     83  C   UNL A   1      45.145  33.284  29.249  1.00  0.00     0.023 A 
ATOM     84  C   UNL A   1      46.060  33.410  30.312  1.00  0.00     0.012 A 
ATOM     85  C   UNL A   1      44.979  34.354  28.347  1.00  0.00     0.148 A 
ATOM     86  C   UNL A   1      46.776  34.593  30.493  1.00  0.00     0.002 A 
ATOM     87  C   UNL A   1      45.735  35.509  28.502  1.00  0.00     0.091 A 
ATOM     88  F   UNL A   1      44.093  34.217  27.350  1.00  0.00    -0.205 F 
ATOM     89  C   UNL A   1      46.623  35.636  29.581  1.00  0.00     0.022 A 
BRANCH  87  90
ATOM     90  S   UNL A   1      45.683  36.862  27.321  1.00  0.00     0.127 S 
ATOM     91  O   UNL A   1      46.237  36.233  26.124  1.00  0.00    -0.237 OA
ATOM     92  O   UNL A   1      44.251  37.154  27.251  1.00  0.00    -0.237 OA
ATOM     93  O   UNL A   1      46.495  37.929  27.892  1.00  0.00    -0.744 OA
ENDBRANCH  87  90
ENDBRANCH  60  83
ENDBRANCH  34  35
ENDBRANCH  27  29
ENDBRANCH  26  27
ENDBRANCH  25  26
ENDBRANCH  24  25
ENDBRANCH   1  24
TORSDOF 20
ENDMDL
MODEL 2
REMARK VINA RESULT:     -11.9      5.789     10.652
REMARK SMILES O=C(Cc1ccc(-c2ccn(C(F)F)c(=O)c2)cc1)OCCOCCOC(=O)c1ccc(-c2c3nc(c(-c4cccc(S(=O)(=O)[O-])c4F)c4ccc([nH]4)c(-c4cccc(S(=O)(=O)[O-])c4F)c4nc(c(-c5cccc(S(=O)(=O)[O-])c5F)c5ccc2[nH]5)C=C4)C=C3)cc1
REMARK SMILES IDX 23 1 22 2 21 3 20 4 2 5 1 6 3 7 4 8 5 9 19 10 6 11 18 12
REMARK SMILES IDX 7 13 8 14 9 15 17 16 10 17 15 18 11 19 16 20 12 21 13 22
REMARK SMILES IDX 14 23 24 24 25 25 26 26 27 27 28 28 29 29 30 30 91 31 31 32
REMARK SMILES IDX 90 33 32 34 33 35 34 36 84 37 35 38 89 39 83 40 85 41 36 42
REMARK SMILES IDX 88 43 82 44 81 45 37 47 69 48 49 49 68 50 50 51 53 52 67 53
REMARK SMILES IDX 86 54 51 55 52 56 66 58 87 59 54 60 38 61 39 62 47 63 40 64
REMARK SMILES IDX 42 65 48 66 41 67 43 68 44 69 45 70 46 71 70 72 71 73 79 74
REMARK SMILES IDX 72 75 74 76 80 77 73 78 75 79 76 80 77 81 78 82 55 83 56 84
REMARK SMILES IDX 64 85 57 86 59 87 65 88 58 89 60 90 61 91 62 92 63 93
REMARK H PARENT 85 46 53 57
REMARK Flexibility Score: inf
ROOT
ATOM      1  O   UNL A   1      32.169  28.941  23.836  1.00  0.00    -0.374 OA
ENDROOT
BRANCH   1   2
ATOM      2  C   UNL A   1      30.906  29.471  23.442  1.00  0.00     0.202 C 
BRANCH   2   3
ATOM      3  C   UNL A   1      30.051  28.622  22.506  1.00  0.00     0.261 C 
BRANCH   3   4
ATOM      4  O   UNL A   1      30.016  27.224  22.848  1.00  0.00    -0.463 OA
BRANCH   4   5
ATOM      5  C   UNL A   1      29.381  26.668  23.903  1.00  0.00     0.310 C 
ATOM      6  O   UNL A   1      28.152  26.574  23.887  1.00  0.00    -0.252 OA
BRANCH   5   7
ATOM      7  C   UNL A   1      30.147  26.251  25.139  1.00  0.00     0.158 C 
BRANCH   7   8
ATOM      8  C   UNL A   1      30.784  24.892  25.084  1.00  0.00    -0.037 A 
ATOM      9  C   UNL A   1      30.703  24.131  23.912  1.00  0.00     0.005 A 
ATOM     10  C   UNL A   1      31.528  24.417  26.175  1.00  0.00     0.005 A 
ATOM     11  C   UNL A   1      31.403  22.934  23.811  1.00  0.00     0.009 A 
ATOM     12  C   UNL A   1      32.229  23.218  26.072  1.00  0.00     0.009 A 
ATOM     13  C   UNL A   1      32.177  22.477  24.885  1.00  0.00    -0.018 A 
BRANCH  13  14
ATOM     14  C   UNL A   1      32.881  21.193  24.779  1.00  0.00    -0.011 A 
ATOM     15  C   UNL A   1      32.193  19.981  24.389  1.00  0.00     0.027 A 
ATOM     16  C   UNL A   1      34.205  21.161  25.009  1.00  0.00     0.080 A 
ATOM     17  C   UNL A   1      32.870  18.841  24.233  1.00  0.00     0.095 A 
ATOM     18  C   UNL A   1      34.971  19.894  24.848  1.00  0.00     0.255 A 
ATOM     19  N   UNL A   1      34.233  18.789  24.451  1.00  0.00    -0.258 N 
ATOM     20  O   UNL A   1      36.178  19.903  25.061  1.00  0.00    -0.269 OA
BRANCH  19  21
ATOM     21  C   UNL A   1      34.953  17.556  24.277  1.00  0.00     0.451 C 
ATOM     22  F   UNL A   1      34.660  16.671  25.260  1.00  0.00    -0.185 F 
ATOM     23  F   UNL A   1      34.660  16.982  23.086  1.00  0.00    -0.185 F 
ENDBRANCH  19  21
ENDBRANCH  13  14
ENDBRANCH   7   8
ENDBRANCH   5   7
ENDBRANCH   4   5
ENDBRANCH   3   4
ENDBRANCH   2   3
ENDBRANCH   1   2
BRANCH   1  24
ATOM     24  C   UNL A   1      32.602  29.266  25.164  1.00  0.00     0.202 C 
BRANCH  24  25
ATOM     25  C   UNL A   1      31.897  30.430  25.870  1.00  0.00     0.261 C 
BRANCH  25  26
ATOM     26  O   UNL A   1      32.407  30.644  27.194  1.00  0.00    -0.460 OA
BRANCH  26  27
ATOM     27  C   UNL A   1      33.112  31.788  27.359  1.00  0.00     0.338 C 
ATOM     28  O   UNL A   1      32.677  32.930  27.331  1.00  0.00    -0.246 OA
BRANCH  27  29
ATOM     29  C   UNL A   1      34.471  31.450  27.823  1.00  0.00     0.060 A 
ATOM     30  C   UNL A   1      34.733  30.114  28.159  1.00  0.00     0.016 A 
ATOM     31  C   UNL A   1      35.469  32.422  27.926  1.00  0.00     0.016 A 
ATOM     32  C   UNL A   1      35.982  29.754  28.660  1.00  0.00     0.010 A 
ATOM     33  C   UNL A   1      36.716  32.061  28.435  1.00  0.00     0.010 A 
ATOM     34  C   UNL A   1      36.960  30.736  28.842  1.00  0.00    -0.014 A 
BRANCH  34  35
ATOM     35  C   UNL A   1      38.186  30.429  29.612  1.00  0.00     0.031 A 
ATOM     36  C   UNL A   1      39.170  29.456  29.025  1.00  0.00     0.074 A 
ATOM     37  C   UNL A   1      38.392  30.973  30.822  1.00  0.00     0.049 A 
ATOM     38  N   UNL A   1      40.251  28.952  29.554  1.00  0.00    -0.248 NA
ATOM     39  C   UNL A   1      38.886  28.977  27.660  1.00  0.00     0.031 C 
ATOM     40  C   UNL A   1      37.504  31.930  31.480  1.00  0.00     0.029 A 
ATOM     41  N   UNL A   1      39.399  30.765  31.730  1.00  0.00    -0.354 N 
ATOM     42  C   UNL A   1      40.754  28.065  28.609  1.00  0.00     0.074 A 
ATOM     43  C   UNL A   1      39.859  28.096  27.475  1.00  0.00     0.031 C 
ATOM     44  C   UNL A   1      37.983  32.195  32.707  1.00  0.00     0.029 A 
ATOM     45  C   UNL A   1      39.188  31.400  32.931  1.00  0.00     0.049 A 
ATOM     46  H   UNL A   1      40.193  30.215  31.540  1.00  0.00     0.167 HD
ATOM     47  C   UNL A   1      41.865  27.298  28.683  1.00  0.00     0.034 A 
ATOM     48  C   UNL A   1      39.871  31.313  34.090  1.00  0.00     0.034 A 
ATOM     49  C   UNL A   1      42.756  27.290  29.810  1.00  0.00     0.049 A 
ATOM     50  C   UNL A   1      41.091  30.432  34.154  1.00  0.00     0.074 A 
ATOM     51  C   UNL A   1      43.945  26.602  29.961  1.00  0.00     0.029 A 
ATOM     52  N   UNL A   1      42.542  27.987  30.990  1.00  0.00    -0.354 N 
ATOM     53  N   UNL A   1      41.627  29.693  33.211  1.00  0.00    -0.248 NA
ATOM     54  C   UNL A   1      41.818  30.392  35.431  1.00  0.00     0.031 C 
ATOM     55  C   UNL A   1      44.429  26.846  31.250  1.00  0.00     0.029 A 
ATOM     56  C   UNL A   1      43.565  27.726  31.885  1.00  0.00     0.049 A 
ATOM     57  H   UNL A   1      41.776  28.580  31.165  1.00  0.00     0.167 HD
ATOM     58  C   UNL A   1      42.770  29.131  33.769  1.00  0.00     0.074 A 
ATOM     59  C   UNL A   1      42.859  29.629  35.125  1.00  0.00     0.031 C 
ATOM     60  C   UNL A   1      43.660  28.271  33.214  1.00  0.00     0.034 A 
BRANCH  47  61
ATOM     61  C   UNL A   1      42.184  26.404  27.513  1.00  0.00     0.023 A 
ATOM     62  C   UNL A   1      42.908  26.909  26.416  1.00  0.00     0.012 A 
ATOM     63  C   UNL A   1      41.814  25.046  27.531  1.00  0.00     0.148 A 
ATOM     64  C   UNL A   1      43.234  26.084  25.340  1.00  0.00     0.002 A 
ATOM     65  C   UNL A   1      42.183  24.218  26.479  1.00  0.00     0.091 A 
ATOM     66  F   UNL A   1      41.103  24.589  28.573  1.00  0.00    -0.205 F 
ATOM     67  C   UNL A   1      42.882  24.737  25.377  1.00  0.00     0.022 A 
BRANCH  65  68
ATOM     68  S   UNL A   1      41.847  22.453  26.469  1.00  0.00     0.127 S 
ATOM     69  O   UNL A   1      40.392  22.431  26.337  1.00  0.00    -0.237 OA
ATOM     70  O   UNL A   1      42.574  22.012  25.277  1.00  0.00    -0.237 OA
ATOM     71  O   UNL A   1      42.367  21.937  27.726  1.00  0.00    -0.744 OA
ENDBRANCH  65  68
ENDBRANCH  47  61
BRANCH  48  72
ATOM     72  C   UNL A   1      39.419  32.084  35.282  1.00  0.00     0.023 A 
ATOM     73  C   UNL A   1      38.558  31.482  36.218  1.00  0.00     0.012 A 
ATOM     74  C   UNL A   1      39.851  33.408  35.498  1.00  0.00     0.148 A 
ATOM     75  C   UNL A   1      38.106  32.195  37.329  1.00  0.00     0.002 A 
ATOM     76  C   UNL A   1      39.442  34.093  36.636  1.00  0.00     0.091 A 
ATOM     77  F   UNL A   1      40.660  33.968  34.589  1.00  0.00    -0.205 F 
ATOM     78  C   UNL A   1      38.555  33.496  37.544  1.00  0.00     0.022 A 
BRANCH  76  79
ATOM     79  S   UNL A   1      40.068  35.723  37.057  1.00  0.00     0.127 S 
ATOM     80  O   UNL A   1      41.501  35.472  37.175  1.00  0.00    -0.237 OA
ATOM     81  O   UNL A   1      39.672  36.509  35.887  1.00  0.00    -0.237 OA
ATOM     82  O   UNL A   1      39.390  36.100  38.290  1.00  0.00    -0.744 OA
ENDBRANCH  76  79
ENDBRANCH  48  72
BRANCH  60  83
ATOM     83  C   UNL A   1      44.838  27.842  34.051  1.00  0.00     0.023 A 
ATOM     84  C   UNL A   1      46.036  28.582  34.014  1.00  0.00     0.012 A 
ATOM     85  C   UNL A   1      44.721  26.757  34.941  1.00  0.00     0.148 A 
ATOM     86  C   UNL A   1      47.110  28.229  34.830  1.00  0.00     0.002 A 
ATOM     87  C   UNL A   1      45.775  26.444  35.791  1.00  0.00     0.091 A 
ATOM     88  F   UNL A   1      43.576  26.058  34.950  1.00  0.00    -0.205 F 
ATOM     89  C   UNL A   1      46.975  27.171  35.727  1.00  0.00     0.022 A 
BRANCH  87  90
ATOM     90  S   UNL A   1      45.657  25.167  37.047  1.00  0.00     0.127 S 
ATOM     91  O   UNL A   1      46.996  25.202  37.633  1.00  0.00    -0.237 OA
ATOM     92  O   UNL A   1      44.598  25.685  37.914  1.00  0.00    -0.237 OA
ATOM     93  O   UNL A   1      45.321  23.936  36.345  1.00  0.00    -0.744 OA
ENDBRANCH  87  90
ENDBRANCH  60  83
ENDBRANCH  34  35
ENDBRANCH  27  29
ENDBRANCH  26  27
ENDBRANCH  25  26
ENDBRANCH  24  25
ENDBRANCH   1  24
TORSDOF 20
ENDMDL
MODEL 3
REMARK VINA RESULT:     -11.6      5.571     10.392
REMARK SMILES O=C(Cc1ccc(-c2ccn(C(F)F)c(=O)c2)cc1)OCCOCCOC(=O)c1ccc(-c2c3nc(c(-c4cccc(S(=O)(=O)[O-])c4F)c4ccc([nH]4)c(-c4cccc(S(=O)(=O)[O-])c4F)c4nc(c(-c5cccc(S(=O)(=O)[O-])c5F)c5ccc2[nH]5)C=C4)C=C3)cc1
REMARK SMILES IDX 23 1 22 2 21 3 20 4 2 5 1 6 3 7 4 8 5 9 19 10 6 11 18 12
REMARK SMILES IDX 7 13 8 14 9 15 17 16 10 17 15 18 11 19 16 20 12 21 13 22
REMARK SMILES IDX 14 23 24 24 25 25 26 26 27 27 28 28 29 29 30 30 91 31 31 32
REMARK SMILES IDX 90 33 32 34 33 35 34 36 84 37 35 38 89 39 83 40 85 41 36 42
REMARK SMILES IDX 88 43 82 44 81 45 37 47 69 48 49 49 68 50 50 51 53 52 67 53
REMARK SMILES IDX 86 54 51 55 52 56 66 58 87 59 54 60 38 61 39 62 47 63 40 64
REMARK SMILES IDX 42 65 48 66 41 67 43 68 44 69 45 70 46 71 70 72 71 73 79 74
REMARK SMILES IDX 72 75 74 76 80 77 73 78 75 79 76 80 77 81 78 82 55 83 56 84
REMARK SMILES IDX 64 85 57 86 59 87 65 88 58 89 60 90 61 91 62 92 63 93
REMARK H PARENT 85 46 53 57
REMARK Flexibility Score: inf
ROOT
ATOM      1  O   UNL A   1      32.038  29.247  23.934  1.00  0.00    -0.374 OA
ENDROOT
BRANCH   1   2
ATOM      2  C   UNL A   1      30.642  29.535  23.894  1.00  0.00     0.202 C 
BRANCH   2   3
ATOM      3  C   UNL A   1      29.792  28.744  22.904  1.00  0.00     0.261 C 
BRANCH   3   4
ATOM      4  O   UNL A   1      30.007  27.322  22.950  1.00  0.00    -0.463 OA
BRANCH   4   5
ATOM      5  C   UNL A   1      29.542  26.466  23.887  1.00  0.00     0.310 C 
ATOM      6  O   UNL A   1      28.350  26.152  23.879  1.00  0.00    -0.252 OA
BRANCH   5   7
ATOM      7  C   UNL A   1      30.440  25.967  24.997  1.00  0.00     0.158 C 
BRANCH   7   8
ATOM      8  C   UNL A   1      31.097  24.638  24.757  1.00  0.00    -0.037 A 
ATOM      9  C   UNL A   1      31.618  23.912  25.835  1.00  0.00     0.005 A 
ATOM     10  C   UNL A   1      31.118  24.085  23.467  1.00  0.00     0.005 A 
ATOM     11  C   UNL A   1      32.104  22.625  25.636  1.00  0.00     0.009 A 
ATOM     12  C   UNL A   1      31.605  22.794  23.271  1.00  0.00     0.009 A 
ATOM     13  C   UNL A   1      32.092  22.056  24.357  1.00  0.00    -0.018 A 
BRANCH  13  14
ATOM     14  C   UNL A   1      32.643  20.711  24.154  1.00  0.00    -0.011 A 
ATOM     15  C   UNL A   1      33.648  20.163  25.039  1.00  0.00     0.027 A 
ATOM     16  C   UNL A   1      32.164  19.961  23.146  1.00  0.00     0.080 A 
ATOM     17  C   UNL A   1      34.082  18.910  24.874  1.00  0.00     0.095 A 
ATOM     18  C   UNL A   1      32.646  18.567  22.945  1.00  0.00     0.255 A 
ATOM     19  N   UNL A   1      33.593  18.118  23.853  1.00  0.00    -0.258 N 
ATOM     20  O   UNL A   1      32.184  17.910  22.018  1.00  0.00    -0.269 OA
BRANCH  19  21
ATOM     21  C   UNL A   1      34.066  16.770  23.686  1.00  0.00     0.451 C 
ATOM     22  F   UNL A   1      33.112  15.867  24.016  1.00  0.00    -0.185 F 
ATOM     23  F   UNL A   1      34.445  16.540  22.407  1.00  0.00    -0.185 F 
ENDBRANCH  19  21
ENDBRANCH  13  14
ENDBRANCH   7   8
ENDBRANCH   5   7
ENDBRANCH   4   5
ENDBRANCH   3   4
ENDBRANCH   2   3
ENDBRANCH   1   2
BRANCH   1  24
ATOM     24  C   UNL A   1      32.661  29.332  25.223  1.00  0.00     0.202 C 
BRANCH  24  25
ATOM     25  C   UNL A   1      31.981  30.211  26.279  1.00  0.00     0.261 C 
BRANCH  25  26
ATOM     26  O   UNL A   1      32.784  30.353  27.459  1.00  0.00    -0.460 OA
BRANCH  26  27
ATOM     27  C   UNL A   1      33.497  31.501  27.534  1.00  0.00     0.338 C 
ATOM     28  O   UNL A   1      33.062  32.642  27.474  1.00  0.00    -0.246 OA
BRANCH  27  29
ATOM     29  C   UNL A   1      34.878  31.181  27.942  1.00  0.00     0.060 A 
ATOM     30  C   UNL A   1      35.178  29.843  28.238  1.00  0.00     0.016 A 
ATOM     31  C   UNL A   1      35.860  32.170  28.032  1.00  0.00     0.016 A 
ATOM     32  C   UNL A   1      36.450  29.498  28.686  1.00  0.00     0.010 A 
ATOM     33  C   UNL A   1      37.131  31.823  28.489  1.00  0.00     0.010 A 
ATOM     34  C   UNL A   1      37.416  30.496  28.857  1.00  0.00    -0.014 A 
BRANCH  34  35
ATOM     35  C   UNL A   1      38.673  30.196  29.576  1.00  0.00     0.031 A 
ATOM     36  C   UNL A   1      39.616  29.193  28.974  1.00  0.00     0.074 A 
ATOM     37  C   UNL A   1      38.944  30.775  30.757  1.00  0.00     0.049 A 
ATOM     38  N   UNL A   1      40.716  28.692  29.465  1.00  0.00    -0.248 NA
ATOM     39  C   UNL A   1      39.261  28.675  27.640  1.00  0.00     0.031 C 
ATOM     40  C   UNL A   1      38.101  31.764  31.426  1.00  0.00     0.029 A 
ATOM     41  N   UNL A   1      39.992  30.583  31.621  1.00  0.00    -0.354 N 
ATOM     42  C   UNL A   1      41.162  27.769  28.526  1.00  0.00     0.074 A 
ATOM     43  C   UNL A   1      40.213  27.776  27.436  1.00  0.00     0.031 C 
ATOM     44  C   UNL A   1      38.642  32.061  32.620  1.00  0.00     0.029 A 
ATOM     45  C   UNL A   1      39.847  31.257  32.810  1.00  0.00     0.049 A 
ATOM     46  H   UNL A   1      40.769  30.016  31.411  1.00  0.00     0.167 HD
ATOM     47  C   UNL A   1      42.266  26.989  28.570  1.00  0.00     0.034 A 
ATOM     48  C   UNL A   1      40.584  31.197  33.937  1.00  0.00     0.034 A 
ATOM     49  C   UNL A   1      43.211  27.006  29.653  1.00  0.00     0.049 A 
ATOM     50  C   UNL A   1      41.796  30.303  33.970  1.00  0.00     0.074 A 
ATOM     51  C   UNL A   1      44.398  26.307  29.768  1.00  0.00     0.029 A 
ATOM     52  N   UNL A   1      43.063  27.741  30.819  1.00  0.00    -0.354 N 
ATOM     53  N   UNL A   1      42.276  29.528  33.026  1.00  0.00    -0.248 NA
ATOM     54  C   UNL A   1      42.584  30.293  35.211  1.00  0.00     0.031 C 
ATOM     55  C   UNL A   1      44.947  26.585  31.024  1.00  0.00     0.029 A 
ATOM     56  C   UNL A   1      44.124  27.495  31.672  1.00  0.00     0.049 A 
ATOM     57  H   UNL A   1      42.313  28.349  31.012  1.00  0.00     0.167 HD
ATOM     58  C   UNL A   1      43.438  28.968  33.546  1.00  0.00     0.074 A 
ATOM     59  C   UNL A   1      43.599  29.508  34.880  1.00  0.00     0.031 C 
ATOM     60  C   UNL A   1      44.291  28.080  32.977  1.00  0.00     0.034 A 
BRANCH  47  61
ATOM     61  C   UNL A   1      42.518  26.056  27.416  1.00  0.00     0.023 A 
ATOM     62  C   UNL A   1      43.269  26.491  26.306  1.00  0.00     0.012 A 
ATOM     63  C   UNL A   1      42.057  24.726  27.460  1.00  0.00     0.148 A 
ATOM     64  C   UNL A   1      43.531  25.627  25.245  1.00  0.00     0.002 A 
ATOM     65  C   UNL A   1      42.363  23.857  26.421  1.00  0.00     0.091 A 
ATOM     66  F   UNL A   1      41.323  24.337  28.513  1.00  0.00    -0.205 F 
ATOM     67  C   UNL A   1      43.089  24.308  25.307  1.00  0.00     0.022 A 
BRANCH  65  68
ATOM     68  S   UNL A   1      41.909  22.118  26.445  1.00  0.00     0.127 S 
ATOM     69  O   UNL A   1      40.460  22.190  26.265  1.00  0.00    -0.237 OA
ATOM     70  O   UNL A   1      42.642  21.597  25.290  1.00  0.00    -0.237 OA
ATOM     71  O   UNL A   1      42.352  21.603  27.732  1.00  0.00    -0.744 OA
ENDBRANCH  65  68
ENDBRANCH  47  61
BRANCH  48  72
ATOM     72  C   UNL A   1      40.200  32.011  35.125  1.00  0.00     0.023 A 
ATOM     73  C   UNL A   1      40.807  33.263  35.338  1.00  0.00     0.012 A 
ATOM     74  C   UNL A   1      39.227  31.555  36.036  1.00  0.00     0.148 A 
ATOM     75  C   UNL A   1      40.478  34.031  36.456  1.00  0.00     0.002 A 
ATOM     76  C   UNL A   1      38.863  32.349  37.116  1.00  0.00     0.091 A 
ATOM     77  F   UNL A   1      38.671  30.354  35.823  1.00  0.00    -0.205 F 
ATOM     78  C   UNL A   1      39.499  33.580  37.339  1.00  0.00     0.022 A 
BRANCH  76  79
ATOM     79  S   UNL A   1      37.527  31.907  38.232  1.00  0.00     0.127 S 
ATOM     80  O   UNL A   1      36.487  32.856  37.845  1.00  0.00    -0.237 OA
ATOM     81  O   UNL A   1      37.266  30.517  37.853  1.00  0.00    -0.237 OA
ATOM     82  O   UNL A   1      38.064  32.072  39.576  1.00  0.00    -0.744 OA
ENDBRANCH  76  79
ENDBRANCH  48  72
BRANCH  60  83
ATOM     83  C   UNL A   1      45.503  27.662  33.769  1.00  0.00     0.023 A 
ATOM     84  C   UNL A   1      45.427  26.564  34.648  1.00  0.00     0.012 A 
ATOM     85  C   UNL A   1      46.740  28.305  33.568  1.00  0.00     0.148 A 
ATOM     86  C   UNL A   1      46.559  26.131  35.338  1.00  0.00     0.002 A 
ATOM     87  C   UNL A   1      47.875  27.834  34.217  1.00  0.00     0.091 A 
ATOM     88  F   UNL A   1      46.787  29.356  32.736  1.00  0.00    -0.205 F 
ATOM     89  C   UNL A   1      47.784  26.757  35.113  1.00  0.00     0.022 A 
BRANCH  87  90
ATOM     90  S   UNL A   1      49.511  28.508  33.912  1.00  0.00     0.127 S 
ATOM     91  O   UNL A   1      49.611  28.401  32.457  1.00  0.00    -0.237 OA
ATOM     92  O   UNL A   1      49.380  29.876  34.415  1.00  0.00    -0.237 OA
ATOM     93  O   UNL A   1      50.441  27.672  34.659  1.00  0.00    -0.744 OA
ENDBRANCH  87  90
ENDBRANCH  60  83
ENDBRANCH  34  35
ENDBRANCH  27  29
ENDBRANCH  26  27
ENDBRANCH  25  26
ENDBRANCH  24  25
ENDBRANCH   1  24
TORSDOF 20
ENDMDL
