MODEL 1
REMARK VINA RESULT:      -7.6      0.000      0.000
REMARK SMILES CC[C@@H](C)c1ccccc1OCC(C)(C)C(=O)OCCOCCOC(=O)c1ccc(-c2c3nc(c(-c4cccc(S(=O)(=O)[O-])c4F)c4ccc([nH]4)c(-c4cccc(S(=O)(=O)[O-])c4F)c4nc(c(-c5cccc(S(=O)(=O)[O-])c5F)c5ccc2[nH]5)C=C4)C=C3)cc1
REMARK SMILES IDX 20 1 19 2 18 3 16 4 17 5 13 6 14 7 15 8 12 9 11 10 10 11
REMARK SMILES IDX 5 12 6 13 7 14 9 15 8 16 3 17 4 18 2 19 1 20 21 21 22 22
REMARK SMILES IDX 23 23 24 24 25 25 26 26 27 27 28 28 89 29 29 30 88 31 30 32
REMARK SMILES IDX 31 33 32 34 82 35 33 36 87 37 81 38 83 39 34 40 86 41 80 42
REMARK SMILES IDX 79 43 35 45 67 46 47 47 66 48 48 49 51 50 65 51 84 52 49 53
REMARK SMILES IDX 50 54 64 56 85 57 52 58 36 59 37 60 45 61 38 62 40 63 46 64
REMARK SMILES IDX 39 65 41 66 42 67 43 68 44 69 68 70 69 71 77 72 70 73 72 74
REMARK SMILES IDX 78 75 71 76 73 77 74 78 75 79 76 80 53 81 54 82 62 83 55 84
REMARK SMILES IDX 57 85 63 86 56 87 58 88 59 89 60 90 61 91
REMARK H PARENT 83 44 51 55
REMARK Flexibility Score: inf
ROOT
ATOM      1  C   UNL A   1      41.486  24.587  27.859  1.00  0.00     0.202 C 
ENDROOT
BRANCH   1   2
ATOM      2  C   UNL A   1      40.366  25.397  28.509  1.00  0.00     0.261 C 
BRANCH   2   3
ATOM      3  O   UNL A   1      40.695  26.789  28.540  1.00  0.00    -0.463 OA
BRANCH   3   4
ATOM      4  C   UNL A   1      39.766  27.571  29.140  1.00  0.00     0.315 C 
ATOM      5  O   UNL A   1      39.087  27.228  30.103  1.00  0.00    -0.251 OA
BRANCH   4   6
ATOM      6  C   UNL A   1      39.627  28.935  28.477  1.00  0.00     0.096 C 
ATOM      7  C   UNL A   1      38.149  28.959  28.061  1.00  0.00     0.027 C 
ATOM      8  C   UNL A   1      40.444  29.131  27.180  1.00  0.00     0.027 C 
BRANCH   6   9
ATOM      9  C   UNL A   1      40.141  29.931  29.574  1.00  0.00     0.247 C 
BRANCH   9  10
ATOM     10  O   UNL A   1      39.191  30.688  30.317  1.00  0.00    -0.492 OA
BRANCH  10  11
ATOM     11  C   UNL A   1      39.161  32.023  30.050  1.00  0.00     0.122 A 
ATOM     12  C   UNL A   1      37.933  32.582  29.649  1.00  0.00    -0.003 A 
ATOM     13  C   UNL A   1      37.888  33.987  29.541  1.00  0.00     0.008 A 
ATOM     14  C   UNL A   1      39.010  34.785  29.808  1.00  0.00     0.001 A 
ATOM     15  C   UNL A   1      40.308  32.813  30.231  1.00  0.00     0.047 A 
ATOM     16  C   UNL A   1      40.225  34.197  30.132  1.00  0.00     0.004 A 
BRANCH  12  17
ATOM     17  C   UNL A   1      36.640  31.778  29.391  1.00  0.00     0.019 C 
ATOM     18  C   UNL A   1      36.006  32.151  28.039  1.00  0.00     0.013 C 
BRANCH  17  19
ATOM     19  C   UNL A   1      35.560  31.816  30.506  1.00  0.00     0.005 C 
ATOM     20  C   UNL A   1      34.516  32.915  30.398  1.00  0.00     0.004 C 
ENDBRANCH  17  19
ENDBRANCH  12  17
ENDBRANCH  10  11
ENDBRANCH   9  10
ENDBRANCH   6   9
ENDBRANCH   4   6
ENDBRANCH   3   4
ENDBRANCH   2   3
ENDBRANCH   1   2
BRANCH   1  21
ATOM     21  O   UNL A   1      41.188  23.927  26.631  1.00  0.00    -0.374 OA
BRANCH  21  22
ATOM     22  C   UNL A   1      41.886  22.716  26.333  1.00  0.00     0.202 C 
BRANCH  22  23
ATOM     23  C   UNL A   1      42.971  22.756  25.248  1.00  0.00     0.261 C 
BRANCH  23  24
ATOM     24  O   UNL A   1      44.260  23.120  25.778  1.00  0.00    -0.460 OA
BRANCH  24  25
ATOM     25  C   UNL A   1      44.898  24.099  25.089  1.00  0.00     0.338 C 
ATOM     26  O   UNL A   1      45.346  24.031  23.957  1.00  0.00    -0.246 OA
BRANCH  25  27
ATOM     27  C   UNL A   1      44.804  25.376  25.818  1.00  0.00     0.060 A 
ATOM     28  C   UNL A   1      45.856  25.707  26.683  1.00  0.00     0.016 A 
ATOM     29  C   UNL A   1      43.652  26.160  25.763  1.00  0.00     0.016 A 
ATOM     30  C   UNL A   1      45.741  26.800  27.535  1.00  0.00     0.010 A 
ATOM     31  C   UNL A   1      43.530  27.249  26.633  1.00  0.00     0.010 A 
ATOM     32  C   UNL A   1      44.555  27.543  27.551  1.00  0.00    -0.014 A 
BRANCH  32  33
ATOM     33  C   UNL A   1      44.331  28.502  28.656  1.00  0.00     0.031 A 
ATOM     34  C   UNL A   1      44.103  27.968  30.044  1.00  0.00     0.074 A 
ATOM     35  C   UNL A   1      44.365  29.827  28.434  1.00  0.00     0.049 A 
ATOM     36  N   UNL A   1      43.895  28.619  31.158  1.00  0.00    -0.248 NA
ATOM     37  C   UNL A   1      44.112  26.503  30.196  1.00  0.00     0.031 C 
ATOM     38  C   UNL A   1      44.591  30.459  27.135  1.00  0.00     0.029 A 
ATOM     39  N   UNL A   1      44.188  30.879  29.296  1.00  0.00    -0.354 N 
ATOM     40  C   UNL A   1      43.719  27.648  32.136  1.00  0.00     0.074 A 
ATOM     41  C   UNL A   1      43.837  26.362  31.485  1.00  0.00     0.031 C 
ATOM     42  C   UNL A   1      44.506  31.793  27.281  1.00  0.00     0.029 A 
ATOM     43  C   UNL A   1      44.200  32.105  28.676  1.00  0.00     0.049 A 
ATOM     44  H   UNL A   1      44.063  30.767  30.267  1.00  0.00     0.167 HD
ATOM     45  C   UNL A   1      43.495  27.813  33.461  1.00  0.00     0.034 A 
ATOM     46  C   UNL A   1      43.971  33.335  29.175  1.00  0.00     0.034 A 
ATOM     47  C   UNL A   1      43.402  29.092  34.108  1.00  0.00     0.049 A 
ATOM     48  C   UNL A   1      43.705  33.491  30.650  1.00  0.00     0.074 A 
ATOM     49  C   UNL A   1      43.229  29.366  35.453  1.00  0.00     0.029 A 
ATOM     50  N   UNL A   1      43.461  30.314  33.455  1.00  0.00    -0.354 N 
ATOM     51  N   UNL A   1      43.667  32.571  31.584  1.00  0.00    -0.248 NA
ATOM     52  C   UNL A   1      43.485  34.858  31.146  1.00  0.00     0.031 C 
ATOM     53  C   UNL A   1      43.156  30.755  35.609  1.00  0.00     0.029 A 
ATOM     54  C   UNL A   1      43.311  31.346  34.365  1.00  0.00     0.049 A 
ATOM     55  H   UNL A   1      43.589  30.430  32.486  1.00  0.00     0.167 HD
ATOM     56  C   UNL A   1      43.451  33.247  32.779  1.00  0.00     0.074 A 
ATOM     57  C   UNL A   1      43.388  34.657  32.454  1.00  0.00     0.031 C 
ATOM     58  C   UNL A   1      43.303  32.747  34.032  1.00  0.00     0.034 A 
BRANCH  45  59
ATOM     59  C   UNL A   1      43.355  26.574  34.304  1.00  0.00     0.023 A 
ATOM     60  C   UNL A   1      42.077  26.155  34.724  1.00  0.00     0.012 A 
ATOM     61  C   UNL A   1      44.482  25.799  34.640  1.00  0.00     0.148 A 
ATOM     62  C   UNL A   1      41.925  24.999  35.491  1.00  0.00     0.002 A 
ATOM     63  C   UNL A   1      44.319  24.627  35.369  1.00  0.00     0.091 A 
ATOM     64  F   UNL A   1      45.692  26.230  34.255  1.00  0.00    -0.205 F 
ATOM     65  C   UNL A   1      43.043  24.231  35.803  1.00  0.00     0.022 A 
BRANCH  63  66
ATOM     66  S   UNL A   1      45.690  23.533  35.758  1.00  0.00     0.127 S 
ATOM     67  O   UNL A   1      45.933  22.894  34.466  1.00  0.00    -0.237 OA
ATOM     68  O   UNL A   1      46.727  24.475  36.177  1.00  0.00    -0.237 OA
ATOM     69  O   UNL A   1      45.211  22.650  36.812  1.00  0.00    -0.744 OA
ENDBRANCH  63  66
ENDBRANCH  45  59
BRANCH  46  70
ATOM     70  C   UNL A   1      44.011  34.519  28.272  1.00  0.00     0.023 A 
ATOM     71  C   UNL A   1      42.814  35.026  27.729  1.00  0.00     0.012 A 
ATOM     72  C   UNL A   1      45.227  35.163  27.972  1.00  0.00     0.148 A 
ATOM     73  C   UNL A   1      42.832  36.135  26.884  1.00  0.00     0.002 A 
ATOM     74  C   UNL A   1      45.231  36.301  27.175  1.00  0.00     0.091 A 
ATOM     75  F   UNL A   1      46.358  34.653  28.481  1.00  0.00    -0.205 F 
ATOM     76  C   UNL A   1      44.037  36.781  26.617  1.00  0.00     0.022 A 
BRANCH  74  77
ATOM     77  S   UNL A   1      46.718  37.268  26.889  1.00  0.00     0.127 S 
ATOM     78  O   UNL A   1      47.533  36.341  26.109  1.00  0.00    -0.237 OA
ATOM     79  O   UNL A   1      46.197  38.411  26.139  1.00  0.00    -0.237 OA
ATOM     80  O   UNL A   1      47.229  37.604  28.212  1.00  0.00    -0.744 OA
ENDBRANCH  74  77
ENDBRANCH  46  70
BRANCH  58  81
ATOM     81  C   UNL A   1      43.089  33.726  35.157  1.00  0.00     0.023 A 
ATOM     82  C   UNL A   1      44.199  34.246  35.852  1.00  0.00     0.012 A 
ATOM     83  C   UNL A   1      41.797  34.193  35.467  1.00  0.00     0.148 A 
ATOM     84  C   UNL A   1      44.023  35.194  36.859  1.00  0.00     0.002 A 
ATOM     85  C   UNL A   1      41.634  35.173  36.440  1.00  0.00     0.091 A 
ATOM     86  F   UNL A   1      40.752  33.673  34.807  1.00  0.00    -0.205 F 
ATOM     87  C   UNL A   1      42.744  35.665  37.145  1.00  0.00     0.022 A 
BRANCH  85  88
ATOM     88  S   UNL A   1      40.036  35.908  36.805  1.00  0.00     0.127 S 
ATOM     89  O   UNL A   1      40.379  36.857  37.863  1.00  0.00    -0.237 OA
ATOM     90  O   UNL A   1      39.676  36.524  35.528  1.00  0.00    -0.237 OA
ATOM     91  O   UNL A   1      39.171  34.806  37.208  1.00  0.00    -0.744 OA
ENDBRANCH  85  88
ENDBRANCH  58  81
ENDBRANCH  32  33
ENDBRANCH  25  27
ENDBRANCH  24  25
ENDBRANCH  23  24
ENDBRANCH  22  23
ENDBRANCH  21  22
ENDBRANCH   1  21
TORSDOF 22
ENDMDL
MODEL 2
REMARK VINA RESULT:      -7.4      2.815      8.437
REMARK SMILES CC[C@@H](C)c1ccccc1OCC(C)(C)C(=O)OCCOCCOC(=O)c1ccc(-c2c3nc(c(-c4cccc(S(=O)(=O)[O-])c4F)c4ccc([nH]4)c(-c4cccc(S(=O)(=O)[O-])c4F)c4nc(c(-c5cccc(S(=O)(=O)[O-])c5F)c5ccc2[nH]5)C=C4)C=C3)cc1
REMARK SMILES IDX 20 1 19 2 18 3 16 4 17 5 13 6 14 7 15 8 12 9 11 10 10 11
REMARK SMILES IDX 5 12 6 13 7 14 9 15 8 16 3 17 4 18 2 19 1 20 21 21 22 22
REMARK SMILES IDX 23 23 24 24 25 25 26 26 27 27 28 28 89 29 29 30 88 31 30 32
REMARK SMILES IDX 31 33 32 34 82 35 33 36 87 37 81 38 83 39 34 40 86 41 80 42
REMARK SMILES IDX 79 43 35 45 67 46 47 47 66 48 48 49 51 50 65 51 84 52 49 53
REMARK SMILES IDX 50 54 64 56 85 57 52 58 36 59 37 60 45 61 38 62 40 63 46 64
REMARK SMILES IDX 39 65 41 66 42 67 43 68 44 69 68 70 69 71 77 72 70 73 72 74
REMARK SMILES IDX 78 75 71 76 73 77 74 78 75 79 76 80 53 81 54 82 62 83 55 84
REMARK SMILES IDX 57 85 63 86 56 87 58 88 59 89 60 90 61 91
REMARK H PARENT 83 44 51 55
REMARK Flexibility Score: inf
ROOT
ATOM      1  C   UNL A   1      35.233  33.373  30.917  1.00  0.00     0.202 C 
ENDROOT
BRANCH   1   2
ATOM      2  C   UNL A   1      35.375  31.853  30.977  1.00  0.00     0.261 C 
BRANCH   2   3
ATOM      3  O   UNL A   1      36.675  31.444  30.542  1.00  0.00    -0.463 OA
BRANCH   3   4
ATOM      4  C   UNL A   1      36.809  30.110  30.353  1.00  0.00     0.315 C 
ATOM      5  O   UNL A   1      36.337  29.254  31.094  1.00  0.00    -0.251 OA
BRANCH   4   6
ATOM      6  C   UNL A   1      37.640  29.770  29.123  1.00  0.00     0.096 C 
ATOM      7  C   UNL A   1      38.237  31.130  28.732  1.00  0.00     0.027 C 
ATOM      8  C   UNL A   1      36.840  29.280  27.894  1.00  0.00     0.027 C 
BRANCH   6   9
ATOM      9  C   UNL A   1      38.584  28.623  29.623  1.00  0.00     0.247 C 
BRANCH   9  10
ATOM     10  O   UNL A   1      38.697  27.435  28.845  1.00  0.00    -0.492 OA
BRANCH  10  11
ATOM     11  C   UNL A   1      39.729  27.406  27.957  1.00  0.00     0.122 A 
ATOM     12  C   UNL A   1      40.048  26.170  27.366  1.00  0.00    -0.003 A 
ATOM     13  C   UNL A   1      41.006  26.197  26.331  1.00  0.00     0.008 A 
ATOM     14  C   UNL A   1      41.614  27.391  25.920  1.00  0.00     0.001 A 
ATOM     15  C   UNL A   1      40.402  28.588  27.607  1.00  0.00     0.047 A 
ATOM     16  C   UNL A   1      41.329  28.583  26.572  1.00  0.00     0.004 A 
BRANCH  12  17
ATOM     17  C   UNL A   1      39.384  24.823  27.724  1.00  0.00     0.019 C 
ATOM     18  C   UNL A   1      40.363  23.648  27.550  1.00  0.00     0.013 C 
BRANCH  17  19
ATOM     19  C   UNL A   1      38.041  24.497  27.015  1.00  0.00     0.005 C 
ATOM     20  C   UNL A   1      38.135  23.700  25.723  1.00  0.00     0.004 C 
ENDBRANCH  17  19
ENDBRANCH  12  17
ENDBRANCH  10  11
ENDBRANCH   9  10
ENDBRANCH   6   9
ENDBRANCH   4   6
ENDBRANCH   3   4
ENDBRANCH   2   3
ENDBRANCH   1   2
BRANCH   1  21
ATOM     21  O   UNL A   1      35.383  34.093  32.138  1.00  0.00    -0.374 OA
BRANCH  21  22
ATOM     22  C   UNL A   1      35.025  33.434  33.356  1.00  0.00     0.202 C 
BRANCH  22  23
ATOM     23  C   UNL A   1      35.554  34.016  34.674  1.00  0.00     0.261 C 
BRANCH  23  24
ATOM     24  O   UNL A   1      36.989  33.926  34.774  1.00  0.00    -0.460 OA
BRANCH  24  25
ATOM     25  C   UNL A   1      37.438  32.912  35.555  1.00  0.00     0.338 C 
ATOM     26  O   UNL A   1      36.965  32.531  36.612  1.00  0.00    -0.246 OA
BRANCH  25  27
ATOM     27  C   UNL A   1      38.486  32.155  34.848  1.00  0.00     0.060 A 
ATOM     28  C   UNL A   1      39.815  32.379  35.231  1.00  0.00     0.016 A 
ATOM     29  C   UNL A   1      38.186  31.353  33.747  1.00  0.00     0.016 A 
ATOM     30  C   UNL A   1      40.856  31.840  34.483  1.00  0.00     0.010 A 
ATOM     31  C   UNL A   1      39.234  30.827  32.985  1.00  0.00     0.010 A 
ATOM     32  C   UNL A   1      40.570  31.106  33.326  1.00  0.00    -0.014 A 
BRANCH  32  33
ATOM     33  C   UNL A   1      41.673  30.798  32.388  1.00  0.00     0.031 A 
ATOM     34  C   UNL A   1      42.382  29.477  32.511  1.00  0.00     0.074 A 
ATOM     35  C   UNL A   1      42.015  31.667  31.421  1.00  0.00     0.049 A 
ATOM     36  N   UNL A   1      43.364  28.995  31.796  1.00  0.00    -0.248 NA
ATOM     37  C   UNL A   1      41.918  28.577  33.581  1.00  0.00     0.031 C 
ATOM     38  C   UNL A   1      41.391  32.970  31.199  1.00  0.00     0.029 A 
ATOM     39  N   UNL A   1      42.989  31.588  30.457  1.00  0.00    -0.354 N 
ATOM     40  C   UNL A   1      43.657  27.753  32.346  1.00  0.00     0.074 A 
ATOM     41  C   UNL A   1      42.754  27.557  33.459  1.00  0.00     0.031 C 
ATOM     42  C   UNL A   1      42.020  33.585  30.182  1.00  0.00     0.029 A 
ATOM     43  C   UNL A   1      43.102  32.728  29.698  1.00  0.00     0.049 A 
ATOM     44  H   UNL A   1      43.553  30.792  30.323  1.00  0.00     0.167 HD
ATOM     45  C   UNL A   1      44.585  26.850  31.950  1.00  0.00     0.034 A 
ATOM     46  C   UNL A   1      43.990  33.048  28.737  1.00  0.00     0.034 A 
ATOM     47  C   UNL A   1      45.464  27.039  30.829  1.00  0.00     0.049 A 
ATOM     48  C   UNL A   1      45.025  32.034  28.327  1.00  0.00     0.074 A 
ATOM     49  C   UNL A   1      46.403  26.163  30.314  1.00  0.00     0.029 A 
ATOM     50  N   UNL A   1      45.523  28.189  30.057  1.00  0.00    -0.354 N 
ATOM     51  N   UNL A   1      45.208  30.814  28.773  1.00  0.00    -0.248 NA
ATOM     52  C   UNL A   1      45.954  32.425  27.256  1.00  0.00     0.031 C 
ATOM     53  C   UNL A   1      47.048  26.795  29.245  1.00  0.00     0.029 A 
ATOM     54  C   UNL A   1      46.492  28.053  29.078  1.00  0.00     0.049 A 
ATOM     55  H   UNL A   1      44.958  28.984  30.185  1.00  0.00     0.167 HD
ATOM     56  C   UNL A   1      46.248  30.282  28.019  1.00  0.00     0.074 A 
ATOM     57  C   UNL A   1      46.642  31.306  27.072  1.00  0.00     0.031 C 
ATOM     58  C   UNL A   1      46.836  29.062  28.109  1.00  0.00     0.034 A 
BRANCH  45  59
ATOM     59  C   UNL A   1      44.682  25.563  32.725  1.00  0.00     0.023 A 
ATOM     60  C   UNL A   1      44.106  24.388  32.203  1.00  0.00     0.012 A 
ATOM     61  C   UNL A   1      45.383  25.508  33.945  1.00  0.00     0.148 A 
ATOM     62  C   UNL A   1      44.202  23.182  32.897  1.00  0.00     0.002 A 
ATOM     63  C   UNL A   1      45.509  24.294  34.611  1.00  0.00     0.091 A 
ATOM     64  F   UNL A   1      45.899  26.642  34.438  1.00  0.00    -0.205 F 
ATOM     65  C   UNL A   1      44.912  23.133  34.094  1.00  0.00     0.022 A 
BRANCH  63  66
ATOM     66  S   UNL A   1      46.466  24.117  36.121  1.00  0.00     0.127 S 
ATOM     67  O   UNL A   1      47.772  24.626  35.704  1.00  0.00    -0.237 OA
ATOM     68  O   UNL A   1      45.741  24.984  37.049  1.00  0.00    -0.237 OA
ATOM     69  O   UNL A   1      46.425  22.700  36.457  1.00  0.00    -0.744 OA
ENDBRANCH  63  66
ENDBRANCH  45  59
BRANCH  46  70
ATOM     70  C   UNL A   1      43.919  34.382  28.079  1.00  0.00     0.023 A 
ATOM     71  C   UNL A   1      43.128  34.553  26.927  1.00  0.00     0.012 A 
ATOM     72  C   UNL A   1      44.610  35.491  28.607  1.00  0.00     0.148 A 
ATOM     73  C   UNL A   1      43.046  35.796  26.299  1.00  0.00     0.002 A 
ATOM     74  C   UNL A   1      44.479  36.738  28.009  1.00  0.00     0.091 A 
ATOM     75  F   UNL A   1      45.374  35.304  29.692  1.00  0.00    -0.205 F 
ATOM     76  C   UNL A   1      43.711  36.891  26.846  1.00  0.00     0.022 A 
BRANCH  74  77
ATOM     77  S   UNL A   1      45.193  38.225  28.723  1.00  0.00     0.127 S 
ATOM     78  O   UNL A   1      44.579  39.272  27.912  1.00  0.00    -0.237 OA
ATOM     79  O   UNL A   1      44.717  38.155  30.105  1.00  0.00    -0.237 OA
ATOM     80  O   UNL A   1      46.636  38.075  28.580  1.00  0.00    -0.744 OA
ENDBRANCH  74  77
ENDBRANCH  46  70
BRANCH  58  81
ATOM     81  C   UNL A   1      47.949  28.747  27.144  1.00  0.00     0.023 A 
ATOM     82  C   UNL A   1      49.288  28.942  27.534  1.00  0.00     0.012 A 
ATOM     83  C   UNL A   1      47.670  28.181  25.885  1.00  0.00     0.148 A 
ATOM     84  C   UNL A   1      50.333  28.605  26.673  1.00  0.00     0.002 A 
ATOM     85  C   UNL A   1      48.716  27.804  25.051  1.00  0.00     0.091 A 
ATOM     86  F   UNL A   1      46.387  28.020  25.525  1.00  0.00    -0.205 F 
ATOM     87  C   UNL A   1      50.048  28.026  25.439  1.00  0.00     0.022 A 
BRANCH  85  88
ATOM     88  S   UNL A   1      48.444  26.963  23.487  1.00  0.00     0.127 S 
ATOM     89  O   UNL A   1      47.566  27.903  22.792  1.00  0.00    -0.237 OA
ATOM     90  O   UNL A   1      49.798  26.875  22.940  1.00  0.00    -0.237 OA
ATOM     91  O   UNL A   1      47.845  25.678  23.823  1.00  0.00    -0.744 OA
ENDBRANCH  85  88
ENDBRANCH  58  81
ENDBRANCH  32  33
ENDBRANCH  25  27
ENDBRANCH  24  25
ENDBRANCH  23  24
ENDBRANCH  22  23
ENDBRANCH  21  22
ENDBRANCH   1  21
TORSDOF 22
ENDMDL
MODEL 3
REMARK VINA RESULT:      -7.0      6.745     13.034
REMARK SMILES CC[C@@H](C)c1ccccc1OCC(C)(C)C(=O)OCCOCCOC(=O)c1ccc(-c2c3nc(c(-c4cccc(S(=O)(=O)[O-])c4F)c4ccc([nH]4)c(-c4cccc(S(=O)(=O)[O-])c4F)c4nc(c(-c5cccc(S(=O)(=O)[O-])c5F)c5ccc2[nH]5)C=C4)C=C3)cc1
REMARK SMILES IDX 20 1 19 2 18 3 16 4 17 5 13 6 14 7 15 8 12 9 11 10 10 11
REMARK SMILES IDX 5 12 6 13 7 14 9 15 8 16 3 17 4 18 2 19 1 20 21 21 22 22
REMARK SMILES IDX 23 23 24 24 25 25 26 26 27 27 28 28 89 29 29 30 88 31 30 32
REMARK SMILES IDX 31 33 32 34 82 35 33 36 87 37 81 38 83 39 34 40 86 41 80 42
REMARK SMILES IDX 79 43 35 45 67 46 47 47 66 48 48 49 51 50 65 51 84 52 49 53
REMARK SMILES IDX 50 54 64 56 85 57 52 58 36 59 37 60 45 61 38 62 40 63 46 64
REMARK SMILES IDX 39 65 41 66 42 67 43 68 44 69 68 70 69 71 77 72 70 73 72 74
REMARK SMILES IDX 78 75 71 76 73 77 74 78 75 79 76 80 53 81 54 82 62 83 55 84
REMARK SMILES IDX 57 85 63 86 56 87 58 88 59 89 60 90 61 91
REMARK H PARENT 83 44 51 55
REMARK Flexibility Score: inf
ROOT
ATOM      1  C   UNL A   1      42.514  42.387  21.606  1.00  0.00     0.202 C 
ENDROOT
BRANCH   1   2
ATOM      2  C   UNL A   1      41.542  42.988  20.592  1.00  0.00     0.261 C 
BRANCH   2   3
ATOM      3  O   UNL A   1      42.164  44.044  19.853  1.00  0.00    -0.463 OA
BRANCH   3   4
ATOM      4  C   UNL A   1      41.366  44.624  18.926  1.00  0.00     0.315 C 
ATOM      5  O   UNL A   1      40.142  44.680  19.000  1.00  0.00    -0.251 OA
BRANCH   4   6
ATOM      6  C   UNL A   1      42.148  45.190  17.747  1.00  0.00     0.096 C 
ATOM      7  C   UNL A   1      41.902  46.700  17.873  1.00  0.00     0.027 C 
ATOM      8  C   UNL A   1      41.631  44.783  16.349  1.00  0.00     0.027 C 
BRANCH   6   9
ATOM      9  C   UNL A   1      43.592  44.618  17.957  1.00  0.00     0.247 C 
BRANCH   9  10
ATOM     10  O   UNL A   1      44.712  45.445  17.657  1.00  0.00    -0.492 OA
BRANCH  10  11
ATOM     11  C   UNL A   1      45.190  46.191  18.690  1.00  0.00     0.122 A 
ATOM     12  C   UNL A   1      45.342  47.575  18.482  1.00  0.00    -0.003 A 
ATOM     13  C   UNL A   1      45.679  48.346  19.614  1.00  0.00     0.008 A 
ATOM     14  C   UNL A   1      45.862  47.765  20.876  1.00  0.00     0.001 A 
ATOM     15  C   UNL A   1      45.460  45.597  19.934  1.00  0.00     0.047 A 
ATOM     16  C   UNL A   1      45.774  46.388  21.032  1.00  0.00     0.004 A 
BRANCH  12  17
ATOM     17  C   UNL A   1      45.104  48.297  17.139  1.00  0.00     0.019 C 
ATOM     18  C   UNL A   1      46.424  48.519  16.377  1.00  0.00     0.013 C 
BRANCH  17  19
ATOM     19  C   UNL A   1      44.298  49.623  17.192  1.00  0.00     0.005 C 
ATOM     20  C   UNL A   1      44.940  50.830  16.528  1.00  0.00     0.004 C 
ENDBRANCH  17  19
ENDBRANCH  12  17
ENDBRANCH  10  11
ENDBRANCH   9  10
ENDBRANCH   6   9
ENDBRANCH   4   6
ENDBRANCH   3   4
ENDBRANCH   2   3
ENDBRANCH   1   2
BRANCH   1  21
ATOM     21  O   UNL A   1      42.986  43.241  22.645  1.00  0.00    -0.374 OA
BRANCH  21  22
ATOM     22  C   UNL A   1      42.663  42.899  23.995  1.00  0.00     0.202 C 
BRANCH  22  23
ATOM     23  C   UNL A   1      43.441  41.752  24.655  1.00  0.00     0.261 C 
BRANCH  23  24
ATOM     24  O   UNL A   1      42.640  41.025  25.606  1.00  0.00    -0.460 OA
BRANCH  24  25
ATOM     25  C   UNL A   1      43.218  40.860  26.822  1.00  0.00     0.338 C 
ATOM     26  O   UNL A   1      43.766  41.712  27.499  1.00  0.00    -0.246 OA
BRANCH  25  27
ATOM     27  C   UNL A   1      42.915  39.518  27.348  1.00  0.00     0.060 A 
ATOM     28  C   UNL A   1      43.233  39.261  28.689  1.00  0.00     0.016 A 
ATOM     29  C   UNL A   1      42.460  38.496  26.515  1.00  0.00     0.016 A 
ATOM     30  C   UNL A   1      43.144  37.968  29.192  1.00  0.00     0.010 A 
ATOM     31  C   UNL A   1      42.388  37.192  27.016  1.00  0.00     0.010 A 
ATOM     32  C   UNL A   1      42.773  36.919  28.342  1.00  0.00    -0.014 A 
BRANCH  32  33
ATOM     33  C   UNL A   1      42.971  35.526  28.803  1.00  0.00     0.031 A 
ATOM     34  C   UNL A   1      41.779  34.748  29.292  1.00  0.00     0.074 A 
ATOM     35  C   UNL A   1      44.185  34.952  28.755  1.00  0.00     0.049 A 
ATOM     36  N   UNL A   1      41.717  33.519  29.731  1.00  0.00    -0.248 NA
ATOM     37  C   UNL A   1      40.484  35.450  29.280  1.00  0.00     0.031 C 
ATOM     38  C   UNL A   1      45.408  35.604  28.289  1.00  0.00     0.029 A 
ATOM     39  N   UNL A   1      44.590  33.694  29.123  1.00  0.00    -0.354 N 
ATOM     40  C   UNL A   1      40.387  33.309  30.077  1.00  0.00     0.074 A 
ATOM     41  C   UNL A   1      39.677  34.539  29.803  1.00  0.00     0.031 C 
ATOM     42  C   UNL A   1      46.436  34.749  28.430  1.00  0.00     0.029 A 
ATOM     43  C   UNL A   1      45.946  33.502  29.015  1.00  0.00     0.049 A 
ATOM     44  H   UNL A   1      43.970  32.997  29.436  1.00  0.00     0.167 HD
ATOM     45  C   UNL A   1      39.808  32.187  30.564  1.00  0.00     0.034 A 
ATOM     46  C   UNL A   1      46.706  32.445  29.366  1.00  0.00     0.034 A 
ATOM     47  C   UNL A   1      40.512  30.959  30.812  1.00  0.00     0.049 A 
ATOM     48  C   UNL A   1      46.039  31.215  29.924  1.00  0.00     0.074 A 
ATOM     49  C   UNL A   1      40.006  29.751  31.256  1.00  0.00     0.029 A 
ATOM     50  N   UNL A   1      41.878  30.787  30.651  1.00  0.00    -0.354 N 
ATOM     51  N   UNL A   1      44.763  30.987  30.127  1.00  0.00    -0.248 NA
ATOM     52  C   UNL A   1      46.911  30.082  30.267  1.00  0.00     0.031 C 
ATOM     53  C   UNL A   1      41.072  28.854  31.388  1.00  0.00     0.029 A 
ATOM     54  C   UNL A   1      42.238  29.498  31.001  1.00  0.00     0.049 A 
ATOM     55  H   UNL A   1      42.501  31.480  30.335  1.00  0.00     0.167 HD
ATOM     56  C   UNL A   1      44.676  29.680  30.591  1.00  0.00     0.074 A 
ATOM     57  C   UNL A   1      46.027  29.157  30.619  1.00  0.00     0.031 C 
ATOM     58  C   UNL A   1      43.580  28.977  30.974  1.00  0.00     0.034 A 
BRANCH  45  59
ATOM     59  C   UNL A   1      38.328  32.230  30.842  1.00  0.00     0.023 A 
ATOM     60  C   UNL A   1      37.435  31.570  29.974  1.00  0.00     0.012 A 
ATOM     61  C   UNL A   1      37.828  32.881  31.985  1.00  0.00     0.148 A 
ATOM     62  C   UNL A   1      36.063  31.583  30.225  1.00  0.00     0.002 A 
ATOM     63  C   UNL A   1      36.464  32.855  32.251  1.00  0.00     0.091 A 
ATOM     64  F   UNL A   1      38.691  33.526  32.783  1.00  0.00    -0.205 F 
ATOM     65  C   UNL A   1      35.579  32.215  31.368  1.00  0.00     0.022 A 
BRANCH  63  66
ATOM     66  S   UNL A   1      35.755  33.578  33.735  1.00  0.00     0.127 S 
ATOM     67  O   UNL A   1      34.324  33.396  33.497  1.00  0.00    -0.237 OA
ATOM     68  O   UNL A   1      36.311  32.729  34.788  1.00  0.00    -0.237 OA
ATOM     69  O   UNL A   1      36.214  34.960  33.765  1.00  0.00    -0.744 OA
ENDBRANCH  63  66
ENDBRANCH  45  59
BRANCH  46  70
ATOM     70  C   UNL A   1      48.182  32.499  29.173  1.00  0.00     0.023 A 
ATOM     71  C   UNL A   1      49.004  32.997  30.202  1.00  0.00     0.012 A 
ATOM     72  C   UNL A   1      48.776  32.032  27.984  1.00  0.00     0.148 A 
ATOM     73  C   UNL A   1      50.389  33.052  30.041  1.00  0.00     0.002 A 
ATOM     74  C   UNL A   1      50.160  32.038  27.852  1.00  0.00     0.091 A 
ATOM     75  F   UNL A   1      47.975  31.582  27.008  1.00  0.00    -0.205 F 
ATOM     76  C   UNL A   1      50.967  32.561  28.872  1.00  0.00     0.022 A 
BRANCH  74  77
ATOM     77  S   UNL A   1      50.992  31.305  26.438  1.00  0.00     0.127 S 
ATOM     78  O   UNL A   1      50.900  32.375  25.449  1.00  0.00    -0.237 OA
ATOM     79  O   UNL A   1      52.335  31.068  26.968  1.00  0.00    -0.237 OA
ATOM     80  O   UNL A   1      50.248  30.090  26.131  1.00  0.00    -0.744 OA
ENDBRANCH  74  77
ENDBRANCH  46  70
BRANCH  58  81
ATOM     81  C   UNL A   1      43.783  27.556  31.429  1.00  0.00     0.023 A 
ATOM     82  C   UNL A   1      43.920  26.529  30.475  1.00  0.00     0.012 A 
ATOM     83  C   UNL A   1      43.921  27.251  32.797  1.00  0.00     0.148 A 
ATOM     84  C   UNL A   1      44.162  25.215  30.877  1.00  0.00     0.002 A 
ATOM     85  C   UNL A   1      44.210  25.949  33.188  1.00  0.00     0.091 A 
ATOM     86  F   UNL A   1      43.770  28.240  33.692  1.00  0.00    -0.205 F 
ATOM     87  C   UNL A   1      44.319  24.928  32.230  1.00  0.00     0.022 A 
BRANCH  85  88
ATOM     88  S   UNL A   1      44.524  25.506  34.901  1.00  0.00     0.127 S 
ATOM     89  O   UNL A   1      43.704  26.483  35.616  1.00  0.00    -0.237 OA
ATOM     90  O   UNL A   1      44.028  24.131  34.965  1.00  0.00    -0.237 OA
ATOM     91  O   UNL A   1      45.963  25.638  35.090  1.00  0.00    -0.744 OA
ENDBRANCH  85  88
ENDBRANCH  58  81
ENDBRANCH  32  33
ENDBRANCH  25  27
ENDBRANCH  24  25
ENDBRANCH  23  24
ENDBRANCH  22  23
ENDBRANCH  21  22
ENDBRANCH   1  21
TORSDOF 22
ENDMDL
