MODEL 1
REMARK VINA RESULT:     -10.7      0.000      0.000
REMARK SMILES CCOC(=O)C1=NN(c2ccc(OC(F)(F)F)cc2)[C@@](C)(C(=O)OCCOCCOC(=O)c2ccc(-c3c4nc(c(-c5cccc(S(=O)(=O)[O-])c5F)c5ccc([nH]5)c(-c5cccc(S(=O)(=O)[O-])c5F)c5nc(c(-c6cccc(S(=O)(=O)[O-])c6F)c6ccc3[nH]6)C=C5)C=C4)cc2)C1
REMARK SMILES IDX 27 1 26 2 25 3 24 4 22 5 23 6 20 7 6 8 7 9 96 10 8 11 21 12
REMARK SMILES IDX 4 13 5 14 3 15 2 16 1 17 9 18 10 19 19 20 11 21 18 22 12 23
REMARK SMILES IDX 13 24 14 25 15 26 16 27 17 28 28 29 29 30 30 31 31 32 32 33
REMARK SMILES IDX 33 34 34 35 95 36 35 37 94 38 36 39 37 40 38 41 88 42 39 43
REMARK SMILES IDX 93 44 87 45 89 46 40 47 92 48 86 49 85 50 41 52 73 53 53 54
REMARK SMILES IDX 72 55 54 56 57 57 71 58 90 59 55 60 56 61 70 63 91 64 58 65
REMARK SMILES IDX 42 66 43 67 51 68 44 69 46 70 52 71 45 72 47 73 48 74 49 75
REMARK SMILES IDX 50 76 74 77 75 78 83 79 76 80 78 81 84 82 77 83 79 84 80 85
REMARK SMILES IDX 81 86 82 87 59 88 60 89 68 90 61 91 63 92 69 93 62 94 64 95
REMARK SMILES IDX 65 96 66 97 67 98
REMARK H PARENT 89 51 57 62
REMARK Flexibility Score: inf
ROOT
ATOM      1  O   UNL A   1      37.389  21.875  24.552  1.00  0.00    -0.374 OA
ENDROOT
BRANCH   1   2
ATOM      2  C   UNL A   1      36.312  22.411  23.786  1.00  0.00     0.202 C 
BRANCH   2   3
ATOM      3  C   UNL A   1      35.684  23.722  24.270  1.00  0.00     0.261 C 
BRANCH   3   4
ATOM      4  O   UNL A   1      34.631  24.199  23.412  1.00  0.00    -0.461 OA
BRANCH   4   5
ATOM      5  C   UNL A   1      33.773  25.085  23.982  1.00  0.00     0.334 C 
ATOM      6  O   UNL A   1      34.126  25.985  24.745  1.00  0.00    -0.249 OA
BRANCH   5   7
ATOM      7  C   UNL A   1      32.288  24.860  23.637  1.00  0.00     0.163 C 
ATOM      8  C   UNL A   1      31.171  23.991  25.462  1.00  0.00     0.149 C 
ATOM      9  N   UNL A   1      30.846  25.244  25.487  1.00  0.00    -0.169 NA
ATOM     10  C   UNL A   1      31.879  23.503  24.250  1.00  0.00     0.108 C 
ATOM     11  N   UNL A   1      31.345  25.788  24.322  1.00  0.00    -0.248 N 
ATOM     12  C   UNL A   1      32.212  24.800  22.118  1.00  0.00     0.050 C 
BRANCH   8  13
ATOM     13  C   UNL A   1      30.837  23.034  26.568  1.00  0.00     0.354 C 
ATOM     14  O   UNL A   1      29.931  22.228  26.463  1.00  0.00    -0.245 OA
BRANCH  13  15
ATOM     15  O   UNL A   1      31.635  23.269  27.625  1.00  0.00    -0.461 OA
BRANCH  15  16
ATOM     16  C   UNL A   1      32.645  22.280  27.857  1.00  0.00     0.230 C 
ATOM     17  C   UNL A   1      33.994  22.784  27.376  1.00  0.00     0.049 C 
ENDBRANCH  15  16
ENDBRANCH  13  15
ENDBRANCH   8  13
BRANCH  11  18
ATOM     18  C   UNL A   1      30.794  26.997  23.918  1.00  0.00     0.061 A 
ATOM     19  C   UNL A   1      29.429  27.079  23.594  1.00  0.00     0.032 A 
ATOM     20  C   UNL A   1      31.544  28.154  23.693  1.00  0.00     0.032 A 
ATOM     21  C   UNL A   1      28.844  28.260  23.112  1.00  0.00     0.049 A 
ATOM     22  C   UNL A   1      30.973  29.341  23.203  1.00  0.00     0.049 A 
ATOM     23  C   UNL A   1      29.615  29.404  22.917  1.00  0.00     0.129 A 
BRANCH  23  24
ATOM     24  O   UNL A   1      28.938  30.486  22.434  1.00  0.00    -0.406 OA
BRANCH  24  25
ATOM     25  C   UNL A   1      28.436  31.420  23.377  1.00  0.00     0.573 C 
ATOM     26  F   UNL A   1      27.275  31.001  23.919  1.00  0.00    -0.132 F 
ATOM     27  F   UNL A   1      29.336  31.637  24.363  1.00  0.00    -0.132 F 
ATOM     28  F   UNL A   1      28.217  32.598  22.753  1.00  0.00    -0.132 F 
ENDBRANCH  24  25
ENDBRANCH  23  24
ENDBRANCH  11  18
ENDBRANCH   5   7
ENDBRANCH   4   5
ENDBRANCH   3   4
ENDBRANCH   2   3
ENDBRANCH   1   2
BRANCH   1  29
ATOM     29  C   UNL A   1      37.301  20.500  24.928  1.00  0.00     0.202 C 
BRANCH  29  30
ATOM     30  C   UNL A   1      38.610  19.735  25.152  1.00  0.00     0.261 C 
BRANCH  30  31
ATOM     31  O   UNL A   1      39.342  20.215  26.294  1.00  0.00    -0.460 OA
BRANCH  31  32
ATOM     32  C   UNL A   1      40.649  19.856  26.319  1.00  0.00     0.338 C 
ATOM     33  O   UNL A   1      41.110  18.748  26.095  1.00  0.00    -0.246 OA
BRANCH  32  34
ATOM     34  C   UNL A   1      41.507  21.046  26.473  1.00  0.00     0.060 A 
ATOM     35  C   UNL A   1      41.748  21.491  27.780  1.00  0.00     0.016 A 
ATOM     36  C   UNL A   1      41.991  21.766  25.379  1.00  0.00     0.016 A 
ATOM     37  C   UNL A   1      42.405  22.699  27.997  1.00  0.00     0.010 A 
ATOM     38  C   UNL A   1      42.647  22.982  25.598  1.00  0.00     0.010 A 
ATOM     39  C   UNL A   1      42.812  23.477  26.906  1.00  0.00    -0.014 A 
BRANCH  39  40
ATOM     40  C   UNL A   1      43.253  24.873  27.146  1.00  0.00     0.031 A 
ATOM     41  C   UNL A   1      42.291  25.846  27.772  1.00  0.00     0.074 A 
ATOM     42  C   UNL A   1      44.505  25.261  26.844  1.00  0.00     0.049 A 
ATOM     43  N   UNL A   1      42.479  27.096  28.106  1.00  0.00    -0.248 NA
ATOM     44  C   UNL A   1      40.938  25.343  28.062  1.00  0.00     0.031 C 
ATOM     45  C   UNL A   1      45.525  24.414  26.229  1.00  0.00     0.029 A 
ATOM     46  N   UNL A   1      45.122  26.476  26.999  1.00  0.00    -0.354 N 
ATOM     47  C   UNL A   1      41.263  27.539  28.616  1.00  0.00     0.074 A 
ATOM     48  C   UNL A   1      40.340  26.428  28.536  1.00  0.00     0.031 C 
ATOM     49  C   UNL A   1      46.635  25.145  26.032  1.00  0.00     0.029 A 
ATOM     50  C   UNL A   1      46.399  26.512  26.493  1.00  0.00     0.049 A 
ATOM     51  H   UNL A   1      44.691  27.249  27.432  1.00  0.00     0.167 HD
ATOM     52  C   UNL A   1      40.947  28.755  29.121  1.00  0.00     0.034 A 
ATOM     53  C   UNL A   1      47.271  27.536  26.398  1.00  0.00     0.034 A 
ATOM     54  C   UNL A   1      41.873  29.850  29.226  1.00  0.00     0.049 A 
ATOM     55  C   UNL A   1      46.897  28.880  26.968  1.00  0.00     0.074 A 
ATOM     56  C   UNL A   1      41.667  31.099  29.784  1.00  0.00     0.029 A 
ATOM     57  N   UNL A   1      43.174  29.835  28.749  1.00  0.00    -0.354 N 
ATOM     58  N   UNL A   1      45.793  29.240  27.577  1.00  0.00    -0.248 NA
ATOM     59  C   UNL A   1      47.904  29.947  26.874  1.00  0.00     0.031 C 
ATOM     60  C   UNL A   1      42.836  31.850  29.620  1.00  0.00     0.029 A 
ATOM     61  C   UNL A   1      43.779  31.058  28.984  1.00  0.00     0.049 A 
ATOM     62  H   UNL A   1      43.603  29.068  28.307  1.00  0.00     0.167 HD
ATOM     63  C   UNL A   1      45.984  30.562  27.966  1.00  0.00     0.074 A 
ATOM     64  C   UNL A   1      47.319  30.932  27.543  1.00  0.00     0.031 C 
ATOM     65  C   UNL A   1      45.126  31.398  28.603  1.00  0.00     0.034 A 
BRANCH  52  66
ATOM     66  C   UNL A   1      39.542  28.958  29.624  1.00  0.00     0.023 A 
ATOM     67  C   UNL A   1      39.207  28.566  30.937  1.00  0.00     0.012 A 
ATOM     68  C   UNL A   1      38.570  29.582  28.819  1.00  0.00     0.148 A 
ATOM     69  C   UNL A   1      37.916  28.762  31.428  1.00  0.00     0.002 A 
ATOM     70  C   UNL A   1      37.299  29.813  29.330  1.00  0.00     0.091 A 
ATOM     71  F   UNL A   1      38.901  29.925  27.566  1.00  0.00    -0.205 F 
ATOM     72  C   UNL A   1      36.966  29.394  30.629  1.00  0.00     0.022 A 
BRANCH  70  73
ATOM     73  S   UNL A   1      36.031  30.689  28.407  1.00  0.00     0.127 S 
ATOM     74  O   UNL A   1      34.927  30.707  29.364  1.00  0.00    -0.237 OA
ATOM     75  O   UNL A   1      36.658  31.990  28.175  1.00  0.00    -0.237 OA
ATOM     76  O   UNL A   1      35.802  29.905  27.201  1.00  0.00    -0.744 OA
ENDBRANCH  70  73
ENDBRANCH  52  66
BRANCH  53  77
ATOM     77  C   UNL A   1      48.602  27.315  25.765  1.00  0.00     0.023 A 
ATOM     78  C   UNL A   1      49.689  26.886  26.552  1.00  0.00     0.012 A 
ATOM     79  C   UNL A   1      48.785  27.496  24.380  1.00  0.00     0.148 A 
ATOM     80  C   UNL A   1      50.941  26.668  25.975  1.00  0.00     0.002 A 
ATOM     81  C   UNL A   1      50.019  27.221  23.803  1.00  0.00     0.091 A 
ATOM     82  F   UNL A   1      47.743  27.921  23.652  1.00  0.00    -0.205 F 
ATOM     83  C   UNL A   1      51.102  26.823  24.601  1.00  0.00     0.022 A 
BRANCH  81  84
ATOM     84  S   UNL A   1      50.281  27.265  22.026  1.00  0.00     0.127 S 
ATOM     85  O   UNL A   1      49.246  26.352  21.548  1.00  0.00    -0.237 OA
ATOM     86  O   UNL A   1      50.046  28.677  21.721  1.00  0.00    -0.237 OA
ATOM     87  O   UNL A   1      51.655  26.829  21.820  1.00  0.00    -0.744 OA
ENDBRANCH  81  84
ENDBRANCH  53  77
BRANCH  65  88
ATOM     88  C   UNL A   1      45.606  32.794  28.911  1.00  0.00     0.023 A 
ATOM     89  C   UNL A   1      46.349  33.036  30.082  1.00  0.00     0.012 A 
ATOM     90  C   UNL A   1      45.386  33.848  28.002  1.00  0.00     0.148 A 
ATOM     91  C   UNL A   1      46.839  34.312  30.361  1.00  0.00     0.002 A 
ATOM     92  C   UNL A   1      45.918  35.106  28.263  1.00  0.00     0.091 A 
ATOM     93  F   UNL A   1      44.660  33.604  26.900  1.00  0.00    -0.205 F 
ATOM     94  C   UNL A   1      46.634  35.342  29.447  1.00  0.00     0.022 A 
BRANCH  92  95
ATOM     95  S   UNL A   1      45.785  36.466  27.096  1.00  0.00     0.127 S 
ATOM     96  O   UNL A   1      46.546  37.515  27.773  1.00  0.00    -0.237 OA
ATOM     97  O   UNL A   1      46.431  35.919  25.902  1.00  0.00    -0.237 OA
ATOM     98  O   UNL A   1      44.358  36.724  26.944  1.00  0.00    -0.744 OA
ENDBRANCH  92  95
ENDBRANCH  65  88
ENDBRANCH  39  40
ENDBRANCH  32  34
ENDBRANCH  31  32
ENDBRANCH  30  31
ENDBRANCH  29  30
ENDBRANCH   1  29
TORSDOF 23
ENDMDL
MODEL 2
REMARK VINA RESULT:     -10.5      1.039      7.250
REMARK SMILES CCOC(=O)C1=NN(c2ccc(OC(F)(F)F)cc2)[C@@](C)(C(=O)OCCOCCOC(=O)c2ccc(-c3c4nc(c(-c5cccc(S(=O)(=O)[O-])c5F)c5ccc([nH]5)c(-c5cccc(S(=O)(=O)[O-])c5F)c5nc(c(-c6cccc(S(=O)(=O)[O-])c6F)c6ccc3[nH]6)C=C5)C=C4)cc2)C1
REMARK SMILES IDX 27 1 26 2 25 3 24 4 22 5 23 6 20 7 6 8 7 9 96 10 8 11 21 12
REMARK SMILES IDX 4 13 5 14 3 15 2 16 1 17 9 18 10 19 19 20 11 21 18 22 12 23
REMARK SMILES IDX 13 24 14 25 15 26 16 27 17 28 28 29 29 30 30 31 31 32 32 33
REMARK SMILES IDX 33 34 34 35 95 36 35 37 94 38 36 39 37 40 38 41 88 42 39 43
REMARK SMILES IDX 93 44 87 45 89 46 40 47 92 48 86 49 85 50 41 52 73 53 53 54
REMARK SMILES IDX 72 55 54 56 57 57 71 58 90 59 55 60 56 61 70 63 91 64 58 65
REMARK SMILES IDX 42 66 43 67 51 68 44 69 46 70 52 71 45 72 47 73 48 74 49 75
REMARK SMILES IDX 50 76 74 77 75 78 83 79 76 80 78 81 84 82 77 83 79 84 80 85
REMARK SMILES IDX 81 86 82 87 59 88 60 89 68 90 61 91 63 92 69 93 62 94 64 95
REMARK SMILES IDX 65 96 66 97 67 98
REMARK H PARENT 89 51 57 62
REMARK Flexibility Score: inf
ROOT
ATOM      1  O   UNL A   1      37.276  21.811  24.782  1.00  0.00    -0.374 OA
ENDROOT
BRANCH   1   2
ATOM      2  C   UNL A   1      36.214  22.316  23.973  1.00  0.00     0.202 C 
BRANCH   2   3
ATOM      3  C   UNL A   1      35.692  23.721  24.288  1.00  0.00     0.261 C 
BRANCH   3   4
ATOM      4  O   UNL A   1      34.625  24.139  23.418  1.00  0.00    -0.461 OA
BRANCH   4   5
ATOM      5  C   UNL A   1      33.808  25.102  23.922  1.00  0.00     0.334 C 
ATOM      6  O   UNL A   1      34.209  26.072  24.565  1.00  0.00    -0.249 OA
BRANCH   5   7
ATOM      7  C   UNL A   1      32.305  24.873  23.666  1.00  0.00     0.163 C 
ATOM      8  C   UNL A   1      31.281  24.099  25.587  1.00  0.00     0.149 C 
ATOM      9  N   UNL A   1      30.964  25.355  25.569  1.00  0.00    -0.169 NA
ATOM     10  C   UNL A   1      31.921  23.549  24.364  1.00  0.00     0.108 C 
ATOM     11  N   UNL A   1      31.404  25.840  24.355  1.00  0.00    -0.248 N 
ATOM     12  C   UNL A   1      32.149  24.742  22.158  1.00  0.00     0.050 C 
BRANCH   8  13
ATOM     13  C   UNL A   1      31.000  23.198  26.752  1.00  0.00     0.354 C 
ATOM     14  O   UNL A   1      29.956  22.579  26.843  1.00  0.00    -0.245 OA
BRANCH  13  15
ATOM     15  O   UNL A   1      32.022  23.257  27.625  1.00  0.00    -0.461 OA
BRANCH  15  16
ATOM     16  C   UNL A   1      32.889  22.116  27.625  1.00  0.00     0.230 C 
ATOM     17  C   UNL A   1      34.340  22.559  27.602  1.00  0.00     0.049 C 
ENDBRANCH  15  16
ENDBRANCH  13  15
ENDBRANCH   8  13
BRANCH  11  18
ATOM     18  C   UNL A   1      30.840  27.032  23.923  1.00  0.00     0.061 A 
ATOM     19  C   UNL A   1      29.470  27.095  23.614  1.00  0.00     0.032 A 
ATOM     20  C   UNL A   1      31.579  28.188  23.656  1.00  0.00     0.032 A 
ATOM     21  C   UNL A   1      28.871  28.258  23.106  1.00  0.00     0.049 A 
ATOM     22  C   UNL A   1      30.993  29.356  23.139  1.00  0.00     0.049 A 
ATOM     23  C   UNL A   1      29.631  29.402  22.868  1.00  0.00     0.129 A 
BRANCH  23  24
ATOM     24  O   UNL A   1      28.941  30.465  22.363  1.00  0.00    -0.406 OA
BRANCH  24  25
ATOM     25  C   UNL A   1      28.371  31.377  23.289  1.00  0.00     0.573 C 
ATOM     26  F   UNL A   1      28.036  32.540  22.695  1.00  0.00    -0.132 F 
ATOM     27  F   UNL A   1      27.275  30.843  23.875  1.00  0.00    -0.132 F 
ATOM     28  F   UNL A   1      29.273  31.637  24.260  1.00  0.00    -0.132 F 
ENDBRANCH  24  25
ENDBRANCH  23  24
ENDBRANCH  11  18
ENDBRANCH   5   7
ENDBRANCH   4   5
ENDBRANCH   3   4
ENDBRANCH   2   3
ENDBRANCH   1   2
BRANCH   1  29
ATOM     29  C   UNL A   1      37.313  20.401  25.002  1.00  0.00     0.202 C 
BRANCH  29  30
ATOM     30  C   UNL A   1      38.681  19.749  25.235  1.00  0.00     0.261 C 
BRANCH  30  31
ATOM     31  O   UNL A   1      39.404  20.353  26.323  1.00  0.00    -0.460 OA
BRANCH  31  32
ATOM     32  C   UNL A   1      40.743  20.149  26.294  1.00  0.00     0.338 C 
ATOM     33  O   UNL A   1      41.325  19.152  25.896  1.00  0.00    -0.246 OA
BRANCH  32  34
ATOM     34  C   UNL A   1      41.461  21.391  26.641  1.00  0.00     0.060 A 
ATOM     35  C   UNL A   1      41.467  21.766  27.990  1.00  0.00     0.016 A 
ATOM     36  C   UNL A   1      42.033  22.218  25.672  1.00  0.00     0.016 A 
ATOM     37  C   UNL A   1      41.976  23.005  28.369  1.00  0.00     0.010 A 
ATOM     38  C   UNL A   1      42.540  23.466  26.054  1.00  0.00     0.010 A 
ATOM     39  C   UNL A   1      42.467  23.884  27.396  1.00  0.00    -0.014 A 
BRANCH  39  40
ATOM     40  C   UNL A   1      42.743  25.291  27.775  1.00  0.00     0.031 A 
ATOM     41  C   UNL A   1      44.157  25.804  27.703  1.00  0.00     0.074 A 
ATOM     42  C   UNL A   1      41.746  26.113  28.144  1.00  0.00     0.049 A 
ATOM     43  N   UNL A   1      44.616  27.003  27.947  1.00  0.00    -0.248 NA
ATOM     44  C   UNL A   1      45.191  24.836  27.299  1.00  0.00     0.031 C 
ATOM     45  C   UNL A   1      40.339  25.734  28.257  1.00  0.00     0.029 A 
ATOM     46  N   UNL A   1      41.770  27.436  28.508  1.00  0.00    -0.354 N 
ATOM     47  C   UNL A   1      45.991  26.929  27.760  1.00  0.00     0.074 A 
ATOM     48  C   UNL A   1      46.295  25.563  27.392  1.00  0.00     0.031 C 
ATOM     49  C   UNL A   1      39.637  26.793  28.693  1.00  0.00     0.029 A 
ATOM     50  C   UNL A   1      40.545  27.920  28.902  1.00  0.00     0.049 A 
ATOM     51  H   UNL A   1      42.587  27.986  28.489  1.00  0.00     0.167 HD
ATOM     52  C   UNL A   1      46.916  27.913  27.866  1.00  0.00     0.034 A 
ATOM     53  C   UNL A   1      40.201  29.128  29.390  1.00  0.00     0.034 A 
ATOM     54  C   UNL A   1      46.610  29.275  28.204  1.00  0.00     0.049 A 
ATOM     55  C   UNL A   1      41.248  30.206  29.498  1.00  0.00     0.074 A 
ATOM     56  C   UNL A   1      47.468  30.359  28.271  1.00  0.00     0.029 A 
ATOM     57  N   UNL A   1      45.350  29.741  28.548  1.00  0.00    -0.354 N 
ATOM     58  N   UNL A   1      42.519  30.158  29.178  1.00  0.00    -0.248 NA
ATOM     59  C   UNL A   1      40.807  31.517  29.997  1.00  0.00     0.031 C 
ATOM     60  C   UNL A   1      46.732  31.475  28.683  1.00  0.00     0.029 A 
ATOM     61  C   UNL A   1      45.409  31.092  28.845  1.00  0.00     0.049 A 
ATOM     62  H   UNL A   1      44.535  29.192  28.577  1.00  0.00     0.167 HD
ATOM     63  C   UNL A   1      43.020  31.436  29.406  1.00  0.00     0.074 A 
ATOM     64  C   UNL A   1      41.910  32.242  29.870  1.00  0.00     0.031 C 
ATOM     65  C   UNL A   1      44.288  31.896  29.258  1.00  0.00     0.034 A 
BRANCH  52  66
ATOM     66  C   UNL A   1      48.352  27.552  27.588  1.00  0.00     0.023 A 
ATOM     67  C   UNL A   1      49.116  26.908  28.584  1.00  0.00     0.012 A 
ATOM     68  C   UNL A   1      48.929  27.803  26.329  1.00  0.00     0.148 A 
ATOM     69  C   UNL A   1      50.441  26.549  28.339  1.00  0.00     0.002 A 
ATOM     70  C   UNL A   1      50.236  27.404  26.078  1.00  0.00     0.091 A 
ATOM     71  F   UNL A   1      48.195  28.439  25.404  1.00  0.00    -0.205 F 
ATOM     72  C   UNL A   1      50.998  26.787  27.085  1.00  0.00     0.022 A 
BRANCH  70  73
ATOM     73  S   UNL A   1      51.015  27.598  24.471  1.00  0.00     0.127 S 
ATOM     74  O   UNL A   1      49.854  27.767  23.599  1.00  0.00    -0.237 OA
ATOM     75  O   UNL A   1      51.818  28.806  24.659  1.00  0.00    -0.237 OA
ATOM     76  O   UNL A   1      51.790  26.384  24.254  1.00  0.00    -0.744 OA
ENDBRANCH  70  73
ENDBRANCH  52  66
BRANCH  53  77
ATOM     77  C   UNL A   1      38.787  29.390  29.780  1.00  0.00     0.023 A 
ATOM     78  C   UNL A   1      38.357  29.099  31.089  1.00  0.00     0.012 A 
ATOM     79  C   UNL A   1      37.876  29.959  28.868  1.00  0.00     0.148 A 
ATOM     80  C   UNL A   1      37.038  29.343  31.474  1.00  0.00     0.002 A 
ATOM     81  C   UNL A   1      36.581  30.254  29.274  1.00  0.00     0.091 A 
ATOM     82  F   UNL A   1      38.301  30.212  27.622  1.00  0.00    -0.205 F 
ATOM     83  C   UNL A   1      36.155  29.932  30.572  1.00  0.00     0.022 A 
BRANCH  81  84
ATOM     84  S   UNL A   1      35.419  31.132  28.223  1.00  0.00     0.127 S 
ATOM     85  O   UNL A   1      34.990  30.081  27.305  1.00  0.00    -0.237 OA
ATOM     86  O   UNL A   1      34.404  31.560  29.188  1.00  0.00    -0.237 OA
ATOM     87  O   UNL A   1      36.176  32.224  27.627  1.00  0.00    -0.744 OA
ENDBRANCH  81  84
ENDBRANCH  53  77
BRANCH  65  88
ATOM     88  C   UNL A   1      44.549  33.347  29.574  1.00  0.00     0.023 A 
ATOM     89  C   UNL A   1      44.993  33.715  30.859  1.00  0.00     0.012 A 
ATOM     90  C   UNL A   1      44.428  34.334  28.576  1.00  0.00     0.148 A 
ATOM     91  C   UNL A   1      45.282  35.046  31.156  1.00  0.00     0.002 A 
ATOM     92  C   UNL A   1      44.765  35.652  28.865  1.00  0.00     0.091 A 
ATOM     93  F   UNL A   1      43.987  33.970  27.363  1.00  0.00    -0.205 F 
ATOM     94  C   UNL A   1      45.180  36.012  30.157  1.00  0.00     0.022 A 
BRANCH  92  95
ATOM     95  S   UNL A   1      44.754  36.943  27.615  1.00  0.00     0.127 S 
ATOM     96  O   UNL A   1      45.706  36.419  26.637  1.00  0.00    -0.237 OA
ATOM     97  O   UNL A   1      43.360  36.938  27.172  1.00  0.00    -0.237 OA
ATOM     98  O   UNL A   1      45.165  38.164  28.298  1.00  0.00    -0.744 OA
ENDBRANCH  92  95
ENDBRANCH  65  88
ENDBRANCH  39  40
ENDBRANCH  32  34
ENDBRANCH  31  32
ENDBRANCH  30  31
ENDBRANCH  29  30
ENDBRANCH   1  29
TORSDOF 23
ENDMDL
MODEL 3
REMARK VINA RESULT:     -10.4      3.231      8.641
REMARK SMILES CCOC(=O)C1=NN(c2ccc(OC(F)(F)F)cc2)[C@@](C)(C(=O)OCCOCCOC(=O)c2ccc(-c3c4nc(c(-c5cccc(S(=O)(=O)[O-])c5F)c5ccc([nH]5)c(-c5cccc(S(=O)(=O)[O-])c5F)c5nc(c(-c6cccc(S(=O)(=O)[O-])c6F)c6ccc3[nH]6)C=C5)C=C4)cc2)C1
REMARK SMILES IDX 27 1 26 2 25 3 24 4 22 5 23 6 20 7 6 8 7 9 96 10 8 11 21 12
REMARK SMILES IDX 4 13 5 14 3 15 2 16 1 17 9 18 10 19 19 20 11 21 18 22 12 23
REMARK SMILES IDX 13 24 14 25 15 26 16 27 17 28 28 29 29 30 30 31 31 32 32 33
REMARK SMILES IDX 33 34 34 35 95 36 35 37 94 38 36 39 37 40 38 41 88 42 39 43
REMARK SMILES IDX 93 44 87 45 89 46 40 47 92 48 86 49 85 50 41 52 73 53 53 54
REMARK SMILES IDX 72 55 54 56 57 57 71 58 90 59 55 60 56 61 70 63 91 64 58 65
REMARK SMILES IDX 42 66 43 67 51 68 44 69 46 70 52 71 45 72 47 73 48 74 49 75
REMARK SMILES IDX 50 76 74 77 75 78 83 79 76 80 78 81 84 82 77 83 79 84 80 85
REMARK SMILES IDX 81 86 82 87 59 88 60 89 68 90 61 91 63 92 69 93 62 94 64 95
REMARK SMILES IDX 65 96 66 97 67 98
REMARK H PARENT 89 51 57 62
REMARK Flexibility Score: inf
ROOT
ATOM      1  O   UNL A   1      37.720  21.557  24.738  1.00  0.00    -0.374 OA
ENDROOT
BRANCH   1   2
ATOM      2  C   UNL A   1      36.687  22.075  23.901  1.00  0.00     0.202 C 
BRANCH   2   3
ATOM      3  C   UNL A   1      36.290  23.542  24.093  1.00  0.00     0.261 C 
BRANCH   3   4
ATOM      4  O   UNL A   1      34.958  23.835  23.633  1.00  0.00    -0.461 OA
BRANCH   4   5
ATOM      5  C   UNL A   1      34.219  24.624  24.457  1.00  0.00     0.334 C 
ATOM      6  O   UNL A   1      34.213  25.854  24.401  1.00  0.00    -0.249 OA
BRANCH   5   7
ATOM      7  C   UNL A   1      33.401  23.863  25.518  1.00  0.00     0.163 C 
ATOM      8  C   UNL A   1      31.212  24.602  25.515  1.00  0.00     0.149 C 
ATOM      9  N   UNL A   1      31.150  23.491  24.851  1.00  0.00    -0.169 NA
ATOM     10  C   UNL A   1      32.489  24.896  26.217  1.00  0.00     0.108 C 
ATOM     11  N   UNL A   1      32.397  22.913  24.963  1.00  0.00    -0.248 N 
ATOM     12  C   UNL A   1      34.412  23.297  26.505  1.00  0.00     0.050 C 
BRANCH   8  13
ATOM     13  C   UNL A   1      30.063  25.558  25.625  1.00  0.00     0.354 C 
ATOM     14  O   UNL A   1      29.392  25.637  26.637  1.00  0.00    -0.245 OA
BRANCH  13  15
ATOM     15  O   UNL A   1      29.904  26.209  24.458  1.00  0.00    -0.461 OA
BRANCH  15  16
ATOM     16  C   UNL A   1      30.682  27.404  24.317  1.00  0.00     0.230 C 
ATOM     17  C   UNL A   1      31.291  27.473  22.929  1.00  0.00     0.049 C 
ENDBRANCH  15  16
ENDBRANCH  13  15
ENDBRANCH   8  13
BRANCH  11  18
ATOM     18  C   UNL A   1      32.474  21.553  24.693  1.00  0.00     0.061 A 
ATOM     19  C   UNL A   1      32.714  20.639  25.733  1.00  0.00     0.032 A 
ATOM     20  C   UNL A   1      32.444  21.015  23.404  1.00  0.00     0.032 A 
ATOM     21  C   UNL A   1      32.871  19.264  25.499  1.00  0.00     0.049 A 
ATOM     22  C   UNL A   1      32.609  19.642  23.155  1.00  0.00     0.049 A 
ATOM     23  C   UNL A   1      32.816  18.754  24.203  1.00  0.00     0.129 A 
BRANCH  23  24
ATOM     24  O   UNL A   1      32.996  17.406  24.100  1.00  0.00    -0.406 OA
BRANCH  24  25
ATOM     25  C   UNL A   1      34.283  16.942  23.723  1.00  0.00     0.573 C 
ATOM     26  F   UNL A   1      35.256  17.749  24.190  1.00  0.00    -0.132 F 
ATOM     27  F   UNL A   1      34.490  15.684  24.176  1.00  0.00    -0.132 F 
ATOM     28  F   UNL A   1      34.361  16.913  22.375  1.00  0.00    -0.132 F 
ENDBRANCH  24  25
ENDBRANCH  23  24
ENDBRANCH  11  18
ENDBRANCH   5   7
ENDBRANCH   4   5
ENDBRANCH   3   4
ENDBRANCH   2   3
ENDBRANCH   1   2
BRANCH   1  29
ATOM     29  C   UNL A   1      37.689  20.158  25.022  1.00  0.00     0.202 C 
BRANCH  29  30
ATOM     30  C   UNL A   1      39.016  19.467  25.358  1.00  0.00     0.261 C 
BRANCH  30  31
ATOM     31  O   UNL A   1      39.863  20.274  26.196  1.00  0.00    -0.460 OA
BRANCH  31  32
ATOM     32  C   UNL A   1      41.180  19.965  26.132  1.00  0.00     0.338 C 
ATOM     33  O   UNL A   1      41.669  18.900  25.791  1.00  0.00    -0.246 OA
BRANCH  32  34
ATOM     34  C   UNL A   1      42.003  21.170  26.356  1.00  0.00     0.060 A 
ATOM     35  C   UNL A   1      42.295  21.503  27.685  1.00  0.00     0.016 A 
ATOM     36  C   UNL A   1      42.404  22.005  25.312  1.00  0.00     0.016 A 
ATOM     37  C   UNL A   1      42.919  22.711  27.982  1.00  0.00     0.010 A 
ATOM     38  C   UNL A   1      43.028  23.222  25.612  1.00  0.00     0.010 A 
ATOM     39  C   UNL A   1      43.242  23.601  26.950  1.00  0.00    -0.014 A 
BRANCH  39  40
ATOM     40  C   UNL A   1      43.645  24.986  27.298  1.00  0.00     0.031 A 
ATOM     41  C   UNL A   1      45.087  25.388  27.142  1.00  0.00     0.074 A 
ATOM     42  C   UNL A   1      42.735  25.884  27.713  1.00  0.00     0.049 A 
ATOM     43  N   UNL A   1      45.649  26.550  27.348  1.00  0.00    -0.248 NA
ATOM     44  C   UNL A   1      46.020  24.341  26.692  1.00  0.00     0.031 C 
ATOM     45  C   UNL A   1      41.312  25.614  27.909  1.00  0.00     0.029 A 
ATOM     46  N   UNL A   1      42.881  27.203  28.060  1.00  0.00    -0.354 N 
ATOM     47  C   UNL A   1      47.002  26.369  27.084  1.00  0.00     0.074 A 
ATOM     48  C   UNL A   1      47.180  24.982  26.715  1.00  0.00     0.031 C 
ATOM     49  C   UNL A   1      40.719  26.728  28.372  1.00  0.00     0.029 A 
ATOM     50  C   UNL A   1      41.721  27.782  28.517  1.00  0.00     0.049 A 
ATOM     51  H   UNL A   1      43.735  27.689  27.990  1.00  0.00     0.167 HD
ATOM     52  C   UNL A   1      48.004  27.279  27.128  1.00  0.00     0.034 A 
ATOM     53  C   UNL A   1      41.498  29.017  29.010  1.00  0.00     0.034 A 
ATOM     54  C   UNL A   1      47.822  28.664  27.468  1.00  0.00     0.049 A 
ATOM     55  C   UNL A   1      42.629  30.012  29.048  1.00  0.00     0.074 A 
ATOM     56  C   UNL A   1      48.763  29.679  27.475  1.00  0.00     0.029 A 
ATOM     57  N   UNL A   1      46.623  29.227  27.876  1.00  0.00    -0.354 N 
ATOM     58  N   UNL A   1      43.872  29.865  28.659  1.00  0.00    -0.248 NA
ATOM     59  C   UNL A   1      42.317  31.356  29.557  1.00  0.00     0.031 C 
ATOM     60  C   UNL A   1      48.139  30.850  27.915  1.00  0.00     0.029 A 
ATOM     61  C   UNL A   1      46.802  30.572  28.155  1.00  0.00     0.049 A 
ATOM     62  H   UNL A   1      45.771  28.743  27.957  1.00  0.00     0.167 HD
ATOM     63  C   UNL A   1      44.481  31.101  28.844  1.00  0.00     0.074 A 
ATOM     64  C   UNL A   1      43.464  31.994  29.360  1.00  0.00     0.031 C 
ATOM     65  C   UNL A   1      45.770  31.462  28.621  1.00  0.00     0.034 A 
BRANCH  52  66
ATOM     66  C   UNL A   1      49.391  26.808  26.775  1.00  0.00     0.023 A 
ATOM     67  C   UNL A   1      50.076  25.937  27.648  1.00  0.00     0.012 A 
ATOM     68  C   UNL A   1      49.992  27.183  25.559  1.00  0.00     0.148 A 
ATOM     69  C   UNL A   1      51.353  25.475  27.330  1.00  0.00     0.002 A 
ATOM     70  C   UNL A   1      51.247  26.684  25.229  1.00  0.00     0.091 A 
ATOM     71  F   UNL A   1      49.336  28.031  24.754  1.00  0.00    -0.205 F 
ATOM     72  C   UNL A   1      51.933  25.839  26.118  1.00  0.00     0.022 A 
BRANCH  70  73
ATOM     73  S   UNL A   1      52.043  27.034  23.658  1.00  0.00     0.127 S 
ATOM     74  O   UNL A   1      53.188  26.124  23.697  1.00  0.00    -0.237 OA
ATOM     75  O   UNL A   1      51.005  26.666  22.695  1.00  0.00    -0.237 OA
ATOM     76  O   UNL A   1      52.370  28.453  23.682  1.00  0.00    -0.744 OA
ENDBRANCH  70  73
ENDBRANCH  52  66
BRANCH  53  77
ATOM     77  C   UNL A   1      40.132  29.389  29.475  1.00  0.00     0.023 A 
ATOM     78  C   UNL A   1      39.186  29.875  28.551  1.00  0.00     0.012 A 
ATOM     79  C   UNL A   1      39.757  29.232  30.824  1.00  0.00     0.148 A 
ATOM     80  C   UNL A   1      37.901  30.223  28.968  1.00  0.00     0.002 A 
ATOM     81  C   UNL A   1      38.459  29.526  31.221  1.00  0.00     0.091 A 
ATOM     82  F   UNL A   1      40.678  28.786  31.691  1.00  0.00    -0.205 F 
ATOM     83  C   UNL A   1      37.534  30.037  30.298  1.00  0.00     0.022 A 
BRANCH  81  84
ATOM     84  S   UNL A   1      37.862  29.191  32.882  1.00  0.00     0.127 S 
ATOM     85  O   UNL A   1      37.807  27.732  32.893  1.00  0.00    -0.237 OA
ATOM     86  O   UNL A   1      38.922  29.774  33.707  1.00  0.00    -0.237 OA
ATOM     87  O   UNL A   1      36.580  29.875  32.984  1.00  0.00    -0.744 OA
ENDBRANCH  81  84
ENDBRANCH  53  77
BRANCH  65  88
ATOM     88  C   UNL A   1      46.158  32.890  28.906  1.00  0.00     0.023 A 
ATOM     89  C   UNL A   1      46.737  33.225  30.146  1.00  0.00     0.012 A 
ATOM     90  C   UNL A   1      46.021  33.885  27.918  1.00  0.00     0.148 A 
ATOM     91  C   UNL A   1      47.143  34.532  30.410  1.00  0.00     0.002 A 
ATOM     92  C   UNL A   1      46.473  35.176  28.170  1.00  0.00     0.091 A 
ATOM     93  F   UNL A   1      45.452  33.554  26.749  1.00  0.00    -0.205 F 
ATOM     94  C   UNL A   1      47.022  35.504  29.419  1.00  0.00     0.022 A 
BRANCH  92  95
ATOM     95  S   UNL A   1      46.445  36.466  26.919  1.00  0.00     0.127 S 
ATOM     96  O   UNL A   1      45.010  36.670  26.733  1.00  0.00    -0.237 OA
ATOM     97  O   UNL A   1      47.136  37.568  27.590  1.00  0.00    -0.237 OA
ATOM     98  O   UNL A   1      47.155  35.921  25.768  1.00  0.00    -0.744 OA
ENDBRANCH  92  95
ENDBRANCH  65  88
ENDBRANCH  39  40
ENDBRANCH  32  34
ENDBRANCH  31  32
ENDBRANCH  30  31
ENDBRANCH  29  30
ENDBRANCH   1  29
TORSDOF 23
ENDMDL
