MODEL 1
REMARK VINA RESULT:     -11.1      0.000      0.000
REMARK SMILES O=C(OCCOCCOC(=O)[C@@H]1CCC[N@@H+](Cc2ccc(F)cc2Cl)C1)c1ccc(-c2c3nc(c(-c4cccc(S(=O)(=O)[O-])c4F)c4ccc([nH]4)c(-c4cccc(S(=O)(=O)[O-])c4F)c4nc(c(-c5cccc(S(=O)(=O)[O-])c5F)c5ccc2[nH]5)C=C4)C=C3)cc1
REMARK SMILES IDX 5 1 4 2 3 3 2 4 1 5 27 6 28 7 89 8 29 9 88 10 30 11 31 12
REMARK SMILES IDX 32 13 82 14 33 15 87 16 81 17 83 18 34 19 86 20 80 21 79 22
REMARK SMILES IDX 35 24 67 25 47 26 66 27 48 28 51 29 65 30 84 31 49 32 50 33
REMARK SMILES IDX 64 35 85 36 52 37 36 38 37 39 45 40 38 41 40 42 46 43 39 44
REMARK SMILES IDX 41 45 42 46 43 47 44 48 68 49 69 50 77 51 70 52 72 53 78 54
REMARK SMILES IDX 71 55 73 56 74 57 75 58 76 59 53 60 54 61 62 62 55 63 57 64
REMARK SMILES IDX 63 65 56 66 58 67 59 68 60 69 61 70 6 71 7 72 8 73 9 74
REMARK SMILES IDX 10 75 11 76 12 77 13 78 26 79 14 80 16 81 15 82 17 84 18 85
REMARK SMILES IDX 19 86 24 87 20 88 23 89 25 90 21 91 22 92
REMARK H PARENT 83 23 51 34 16 83
REMARK Flexibility Score: inf
ROOT
ATOM      1  C   UNL A   1      32.450  27.168  26.353  1.00  0.00     0.202 C 
ENDROOT
BRANCH   1   2
ATOM      2  C   UNL A   1      31.862  28.571  26.533  1.00  0.00     0.261 C 
BRANCH   2   3
ATOM      3  O   UNL A   1      32.798  29.597  26.125  1.00  0.00    -0.460 OA
BRANCH   3   4
ATOM      4  C   UNL A   1      33.179  30.659  26.883  1.00  0.00     0.338 C 
ATOM      5  O   UNL A   1      32.448  31.644  27.002  1.00  0.00    -0.246 OA
BRANCH   4   6
ATOM      6  C   UNL A   1      34.478  30.612  27.586  1.00  0.00     0.060 A 
ATOM      7  C   UNL A   1      34.933  29.411  28.109  1.00  0.00     0.016 A 
ATOM      8  C   UNL A   1      35.282  31.739  27.720  1.00  0.00     0.016 A 
ATOM      9  C   UNL A   1      36.000  29.330  28.954  1.00  0.00     0.010 A 
ATOM     10  C   UNL A   1      36.499  31.627  28.402  1.00  0.00     0.010 A 
ATOM     11  C   UNL A   1      36.848  30.415  29.026  1.00  0.00    -0.014 A 
BRANCH  11  12
ATOM     12  C   UNL A   1      38.111  30.194  29.737  1.00  0.00     0.031 A 
ATOM     13  C   UNL A   1      39.163  29.384  29.070  1.00  0.00     0.074 A 
ATOM     14  C   UNL A   1      38.298  30.812  30.921  1.00  0.00     0.049 A 
ATOM     15  N   UNL A   1      40.271  28.923  29.570  1.00  0.00    -0.248 NA
ATOM     16  C   UNL A   1      38.939  29.038  27.654  1.00  0.00     0.031 C 
ATOM     17  C   UNL A   1      37.343  31.728  31.565  1.00  0.00     0.029 A 
ATOM     18  N   UNL A   1      39.350  30.779  31.794  1.00  0.00    -0.354 N 
ATOM     19  C   UNL A   1      40.825  28.141  28.569  1.00  0.00     0.074 A 
ATOM     20  C   UNL A   1      39.966  28.237  27.411  1.00  0.00     0.031 C 
ATOM     21  C   UNL A   1      37.859  32.177  32.716  1.00  0.00     0.029 A 
ATOM     22  C   UNL A   1      39.110  31.481  32.954  1.00  0.00     0.049 A 
ATOM     23  H   UNL A   1      40.192  30.303  31.613  1.00  0.00     0.167 HD
ATOM     24  C   UNL A   1      41.939  27.385  28.653  1.00  0.00     0.034 A 
ATOM     25  C   UNL A   1      39.786  31.481  34.116  1.00  0.00     0.034 A 
ATOM     26  C   UNL A   1      42.763  27.354  29.827  1.00  0.00     0.049 A 
ATOM     27  C   UNL A   1      41.000  30.603  34.186  1.00  0.00     0.074 A 
ATOM     28  C   UNL A   1      43.917  26.633  30.054  1.00  0.00     0.029 A 
ATOM     29  N   UNL A   1      42.502  28.080  30.985  1.00  0.00    -0.354 N 
ATOM     30  N   UNL A   1      41.534  29.865  33.240  1.00  0.00    -0.248 NA
ATOM     31  C   UNL A   1      41.703  30.544  35.470  1.00  0.00     0.031 C 
ATOM     32  C   UNL A   1      44.333  26.896  31.363  1.00  0.00     0.029 A 
ATOM     33  C   UNL A   1      43.461  27.809  31.939  1.00  0.00     0.049 A 
ATOM     34  H   UNL A   1      41.743  28.696  31.105  1.00  0.00     0.167 HD
ATOM     35  C   UNL A   1      42.644  29.261  33.807  1.00  0.00     0.074 A 
ATOM     36  C   UNL A   1      42.723  29.749  35.172  1.00  0.00     0.031 C 
ATOM     37  C   UNL A   1      43.508  28.367  33.268  1.00  0.00     0.034 A 
BRANCH  24  38
ATOM     38  C   UNL A   1      42.259  26.494  27.488  1.00  0.00     0.023 A 
ATOM     39  C   UNL A   1      42.904  27.005  26.346  1.00  0.00     0.012 A 
ATOM     40  C   UNL A   1      41.897  25.133  27.532  1.00  0.00     0.148 A 
ATOM     41  C   UNL A   1      43.158  26.180  25.250  1.00  0.00     0.002 A 
ATOM     42  C   UNL A   1      42.193  24.308  26.455  1.00  0.00     0.091 A 
ATOM     43  F   UNL A   1      41.252  24.678  28.615  1.00  0.00    -0.205 F 
ATOM     44  C   UNL A   1      42.810  24.831  25.308  1.00  0.00     0.022 A 
BRANCH  42  45
ATOM     45  S   UNL A   1      41.838  22.548  26.457  1.00  0.00     0.127 S 
ATOM     46  O   UNL A   1      40.376  22.541  26.415  1.00  0.00    -0.237 OA
ATOM     47  O   UNL A   1      42.487  22.108  25.222  1.00  0.00    -0.237 OA
ATOM     48  O   UNL A   1      42.424  22.016  27.679  1.00  0.00    -0.744 OA
ENDBRANCH  42  45
ENDBRANCH  24  38
BRANCH  25  49
ATOM     49  C   UNL A   1      39.295  32.265  35.287  1.00  0.00     0.023 A 
ATOM     50  C   UNL A   1      38.357  31.692  36.165  1.00  0.00     0.012 A 
ATOM     51  C   UNL A   1      39.770  33.567  35.552  1.00  0.00     0.148 A 
ATOM     52  C   UNL A   1      37.878  32.411  37.263  1.00  0.00     0.002 A 
ATOM     53  C   UNL A   1      39.335  34.253  36.680  1.00  0.00     0.091 A 
ATOM     54  F   UNL A   1      40.650  34.112  34.698  1.00  0.00    -0.205 F 
ATOM     55  C   UNL A   1      38.374  33.685  37.527  1.00  0.00     0.022 A 
BRANCH  53  56
ATOM     56  S   UNL A   1      40.027  35.841  37.163  1.00  0.00     0.127 S 
ATOM     57  O   UNL A   1      41.440  35.510  37.335  1.00  0.00    -0.237 OA
ATOM     58  O   UNL A   1      39.727  36.674  35.997  1.00  0.00    -0.237 OA
ATOM     59  O   UNL A   1      39.311  36.228  38.371  1.00  0.00    -0.744 OA
ENDBRANCH  53  56
ENDBRANCH  25  49
BRANCH  37  60
ATOM     60  C   UNL A   1      44.626  27.894  34.151  1.00  0.00     0.023 A 
ATOM     61  C   UNL A   1      45.803  28.658  34.254  1.00  0.00     0.012 A 
ATOM     62  C   UNL A   1      44.452  26.754  34.954  1.00  0.00     0.148 A 
ATOM     63  C   UNL A   1      46.807  28.276  35.139  1.00  0.00     0.002 A 
ATOM     64  C   UNL A   1      45.430  26.414  35.874  1.00  0.00     0.091 A 
ATOM     65  F   UNL A   1      43.325  26.039  34.814  1.00  0.00    -0.205 F 
ATOM     66  C   UNL A   1      46.613  27.166  35.961  1.00  0.00     0.022 A 
BRANCH  64  67
ATOM     67  S   UNL A   1      45.215  25.075  37.048  1.00  0.00     0.127 S 
ATOM     68  O   UNL A   1      46.394  25.233  37.897  1.00  0.00    -0.237 OA
ATOM     69  O   UNL A   1      43.948  25.427  37.687  1.00  0.00    -0.237 OA
ATOM     70  O   UNL A   1      45.176  23.849  36.261  1.00  0.00    -0.744 OA
ENDBRANCH  64  67
ENDBRANCH  37  60
ENDBRANCH  11  12
ENDBRANCH   4   6
ENDBRANCH   3   4
ENDBRANCH   2   3
ENDBRANCH   1   2
BRANCH   1  71
ATOM     71  O   UNL A   1      31.792  26.061  26.952  1.00  0.00    -0.374 OA
BRANCH  71  72
ATOM     72  C   UNL A   1      30.893  25.335  26.105  1.00  0.00     0.202 C 
BRANCH  72  73
ATOM     73  C   UNL A   1      31.142  23.845  26.298  1.00  0.00     0.261 C 
BRANCH  73  74
ATOM     74  O   UNL A   1      31.176  23.244  24.991  1.00  0.00    -0.463 OA
BRANCH  74  75
ATOM     75  C   UNL A   1      31.872  22.081  24.889  1.00  0.00     0.314 C 
ATOM     76  O   UNL A   1      31.566  21.026  25.432  1.00  0.00    -0.252 OA
BRANCH  75  77
ATOM     77  C   UNL A   1      33.129  22.247  24.048  1.00  0.00     0.154 C 
ATOM     78  C   UNL A   1      34.435  22.516  24.810  1.00  0.00     0.027 C 
ATOM     79  C   UNL A   1      32.911  23.257  22.903  1.00  0.00     0.277 C 
ATOM     80  C   UNL A   1      34.688  23.992  25.099  1.00  0.00     0.062 C 
ATOM     81  N   UNL A   1      33.225  24.655  23.221  1.00  0.00    -0.330 N 
ATOM     82  C   UNL A   1      34.529  24.854  23.846  1.00  0.00     0.262 C 
ATOM     83  H   UNL A   1      32.558  24.883  23.959  1.00  0.00     0.348 HD
BRANCH  81  84
ATOM     84  C   UNL A   1      32.900  25.628  22.162  1.00  0.00     0.300 C 
BRANCH  84  85
ATOM     85  C   UNL A   1      32.026  26.785  22.596  1.00  0.00     0.025 A 
ATOM     86  C   UNL A   1      30.665  26.532  22.859  1.00  0.00     0.014 A 
ATOM     87  C   UNL A   1      32.489  28.109  22.684  1.00  0.00     0.052 A 
ATOM     88  C   UNL A   1      29.775  27.577  23.092  1.00  0.00     0.040 A 
ATOM     89  C   UNL A   1      31.599  29.155  22.941  1.00  0.00     0.060 A 
ATOM     90  Cl  UNL A   1      34.153  28.528  22.478  1.00  0.00    -0.084 Cl
ATOM     91  C   UNL A   1      30.249  28.879  23.115  1.00  0.00     0.124 A 
ATOM     92  F   UNL A   1      29.390  29.889  23.308  1.00  0.00    -0.207 F 
ENDBRANCH  84  85
ENDBRANCH  81  84
ENDBRANCH  75  77
ENDBRANCH  74  75
ENDBRANCH  73  74
ENDBRANCH  72  73
ENDBRANCH  71  72
ENDBRANCH   1  71
TORSDOF 19
ENDMDL
MODEL 2
REMARK VINA RESULT:     -10.9      1.941      3.142
REMARK SMILES O=C(OCCOCCOC(=O)[C@@H]1CCC[N@@H+](Cc2ccc(F)cc2Cl)C1)c1ccc(-c2c3nc(c(-c4cccc(S(=O)(=O)[O-])c4F)c4ccc([nH]4)c(-c4cccc(S(=O)(=O)[O-])c4F)c4nc(c(-c5cccc(S(=O)(=O)[O-])c5F)c5ccc2[nH]5)C=C4)C=C3)cc1
REMARK SMILES IDX 5 1 4 2 3 3 2 4 1 5 27 6 28 7 89 8 29 9 88 10 30 11 31 12
REMARK SMILES IDX 32 13 82 14 33 15 87 16 81 17 83 18 34 19 86 20 80 21 79 22
REMARK SMILES IDX 35 24 67 25 47 26 66 27 48 28 51 29 65 30 84 31 49 32 50 33
REMARK SMILES IDX 64 35 85 36 52 37 36 38 37 39 45 40 38 41 40 42 46 43 39 44
REMARK SMILES IDX 41 45 42 46 43 47 44 48 68 49 69 50 77 51 70 52 72 53 78 54
REMARK SMILES IDX 71 55 73 56 74 57 75 58 76 59 53 60 54 61 62 62 55 63 57 64
REMARK SMILES IDX 63 65 56 66 58 67 59 68 60 69 61 70 6 71 7 72 8 73 9 74
REMARK SMILES IDX 10 75 11 76 12 77 13 78 26 79 14 80 16 81 15 82 17 84 18 85
REMARK SMILES IDX 19 86 24 87 20 88 23 89 25 90 21 91 22 92
REMARK H PARENT 83 23 51 34 16 83
REMARK Flexibility Score: inf
ROOT
ATOM      1  C   UNL A   1      31.511  29.112  24.357  1.00  0.00     0.202 C 
ENDROOT
BRANCH   1   2
ATOM      2  C   UNL A   1      31.706  29.572  25.806  1.00  0.00     0.261 C 
BRANCH   2   3
ATOM      3  O   UNL A   1      33.051  30.056  26.033  1.00  0.00    -0.460 OA
BRANCH   3   4
ATOM      4  C   UNL A   1      33.398  31.031  26.915  1.00  0.00     0.338 C 
ATOM      5  O   UNL A   1      32.649  31.988  27.123  1.00  0.00    -0.246 OA
BRANCH   4   6
ATOM      6  C   UNL A   1      34.679  30.921  27.642  1.00  0.00     0.060 A 
ATOM      7  C   UNL A   1      35.094  29.686  28.119  1.00  0.00     0.016 A 
ATOM      8  C   UNL A   1      35.505  32.021  27.845  1.00  0.00     0.016 A 
ATOM      9  C   UNL A   1      36.140  29.542  28.982  1.00  0.00     0.010 A 
ATOM     10  C   UNL A   1      36.704  31.848  28.547  1.00  0.00     0.010 A 
ATOM     11  C   UNL A   1      37.011  30.602  29.122  1.00  0.00    -0.014 A 
BRANCH  11  12
ATOM     12  C   UNL A   1      38.252  30.318  29.848  1.00  0.00     0.031 A 
ATOM     13  C   UNL A   1      39.287  29.490  29.178  1.00  0.00     0.074 A 
ATOM     14  C   UNL A   1      38.438  30.897  31.052  1.00  0.00     0.049 A 
ATOM     15  N   UNL A   1      40.369  28.977  29.685  1.00  0.00    -0.248 NA
ATOM     16  C   UNL A   1      39.078  29.189  27.750  1.00  0.00     0.031 C 
ATOM     17  C   UNL A   1      37.504  31.829  31.703  1.00  0.00     0.029 A 
ATOM     18  N   UNL A   1      39.472  30.805  31.941  1.00  0.00    -0.354 N 
ATOM     19  C   UNL A   1      40.915  28.203  28.673  1.00  0.00     0.074 A 
ATOM     20  C   UNL A   1      40.082  28.360  27.503  1.00  0.00     0.031 C 
ATOM     21  C   UNL A   1      38.014  32.229  32.875  1.00  0.00     0.029 A 
ATOM     22  C   UNL A   1      39.235  31.484  33.116  1.00  0.00     0.049 A 
ATOM     23  H   UNL A   1      40.301  30.305  31.762  1.00  0.00     0.167 HD
ATOM     24  C   UNL A   1      42.001  27.407  28.756  1.00  0.00     0.034 A 
ATOM     25  C   UNL A   1      39.889  31.429  34.289  1.00  0.00     0.034 A 
ATOM     26  C   UNL A   1      42.801  27.316  29.943  1.00  0.00     0.049 A 
ATOM     27  C   UNL A   1      41.071  30.508  34.357  1.00  0.00     0.074 A 
ATOM     28  C   UNL A   1      43.926  26.550  30.170  1.00  0.00     0.029 A 
ATOM     29  N   UNL A   1      42.544  28.020  31.115  1.00  0.00    -0.354 N 
ATOM     30  N   UNL A   1      41.597  29.778  33.400  1.00  0.00    -0.248 NA
ATOM     31  C   UNL A   1      41.748  30.391  35.651  1.00  0.00     0.031 C 
ATOM     32  C   UNL A   1      44.327  26.763  31.493  1.00  0.00     0.029 A 
ATOM     33  C   UNL A   1      43.475  27.691  32.078  1.00  0.00     0.049 A 
ATOM     34  H   UNL A   1      41.805  28.659  31.239  1.00  0.00     0.167 HD
ATOM     35  C   UNL A   1      42.674  29.120  33.970  1.00  0.00     0.074 A 
ATOM     36  C   UNL A   1      42.745  29.569  35.349  1.00  0.00     0.031 C 
ATOM     37  C   UNL A   1      43.518  28.212  33.423  1.00  0.00     0.034 A 
BRANCH  24  38
ATOM     38  C   UNL A   1      42.311  26.536  27.574  1.00  0.00     0.023 A 
ATOM     39  C   UNL A   1      42.985  27.057  26.452  1.00  0.00     0.012 A 
ATOM     40  C   UNL A   1      41.912  25.185  27.578  1.00  0.00     0.148 A 
ATOM     41  C   UNL A   1      43.230  26.253  25.340  1.00  0.00     0.002 A 
ATOM     42  C   UNL A   1      42.199  24.379  26.485  1.00  0.00     0.091 A 
ATOM     43  F   UNL A   1      41.241  24.721  28.642  1.00  0.00    -0.205 F 
ATOM     44  C   UNL A   1      42.845  24.913  25.360  1.00  0.00     0.022 A 
BRANCH  42  45
ATOM     45  S   UNL A   1      41.796  22.630  26.439  1.00  0.00     0.127 S 
ATOM     46  O   UNL A   1      42.417  22.151  27.673  1.00  0.00    -0.237 OA
ATOM     47  O   UNL A   1      40.333  22.657  26.462  1.00  0.00    -0.237 OA
ATOM     48  O   UNL A   1      42.379  22.111  25.210  1.00  0.00    -0.744 OA
ENDBRANCH  42  45
ENDBRANCH  24  38
BRANCH  25  49
ATOM     49  C   UNL A   1      39.404  32.199  35.472  1.00  0.00     0.023 A 
ATOM     50  C   UNL A   1      38.520  31.592  36.383  1.00  0.00     0.012 A 
ATOM     51  C   UNL A   1      39.832  33.521  35.715  1.00  0.00     0.148 A 
ATOM     52  C   UNL A   1      38.047  32.297  37.493  1.00  0.00     0.002 A 
ATOM     53  C   UNL A   1      39.405  34.195  36.854  1.00  0.00     0.091 A 
ATOM     54  F   UNL A   1      40.659  34.098  34.831  1.00  0.00    -0.205 F 
ATOM     55  C   UNL A   1      38.497  33.593  37.735  1.00  0.00     0.022 A 
BRANCH  53  56
ATOM     56  S   UNL A   1      40.045  35.813  37.307  1.00  0.00     0.127 S 
ATOM     57  O   UNL A   1      41.475  35.543  37.438  1.00  0.00    -0.237 OA
ATOM     58  O   UNL A   1      39.676  36.625  36.147  1.00  0.00    -0.237 OA
ATOM     59  O   UNL A   1      39.350  36.178  38.535  1.00  0.00    -0.744 OA
ENDBRANCH  53  56
ENDBRANCH  25  49
BRANCH  37  60
ATOM     60  C   UNL A   1      44.601  27.677  34.312  1.00  0.00     0.023 A 
ATOM     61  C   UNL A   1      45.784  28.418  34.491  1.00  0.00     0.012 A 
ATOM     62  C   UNL A   1      44.389  26.498  35.046  1.00  0.00     0.148 A 
ATOM     63  C   UNL A   1      46.756  27.976  35.384  1.00  0.00     0.002 A 
ATOM     64  C   UNL A   1      45.335  26.096  35.976  1.00  0.00     0.091 A 
ATOM     65  F   UNL A   1      43.259  25.806  34.835  1.00  0.00    -0.205 F 
ATOM     66  C   UNL A   1      46.524  26.826  36.138  1.00  0.00     0.022 A 
BRANCH  64  67
ATOM     67  S   UNL A   1      45.068  24.699  37.069  1.00  0.00     0.127 S 
ATOM     68  O   UNL A   1      44.150  25.265  38.055  1.00  0.00    -0.237 OA
ATOM     69  O   UNL A   1      44.470  23.714  36.169  1.00  0.00    -0.237 OA
ATOM     70  O   UNL A   1      46.381  24.331  37.582  1.00  0.00    -0.744 OA
ENDBRANCH  64  67
ENDBRANCH  37  60
ENDBRANCH  11  12
ENDBRANCH   4   6
ENDBRANCH   3   4
ENDBRANCH   2   3
ENDBRANCH   1   2
BRANCH   1  71
ATOM     71  O   UNL A   1      32.603  28.522  23.667  1.00  0.00    -0.374 OA
BRANCH  71  72
ATOM     72  C   UNL A   1      32.283  27.867  22.434  1.00  0.00     0.202 C 
BRANCH  72  73
ATOM     73  C   UNL A   1      30.814  27.463  22.467  1.00  0.00     0.261 C 
BRANCH  73  74
ATOM     74  O   UNL A   1      30.744  26.152  23.055  1.00  0.00    -0.463 OA
BRANCH  74  75
ATOM     75  C   UNL A   1      29.823  25.989  24.040  1.00  0.00     0.314 C 
ATOM     76  O   UNL A   1      28.729  26.541  24.081  1.00  0.00    -0.252 OA
BRANCH  75  77
ATOM     77  C   UNL A   1      30.328  25.065  25.139  1.00  0.00     0.154 C 
ATOM     78  C   UNL A   1      31.200  25.705  26.228  1.00  0.00     0.027 C 
ATOM     79  C   UNL A   1      30.978  23.796  24.551  1.00  0.00     0.277 C 
ATOM     80  C   UNL A   1      32.684  25.756  25.880  1.00  0.00     0.062 C 
ATOM     81  N   UNL A   1      32.420  23.883  24.290  1.00  0.00    -0.330 N 
ATOM     82  C   UNL A   1      33.206  24.399  25.406  1.00  0.00     0.262 C 
ATOM     83  H   UNL A   1      32.485  24.614  23.581  1.00  0.00     0.348 HD
BRANCH  81  84
ATOM     84  C   UNL A   1      33.008  22.710  23.618  1.00  0.00     0.300 C 
BRANCH  84  85
ATOM     85  C   UNL A   1      34.410  22.350  24.058  1.00  0.00     0.025 A 
ATOM     86  C   UNL A   1      35.495  22.943  23.383  1.00  0.00     0.014 A 
ATOM     87  C   UNL A   1      34.684  21.404  25.062  1.00  0.00     0.052 A 
ATOM     88  C   UNL A   1      36.802  22.525  23.623  1.00  0.00     0.040 A 
ATOM     89  C   UNL A   1      35.997  21.002  25.316  1.00  0.00     0.060 A 
ATOM     90  Cl  UNL A   1      33.441  20.683  26.022  1.00  0.00    -0.084 Cl
ATOM     91  C   UNL A   1      37.037  21.548  24.576  1.00  0.00     0.124 A 
ATOM     92  F   UNL A   1      38.289  21.121  24.787  1.00  0.00    -0.207 F 
ENDBRANCH  84  85
ENDBRANCH  81  84
ENDBRANCH  75  77
ENDBRANCH  74  75
ENDBRANCH  73  74
ENDBRANCH  72  73
ENDBRANCH  71  72
ENDBRANCH   1  71
TORSDOF 19
ENDMDL
MODEL 3
REMARK VINA RESULT:     -10.8      4.834      9.484
REMARK SMILES O=C(OCCOCCOC(=O)[C@@H]1CCC[N@@H+](Cc2ccc(F)cc2Cl)C1)c1ccc(-c2c3nc(c(-c4cccc(S(=O)(=O)[O-])c4F)c4ccc([nH]4)c(-c4cccc(S(=O)(=O)[O-])c4F)c4nc(c(-c5cccc(S(=O)(=O)[O-])c5F)c5ccc2[nH]5)C=C4)C=C3)cc1
REMARK SMILES IDX 5 1 4 2 3 3 2 4 1 5 27 6 28 7 89 8 29 9 88 10 30 11 31 12
REMARK SMILES IDX 32 13 82 14 33 15 87 16 81 17 83 18 34 19 86 20 80 21 79 22
REMARK SMILES IDX 35 24 67 25 47 26 66 27 48 28 51 29 65 30 84 31 49 32 50 33
REMARK SMILES IDX 64 35 85 36 52 37 36 38 37 39 45 40 38 41 40 42 46 43 39 44
REMARK SMILES IDX 41 45 42 46 43 47 44 48 68 49 69 50 77 51 70 52 72 53 78 54
REMARK SMILES IDX 71 55 73 56 74 57 75 58 76 59 53 60 54 61 62 62 55 63 57 64
REMARK SMILES IDX 63 65 56 66 58 67 59 68 60 69 61 70 6 71 7 72 8 73 9 74
REMARK SMILES IDX 10 75 11 76 12 77 13 78 26 79 14 80 16 81 15 82 17 84 18 85
REMARK SMILES IDX 19 86 24 87 20 88 23 89 25 90 21 91 22 92
REMARK H PARENT 83 23 51 34 16 83
REMARK Flexibility Score: inf
ROOT
ATOM      1  C   UNL A   1      34.507  21.009  25.623  1.00  0.00     0.202 C 
ENDROOT
BRANCH   1   2
ATOM      2  C   UNL A   1      35.796  21.563  25.006  1.00  0.00     0.261 C 
BRANCH   2   3
ATOM      3  O   UNL A   1      36.756  21.934  26.024  1.00  0.00    -0.460 OA
BRANCH   3   4
ATOM      4  C   UNL A   1      38.105  21.803  25.917  1.00  0.00     0.338 C 
ATOM      5  O   UNL A   1      38.601  20.822  25.359  1.00  0.00    -0.246 OA
BRANCH   4   6
ATOM      6  C   UNL A   1      38.976  22.865  26.461  1.00  0.00     0.060 A 
ATOM      7  C   UNL A   1      38.743  24.188  26.117  1.00  0.00     0.016 A 
ATOM      8  C   UNL A   1      40.018  22.582  27.337  1.00  0.00     0.016 A 
ATOM      9  C   UNL A   1      39.626  25.190  26.395  1.00  0.00     0.010 A 
ATOM     10  C   UNL A   1      40.809  23.635  27.812  1.00  0.00     0.010 A 
ATOM     11  C   UNL A   1      40.611  24.940  27.327  1.00  0.00    -0.014 A 
BRANCH  11  12
ATOM     12  C   UNL A   1      41.368  26.109  27.785  1.00  0.00     0.031 A 
ATOM     13  C   UNL A   1      40.682  27.097  28.657  1.00  0.00     0.074 A 
ATOM     14  C   UNL A   1      42.678  26.188  27.473  1.00  0.00     0.049 A 
ATOM     15  N   UNL A   1      41.094  28.270  29.034  1.00  0.00    -0.248 NA
ATOM     16  C   UNL A   1      39.352  26.721  29.169  1.00  0.00     0.031 C 
ATOM     17  C   UNL A   1      43.439  25.174  26.724  1.00  0.00     0.029 A 
ATOM     18  N   UNL A   1      43.610  27.149  27.749  1.00  0.00    -0.354 N 
ATOM     19  C   UNL A   1      40.034  28.822  29.735  1.00  0.00     0.074 A 
ATOM     20  C   UNL A   1      38.981  27.833  29.786  1.00  0.00     0.031 C 
ATOM     21  C   UNL A   1      44.716  25.561  26.615  1.00  0.00     0.029 A 
ATOM     22  C   UNL A   1      44.831  26.900  27.163  1.00  0.00     0.049 A 
ATOM     23  H   UNL A   1      43.428  27.937  28.309  1.00  0.00     0.167 HD
ATOM     24  C   UNL A   1      39.959  30.068  30.247  1.00  0.00     0.034 A 
ATOM     25  C   UNL A   1      45.893  27.710  27.008  1.00  0.00     0.034 A 
ATOM     26  C   UNL A   1      41.054  30.993  30.184  1.00  0.00     0.049 A 
ATOM     27  C   UNL A   1      45.763  29.099  27.559  1.00  0.00     0.074 A 
ATOM     28  C   UNL A   1      41.118  32.287  30.658  1.00  0.00     0.029 A 
ATOM     29  N   UNL A   1      42.281  30.713  29.592  1.00  0.00    -0.354 N 
ATOM     30  N   UNL A   1      44.764  29.625  28.230  1.00  0.00    -0.248 NA
ATOM     31  C   UNL A   1      46.888  30.010  27.334  1.00  0.00     0.031 C 
ATOM     32  C   UNL A   1      42.374  32.803  30.319  1.00  0.00     0.029 A 
ATOM     33  C   UNL A   1      43.105  31.818  29.669  1.00  0.00     0.049 A 
ATOM     34  H   UNL A   1      42.526  29.854  29.179  1.00  0.00     0.167 HD
ATOM     35  C   UNL A   1      45.141  30.926  28.519  1.00  0.00     0.074 A 
ATOM     36  C   UNL A   1      46.478  31.094  27.978  1.00  0.00     0.031 C 
ATOM     37  C   UNL A   1      44.448  31.905  29.150  1.00  0.00     0.034 A 
BRANCH  24  38
ATOM     38  C   UNL A   1      38.644  30.499  30.828  1.00  0.00     0.023 A 
ATOM     39  C   UNL A   1      38.349  30.277  32.186  1.00  0.00     0.012 A 
ATOM     40  C   UNL A   1      37.687  31.120  30.002  1.00  0.00     0.148 A 
ATOM     41  C   UNL A   1      37.108  30.641  32.708  1.00  0.00     0.002 A 
ATOM     42  C   UNL A   1      36.471  31.519  30.538  1.00  0.00     0.091 A 
ATOM     43  F   UNL A   1      37.977  31.288  28.704  1.00  0.00    -0.205 F 
ATOM     44  C   UNL A   1      36.173  31.269  31.887  1.00  0.00     0.022 A 
BRANCH  42  45
ATOM     45  S   UNL A   1      35.226  32.386  29.577  1.00  0.00     0.127 S 
ATOM     46  O   UNL A   1      34.198  32.641  30.586  1.00  0.00    -0.237 OA
ATOM     47  O   UNL A   1      35.958  33.574  29.137  1.00  0.00    -0.237 OA
ATOM     48  O   UNL A   1      34.833  31.479  28.509  1.00  0.00    -0.744 OA
ENDBRANCH  42  45
ENDBRANCH  24  38
BRANCH  25  49
ATOM     49  C   UNL A   1      47.100  27.254  26.258  1.00  0.00     0.023 A 
ATOM     50  C   UNL A   1      47.216  27.539  24.885  1.00  0.00     0.012 A 
ATOM     51  C   UNL A   1      48.147  26.561  26.901  1.00  0.00     0.148 A 
ATOM     52  C   UNL A   1      48.334  27.114  24.162  1.00  0.00     0.002 A 
ATOM     53  C   UNL A   1      49.284  26.196  26.190  1.00  0.00     0.091 A 
ATOM     54  F   UNL A   1      48.019  26.278  28.207  1.00  0.00    -0.205 F 
ATOM     55  C   UNL A   1      49.371  26.453  24.815  1.00  0.00     0.022 A 
BRANCH  53  56
ATOM     56  S   UNL A   1      50.721  25.465  26.986  1.00  0.00     0.127 S 
ATOM     57  O   UNL A   1      50.145  24.273  27.605  1.00  0.00    -0.237 OA
ATOM     58  O   UNL A   1      51.602  25.202  25.848  1.00  0.00    -0.237 OA
ATOM     59  O   UNL A   1      51.219  26.482  27.902  1.00  0.00    -0.744 OA
ENDBRANCH  53  56
ENDBRANCH  25  49
BRANCH  37  60
ATOM     60  C   UNL A   1      45.142  33.224  29.313  1.00  0.00     0.023 A 
ATOM     61  C   UNL A   1      45.983  33.438  30.421  1.00  0.00     0.012 A 
ATOM     62  C   UNL A   1      45.040  34.201  28.306  1.00  0.00     0.148 A 
ATOM     63  C   UNL A   1      46.702  34.624  30.534  1.00  0.00     0.002 A 
ATOM     64  C   UNL A   1      45.804  35.353  28.396  1.00  0.00     0.091 A 
ATOM     65  F   UNL A   1      44.214  33.972  27.275  1.00  0.00    -0.205 F 
ATOM     66  C   UNL A   1      46.627  35.572  29.514  1.00  0.00     0.022 A 
BRANCH  64  67
ATOM     67  S   UNL A   1      45.858  36.570  27.079  1.00  0.00     0.127 S 
ATOM     68  O   UNL A   1      46.835  37.525  27.598  1.00  0.00    -0.237 OA
ATOM     69  O   UNL A   1      46.323  35.774  25.944  1.00  0.00    -0.237 OA
ATOM     70  O   UNL A   1      44.500  37.081  26.945  1.00  0.00    -0.744 OA
ENDBRANCH  64  67
ENDBRANCH  37  60
ENDBRANCH  11  12
ENDBRANCH   4   6
ENDBRANCH   3   4
ENDBRANCH   2   3
ENDBRANCH   1   2
BRANCH   1  71
ATOM     71  O   UNL A   1      33.256  21.510  25.175  1.00  0.00    -0.374 OA
BRANCH  71  72
ATOM     72  C   UNL A   1      32.836  21.073  23.878  1.00  0.00     0.202 C 
BRANCH  72  73
ATOM     73  C   UNL A   1      32.789  22.281  22.951  1.00  0.00     0.261 C 
BRANCH  73  74
ATOM     74  O   UNL A   1      32.628  23.449  23.778  1.00  0.00    -0.463 OA
BRANCH  74  75
ATOM     75  C   UNL A   1      33.436  24.501  23.485  1.00  0.00     0.314 C 
ATOM     76  O   UNL A   1      33.850  24.783  22.367  1.00  0.00    -0.252 OA
BRANCH  75  77
ATOM     77  C   UNL A   1      33.822  25.281  24.734  1.00  0.00     0.154 C 
ATOM     78  C   UNL A   1      33.126  24.875  26.040  1.00  0.00     0.027 C 
ATOM     79  C   UNL A   1      33.749  26.803  24.491  1.00  0.00     0.277 C 
ATOM     80  C   UNL A   1      31.790  25.573  26.272  1.00  0.00     0.062 C 
ATOM     81  N   UNL A   1      32.456  27.432  24.786  1.00  0.00    -0.330 N 
ATOM     82  C   UNL A   1      31.900  27.088  26.090  1.00  0.00     0.262 C 
ATOM     83  H   UNL A   1      31.823  26.987  24.121  1.00  0.00     0.348 HD
BRANCH  81  84
ATOM     84  C   UNL A   1      32.359  28.861  24.437  1.00  0.00     0.300 C 
BRANCH  84  85
ATOM     85  C   UNL A   1      31.042  29.289  23.827  1.00  0.00     0.025 A 
ATOM     86  C   UNL A   1      30.450  30.482  24.285  1.00  0.00     0.014 A 
ATOM     87  C   UNL A   1      30.349  28.520  22.876  1.00  0.00     0.052 A 
ATOM     88  C   UNL A   1      29.163  30.839  23.892  1.00  0.00     0.040 A 
ATOM     89  C   UNL A   1      29.066  28.892  22.465  1.00  0.00     0.060 A 
ATOM     90  Cl  UNL A   1      31.016  27.091  22.171  1.00  0.00    -0.084 Cl
ATOM     91  C   UNL A   1      28.479  30.031  22.998  1.00  0.00     0.124 A 
ATOM     92  F   UNL A   1      27.229  30.355  22.642  1.00  0.00    -0.207 F 
ENDBRANCH  84  85
ENDBRANCH  81  84
ENDBRANCH  75  77
ENDBRANCH  74  75
ENDBRANCH  73  74
ENDBRANCH  72  73
ENDBRANCH  71  72
ENDBRANCH   1  71
TORSDOF 19
ENDMDL
