MODEL 1
REMARK VINA RESULT:     -11.8      0.000      0.000
REMARK SMILES N#Cc1ccc(C[N@H+]2CCCC[C@H]2C(=O)OCCOCCOC(=O)c2ccc(-c3c4nc(c(-c5cccc(S(=O)(=O)[O-])c5F)c5ccc([nH]5)c(-c5cccc(S(=O)(=O)[O-])c5F)c5nc(c(-c6cccc(S(=O)(=O)[O-])c6F)c6ccc3[nH]6)C=C5)C=C4)cc2)c(F)c1
REMARK SMILES IDX 19 1 18 2 17 3 16 4 14 5 15 6 13 7 8 8 9 9 10 11 12 12 11 13
REMARK SMILES IDX 7 14 6 15 3 16 4 17 90 18 5 19 88 20 89 21 2 22 1 23 20 24
REMARK SMILES IDX 21 25 22 26 23 27 24 28 25 29 26 30 87 31 27 32 86 33 28 34
REMARK SMILES IDX 29 35 30 36 80 37 31 38 85 39 79 40 81 41 32 42 84 43 78 44
REMARK SMILES IDX 77 45 33 47 65 48 45 49 64 50 46 51 49 52 63 53 82 54 47 55
REMARK SMILES IDX 48 56 62 58 83 59 50 60 34 61 35 62 43 63 36 64 38 65 44 66
REMARK SMILES IDX 37 67 39 68 40 69 41 70 42 71 66 72 67 73 75 74 68 75 70 76
REMARK SMILES IDX 76 77 69 78 71 79 72 80 73 81 74 82 51 83 52 84 60 85 53 86
REMARK SMILES IDX 55 87 61 88 54 89 56 90 57 91 58 92 59 93
REMARK H PARENT 8 10 81 46 49 57
REMARK Flexibility Score: inf
ROOT
ATOM      1  O   UNL A   1      35.685  21.594  24.895  1.00  0.00    -0.374 OA
ENDROOT
BRANCH   1   2
ATOM      2  C   UNL A   1      34.454  21.900  24.250  1.00  0.00     0.202 C 
BRANCH   2   3
ATOM      3  C   UNL A   1      34.140  23.162  23.397  1.00  0.00     0.261 C 
BRANCH   3   4
ATOM      4  O   UNL A   1      32.867  23.820  23.513  1.00  0.00    -0.459 OA
BRANCH   4   5
ATOM      5  C   UNL A   1      32.992  25.115  23.149  1.00  0.00     0.364 C 
ATOM      6  O   UNL A   1      33.413  25.394  22.037  1.00  0.00    -0.245 OA
BRANCH   5   7
ATOM      7  C   UNL A   1      32.610  26.179  24.181  1.00  0.00     0.295 C 
ATOM      8  N   UNL A   1      31.130  26.410  24.225  1.00  0.00    -0.319 N 
ATOM      9  C   UNL A   1      30.385  25.224  24.652  1.00  0.00     0.263 C 
ATOM     10  H   UNL A   1      31.012  27.096  24.972  1.00  0.00     0.349 HD
ATOM     11  C   UNL A   1      30.878  24.656  25.995  1.00  0.00     0.062 C 
ATOM     12  C   UNL A   1      33.095  25.820  25.593  1.00  0.00     0.078 C 
ATOM     13  C   UNL A   1      32.395  24.591  26.160  1.00  0.00     0.013 C 
BRANCH   8  14
ATOM     14  C   UNL A   1      30.535  27.155  23.076  1.00  0.00     0.302 C 
BRANCH  14  15
ATOM     15  C   UNL A   1      29.806  28.474  23.301  1.00  0.00     0.042 A 
ATOM     16  C   UNL A   1      28.879  31.141  23.162  1.00  0.00     0.055 A 
ATOM     17  C   UNL A   1      28.158  30.109  22.546  1.00  0.00     0.020 A 
ATOM     18  C   UNL A   1      29.981  30.829  23.960  1.00  0.00     0.059 A 
ATOM     19  C   UNL A   1      28.613  28.781  22.620  1.00  0.00     0.014 A 
ATOM     20  C   UNL A   1      30.422  29.504  24.037  1.00  0.00     0.133 A 
ATOM     21  F   UNL A   1      31.579  29.262  24.672  1.00  0.00    -0.206 F 
BRANCH  16  22
ATOM     22  C   UNL A   1      28.552  32.510  22.889  1.00  0.00     0.099 C 
ATOM     23  N   UNL A   1      28.274  33.619  22.661  1.00  0.00    -0.192 NA
ENDBRANCH  16  22
ENDBRANCH  14  15
ENDBRANCH   8  14
ENDBRANCH   5   7
ENDBRANCH   4   5
ENDBRANCH   3   4
ENDBRANCH   2   3
ENDBRANCH   1   2
BRANCH   1  24
ATOM     24  C   UNL A   1      36.158  20.260  25.013  1.00  0.00     0.202 C 
BRANCH  24  25
ATOM     25  C   UNL A   1      37.648  19.934  25.011  1.00  0.00     0.261 C 
BRANCH  25  26
ATOM     26  O   UNL A   1      38.471  21.083  25.214  1.00  0.00    -0.460 OA
BRANCH  26  27
ATOM     27  C   UNL A   1      39.489  20.847  26.076  1.00  0.00     0.338 C 
ATOM     28  O   UNL A   1      40.146  19.824  26.181  1.00  0.00    -0.246 OA
BRANCH  27  29
ATOM     29  C   UNL A   1      39.877  22.098  26.739  1.00  0.00     0.060 A 
ATOM     30  C   UNL A   1      39.305  23.277  26.239  1.00  0.00     0.016 A 
ATOM     31  C   UNL A   1      40.823  22.125  27.762  1.00  0.00     0.016 A 
ATOM     32  C   UNL A   1      39.729  24.502  26.713  1.00  0.00     0.010 A 
ATOM     33  C   UNL A   1      41.276  23.363  28.212  1.00  0.00     0.010 A 
ATOM     34  C   UNL A   1      40.767  24.547  27.648  1.00  0.00    -0.014 A 
BRANCH  34  35
ATOM     35  C   UNL A   1      41.454  25.834  27.849  1.00  0.00     0.031 A 
ATOM     36  C   UNL A   1      40.739  26.913  28.609  1.00  0.00     0.074 A 
ATOM     37  C   UNL A   1      42.717  25.999  27.425  1.00  0.00     0.049 A 
ATOM     38  N   UNL A   1      41.139  28.119  28.905  1.00  0.00    -0.248 NA
ATOM     39  C   UNL A   1      39.389  26.588  29.104  1.00  0.00     0.031 C 
ATOM     40  C   UNL A   1      43.511  24.987  26.731  1.00  0.00     0.029 A 
ATOM     41  N   UNL A   1      43.544  27.084  27.514  1.00  0.00    -0.354 N 
ATOM     42  C   UNL A   1      40.083  28.710  29.587  1.00  0.00     0.074 A 
ATOM     43  C   UNL A   1      39.017  27.736  29.649  1.00  0.00     0.031 C 
ATOM     44  C   UNL A   1      44.713  25.509  26.435  1.00  0.00     0.029 A 
ATOM     45  C   UNL A   1      44.751  26.898  26.886  1.00  0.00     0.049 A 
ATOM     46  H   UNL A   1      43.299  27.914  27.981  1.00  0.00     0.167 HD
ATOM     47  C   UNL A   1      40.015  29.952  30.118  1.00  0.00     0.034 A 
ATOM     48  C   UNL A   1      45.753  27.769  26.674  1.00  0.00     0.034 A 
ATOM     49  C   UNL A   1      41.088  30.905  30.048  1.00  0.00     0.049 A 
ATOM     50  C   UNL A   1      45.624  29.167  27.214  1.00  0.00     0.074 A 
ATOM     51  C   UNL A   1      41.139  32.183  30.571  1.00  0.00     0.029 A 
ATOM     52  N   UNL A   1      42.293  30.690  29.395  1.00  0.00    -0.354 N 
ATOM     53  N   UNL A   1      44.651  29.695  27.919  1.00  0.00    -0.248 NA
ATOM     54  C   UNL A   1      46.744  30.081  26.956  1.00  0.00     0.031 C 
ATOM     55  C   UNL A   1      42.354  32.762  30.187  1.00  0.00     0.029 A 
ATOM     56  C   UNL A   1      43.086  31.821  29.480  1.00  0.00     0.049 A 
ATOM     57  H   UNL A   1      42.547  29.856  28.937  1.00  0.00     0.167 HD
ATOM     58  C   UNL A   1      45.061  30.988  28.226  1.00  0.00     0.074 A 
ATOM     59  C   UNL A   1      46.377  31.155  27.642  1.00  0.00     0.031 C 
ATOM     60  C   UNL A   1      44.409  31.952  28.923  1.00  0.00     0.034 A 
BRANCH  47  61
ATOM     61  C   UNL A   1      38.732  30.349  30.801  1.00  0.00     0.023 A 
ATOM     62  C   UNL A   1      38.525  30.042  32.162  1.00  0.00     0.012 A 
ATOM     63  C   UNL A   1      37.737  31.055  30.096  1.00  0.00     0.148 A 
ATOM     64  C   UNL A   1      37.332  30.389  32.796  1.00  0.00     0.002 A 
ATOM     65  C   UNL A   1      36.574  31.445  30.748  1.00  0.00     0.091 A 
ATOM     66  F   UNL A   1      37.941  31.320  28.798  1.00  0.00    -0.205 F 
ATOM     67  C   UNL A   1      36.362  31.099  32.093  1.00  0.00     0.022 A 
BRANCH  65  68
ATOM     68  S   UNL A   1      35.302  32.430  29.952  1.00  0.00     0.127 S 
ATOM     69  O   UNL A   1      34.865  31.537  28.880  1.00  0.00    -0.237 OA
ATOM     70  O   UNL A   1      34.332  32.606  31.032  1.00  0.00    -0.237 OA
ATOM     71  O   UNL A   1      35.955  33.656  29.513  1.00  0.00    -0.744 OA
ENDBRANCH  65  68
ENDBRANCH  47  61
BRANCH  48  72
ATOM     72  C   UNL A   1      46.970  27.338  25.932  1.00  0.00     0.023 A 
ATOM     73  C   UNL A   1      47.955  26.579  26.590  1.00  0.00     0.012 A 
ATOM     74  C   UNL A   1      47.147  27.671  24.575  1.00  0.00     0.148 A 
ATOM     75  C   UNL A   1      49.115  26.190  25.920  1.00  0.00     0.002 A 
ATOM     76  C   UNL A   1      48.278  27.232  23.898  1.00  0.00     0.091 A 
ATOM     77  F   UNL A   1      46.198  28.398  23.969  1.00  0.00    -0.205 F 
ATOM     78  C   UNL A   1      49.273  26.509  24.574  1.00  0.00     0.022 A 
BRANCH  76  79
ATOM     79  S   UNL A   1      48.510  27.491  22.136  1.00  0.00     0.127 S 
ATOM     80  O   UNL A   1      49.721  28.305  22.111  1.00  0.00    -0.237 OA
ATOM     81  O   UNL A   1      48.676  26.119  21.654  1.00  0.00    -0.237 OA
ATOM     82  O   UNL A   1      47.299  28.151  21.669  1.00  0.00    -0.744 OA
ENDBRANCH  76  79
ENDBRANCH  48  72
BRANCH  60  83
ATOM     83  C   UNL A   1      45.130  33.256  29.147  1.00  0.00     0.023 A 
ATOM     84  C   UNL A   1      45.908  33.451  30.305  1.00  0.00     0.012 A 
ATOM     85  C   UNL A   1      45.084  34.268  28.167  1.00  0.00     0.148 A 
ATOM     86  C   UNL A   1      46.593  34.650  30.505  1.00  0.00     0.002 A 
ATOM     87  C   UNL A   1      45.816  35.434  28.344  1.00  0.00     0.091 A 
ATOM     88  F   UNL A   1      44.327  34.068  27.078  1.00  0.00    -0.205 F 
ATOM     89  C   UNL A   1      46.557  35.634  29.519  1.00  0.00     0.022 A 
BRANCH  87  90
ATOM     90  S   UNL A   1      45.913  36.712  27.087  1.00  0.00     0.127 S 
ATOM     91  O   UNL A   1      46.099  35.920  25.872  1.00  0.00    -0.237 OA
ATOM     92  O   UNL A   1      44.604  37.355  27.201  1.00  0.00    -0.237 OA
ATOM     93  O   UNL A   1      47.039  37.559  27.454  1.00  0.00    -0.744 OA
ENDBRANCH  87  90
ENDBRANCH  60  83
ENDBRANCH  34  35
ENDBRANCH  27  29
ENDBRANCH  26  27
ENDBRANCH  25  26
ENDBRANCH  24  25
ENDBRANCH   1  24
TORSDOF 20
ENDMDL
MODEL 2
REMARK VINA RESULT:     -11.8      1.582      2.049
REMARK SMILES N#Cc1ccc(C[N@H+]2CCCC[C@H]2C(=O)OCCOCCOC(=O)c2ccc(-c3c4nc(c(-c5cccc(S(=O)(=O)[O-])c5F)c5ccc([nH]5)c(-c5cccc(S(=O)(=O)[O-])c5F)c5nc(c(-c6cccc(S(=O)(=O)[O-])c6F)c6ccc3[nH]6)C=C5)C=C4)cc2)c(F)c1
REMARK SMILES IDX 19 1 18 2 17 3 16 4 14 5 15 6 13 7 8 8 9 9 10 11 12 12 11 13
REMARK SMILES IDX 7 14 6 15 3 16 4 17 90 18 5 19 88 20 89 21 2 22 1 23 20 24
REMARK SMILES IDX 21 25 22 26 23 27 24 28 25 29 26 30 87 31 27 32 86 33 28 34
REMARK SMILES IDX 29 35 30 36 80 37 31 38 85 39 79 40 81 41 32 42 84 43 78 44
REMARK SMILES IDX 77 45 33 47 65 48 45 49 64 50 46 51 49 52 63 53 82 54 47 55
REMARK SMILES IDX 48 56 62 58 83 59 50 60 34 61 35 62 43 63 36 64 38 65 44 66
REMARK SMILES IDX 37 67 39 68 40 69 41 70 42 71 66 72 67 73 75 74 68 75 70 76
REMARK SMILES IDX 76 77 69 78 71 79 72 80 73 81 74 82 51 83 52 84 60 85 53 86
REMARK SMILES IDX 55 87 61 88 54 89 56 90 57 91 58 92 59 93
REMARK H PARENT 8 10 81 46 49 57
REMARK Flexibility Score: inf
ROOT
ATOM      1  O   UNL A   1      35.367  22.543  25.246  1.00  0.00    -0.374 OA
ENDROOT
BRANCH   1   2
ATOM      2  C   UNL A   1      34.026  23.015  25.169  1.00  0.00     0.202 C 
BRANCH   2   3
ATOM      3  C   UNL A   1      33.529  24.289  24.428  1.00  0.00     0.261 C 
BRANCH   3   4
ATOM      4  O   UNL A   1      32.124  24.574  24.333  1.00  0.00    -0.459 OA
BRANCH   4   5
ATOM      5  C   UNL A   1      31.931  25.910  24.341  1.00  0.00     0.364 C 
ATOM      6  O   UNL A   1      32.168  26.551  25.354  1.00  0.00    -0.245 OA
BRANCH   5   7
ATOM      7  C   UNL A   1      31.394  26.554  23.061  1.00  0.00     0.295 C 
ATOM      8  N   UNL A   1      31.482  28.050  23.107  1.00  0.00    -0.319 N 
ATOM      9  C   UNL A   1      32.863  28.532  23.190  1.00  0.00     0.263 C 
ATOM     10  H   UNL A   1      31.141  28.343  22.191  1.00  0.00     0.349 HD
ATOM     11  C   UNL A   1      33.762  27.976  22.070  1.00  0.00     0.062 C 
ATOM     12  C   UNL A   1      32.127  26.056  21.807  1.00  0.00     0.078 C 
ATOM     13  C   UNL A   1      33.587  26.489  21.768  1.00  0.00     0.013 C 
BRANCH   8  14
ATOM     14  C   UNL A   1      30.510  28.751  23.997  1.00  0.00     0.302 C 
BRANCH  14  15
ATOM     15  C   UNL A   1      29.494  29.728  23.418  1.00  0.00     0.042 A 
ATOM     16  C   UNL A   1      28.193  31.773  21.963  1.00  0.00     0.055 A 
ATOM     17  C   UNL A   1      28.116  30.440  21.533  1.00  0.00     0.020 A 
ATOM     18  C   UNL A   1      28.798  32.067  23.187  1.00  0.00     0.059 A 
ATOM     19  C   UNL A   1      28.756  29.421  22.259  1.00  0.00     0.014 A 
ATOM     20  C   UNL A   1      29.424  31.045  23.908  1.00  0.00     0.133 A 
ATOM     21  F   UNL A   1      30.139  31.387  24.990  1.00  0.00    -0.206 F 
BRANCH  16  22
ATOM     22  C   UNL A   1      27.748  32.832  21.106  1.00  0.00     0.099 C 
ATOM     23  N   UNL A   1      27.379  33.685  20.403  1.00  0.00    -0.192 NA
ENDBRANCH  16  22
ENDBRANCH  14  15
ENDBRANCH   8  14
ENDBRANCH   5   7
ENDBRANCH   4   5
ENDBRANCH   3   4
ENDBRANCH   2   3
ENDBRANCH   1   2
BRANCH   1  24
ATOM     24  C   UNL A   1      35.668  21.179  25.499  1.00  0.00     0.202 C 
BRANCH  24  25
ATOM     25  C   UNL A   1      36.966  20.540  25.016  1.00  0.00     0.261 C 
BRANCH  25  26
ATOM     26  O   UNL A   1      38.063  21.453  24.997  1.00  0.00    -0.460 OA
BRANCH  26  27
ATOM     27  C   UNL A   1      39.041  21.107  25.868  1.00  0.00     0.338 C 
ATOM     28  O   UNL A   1      39.615  20.034  25.947  1.00  0.00    -0.246 OA
BRANCH  27  29
ATOM     29  C   UNL A   1      39.509  22.300  26.585  1.00  0.00     0.060 A 
ATOM     30  C   UNL A   1      38.917  23.520  26.228  1.00  0.00     0.016 A 
ATOM     31  C   UNL A   1      40.543  22.238  27.518  1.00  0.00     0.016 A 
ATOM     32  C   UNL A   1      39.404  24.701  26.752  1.00  0.00     0.010 A 
ATOM     33  C   UNL A   1      41.057  23.433  28.017  1.00  0.00     0.010 A 
ATOM     34  C   UNL A   1      40.521  24.663  27.590  1.00  0.00    -0.014 A 
BRANCH  34  35
ATOM     35  C   UNL A   1      41.246  25.923  27.825  1.00  0.00     0.031 A 
ATOM     36  C   UNL A   1      40.556  27.010  28.596  1.00  0.00     0.074 A 
ATOM     37  C   UNL A   1      42.519  26.054  27.420  1.00  0.00     0.049 A 
ATOM     38  N   UNL A   1      40.991  28.196  28.920  1.00  0.00    -0.248 NA
ATOM     39  C   UNL A   1      39.190  26.720  29.068  1.00  0.00     0.031 C 
ATOM     40  C   UNL A   1      43.289  25.031  26.716  1.00  0.00     0.029 A 
ATOM     41  N   UNL A   1      43.380  27.110  27.539  1.00  0.00    -0.354 N 
ATOM     42  C   UNL A   1      39.946  28.809  29.600  1.00  0.00     0.074 A 
ATOM     43  C   UNL A   1      38.849  27.868  29.630  1.00  0.00     0.031 C 
ATOM     44  C   UNL A   1      44.511  25.518  26.445  1.00  0.00     0.029 A 
ATOM     45  C   UNL A   1      44.588  26.897  26.923  1.00  0.00     0.049 A 
ATOM     46  H   UNL A   1      43.156  27.939  28.019  1.00  0.00     0.167 HD
ATOM     47  C   UNL A   1      39.911  30.042  30.154  1.00  0.00     0.034 A 
ATOM     48  C   UNL A   1      45.621  27.738  26.740  1.00  0.00     0.034 A 
ATOM     49  C   UNL A   1      41.015  30.961  30.115  1.00  0.00     0.049 A 
ATOM     50  C   UNL A   1      45.530  29.130  27.306  1.00  0.00     0.074 A 
ATOM     51  C   UNL A   1      41.101  32.227  30.664  1.00  0.00     0.029 A 
ATOM     52  N   UNL A   1      42.221  30.720  29.473  1.00  0.00    -0.354 N 
ATOM     53  N   UNL A   1      44.565  29.676  28.008  1.00  0.00    -0.248 NA
ATOM     54  C   UNL A   1      46.681  30.012  27.079  1.00  0.00     0.031 C 
ATOM     55  C   UNL A   1      42.338  32.773  30.305  1.00  0.00     0.029 A 
ATOM     56  C   UNL A   1      43.049  31.822  29.590  1.00  0.00     0.049 A 
ATOM     57  H   UNL A   1      42.454  29.886  29.003  1.00  0.00     0.167 HD
ATOM     58  C   UNL A   1      45.012  30.949  28.345  1.00  0.00     0.074 A 
ATOM     59  C   UNL A   1      46.340  31.084  27.781  1.00  0.00     0.031 C 
ATOM     60  C   UNL A   1      44.382  31.921  29.052  1.00  0.00     0.034 A 
BRANCH  47  61
ATOM     61  C   UNL A   1      38.633  30.468  30.828  1.00  0.00     0.023 A 
ATOM     62  C   UNL A   1      38.423  30.192  32.195  1.00  0.00     0.012 A 
ATOM     63  C   UNL A   1      37.646  31.169  30.108  1.00  0.00     0.148 A 
ATOM     64  C   UNL A   1      37.233  30.566  32.822  1.00  0.00     0.002 A 
ATOM     65  C   UNL A   1      36.487  31.586  30.752  1.00  0.00     0.091 A 
ATOM     66  F   UNL A   1      37.852  31.404  28.805  1.00  0.00    -0.205 F 
ATOM     67  C   UNL A   1      36.272  31.271  32.104  1.00  0.00     0.022 A 
BRANCH  65  68
ATOM     68  S   UNL A   1      35.226  32.568  29.935  1.00  0.00     0.127 S 
ATOM     69  O   UNL A   1      35.996  33.728  29.491  1.00  0.00    -0.237 OA
ATOM     70  O   UNL A   1      34.793  31.676  28.860  1.00  0.00    -0.237 OA
ATOM     71  O   UNL A   1      34.212  32.844  30.944  1.00  0.00    -0.744 OA
ENDBRANCH  65  68
ENDBRANCH  47  61
BRANCH  48  72
ATOM     72  C   UNL A   1      46.832  27.283  26.006  1.00  0.00     0.023 A 
ATOM     73  C   UNL A   1      46.919  27.482  24.615  1.00  0.00     0.012 A 
ATOM     74  C   UNL A   1      47.901  26.663  26.682  1.00  0.00     0.148 A 
ATOM     75  C   UNL A   1      48.034  27.037  23.904  1.00  0.00     0.002 A 
ATOM     76  C   UNL A   1      49.032  26.274  25.977  1.00  0.00     0.091 A 
ATOM     77  F   UNL A   1      47.794  26.480  28.006  1.00  0.00    -0.205 F 
ATOM     78  C   UNL A   1      49.093  26.441  24.585  1.00  0.00     0.022 A 
BRANCH  76  79
ATOM     79  S   UNL A   1      50.492  25.609  26.785  1.00  0.00     0.127 S 
ATOM     80  O   UNL A   1      51.358  25.321  25.645  1.00  0.00    -0.237 OA
ATOM     81  O   UNL A   1      50.914  26.739  27.613  1.00  0.00    -0.237 OA
ATOM     82  O   UNL A   1      50.035  24.448  27.537  1.00  0.00    -0.744 OA
ENDBRANCH  76  79
ENDBRANCH  48  72
BRANCH  60  83
ATOM     83  C   UNL A   1      45.142  33.196  29.310  1.00  0.00     0.023 A 
ATOM     84  C   UNL A   1      45.966  33.318  30.446  1.00  0.00     0.012 A 
ATOM     85  C   UNL A   1      45.085  34.254  28.381  1.00  0.00     0.148 A 
ATOM     86  C   UNL A   1      46.686  34.491  30.676  1.00  0.00     0.002 A 
ATOM     87  C   UNL A   1      45.850  35.394  28.585  1.00  0.00     0.091 A 
ATOM     88  F   UNL A   1      44.284  34.124  27.313  1.00  0.00    -0.205 F 
ATOM     89  C   UNL A   1      46.638  35.522  29.740  1.00  0.00     0.022 A 
BRANCH  87  90
ATOM     90  S   UNL A   1      45.931  36.729  27.386  1.00  0.00     0.127 S 
ATOM     91  O   UNL A   1      46.273  36.007  26.162  1.00  0.00    -0.237 OA
ATOM     92  O   UNL A   1      44.567  37.257  27.423  1.00  0.00    -0.237 OA
ATOM     93  O   UNL A   1      46.952  37.649  27.870  1.00  0.00    -0.744 OA
ENDBRANCH  87  90
ENDBRANCH  60  83
ENDBRANCH  34  35
ENDBRANCH  27  29
ENDBRANCH  26  27
ENDBRANCH  25  26
ENDBRANCH  24  25
ENDBRANCH   1  24
TORSDOF 20
ENDMDL
MODEL 3
REMARK VINA RESULT:     -11.6      5.244      8.807
REMARK SMILES N#Cc1ccc(C[N@H+]2CCCC[C@H]2C(=O)OCCOCCOC(=O)c2ccc(-c3c4nc(c(-c5cccc(S(=O)(=O)[O-])c5F)c5ccc([nH]5)c(-c5cccc(S(=O)(=O)[O-])c5F)c5nc(c(-c6cccc(S(=O)(=O)[O-])c6F)c6ccc3[nH]6)C=C5)C=C4)cc2)c(F)c1
REMARK SMILES IDX 19 1 18 2 17 3 16 4 14 5 15 6 13 7 8 8 9 9 10 11 12 12 11 13
REMARK SMILES IDX 7 14 6 15 3 16 4 17 90 18 5 19 88 20 89 21 2 22 1 23 20 24
REMARK SMILES IDX 21 25 22 26 23 27 24 28 25 29 26 30 87 31 27 32 86 33 28 34
REMARK SMILES IDX 29 35 30 36 80 37 31 38 85 39 79 40 81 41 32 42 84 43 78 44
REMARK SMILES IDX 77 45 33 47 65 48 45 49 64 50 46 51 49 52 63 53 82 54 47 55
REMARK SMILES IDX 48 56 62 58 83 59 50 60 34 61 35 62 43 63 36 64 38 65 44 66
REMARK SMILES IDX 37 67 39 68 40 69 41 70 42 71 66 72 67 73 75 74 68 75 70 76
REMARK SMILES IDX 76 77 69 78 71 79 72 80 73 81 74 82 51 83 52 84 60 85 53 86
REMARK SMILES IDX 55 87 61 88 54 89 56 90 57 91 58 92 59 93
REMARK H PARENT 8 10 81 46 49 57
REMARK Flexibility Score: inf
ROOT
ATOM      1  O   UNL A   1      32.136  30.610  26.699  1.00  0.00    -0.374 OA
ENDROOT
BRANCH   1   2
ATOM      2  C   UNL A   1      32.276  29.563  25.746  1.00  0.00     0.202 C 
BRANCH   2   3
ATOM      3  C   UNL A   1      33.536  28.681  25.511  1.00  0.00     0.261 C 
BRANCH   3   4
ATOM      4  O   UNL A   1      33.743  28.031  24.247  1.00  0.00    -0.459 OA
BRANCH   4   5
ATOM      5  C   UNL A   1      33.547  26.701  24.384  1.00  0.00     0.364 C 
ATOM      6  O   UNL A   1      34.106  26.096  25.285  1.00  0.00    -0.245 OA
BRANCH   5   7
ATOM      7  C   UNL A   1      32.635  26.014  23.366  1.00  0.00     0.295 C 
ATOM      8  N   UNL A   1      32.363  24.585  23.732  1.00  0.00    -0.319 N 
ATOM      9  C   UNL A   1      31.638  24.454  24.997  1.00  0.00     0.263 C 
ATOM     10  H   UNL A   1      31.718  24.266  23.008  1.00  0.00     0.349 HD
ATOM     11  C   UNL A   1      30.334  25.273  25.030  1.00  0.00     0.062 C 
ATOM     12  C   UNL A   1      31.293  26.743  23.200  1.00  0.00     0.078 C 
ATOM     13  C   UNL A   1      30.434  26.685  24.456  1.00  0.00     0.013 C 
BRANCH   8  14
ATOM     14  C   UNL A   1      33.486  23.620  23.540  1.00  0.00     0.302 C 
BRANCH  14  15
ATOM     15  C   UNL A   1      33.356  22.176  24.008  1.00  0.00     0.042 A 
ATOM     16  C   UNL A   1      33.521  19.367  24.276  1.00  0.00     0.055 A 
ATOM     17  C   UNL A   1      34.384  20.199  25.003  1.00  0.00     0.020 A 
ATOM     18  C   UNL A   1      32.489  19.934  23.526  1.00  0.00     0.059 A 
ATOM     19  C   UNL A   1      34.300  21.596  24.876  1.00  0.00     0.014 A 
ATOM     20  C   UNL A   1      32.405  21.326  23.412  1.00  0.00     0.133 A 
ATOM     21  F   UNL A   1      31.510  21.834  22.552  1.00  0.00    -0.206 F 
BRANCH  16  22
ATOM     22  C   UNL A   1      33.760  17.954  24.220  1.00  0.00     0.099 C 
ATOM     23  N   UNL A   1      33.959  16.807  24.188  1.00  0.00    -0.192 NA
ENDBRANCH  16  22
ENDBRANCH  14  15
ENDBRANCH   8  14
ENDBRANCH   5   7
ENDBRANCH   4   5
ENDBRANCH   3   4
ENDBRANCH   2   3
ENDBRANCH   1   2
BRANCH   1  24
ATOM     24  C   UNL A   1      31.356  31.767  26.433  1.00  0.00     0.202 C 
BRANCH  24  25
ATOM     25  C   UNL A   1      31.691  33.121  27.050  1.00  0.00     0.261 C 
BRANCH  25  26
ATOM     26  O   UNL A   1      33.085  33.426  27.002  1.00  0.00    -0.460 OA
BRANCH  26  27
ATOM     27  C   UNL A   1      33.600  33.694  28.226  1.00  0.00     0.338 C 
ATOM     28  O   UNL A   1      33.058  34.290  29.142  1.00  0.00    -0.246 OA
BRANCH  27  29
ATOM     29  C   UNL A   1      34.854  32.952  28.408  1.00  0.00     0.060 A 
ATOM     30  C   UNL A   1      34.739  31.615  28.816  1.00  0.00     0.016 A 
ATOM     31  C   UNL A   1      36.098  33.563  28.260  1.00  0.00     0.016 A 
ATOM     32  C   UNL A   1      35.871  30.897  29.148  1.00  0.00     0.010 A 
ATOM     33  C   UNL A   1      37.235  32.849  28.631  1.00  0.00     0.010 A 
ATOM     34  C   UNL A   1      37.113  31.537  29.125  1.00  0.00    -0.014 A 
BRANCH  34  35
ATOM     35  C   UNL A   1      38.230  30.891  29.833  1.00  0.00     0.031 A 
ATOM     36  C   UNL A   1      38.484  31.271  31.263  1.00  0.00     0.074 A 
ATOM     37  C   UNL A   1      38.948  29.932  29.228  1.00  0.00     0.049 A 
ATOM     38  N   UNL A   1      39.405  30.841  32.081  1.00  0.00    -0.248 NA
ATOM     39  C   UNL A   1      37.576  32.272  31.851  1.00  0.00     0.031 C 
ATOM     40  C   UNL A   1      38.736  29.456  27.863  1.00  0.00     0.029 A 
ATOM     41  N   UNL A   1      40.005  29.196  29.688  1.00  0.00    -0.354 N 
ATOM     42  C   UNL A   1      39.213  31.540  33.266  1.00  0.00     0.074 A 
ATOM     43  C   UNL A   1      38.097  32.434  33.057  1.00  0.00     0.031 C 
ATOM     44  C   UNL A   1      39.654  28.516  27.585  1.00  0.00     0.029 A 
ATOM     45  C   UNL A   1      40.535  28.357  28.740  1.00  0.00     0.049 A 
ATOM     46  H   UNL A   1      40.350  29.261  30.607  1.00  0.00     0.167 HD
ATOM     47  C   UNL A   1      39.903  31.437  34.424  1.00  0.00     0.034 A 
ATOM     48  C   UNL A   1      41.630  27.578  28.795  1.00  0.00     0.034 A 
ATOM     49  C   UNL A   1      41.009  30.539  34.612  1.00  0.00     0.049 A 
ATOM     50  C   UNL A   1      42.423  27.535  30.073  1.00  0.00     0.074 A 
ATOM     51  C   UNL A   1      41.768  30.333  35.749  1.00  0.00     0.029 A 
ATOM     52  N   UNL A   1      41.529  29.711  33.628  1.00  0.00    -0.354 N 
ATOM     53  N   UNL A   1      42.193  28.146  31.211  1.00  0.00    -0.248 NA
ATOM     54  C   UNL A   1      43.611  26.671  30.084  1.00  0.00     0.031 C 
ATOM     55  C   UNL A   1      42.781  29.421  35.437  1.00  0.00     0.029 A 
ATOM     56  C   UNL A   1      42.615  29.009  34.123  1.00  0.00     0.049 A 
ATOM     57  H   UNL A   1      41.179  29.634  32.711  1.00  0.00     0.167 HD
ATOM     58  C   UNL A   1      43.179  27.707  32.087  1.00  0.00     0.074 A 
ATOM     59  C   UNL A   1      43.999  26.767  31.348  1.00  0.00     0.031 C 
ATOM     60  C   UNL A   1      43.393  28.050  33.382  1.00  0.00     0.034 A 
BRANCH  47  61
ATOM     61  C   UNL A   1      39.491  32.332  35.564  1.00  0.00     0.023 A 
ATOM     62  C   UNL A   1      38.651  31.843  36.585  1.00  0.00     0.012 A 
ATOM     63  C   UNL A   1      39.962  33.658  35.636  1.00  0.00     0.148 A 
ATOM     64  C   UNL A   1      38.248  32.671  37.634  1.00  0.00     0.002 A 
ATOM     65  C   UNL A   1      39.602  34.461  36.711  1.00  0.00     0.091 A 
ATOM     66  F   UNL A   1      40.743  34.113  34.647  1.00  0.00    -0.205 F 
ATOM     67  C   UNL A   1      38.732  33.975  37.702  1.00  0.00     0.022 A 
BRANCH  65  68
ATOM     68  S   UNL A   1      40.235  36.126  36.931  1.00  0.00     0.127 S 
ATOM     69  O   UNL A   1      39.883  36.747  35.655  1.00  0.00    -0.237 OA
ATOM     70  O   UNL A   1      39.455  36.600  38.075  1.00  0.00    -0.237 OA
ATOM     71  O   UNL A   1      41.663  35.987  37.182  1.00  0.00    -0.744 OA
ENDBRANCH  65  68
ENDBRANCH  47  61
BRANCH  48  72
ATOM     72  C   UNL A   1      42.028  26.767  27.612  1.00  0.00     0.023 A 
ATOM     73  C   UNL A   1      42.724  27.376  26.552  1.00  0.00     0.012 A 
ATOM     74  C   UNL A   1      41.728  25.393  27.541  1.00  0.00     0.148 A 
ATOM     75  C   UNL A   1      43.082  26.639  25.423  1.00  0.00     0.002 A 
ATOM     76  C   UNL A   1      42.137  24.652  26.440  1.00  0.00     0.091 A 
ATOM     77  F   UNL A   1      41.060  24.834  28.562  1.00  0.00    -0.205 F 
ATOM     78  C   UNL A   1      42.796  25.277  25.370  1.00  0.00     0.022 A 
BRANCH  76  79
ATOM     79  S   UNL A   1      41.920  22.873  26.338  1.00  0.00     0.127 S 
ATOM     80  O   UNL A   1      40.466  22.746  26.395  1.00  0.00    -0.237 OA
ATOM     81  O   UNL A   1      42.516  22.575  25.036  1.00  0.00    -0.237 OA
ATOM     82  O   UNL A   1      42.644  22.318  27.474  1.00  0.00    -0.744 OA
ENDBRANCH  76  79
ENDBRANCH  48  72
BRANCH  60  83
ATOM     83  C   UNL A   1      44.523  27.364  34.106  1.00  0.00     0.023 A 
ATOM     84  C   UNL A   1      45.837  27.861  34.010  1.00  0.00     0.012 A 
ATOM     85  C   UNL A   1      44.262  26.256  34.937  1.00  0.00     0.148 A 
ATOM     86  C   UNL A   1      46.881  27.240  34.696  1.00  0.00     0.002 A 
ATOM     87  C   UNL A   1      45.294  25.679  35.663  1.00  0.00     0.091 A 
ATOM     88  F   UNL A   1      43.006  25.790  35.003  1.00  0.00    -0.205 F 
ATOM     89  C   UNL A   1      46.607  26.158  35.531  1.00  0.00     0.022 A 
BRANCH  87  90
ATOM     90  S   UNL A   1      45.022  24.350  36.839  1.00  0.00     0.127 S 
ATOM     91  O   UNL A   1      44.697  23.233  35.954  1.00  0.00    -0.237 OA
ATOM     92  O   UNL A   1      46.325  24.250  37.496  1.00  0.00    -0.237 OA
ATOM     93  O   UNL A   1      43.937  24.791  37.706  1.00  0.00    -0.744 OA
ENDBRANCH  87  90
ENDBRANCH  60  83
ENDBRANCH  34  35
ENDBRANCH  27  29
ENDBRANCH  26  27
ENDBRANCH  25  26
ENDBRANCH  24  25
ENDBRANCH   1  24
TORSDOF 20
ENDMDL
