MODEL 1
REMARK VINA RESULT:     -11.4      0.000      0.000
REMARK SMILES Cc1ccc(S(=O)(=O)Nc2cc3c(cc2C(=O)OCCOCCOC(=O)c2ccc(-c4c5nc(c(-c6cccc(S(=O)(=O)[O-])c6F)c6ccc([nH]6)c(-c6cccc(S(=O)(=O)[O-])c6F)c6nc(c(-c7cccc(S(=O)(=O)[O-])c7F)c7ccc4[nH]7)C=C6)C=C5)cc2)OCCO3)s1
REMARK SMILES IDX 21 1 20 2 19 3 18 4 16 5 17 6 15 7 10 8 11 9 12 10 14 11
REMARK SMILES IDX 13 12 93 13 90 14 92 15 91 16 9 17 6 19 7 20 8 21 5 22 1 23
REMARK SMILES IDX 2 24 3 25 94 26 4 27 22 28 23 29 24 30 25 31 26 32 27 33
REMARK SMILES IDX 28 34 89 35 29 36 88 37 30 38 31 39 32 40 82 41 33 42 87 43
REMARK SMILES IDX 81 44 83 45 34 46 86 47 80 48 79 49 35 51 67 52 47 53 66 54
REMARK SMILES IDX 48 55 51 56 65 57 84 58 49 59 50 60 64 62 85 63 52 64 36 65
REMARK SMILES IDX 37 66 45 67 38 68 40 69 46 70 39 71 41 72 42 73 43 74 44 75
REMARK SMILES IDX 68 76 69 77 77 78 70 79 72 80 78 81 71 82 73 83 74 84 75 85
REMARK SMILES IDX 76 86 53 87 54 88 62 89 55 90 57 91 63 92 56 93 58 94 59 95
REMARK SMILES IDX 60 96 61 97
REMARK H PARENT 9 18 83 50 51 61
REMARK Flexibility Score: inf
ROOT
ATOM      1  O   UNL A   1      31.457  29.379  26.126  1.00  0.00    -0.374 OA
ENDROOT
BRANCH   1   2
ATOM      2  C   UNL A   1      31.744  28.451  27.168  1.00  0.00     0.202 C 
BRANCH   2   3
ATOM      3  C   UNL A   1      31.725  26.960  26.825  1.00  0.00     0.261 C 
BRANCH   3   4
ATOM      4  O   UNL A   1      30.401  26.458  26.548  1.00  0.00    -0.460 OA
BRANCH   4   5
ATOM      5  C   UNL A   1      30.289  25.700  25.432  1.00  0.00     0.340 C 
ATOM      6  O   UNL A   1      30.371  24.483  25.357  1.00  0.00    -0.246 OA
BRANCH   5   7
ATOM      7  C   UNL A   1      30.058  26.526  24.231  1.00  0.00     0.088 A 
ATOM      8  C   UNL A   1      30.995  26.514  23.182  1.00  0.00     0.067 A 
ATOM      9  C   UNL A   1      31.025  27.584  22.287  1.00  0.00     0.078 A 
ATOM     10  C   UNL A   1      30.006  28.531  22.311  1.00  0.00     0.163 A 
ATOM     11  C   UNL A   1      29.003  27.445  24.225  1.00  0.00     0.068 A 
ATOM     12  C   UNL A   1      28.956  28.417  23.227  1.00  0.00     0.162 A 
ATOM     13  O   UNL A   1      30.083  29.531  21.375  1.00  0.00    -0.486 OA
ATOM     14  O   UNL A   1      27.871  29.253  23.220  1.00  0.00    -0.486 OA
ATOM     15  C   UNL A   1      29.151  30.581  21.657  1.00  0.00     0.271 C 
ATOM     16  C   UNL A   1      27.791  29.996  21.996  1.00  0.00     0.271 C 
BRANCH   8  17
ATOM     17  N   UNL A   1      31.920  25.427  23.057  1.00  0.00    -0.278 N 
ATOM     18  H   UNL A   1      31.587  24.508  22.940  1.00  0.00     0.180 HD
BRANCH  17  19
ATOM     19  S   UNL A   1      33.592  25.728  23.109  1.00  0.00     0.271 S 
ATOM     20  O   UNL A   1      33.759  26.846  24.011  1.00  0.00    -0.200 OA
ATOM     21  O   UNL A   1      34.094  25.783  21.752  1.00  0.00    -0.200 OA
BRANCH  19  22
ATOM     22  C   UNL A   1      34.405  24.312  23.848  1.00  0.00     0.140 A 
ATOM     23  C   UNL A   1      34.756  21.595  26.646  1.00  0.00     0.056 C 
ATOM     24  C   UNL A   1      34.859  22.506  25.470  1.00  0.00     0.003 A 
ATOM     25  C   UNL A   1      35.420  22.244  24.240  1.00  0.00     0.016 A 
ATOM     26  S   UNL A   1      34.235  24.102  25.542  1.00  0.00    -0.127 S 
ATOM     27  C   UNL A   1      35.194  23.306  23.318  1.00  0.00     0.034 A 
ENDBRANCH  19  22
ENDBRANCH  17  19
ENDBRANCH   8  17
ENDBRANCH   5   7
ENDBRANCH   4   5
ENDBRANCH   3   4
ENDBRANCH   2   3
ENDBRANCH   1   2
BRANCH   1  28
ATOM     28  C   UNL A   1      31.800  30.742  26.312  1.00  0.00     0.202 C 
BRANCH  28  29
ATOM     29  C   UNL A   1      33.023  31.089  27.168  1.00  0.00     0.261 C 
BRANCH  29  30
ATOM     30  O   UNL A   1      33.598  32.375  26.968  1.00  0.00    -0.460 OA
BRANCH  30  31
ATOM     31  C   UNL A   1      33.936  33.026  28.103  1.00  0.00     0.338 C 
ATOM     32  O   UNL A   1      33.302  33.875  28.701  1.00  0.00    -0.246 OA
BRANCH  31  33
ATOM     33  C   UNL A   1      35.201  32.452  28.578  1.00  0.00     0.060 A 
ATOM     34  C   UNL A   1      35.135  31.307  29.373  1.00  0.00     0.016 A 
ATOM     35  C   UNL A   1      36.429  33.037  28.248  1.00  0.00     0.016 A 
ATOM     36  C   UNL A   1      36.310  30.749  29.862  1.00  0.00     0.010 A 
ATOM     37  C   UNL A   1      37.606  32.474  28.740  1.00  0.00     0.010 A 
ATOM     38  C   UNL A   1      37.549  31.339  29.565  1.00  0.00    -0.014 A 
BRANCH  38  39
ATOM     39  C   UNL A   1      38.772  30.763  30.165  1.00  0.00     0.031 A 
ATOM     40  C   UNL A   1      39.195  31.182  31.541  1.00  0.00     0.074 A 
ATOM     41  C   UNL A   1      39.462  29.831  29.481  1.00  0.00     0.049 A 
ATOM     42  N   UNL A   1      40.132  30.682  32.300  1.00  0.00    -0.248 NA
ATOM     43  C   UNL A   1      38.466  32.310  32.145  1.00  0.00     0.031 C 
ATOM     44  C   UNL A   1      39.157  29.393  28.118  1.00  0.00     0.029 A 
ATOM     45  N   UNL A   1      40.558  29.090  29.836  1.00  0.00    -0.354 N 
ATOM     46  C   UNL A   1      40.114  31.433  33.469  1.00  0.00     0.074 A 
ATOM     47  C   UNL A   1      39.087  32.439  33.310  1.00  0.00     0.031 C 
ATOM     48  C   UNL A   1      40.049  28.458  27.752  1.00  0.00     0.029 A 
ATOM     49  C   UNL A   1      40.984  28.233  28.851  1.00  0.00     0.049 A 
ATOM     50  H   UNL A   1      40.997  29.164  30.715  1.00  0.00     0.167 HD
ATOM     51  C   UNL A   1      40.872  31.278  34.579  1.00  0.00     0.034 A 
ATOM     52  C   UNL A   1      42.007  27.355  28.845  1.00  0.00     0.034 A 
ATOM     53  C   UNL A   1      41.883  30.265  34.721  1.00  0.00     0.049 A 
ATOM     54  C   UNL A   1      42.810  27.180  30.105  1.00  0.00     0.074 A 
ATOM     55  C   UNL A   1      42.672  29.982  35.822  1.00  0.00     0.029 A 
ATOM     56  N   UNL A   1      42.254  29.376  33.723  1.00  0.00    -0.354 N 
ATOM     57  N   UNL A   1      42.670  27.784  31.261  1.00  0.00    -0.248 NA
ATOM     58  C   UNL A   1      43.881  26.174  30.079  1.00  0.00     0.031 C 
ATOM     59  C   UNL A   1      43.537  28.936  35.479  1.00  0.00     0.029 A 
ATOM     60  C   UNL A   1      43.271  28.553  34.173  1.00  0.00     0.049 A 
ATOM     61  H   UNL A   1      41.853  29.338  32.824  1.00  0.00     0.167 HD
ATOM     62  C   UNL A   1      43.617  27.217  32.107  1.00  0.00     0.074 A 
ATOM     63  C   UNL A   1      44.301  26.198  31.336  1.00  0.00     0.031 C 
ATOM     64  C   UNL A   1      43.908  27.521  33.396  1.00  0.00     0.034 A 
BRANCH  51  65
ATOM     65  C   UNL A   1      40.611  32.200  35.741  1.00  0.00     0.023 A 
ATOM     66  C   UNL A   1      41.470  33.296  35.963  1.00  0.00     0.012 A 
ATOM     67  C   UNL A   1      39.493  32.019  36.577  1.00  0.00     0.148 A 
ATOM     68  C   UNL A   1      41.234  34.183  37.014  1.00  0.00     0.002 A 
ATOM     69  C   UNL A   1      39.243  32.928  37.600  1.00  0.00     0.091 A 
ATOM     70  F   UNL A   1      38.701  30.958  36.364  1.00  0.00    -0.205 F 
ATOM     71  C   UNL A   1      40.116  34.005  37.825  1.00  0.00     0.022 A 
BRANCH  69  72
ATOM     72  S   UNL A   1      37.797  32.822  38.661  1.00  0.00     0.127 S 
ATOM     73  O   UNL A   1      37.996  31.521  39.300  1.00  0.00    -0.237 OA
ATOM     74  O   UNL A   1      37.981  33.971  39.547  1.00  0.00    -0.237 OA
ATOM     75  O   UNL A   1      36.643  32.913  37.779  1.00  0.00    -0.744 OA
ENDBRANCH  69  72
ENDBRANCH  51  65
BRANCH  52  76
ATOM     76  C   UNL A   1      42.273  26.536  27.628  1.00  0.00     0.023 A 
ATOM     77  C   UNL A   1      42.986  27.094  26.550  1.00  0.00     0.012 A 
ATOM     78  C   UNL A   1      41.864  25.191  27.556  1.00  0.00     0.148 A 
ATOM     79  C   UNL A   1      43.263  26.335  25.412  1.00  0.00     0.002 A 
ATOM     80  C   UNL A   1      42.193  24.423  26.444  1.00  0.00     0.091 A 
ATOM     81  F   UNL A   1      41.168  24.679  28.582  1.00  0.00    -0.205 F 
ATOM     82  C   UNL A   1      42.879  24.998  25.363  1.00  0.00     0.022 A 
BRANCH  80  83
ATOM     83  S   UNL A   1      41.862  22.659  26.376  1.00  0.00     0.127 S 
ATOM     84  O   UNL A   1      42.523  22.275  25.133  1.00  0.00    -0.237 OA
ATOM     85  O   UNL A   1      42.513  22.176  27.596  1.00  0.00    -0.237 OA
ATOM     86  O   UNL A   1      40.409  22.539  26.393  1.00  0.00    -0.744 OA
ENDBRANCH  80  83
ENDBRANCH  52  76
BRANCH  64  87
ATOM     87  C   UNL A   1      45.015  26.739  34.054  1.00  0.00     0.023 A 
ATOM     88  C   UNL A   1      46.348  27.170  33.910  1.00  0.00     0.012 A 
ATOM     89  C   UNL A   1      44.728  25.625  34.865  1.00  0.00     0.148 A 
ATOM     90  C   UNL A   1      47.386  26.481  34.536  1.00  0.00     0.002 A 
ATOM     91  C   UNL A   1      45.763  24.972  35.523  1.00  0.00     0.091 A 
ATOM     92  F   UNL A   1      43.455  25.218  34.972  1.00  0.00    -0.205 F 
ATOM     93  C   UNL A   1      47.092  25.390  35.351  1.00  0.00     0.022 A 
BRANCH  91  94
ATOM     94  S   UNL A   1      45.462  23.618  36.666  1.00  0.00     0.127 S 
ATOM     95  O   UNL A   1      46.817  23.294  37.108  1.00  0.00    -0.237 OA
ATOM     96  O   UNL A   1      44.622  24.249  37.686  1.00  0.00    -0.237 OA
ATOM     97  O   UNL A   1      44.789  22.586  35.889  1.00  0.00    -0.744 OA
ENDBRANCH  91  94
ENDBRANCH  64  87
ENDBRANCH  38  39
ENDBRANCH  31  33
ENDBRANCH  30  31
ENDBRANCH  29  30
ENDBRANCH  28  29
ENDBRANCH   1  28
TORSDOF 20
ENDMDL
MODEL 2
REMARK VINA RESULT:     -11.3      5.534      8.964
REMARK SMILES Cc1ccc(S(=O)(=O)Nc2cc3c(cc2C(=O)OCCOCCOC(=O)c2ccc(-c4c5nc(c(-c6cccc(S(=O)(=O)[O-])c6F)c6ccc([nH]6)c(-c6cccc(S(=O)(=O)[O-])c6F)c6nc(c(-c7cccc(S(=O)(=O)[O-])c7F)c7ccc4[nH]7)C=C6)C=C5)cc2)OCCO3)s1
REMARK SMILES IDX 21 1 20 2 19 3 18 4 16 5 17 6 15 7 10 8 11 9 12 10 14 11
REMARK SMILES IDX 13 12 93 13 90 14 92 15 91 16 9 17 6 19 7 20 8 21 5 22 1 23
REMARK SMILES IDX 2 24 3 25 94 26 4 27 22 28 23 29 24 30 25 31 26 32 27 33
REMARK SMILES IDX 28 34 89 35 29 36 88 37 30 38 31 39 32 40 82 41 33 42 87 43
REMARK SMILES IDX 81 44 83 45 34 46 86 47 80 48 79 49 35 51 67 52 47 53 66 54
REMARK SMILES IDX 48 55 51 56 65 57 84 58 49 59 50 60 64 62 85 63 52 64 36 65
REMARK SMILES IDX 37 66 45 67 38 68 40 69 46 70 39 71 41 72 42 73 43 74 44 75
REMARK SMILES IDX 68 76 69 77 77 78 70 79 72 80 78 81 71 82 73 83 74 84 75 85
REMARK SMILES IDX 76 86 53 87 54 88 62 89 55 90 57 91 63 92 56 93 58 94 59 95
REMARK SMILES IDX 60 96 61 97
REMARK H PARENT 9 18 83 50 51 61
REMARK Flexibility Score: inf
ROOT
ATOM      1  O   UNL A   1      39.080  22.231  25.852  1.00  0.00    -0.374 OA
ENDROOT
BRANCH   1   2
ATOM      2  C   UNL A   1      38.255  23.241  26.424  1.00  0.00     0.202 C 
BRANCH   2   3
ATOM      3  C   UNL A   1      36.880  23.484  25.799  1.00  0.00     0.261 C 
BRANCH   3   4
ATOM      4  O   UNL A   1      35.803  23.425  26.758  1.00  0.00    -0.460 OA
BRANCH   4   5
ATOM      5  C   UNL A   1      34.721  22.708  26.372  1.00  0.00     0.340 C 
ATOM      6  O   UNL A   1      34.308  21.672  26.872  1.00  0.00    -0.246 OA
BRANCH   5   7
ATOM      7  C   UNL A   1      34.046  23.319  25.211  1.00  0.00     0.088 A 
ATOM      8  C   UNL A   1      33.904  22.586  24.019  1.00  0.00     0.067 A 
ATOM      9  C   UNL A   1      33.692  23.271  22.822  1.00  0.00     0.078 A 
ATOM     10  C   UNL A   1      33.413  24.635  22.849  1.00  0.00     0.163 A 
ATOM     11  C   UNL A   1      33.713  24.678  25.249  1.00  0.00     0.068 A 
ATOM     12  C   UNL A   1      33.347  25.319  24.067  1.00  0.00     0.162 A 
ATOM     13  O   UNL A   1      33.176  25.230  21.636  1.00  0.00    -0.486 OA
ATOM     14  O   UNL A   1      32.964  26.631  24.161  1.00  0.00    -0.486 OA
ATOM     15  C   UNL A   1      33.168  26.658  21.751  1.00  0.00     0.271 C 
ATOM     16  C   UNL A   1      32.339  27.081  22.952  1.00  0.00     0.271 C 
BRANCH   8  17
ATOM     17  N   UNL A   1      34.003  21.157  24.038  1.00  0.00    -0.278 N 
ATOM     18  H   UNL A   1      34.886  20.725  24.100  1.00  0.00     0.180 HD
BRANCH  17  19
ATOM     19  S   UNL A   1      32.594  20.210  23.955  1.00  0.00     0.271 S 
ATOM     20  O   UNL A   1      32.072  20.405  22.620  1.00  0.00    -0.200 OA
ATOM     21  O   UNL A   1      31.782  20.487  25.121  1.00  0.00    -0.200 OA
BRANCH  19  22
ATOM     22  C   UNL A   1      33.054  18.485  24.108  1.00  0.00     0.140 A 
ATOM     23  C   UNL A   1      32.612  14.911  25.647  1.00  0.00     0.056 C 
ATOM     24  C   UNL A   1      33.000  16.152  24.917  1.00  0.00     0.003 A 
ATOM     25  C   UNL A   1      33.627  16.257  23.695  1.00  0.00     0.016 A 
ATOM     26  S   UNL A   1      32.675  17.698  25.584  1.00  0.00    -0.127 S 
ATOM     27  C   UNL A   1      33.696  17.608  23.250  1.00  0.00     0.034 A 
ENDBRANCH  19  22
ENDBRANCH  17  19
ENDBRANCH   8  17
ENDBRANCH   5   7
ENDBRANCH   4   5
ENDBRANCH   3   4
ENDBRANCH   2   3
ENDBRANCH   1   2
BRANCH   1  28
ATOM     28  C   UNL A   1      38.483  21.013  25.440  1.00  0.00     0.202 C 
BRANCH  28  29
ATOM     29  C   UNL A   1      39.320  19.730  25.467  1.00  0.00     0.261 C 
BRANCH  29  30
ATOM     30  O   UNL A   1      40.137  19.525  26.615  1.00  0.00    -0.460 OA
BRANCH  30  31
ATOM     31  C   UNL A   1      41.466  19.526  26.371  1.00  0.00     0.338 C 
ATOM     32  O   UNL A   1      42.170  18.593  26.034  1.00  0.00    -0.246 OA
BRANCH  31  33
ATOM     33  C   UNL A   1      41.932  20.914  26.485  1.00  0.00     0.060 A 
ATOM     34  C   UNL A   1      41.946  21.491  27.755  1.00  0.00     0.016 A 
ATOM     35  C   UNL A   1      42.344  21.631  25.357  1.00  0.00     0.016 A 
ATOM     36  C   UNL A   1      42.357  22.810  27.899  1.00  0.00     0.010 A 
ATOM     37  C   UNL A   1      42.757  22.955  25.505  1.00  0.00     0.010 A 
ATOM     38  C   UNL A   1      42.746  23.555  26.774  1.00  0.00    -0.014 A 
BRANCH  38  39
ATOM     39  C   UNL A   1      43.106  24.978  26.954  1.00  0.00     0.031 A 
ATOM     40  C   UNL A   1      42.136  25.913  27.613  1.00  0.00     0.074 A 
ATOM     41  C   UNL A   1      44.322  25.402  26.565  1.00  0.00     0.049 A 
ATOM     42  N   UNL A   1      42.320  27.144  28.006  1.00  0.00    -0.248 NA
ATOM     43  C   UNL A   1      40.781  25.395  27.867  1.00  0.00     0.031 C 
ATOM     44  C   UNL A   1      45.315  24.581  25.872  1.00  0.00     0.029 A 
ATOM     45  N   UNL A   1      44.927  26.625  26.695  1.00  0.00    -0.354 N 
ATOM     46  C   UNL A   1      41.108  27.554  28.549  1.00  0.00     0.074 A 
ATOM     47  C   UNL A   1      40.187  26.447  28.414  1.00  0.00     0.031 C 
ATOM     48  C   UNL A   1      46.408  25.326  25.636  1.00  0.00     0.029 A 
ATOM     49  C   UNL A   1      46.191  26.672  26.159  1.00  0.00     0.049 A 
ATOM     50  H   UNL A   1      44.496  27.396  27.130  1.00  0.00     0.167 HD
ATOM     51  C   UNL A   1      40.804  28.740  29.127  1.00  0.00     0.034 A 
ATOM     52  C   UNL A   1      47.077  27.686  26.111  1.00  0.00     0.034 A 
ATOM     53  C   UNL A   1      41.737  29.826  29.260  1.00  0.00     0.049 A 
ATOM     54  C   UNL A   1      46.725  28.981  26.791  1.00  0.00     0.074 A 
ATOM     55  C   UNL A   1      41.554  31.051  29.877  1.00  0.00     0.029 A 
ATOM     56  N   UNL A   1      43.029  29.822  28.754  1.00  0.00    -0.354 N 
ATOM     57  N   UNL A   1      45.633  29.295  27.448  1.00  0.00    -0.248 NA
ATOM     58  C   UNL A   1      47.739  30.044  26.767  1.00  0.00     0.031 C 
ATOM     59  C   UNL A   1      42.729  31.796  29.723  1.00  0.00     0.029 A 
ATOM     60  C   UNL A   1      43.651  31.027  29.030  1.00  0.00     0.049 A 
ATOM     61  H   UNL A   1      43.442  29.071  28.269  1.00  0.00     0.167 HD
ATOM     62  C   UNL A   1      45.837  30.582  27.935  1.00  0.00     0.074 A 
ATOM     63  C   UNL A   1      47.170  30.973  27.523  1.00  0.00     0.031 C 
ATOM     64  C   UNL A   1      44.994  31.375  28.641  1.00  0.00     0.034 A 
BRANCH  51  65
ATOM     65  C   UNL A   1      39.419  28.910  29.692  1.00  0.00     0.023 A 
ATOM     66  C   UNL A   1      39.142  28.457  30.998  1.00  0.00     0.012 A 
ATOM     67  C   UNL A   1      38.409  29.562  28.959  1.00  0.00     0.148 A 
ATOM     68  C   UNL A   1      37.875  28.629  31.557  1.00  0.00     0.002 A 
ATOM     69  C   UNL A   1      37.160  29.763  29.536  1.00  0.00     0.091 A 
ATOM     70  F   UNL A   1      38.685  29.966  27.710  1.00  0.00    -0.205 F 
ATOM     71  C   UNL A   1      36.888  29.290  30.830  1.00  0.00     0.022 A 
BRANCH  69  72
ATOM     72  S   UNL A   1      35.840  30.657  28.707  1.00  0.00     0.127 S 
ATOM     73  O   UNL A   1      35.040  29.561  28.161  1.00  0.00    -0.237 OA
ATOM     74  O   UNL A   1      35.212  31.376  29.815  1.00  0.00    -0.237 OA
ATOM     75  O   UNL A   1      36.488  31.508  27.720  1.00  0.00    -0.744 OA
ENDBRANCH  69  72
ENDBRANCH  51  65
BRANCH  52  76
ATOM     76  C   UNL A   1      48.400  27.484  25.453  1.00  0.00     0.023 A 
ATOM     77  C   UNL A   1      49.516  27.111  26.225  1.00  0.00     0.012 A 
ATOM     78  C   UNL A   1      48.543  27.613  24.059  1.00  0.00     0.148 A 
ATOM     79  C   UNL A   1      50.758  26.896  25.623  1.00  0.00     0.002 A 
ATOM     80  C   UNL A   1      49.768  27.342  23.458  1.00  0.00     0.091 A 
ATOM     81  F   UNL A   1      47.476  27.990  23.339  1.00  0.00    -0.205 F 
ATOM     82  C   UNL A   1      50.881  26.999  24.240  1.00  0.00     0.022 A 
BRANCH  80  83
ATOM     83  S   UNL A   1      49.964  27.311  21.673  1.00  0.00     0.127 S 
ATOM     84  O   UNL A   1      49.777  28.715  21.323  1.00  0.00    -0.237 OA
ATOM     85  O   UNL A   1      51.333  26.814  21.521  1.00  0.00    -0.237 OA
ATOM     86  O   UNL A   1      48.943  26.389  21.190  1.00  0.00    -0.744 OA
ENDBRANCH  80  83
ENDBRANCH  52  76
BRANCH  64  87
ATOM     87  C   UNL A   1      45.491  32.747  29.014  1.00  0.00     0.023 A 
ATOM     88  C   UNL A   1      46.177  32.928  30.231  1.00  0.00     0.012 A 
ATOM     89  C   UNL A   1      45.339  33.835  28.135  1.00  0.00     0.148 A 
ATOM     90  C   UNL A   1      46.675  34.181  30.583  1.00  0.00     0.002 A 
ATOM     91  C   UNL A   1      45.878  35.070  28.472  1.00  0.00     0.091 A 
ATOM     92  F   UNL A   1      44.663  33.648  26.992  1.00  0.00    -0.205 F 
ATOM     93  C   UNL A   1      46.536  35.249  29.699  1.00  0.00     0.022 A 
BRANCH  91  94
ATOM     94  S   UNL A   1      45.826  36.473  27.349  1.00  0.00     0.127 S 
ATOM     95  O   UNL A   1      46.532  35.947  26.183  1.00  0.00    -0.237 OA
ATOM     96  O   UNL A   1      44.388  36.666  27.155  1.00  0.00    -0.237 OA
ATOM     97  O   UNL A   1      46.489  37.565  28.049  1.00  0.00    -0.744 OA
ENDBRANCH  91  94
ENDBRANCH  64  87
ENDBRANCH  38  39
ENDBRANCH  31  33
ENDBRANCH  30  31
ENDBRANCH  29  30
ENDBRANCH  28  29
ENDBRANCH   1  28
TORSDOF 20
ENDMDL
MODEL 3
REMARK VINA RESULT:     -11.3      2.135      3.807
REMARK SMILES Cc1ccc(S(=O)(=O)Nc2cc3c(cc2C(=O)OCCOCCOC(=O)c2ccc(-c4c5nc(c(-c6cccc(S(=O)(=O)[O-])c6F)c6ccc([nH]6)c(-c6cccc(S(=O)(=O)[O-])c6F)c6nc(c(-c7cccc(S(=O)(=O)[O-])c7F)c7ccc4[nH]7)C=C6)C=C5)cc2)OCCO3)s1
REMARK SMILES IDX 21 1 20 2 19 3 18 4 16 5 17 6 15 7 10 8 11 9 12 10 14 11
REMARK SMILES IDX 13 12 93 13 90 14 92 15 91 16 9 17 6 19 7 20 8 21 5 22 1 23
REMARK SMILES IDX 2 24 3 25 94 26 4 27 22 28 23 29 24 30 25 31 26 32 27 33
REMARK SMILES IDX 28 34 89 35 29 36 88 37 30 38 31 39 32 40 82 41 33 42 87 43
REMARK SMILES IDX 81 44 83 45 34 46 86 47 80 48 79 49 35 51 67 52 47 53 66 54
REMARK SMILES IDX 48 55 51 56 65 57 84 58 49 59 50 60 64 62 85 63 52 64 36 65
REMARK SMILES IDX 37 66 45 67 38 68 40 69 46 70 39 71 41 72 42 73 43 74 44 75
REMARK SMILES IDX 68 76 69 77 77 78 70 79 72 80 78 81 71 82 73 83 74 84 75 85
REMARK SMILES IDX 76 86 53 87 54 88 62 89 55 90 57 91 63 92 56 93 58 94 59 95
REMARK SMILES IDX 60 96 61 97
REMARK H PARENT 9 18 83 50 51 61
REMARK Flexibility Score: inf
ROOT
ATOM      1  O   UNL A   1      33.213  27.561  23.519  1.00  0.00    -0.374 OA
ENDROOT
BRANCH   1   2
ATOM      2  C   UNL A   1      31.834  27.415  23.192  1.00  0.00     0.202 C 
BRANCH   2   3
ATOM      3  C   UNL A   1      31.439  26.291  22.232  1.00  0.00     0.261 C 
BRANCH   3   4
ATOM      4  O   UNL A   1      31.332  25.005  22.879  1.00  0.00    -0.460 OA
BRANCH   4   5
ATOM      5  C   UNL A   1      32.319  24.124  22.586  1.00  0.00     0.340 C 
ATOM      6  O   UNL A   1      33.346  24.351  21.965  1.00  0.00    -0.246 OA
BRANCH   5   7
ATOM      7  C   UNL A   1      32.019  22.776  23.104  1.00  0.00     0.088 A 
ATOM      8  C   UNL A   1      31.650  22.610  24.451  1.00  0.00     0.067 A 
ATOM      9  C   UNL A   1      31.803  21.359  25.048  1.00  0.00     0.078 A 
ATOM     10  C   UNL A   1      32.113  20.253  24.261  1.00  0.00     0.163 A 
ATOM     11  C   UNL A   1      32.277  21.660  22.300  1.00  0.00     0.068 A 
ATOM     12  C   UNL A   1      32.271  20.392  22.878  1.00  0.00     0.162 A 
ATOM     13  O   UNL A   1      32.207  19.051  24.914  1.00  0.00    -0.486 OA
ATOM     14  O   UNL A   1      32.461  19.323  22.043  1.00  0.00    -0.486 OA
ATOM     15  C   UNL A   1      32.784  18.046  24.071  1.00  0.00     0.271 C 
ATOM     16  C   UNL A   1      32.143  18.086  22.695  1.00  0.00     0.271 C 
BRANCH   8  17
ATOM     17  N   UNL A   1      31.148  23.724  25.201  1.00  0.00    -0.278 N 
ATOM     18  H   UNL A   1      30.255  24.088  25.003  1.00  0.00     0.180 HD
BRANCH  17  19
ATOM     19  S   UNL A   1      32.097  24.412  26.431  1.00  0.00     0.271 S 
ATOM     20  O   UNL A   1      31.795  23.655  27.626  1.00  0.00    -0.200 OA
ATOM     21  O   UNL A   1      31.927  25.850  26.397  1.00  0.00    -0.200 OA
BRANCH  19  22
ATOM     22  C   UNL A   1      33.825  24.140  26.040  1.00  0.00     0.140 A 
ATOM     23  C   UNL A   1      36.986  21.847  25.752  1.00  0.00     0.056 C 
ATOM     24  C   UNL A   1      35.961  22.929  25.772  1.00  0.00     0.003 A 
ATOM     25  C   UNL A   1      35.923  24.078  25.013  1.00  0.00     0.016 A 
ATOM     26  S   UNL A   1      34.615  22.840  26.832  1.00  0.00    -0.127 S 
ATOM     27  C   UNL A   1      34.708  24.797  25.202  1.00  0.00     0.034 A 
ENDBRANCH  19  22
ENDBRANCH  17  19
ENDBRANCH   8  17
ENDBRANCH   5   7
ENDBRANCH   4   5
ENDBRANCH   3   4
ENDBRANCH   2   3
ENDBRANCH   1   2
BRANCH   1  28
ATOM     28  C   UNL A   1      33.564  28.240  24.712  1.00  0.00     0.202 C 
BRANCH  28  29
ATOM     29  C   UNL A   1      32.903  29.588  25.021  1.00  0.00     0.261 C 
BRANCH  29  30
ATOM     30  O   UNL A   1      32.610  29.858  26.387  1.00  0.00    -0.460 OA
BRANCH  30  31
ATOM     31  C   UNL A   1      33.107  31.025  26.853  1.00  0.00     0.338 C 
ATOM     32  O   UNL A   1      32.631  32.140  26.751  1.00  0.00    -0.246 OA
BRANCH  31  33
ATOM     33  C   UNL A   1      34.317  30.711  27.623  1.00  0.00     0.060 A 
ATOM     34  C   UNL A   1      35.298  31.699  27.720  1.00  0.00     0.016 A 
ATOM     35  C   UNL A   1      34.481  29.463  28.233  1.00  0.00     0.016 A 
ATOM     36  C   UNL A   1      36.468  31.430  28.421  1.00  0.00     0.010 A 
ATOM     37  C   UNL A   1      35.656  29.197  28.936  1.00  0.00     0.010 A 
ATOM     38  C   UNL A   1      36.662  30.173  29.015  1.00  0.00    -0.014 A 
BRANCH  38  39
ATOM     39  C   UNL A   1      37.950  29.897  29.687  1.00  0.00     0.031 A 
ATOM     40  C   UNL A   1      38.218  30.471  31.046  1.00  0.00     0.074 A 
ATOM     41  C   UNL A   1      38.845  29.092  29.085  1.00  0.00     0.049 A 
ATOM     42  N   UNL A   1      39.205  30.219  31.863  1.00  0.00    -0.248 NA
ATOM     43  C   UNL A   1      37.249  31.456  31.555  1.00  0.00     0.031 C 
ATOM     44  C   UNL A   1      38.695  28.524  27.745  1.00  0.00     0.029 A 
ATOM     45  N   UNL A   1      40.053  28.614  29.520  1.00  0.00    -0.354 N 
ATOM     46  C   UNL A   1      38.983  31.014  32.981  1.00  0.00     0.074 A 
ATOM     47  C   UNL A   1      37.780  31.776  32.727  1.00  0.00     0.031 C 
ATOM     48  C   UNL A   1      39.774  27.775  27.466  1.00  0.00     0.029 A 
ATOM     49  C   UNL A   1      40.687  27.809  28.605  1.00  0.00     0.049 A 
ATOM     50  H   UNL A   1      40.430  28.826  30.405  1.00  0.00     0.167 HD
ATOM     51  C   UNL A   1      39.709  31.081  34.122  1.00  0.00     0.034 A 
ATOM     52  C   UNL A   1      41.867  27.163  28.686  1.00  0.00     0.034 A 
ATOM     53  C   UNL A   1      40.898  30.309  34.359  1.00  0.00     0.049 A 
ATOM     54  C   UNL A   1      42.635  27.229  29.979  1.00  0.00     0.074 A 
ATOM     55  C   UNL A   1      41.680  30.257  35.499  1.00  0.00     0.029 A 
ATOM     56  N   UNL A   1      41.486  29.462  33.431  1.00  0.00    -0.354 N 
ATOM     57  N   UNL A   1      42.324  27.855  31.089  1.00  0.00    -0.248 NA
ATOM     58  C   UNL A   1      43.888  26.466  30.049  1.00  0.00     0.031 C 
ATOM     59  C   UNL A   1      42.755  29.395  35.249  1.00  0.00     0.029 A 
ATOM     60  C   UNL A   1      42.629  28.893  33.963  1.00  0.00     0.049 A 
ATOM     61  H   UNL A   1      41.140  29.291  32.525  1.00  0.00     0.167 HD
ATOM     62  C   UNL A   1      43.330  27.544  31.998  1.00  0.00     0.074 A 
ATOM     63  C   UNL A   1      44.240  26.647  31.314  1.00  0.00     0.031 C 
ATOM     64  C   UNL A   1      43.497  27.973  33.273  1.00  0.00     0.034 A 
BRANCH  51  65
ATOM     65  C   UNL A   1      39.215  31.993  35.214  1.00  0.00     0.023 A 
ATOM     66  C   UNL A   1      38.252  31.521  36.129  1.00  0.00     0.012 A 
ATOM     67  C   UNL A   1      39.738  33.291  35.370  1.00  0.00     0.148 A 
ATOM     68  C   UNL A   1      37.799  32.334  37.168  1.00  0.00     0.002 A 
ATOM     69  C   UNL A   1      39.309  34.083  36.430  1.00  0.00     0.091 A 
ATOM     70  F   UNL A   1      40.636  33.730  34.477  1.00  0.00    -0.205 F 
ATOM     71  C   UNL A   1      38.335  33.610  37.325  1.00  0.00     0.022 A 
BRANCH  69  72
ATOM     72  S   UNL A   1      39.982  35.717  36.755  1.00  0.00     0.127 S 
ATOM     73  O   UNL A   1      41.404  35.421  36.924  1.00  0.00    -0.237 OA
ATOM     74  O   UNL A   1      39.651  36.436  35.525  1.00  0.00    -0.237 OA
ATOM     75  O   UNL A   1      39.301  36.204  37.946  1.00  0.00    -0.744 OA
ENDBRANCH  69  72
ENDBRANCH  51  65
BRANCH  52  76
ATOM     76  C   UNL A   1      42.348  26.350  27.533  1.00  0.00     0.023 A 
ATOM     77  C   UNL A   1      43.208  26.926  26.579  1.00  0.00     0.012 A 
ATOM     78  C   UNL A   1      41.993  24.994  27.404  1.00  0.00     0.148 A 
ATOM     79  C   UNL A   1      43.684  26.174  25.504  1.00  0.00     0.002 A 
ATOM     80  C   UNL A   1      42.517  24.234  26.364  1.00  0.00     0.091 A 
ATOM     81  F   UNL A   1      41.157  24.464  28.309  1.00  0.00    -0.205 F 
ATOM     82  C   UNL A   1      43.350  24.826  25.403  1.00  0.00     0.022 A 
BRANCH  80  83
ATOM     83  S   UNL A   1      42.250  22.461  26.255  1.00  0.00     0.127 S 
ATOM     84  O   UNL A   1      42.910  21.981  27.465  1.00  0.00    -0.237 OA
ATOM     85  O   UNL A   1      40.789  22.367  26.270  1.00  0.00    -0.237 OA
ATOM     86  O   UNL A   1      42.857  22.057  24.992  1.00  0.00    -0.744 OA
ENDBRANCH  80  83
ENDBRANCH  52  76
BRANCH  64  87
ATOM     87  C   UNL A   1      44.711  27.475  34.013  1.00  0.00     0.023 A 
ATOM     88  C   UNL A   1      45.912  28.206  33.945  1.00  0.00     0.012 A 
ATOM     89  C   UNL A   1      44.641  26.328  34.825  1.00  0.00     0.148 A 
ATOM     90  C   UNL A   1      47.040  27.782  34.647  1.00  0.00     0.002 A 
ATOM     91  C   UNL A   1      45.755  25.938  35.558  1.00  0.00     0.091 A 
ATOM     92  F   UNL A   1      43.495  25.634  34.859  1.00  0.00    -0.205 F 
ATOM     93  C   UNL A   1      46.957  26.656  35.462  1.00  0.00     0.022 A 
BRANCH  91  94
ATOM     94  S   UNL A   1      45.706  24.554  36.705  1.00  0.00     0.127 S 
ATOM     95  O   UNL A   1      46.649  24.987  37.734  1.00  0.00    -0.237 OA
ATOM     96  O   UNL A   1      44.304  24.546  37.126  1.00  0.00    -0.237 OA
ATOM     97  O   UNL A   1      46.107  23.386  35.932  1.00  0.00    -0.744 OA
ENDBRANCH  91  94
ENDBRANCH  64  87
ENDBRANCH  38  39
ENDBRANCH  31  33
ENDBRANCH  30  31
ENDBRANCH  29  30
ENDBRANCH  28  29
ENDBRANCH   1  28
TORSDOF 20
ENDMDL
