MODEL 1
REMARK VINA RESULT:     -11.3      0.000      0.000
REMARK SMILES C[C@@H](C(=O)OCCOCCOC(=O)c1ccc(-c2c3nc(c(-c4cccc(S(=O)(=O)[O-])c4F)c4ccc([nH]4)c(-c4cccc(S(=O)(=O)[O-])c4F)c4nc(c(-c5cccc(S(=O)(=O)[O-])c5F)c5ccc2[nH]5)C=C4)C=C3)cc1)c1ccc(C[C@@H]2CCC[C@@H]2O)cc1Br
REMARK SMILES IDX 7 1 6 2 5 3 3 4 4 5 2 6 1 7 77 8 78 9 89 10 79 11 88 12
REMARK SMILES IDX 90 13 80 14 81 15 82 16 83 17 86 18 84 19 85 20 87 21 8 23
REMARK SMILES IDX 9 24 10 25 11 26 12 27 13 28 14 29 15 30 76 31 16 32 75 33
REMARK SMILES IDX 17 34 18 35 19 36 69 37 20 38 74 39 68 40 70 41 21 42 73 43
REMARK SMILES IDX 67 44 66 45 22 47 54 48 34 49 53 50 35 51 38 52 52 53 71 54
REMARK SMILES IDX 36 55 37 56 51 58 72 59 39 60 23 61 24 62 32 63 25 64 27 65
REMARK SMILES IDX 33 66 26 67 28 68 29 69 30 70 31 71 55 72 56 73 64 74 57 75
REMARK SMILES IDX 59 76 65 77 58 78 60 79 61 80 62 81 63 82 40 83 41 84 49 85
REMARK SMILES IDX 42 86 44 87 50 88 43 89 45 90 46 91 47 92 48 93
REMARK H PARENT 87 22 70 46 38 57
REMARK Flexibility Score: inf
ROOT
ATOM      1  C   UNL A   1      30.361  29.712  23.772  1.00  0.00     0.202 C 
ENDROOT
BRANCH   1   2
ATOM      2  C   UNL A   1      30.771  28.320  24.276  1.00  0.00     0.261 C 
BRANCH   2   3
ATOM      3  O   UNL A   1      31.511  27.589  23.274  1.00  0.00    -0.463 OA
BRANCH   3   4
ATOM      4  C   UNL A   1      32.802  27.276  23.584  1.00  0.00     0.313 C 
ATOM      5  O   UNL A   1      33.673  27.067  22.747  1.00  0.00    -0.252 OA
BRANCH   4   6
ATOM      6  C   UNL A   1      33.022  27.167  25.105  1.00  0.00     0.127 C 
ATOM      7  C   UNL A   1      34.018  28.158  25.714  1.00  0.00     0.025 C 
BRANCH   6   8
ATOM      8  C   UNL A   1      33.226  25.704  25.511  1.00  0.00    -0.020 A 
ATOM      9  C   UNL A   1      34.541  25.202  25.441  1.00  0.00     0.006 A 
ATOM     10  C   UNL A   1      32.261  24.858  26.080  1.00  0.00     0.022 A 
ATOM     11  C   UNL A   1      34.865  23.921  25.902  1.00  0.00     0.004 A 
ATOM     12  C   UNL A   1      32.626  23.664  26.698  1.00  0.00     0.019 A 
ATOM     13  Br  UNL A   1      30.394  24.940  25.788  1.00  0.00    -0.050 Br
ATOM     14  C   UNL A   1      33.897  23.135  26.525  1.00  0.00    -0.047 A 
BRANCH  14  15
ATOM     15  C   UNL A   1      34.115  21.688  26.865  1.00  0.00     0.041 C 
BRANCH  15  16
ATOM     16  C   UNL A   1      34.311  20.740  25.655  1.00  0.00     0.022 C 
ATOM     17  C   UNL A   1      34.173  21.436  24.296  1.00  0.00     0.007 C 
ATOM     18  C   UNL A   1      33.387  19.520  25.493  1.00  0.00     0.117 C 
ATOM     19  C   UNL A   1      32.788  21.083  23.746  1.00  0.00     0.003 C 
ATOM     20  C   UNL A   1      32.210  20.007  24.656  1.00  0.00     0.032 C 
BRANCH  18  21
ATOM     21  O   UNL A   1      32.972  18.919  26.700  1.00  0.00    -0.393 OA
ATOM     22  H   UNL A   1      33.638  18.274  26.986  1.00  0.00     0.210 HD
ENDBRANCH  18  21
ENDBRANCH  15  16
ENDBRANCH  14  15
ENDBRANCH   6   8
ENDBRANCH   4   6
ENDBRANCH   3   4
ENDBRANCH   2   3
ENDBRANCH   1   2
BRANCH   1  23
ATOM     23  O   UNL A   1      30.317  30.755  24.750  1.00  0.00    -0.374 OA
BRANCH  23  24
ATOM     24  C   UNL A   1      31.387  30.760  25.688  1.00  0.00     0.202 C 
BRANCH  24  25
ATOM     25  C   UNL A   1      31.578  32.042  26.497  1.00  0.00     0.261 C 
BRANCH  25  26
ATOM     26  O   UNL A   1      32.581  31.825  27.489  1.00  0.00    -0.460 OA
BRANCH  26  27
ATOM     27  C   UNL A   1      33.431  32.866  27.613  1.00  0.00     0.338 C 
ATOM     28  O   UNL A   1      33.159  34.049  27.618  1.00  0.00    -0.246 OA
BRANCH  27  29
ATOM     29  C   UNL A   1      34.755  32.335  27.961  1.00  0.00     0.060 A 
ATOM     30  C   UNL A   1      34.833  30.951  28.138  1.00  0.00     0.016 A 
ATOM     31  C   UNL A   1      35.878  33.153  28.117  1.00  0.00     0.016 A 
ATOM     32  C   UNL A   1      36.020  30.382  28.566  1.00  0.00     0.010 A 
ATOM     33  C   UNL A   1      37.073  32.580  28.546  1.00  0.00     0.010 A 
ATOM     34  C   UNL A   1      37.125  31.202  28.823  1.00  0.00    -0.014 A 
BRANCH  34  35
ATOM     35  C   UNL A   1      38.264  30.629  29.564  1.00  0.00     0.031 A 
ATOM     36  C   UNL A   1      38.453  31.022  31.001  1.00  0.00     0.074 A 
ATOM     37  C   UNL A   1      39.072  29.735  28.972  1.00  0.00     0.049 A 
ATOM     38  N   UNL A   1      39.361  30.627  31.850  1.00  0.00    -0.248 NA
ATOM     39  C   UNL A   1      37.487  31.988  31.556  1.00  0.00     0.031 C 
ATOM     40  C   UNL A   1      38.953  29.276  27.588  1.00  0.00     0.029 A 
ATOM     41  N   UNL A   1      40.159  29.063  29.461  1.00  0.00    -0.354 N 
ATOM     42  C   UNL A   1      39.103  31.320  33.025  1.00  0.00     0.074 A 
ATOM     43  C   UNL A   1      37.958  32.168  32.781  1.00  0.00     0.031 C 
ATOM     44  C   UNL A   1      39.945  28.407  27.334  1.00  0.00     0.029 A 
ATOM     45  C   UNL A   1      40.779  28.274  28.524  1.00  0.00     0.049 A 
ATOM     46  H   UNL A   1      40.465  29.138  30.394  1.00  0.00     0.167 HD
ATOM     47  C   UNL A   1      39.756  31.244  34.208  1.00  0.00     0.034 A 
ATOM     48  C   UNL A   1      41.909  27.548  28.620  1.00  0.00     0.034 A 
ATOM     49  C   UNL A   1      40.881  30.382  34.441  1.00  0.00     0.049 A 
ATOM     50  C   UNL A   1      42.634  27.507  29.939  1.00  0.00     0.074 A 
ATOM     51  C   UNL A   1      41.588  30.189  35.613  1.00  0.00     0.029 A 
ATOM     52  N   UNL A   1      41.476  29.582  33.476  1.00  0.00    -0.354 N 
ATOM     53  N   UNL A   1      42.318  28.081  31.075  1.00  0.00    -0.248 NA
ATOM     54  C   UNL A   1      43.855  26.691  29.999  1.00  0.00     0.031 C 
ATOM     55  C   UNL A   1      42.639  29.306  35.345  1.00  0.00     0.029 A 
ATOM     56  C   UNL A   1      42.556  28.910  34.019  1.00  0.00     0.049 A 
ATOM     57  H   UNL A   1      41.173  29.505  32.541  1.00  0.00     0.167 HD
ATOM     58  C   UNL A   1      43.275  27.666  31.994  1.00  0.00     0.074 A 
ATOM     59  C   UNL A   1      44.172  26.777  31.283  1.00  0.00     0.031 C 
ATOM     60  C   UNL A   1      43.408  27.994  33.303  1.00  0.00     0.034 A 
BRANCH  47  61
ATOM     61  C   UNL A   1      39.272  32.119  35.333  1.00  0.00     0.023 A 
ATOM     62  C   UNL A   1      38.337  31.624  36.264  1.00  0.00     0.012 A 
ATOM     63  C   UNL A   1      39.786  33.421  35.496  1.00  0.00     0.148 A 
ATOM     64  C   UNL A   1      37.894  32.421  37.319  1.00  0.00     0.002 A 
ATOM     65  C   UNL A   1      39.377  34.191  36.577  1.00  0.00     0.091 A 
ATOM     66  F   UNL A   1      40.654  33.883  34.586  1.00  0.00    -0.205 F 
ATOM     67  C   UNL A   1      38.423  33.700  37.482  1.00  0.00     0.022 A 
BRANCH  65  68
ATOM     68  S   UNL A   1      40.060  35.817  36.918  1.00  0.00     0.127 S 
ATOM     69  O   UNL A   1      39.373  36.171  38.160  1.00  0.00    -0.237 OA
ATOM     70  O   UNL A   1      41.486  35.525  37.072  1.00  0.00    -0.237 OA
ATOM     71  O   UNL A   1      39.729  36.644  35.766  1.00  0.00    -0.744 OA
ENDBRANCH  65  68
ENDBRANCH  47  61
BRANCH  48  72
ATOM     72  C   UNL A   1      42.406  26.786  27.443  1.00  0.00     0.023 A 
ATOM     73  C   UNL A   1      43.185  27.436  26.468  1.00  0.00     0.012 A 
ATOM     74  C   UNL A   1      42.124  25.412  27.295  1.00  0.00     0.148 A 
ATOM     75  C   UNL A   1      43.646  26.743  25.348  1.00  0.00     0.002 A 
ATOM     76  C   UNL A   1      42.634  24.715  26.208  1.00  0.00     0.091 A 
ATOM     77  F   UNL A   1      41.372  24.815  28.229  1.00  0.00    -0.205 F 
ATOM     78  C   UNL A   1      43.378  25.382  25.223  1.00  0.00     0.022 A 
BRANCH  76  79
ATOM     79  S   UNL A   1      42.448  22.937  26.031  1.00  0.00     0.127 S 
ATOM     80  O   UNL A   1      43.092  22.696  24.742  1.00  0.00    -0.237 OA
ATOM     81  O   UNL A   1      43.188  22.442  27.192  1.00  0.00    -0.237 OA
ATOM     82  O   UNL A   1      41.015  22.683  26.078  1.00  0.00    -0.744 OA
ENDBRANCH  76  79
ENDBRANCH  48  72
BRANCH  60  83
ATOM     83  C   UNL A   1      44.535  27.356  34.070  1.00  0.00     0.023 A 
ATOM     84  C   UNL A   1      45.674  28.109  34.414  1.00  0.00     0.012 A 
ATOM     85  C   UNL A   1      44.427  26.023  34.516  1.00  0.00     0.148 A 
ATOM     86  C   UNL A   1      46.706  27.535  35.155  1.00  0.00     0.002 A 
ATOM     87  C   UNL A   1      45.432  25.475  35.302  1.00  0.00     0.091 A 
ATOM     88  F   UNL A   1      43.341  25.318  34.167  1.00  0.00    -0.205 F 
ATOM     89  C   UNL A   1      46.579  26.224  35.609  1.00  0.00     0.022 A 
BRANCH  87  90
ATOM     90  S   UNL A   1      45.309  23.832  36.017  1.00  0.00     0.127 S 
ATOM     91  O   UNL A   1      44.325  24.041  37.078  1.00  0.00    -0.237 OA
ATOM     92  O   UNL A   1      44.829  23.038  34.885  1.00  0.00    -0.237 OA
ATOM     93  O   UNL A   1      46.651  23.489  36.471  1.00  0.00    -0.744 OA
ENDBRANCH  87  90
ENDBRANCH  60  83
ENDBRANCH  34  35
ENDBRANCH  27  29
ENDBRANCH  26  27
ENDBRANCH  25  26
ENDBRANCH  24  25
ENDBRANCH  23  24
ENDBRANCH   1  23
TORSDOF 21
ENDMDL
MODEL 2
REMARK VINA RESULT:     -11.1      1.267      7.890
REMARK SMILES C[C@@H](C(=O)OCCOCCOC(=O)c1ccc(-c2c3nc(c(-c4cccc(S(=O)(=O)[O-])c4F)c4ccc([nH]4)c(-c4cccc(S(=O)(=O)[O-])c4F)c4nc(c(-c5cccc(S(=O)(=O)[O-])c5F)c5ccc2[nH]5)C=C4)C=C3)cc1)c1ccc(C[C@@H]2CCC[C@@H]2O)cc1Br
REMARK SMILES IDX 7 1 6 2 5 3 3 4 4 5 2 6 1 7 77 8 78 9 89 10 79 11 88 12
REMARK SMILES IDX 90 13 80 14 81 15 82 16 83 17 86 18 84 19 85 20 87 21 8 23
REMARK SMILES IDX 9 24 10 25 11 26 12 27 13 28 14 29 15 30 76 31 16 32 75 33
REMARK SMILES IDX 17 34 18 35 19 36 69 37 20 38 74 39 68 40 70 41 21 42 73 43
REMARK SMILES IDX 67 44 66 45 22 47 54 48 34 49 53 50 35 51 38 52 52 53 71 54
REMARK SMILES IDX 36 55 37 56 51 58 72 59 39 60 23 61 24 62 32 63 25 64 27 65
REMARK SMILES IDX 33 66 26 67 28 68 29 69 30 70 31 71 55 72 56 73 64 74 57 75
REMARK SMILES IDX 59 76 65 77 58 78 60 79 61 80 62 81 63 82 40 83 41 84 49 85
REMARK SMILES IDX 42 86 44 87 50 88 43 89 45 90 46 91 47 92 48 93
REMARK H PARENT 87 22 70 46 38 57
REMARK Flexibility Score: inf
ROOT
ATOM      1  C   UNL A   1      33.033  28.901  24.195  1.00  0.00     0.202 C 
ENDROOT
BRANCH   1   2
ATOM      2  C   UNL A   1      32.629  28.684  22.728  1.00  0.00     0.261 C 
BRANCH   2   3
ATOM      3  O   UNL A   1      31.552  27.729  22.611  1.00  0.00    -0.463 OA
BRANCH   3   4
ATOM      4  C   UNL A   1      31.913  26.436  22.369  1.00  0.00     0.313 C 
ATOM      5  O   UNL A   1      32.721  26.102  21.510  1.00  0.00    -0.252 OA
BRANCH   4   6
ATOM      6  C   UNL A   1      31.151  25.445  23.270  1.00  0.00     0.127 C 
ATOM      7  C   UNL A   1      29.928  26.003  24.003  1.00  0.00     0.025 C 
BRANCH   6   8
ATOM      8  C   UNL A   1      32.132  24.656  24.145  1.00  0.00    -0.020 A 
ATOM      9  C   UNL A   1      32.720  25.348  25.222  1.00  0.00     0.006 A 
ATOM     10  C   UNL A   1      32.392  23.279  24.064  1.00  0.00     0.022 A 
ATOM     11  C   UNL A   1      33.535  24.698  26.156  1.00  0.00     0.004 A 
ATOM     12  C   UNL A   1      33.050  22.611  25.095  1.00  0.00     0.019 A 
ATOM     13  Br  UNL A   1      32.293  22.213  22.506  1.00  0.00    -0.050 Br
ATOM     14  C   UNL A   1      33.715  23.317  26.088  1.00  0.00    -0.047 A 
BRANCH  14  15
ATOM     15  C   UNL A   1      34.722  22.582  26.926  1.00  0.00     0.041 C 
BRANCH  15  16
ATOM     16  C   UNL A   1      36.154  22.508  26.339  1.00  0.00     0.022 C 
ATOM     17  C   UNL A   1      36.622  23.814  25.685  1.00  0.00     0.007 C 
ATOM     18  C   UNL A   1      36.473  21.466  25.253  1.00  0.00     0.117 C 
ATOM     19  C   UNL A   1      36.499  23.629  24.169  1.00  0.00     0.003 C 
ATOM     20  C   UNL A   1      36.188  22.158  23.925  1.00  0.00     0.032 C 
BRANCH  18  21
ATOM     21  O   UNL A   1      35.782  20.242  25.377  1.00  0.00    -0.393 OA
ATOM     22  H   UNL A   1      36.178  19.586  24.781  1.00  0.00     0.210 HD
ENDBRANCH  18  21
ENDBRANCH  15  16
ENDBRANCH  14  15
ENDBRANCH   6   8
ENDBRANCH   4   6
ENDBRANCH   3   4
ENDBRANCH   2   3
ENDBRANCH   1   2
BRANCH   1  23
ATOM     23  O   UNL A   1      31.964  28.983  25.143  1.00  0.00    -0.374 OA
BRANCH  23  24
ATOM     24  C   UNL A   1      31.214  30.191  25.117  1.00  0.00     0.202 C 
BRANCH  24  25
ATOM     25  C   UNL A   1      31.428  31.152  26.286  1.00  0.00     0.261 C 
BRANCH  25  26
ATOM     26  O   UNL A   1      32.685  30.868  26.900  1.00  0.00    -0.460 OA
BRANCH  26  27
ATOM     27  C   UNL A   1      33.310  31.976  27.351  1.00  0.00     0.338 C 
ATOM     28  O   UNL A   1      32.833  33.080  27.522  1.00  0.00    -0.246 OA
BRANCH  27  29
ATOM     29  C   UNL A   1      34.647  31.588  27.820  1.00  0.00     0.060 A 
ATOM     30  C   UNL A   1      34.826  30.230  28.102  1.00  0.00     0.016 A 
ATOM     31  C   UNL A   1      35.686  32.509  27.985  1.00  0.00     0.016 A 
ATOM     32  C   UNL A   1      36.024  29.798  28.644  1.00  0.00     0.010 A 
ATOM     33  C   UNL A   1      36.891  32.072  28.528  1.00  0.00     0.010 A 
ATOM     34  C   UNL A   1      37.037  30.727  28.909  1.00  0.00    -0.014 A 
BRANCH  34  35
ATOM     35  C   UNL A   1      38.166  30.306  29.759  1.00  0.00     0.031 A 
ATOM     36  C   UNL A   1      39.156  29.326  29.199  1.00  0.00     0.074 A 
ATOM     37  C   UNL A   1      38.325  30.837  30.982  1.00  0.00     0.049 A 
ATOM     38  N   UNL A   1      40.233  28.837  29.750  1.00  0.00    -0.248 NA
ATOM     39  C   UNL A   1      38.899  28.831  27.834  1.00  0.00     0.031 C 
ATOM     40  C   UNL A   1      37.428  31.813  31.601  1.00  0.00     0.029 A 
ATOM     41  N   UNL A   1      39.294  30.620  31.923  1.00  0.00    -0.354 N 
ATOM     42  C   UNL A   1      40.762  27.952  28.819  1.00  0.00     0.074 A 
ATOM     43  C   UNL A   1      39.885  27.962  27.670  1.00  0.00     0.031 C 
ATOM     44  C   UNL A   1      37.882  32.097  32.833  1.00  0.00     0.029 A 
ATOM     45  C   UNL A   1      39.079  31.303  33.095  1.00  0.00     0.049 A 
ATOM     46  H   UNL A   1      40.069  30.033  31.774  1.00  0.00     0.167 HD
ATOM     47  C   UNL A   1      41.888  27.207  28.911  1.00  0.00     0.034 A 
ATOM     48  C   UNL A   1      39.765  31.267  34.252  1.00  0.00     0.034 A 
ATOM     49  C   UNL A   1      42.760  27.223  30.053  1.00  0.00     0.049 A 
ATOM     50  C   UNL A   1      40.997  30.405  34.338  1.00  0.00     0.074 A 
ATOM     51  C   UNL A   1      43.952  26.546  30.233  1.00  0.00     0.029 A 
ATOM     52  N   UNL A   1      42.524  27.938  31.217  1.00  0.00    -0.354 N 
ATOM     53  N   UNL A   1      41.548  29.656  33.413  1.00  0.00    -0.248 NA
ATOM     54  C   UNL A   1      41.720  30.408  35.617  1.00  0.00     0.031 C 
ATOM     55  C   UNL A   1      44.413  26.818  31.525  1.00  0.00     0.029 A 
ATOM     56  C   UNL A   1      43.535  27.703  32.130  1.00  0.00     0.049 A 
ATOM     57  H   UNL A   1      41.749  28.527  31.371  1.00  0.00     0.167 HD
ATOM     58  C   UNL A   1      42.702  29.131  33.983  1.00  0.00     0.074 A 
ATOM     59  C   UNL A   1      42.778  29.663  35.329  1.00  0.00     0.031 C 
ATOM     60  C   UNL A   1      43.613  28.280  33.448  1.00  0.00     0.034 A 
BRANCH  47  61
ATOM     61  C   UNL A   1      42.235  26.314  27.750  1.00  0.00     0.023 A 
ATOM     62  C   UNL A   1      43.104  26.772  26.739  1.00  0.00     0.012 A 
ATOM     63  C   UNL A   1      41.735  24.999  27.689  1.00  0.00     0.148 A 
ATOM     64  C   UNL A   1      43.443  25.946  25.668  1.00  0.00     0.002 A 
ATOM     65  C   UNL A   1      42.116  24.166  26.645  1.00  0.00     0.091 A 
ATOM     66  F   UNL A   1      40.890  24.591  28.646  1.00  0.00    -0.205 F 
ATOM     67  C   UNL A   1      42.959  24.640  25.627  1.00  0.00     0.022 A 
BRANCH  65  68
ATOM     68  S   UNL A   1      41.612  22.445  26.547  1.00  0.00     0.127 S 
ATOM     69  O   UNL A   1      40.164  22.570  26.385  1.00  0.00    -0.237 OA
ATOM     70  O   UNL A   1      42.322  21.985  25.353  1.00  0.00    -0.237 OA
ATOM     71  O   UNL A   1      42.048  21.825  27.791  1.00  0.00    -0.744 OA
ENDBRANCH  65  68
ENDBRANCH  47  61
BRANCH  48  72
ATOM     72  C   UNL A   1      39.317  32.089  35.409  1.00  0.00     0.023 A 
ATOM     73  C   UNL A   1      38.420  31.544  36.347  1.00  0.00     0.012 A 
ATOM     74  C   UNL A   1      39.791  33.404  35.594  1.00  0.00     0.148 A 
ATOM     75  C   UNL A   1      37.974  32.304  37.428  1.00  0.00     0.002 A 
ATOM     76  C   UNL A   1      39.388  34.134  36.704  1.00  0.00     0.091 A 
ATOM     77  F   UNL A   1      40.637  33.906  34.684  1.00  0.00    -0.205 F 
ATOM     78  C   UNL A   1      38.465  33.594  37.612  1.00  0.00     0.022 A 
BRANCH  76  79
ATOM     79  S   UNL A   1      40.066  35.753  37.089  1.00  0.00     0.127 S 
ATOM     80  O   UNL A   1      39.675  36.528  35.915  1.00  0.00    -0.237 OA
ATOM     81  O   UNL A   1      39.350  36.092  38.319  1.00  0.00    -0.237 OA
ATOM     82  O   UNL A   1      41.498  35.550  37.265  1.00  0.00    -0.744 OA
ENDBRANCH  76  79
ENDBRANCH  48  72
BRANCH  60  83
ATOM     83  C   UNL A   1      44.798  27.904  34.299  1.00  0.00     0.023 A 
ATOM     84  C   UNL A   1      46.000  28.629  34.198  1.00  0.00     0.012 A 
ATOM     85  C   UNL A   1      44.689  26.874  35.255  1.00  0.00     0.148 A 
ATOM     86  C   UNL A   1      47.090  28.311  35.008  1.00  0.00     0.002 A 
ATOM     87  C   UNL A   1      45.758  26.599  36.097  1.00  0.00     0.091 A 
ATOM     88  F   UNL A   1      43.540  26.186  35.325  1.00  0.00    -0.205 F 
ATOM     89  C   UNL A   1      46.964  27.305  35.964  1.00  0.00     0.022 A 
BRANCH  87  90
ATOM     90  S   UNL A   1      45.655  25.395  37.425  1.00  0.00     0.127 S 
ATOM     91  O   UNL A   1      47.012  25.431  37.966  1.00  0.00    -0.237 OA
ATOM     92  O   UNL A   1      44.634  25.981  38.294  1.00  0.00    -0.237 OA
ATOM     93  O   UNL A   1      45.267  24.137  36.799  1.00  0.00    -0.744 OA
ENDBRANCH  87  90
ENDBRANCH  60  83
ENDBRANCH  34  35
ENDBRANCH  27  29
ENDBRANCH  26  27
ENDBRANCH  25  26
ENDBRANCH  24  25
ENDBRANCH  23  24
ENDBRANCH   1  23
TORSDOF 21
ENDMDL
MODEL 3
REMARK VINA RESULT:     -11.0      2.084      8.654
REMARK SMILES C[C@@H](C(=O)OCCOCCOC(=O)c1ccc(-c2c3nc(c(-c4cccc(S(=O)(=O)[O-])c4F)c4ccc([nH]4)c(-c4cccc(S(=O)(=O)[O-])c4F)c4nc(c(-c5cccc(S(=O)(=O)[O-])c5F)c5ccc2[nH]5)C=C4)C=C3)cc1)c1ccc(C[C@@H]2CCC[C@@H]2O)cc1Br
REMARK SMILES IDX 7 1 6 2 5 3 3 4 4 5 2 6 1 7 77 8 78 9 89 10 79 11 88 12
REMARK SMILES IDX 90 13 80 14 81 15 82 16 83 17 86 18 84 19 85 20 87 21 8 23
REMARK SMILES IDX 9 24 10 25 11 26 12 27 13 28 14 29 15 30 76 31 16 32 75 33
REMARK SMILES IDX 17 34 18 35 19 36 69 37 20 38 74 39 68 40 70 41 21 42 73 43
REMARK SMILES IDX 67 44 66 45 22 47 54 48 34 49 53 50 35 51 38 52 52 53 71 54
REMARK SMILES IDX 36 55 37 56 51 58 72 59 39 60 23 61 24 62 32 63 25 64 27 65
REMARK SMILES IDX 33 66 26 67 28 68 29 69 30 70 31 71 55 72 56 73 64 74 57 75
REMARK SMILES IDX 59 76 65 77 58 78 60 79 61 80 62 81 63 82 40 83 41 84 49 85
REMARK SMILES IDX 42 86 44 87 50 88 43 89 45 90 46 91 47 92 48 93
REMARK H PARENT 87 22 70 46 38 57
REMARK Flexibility Score: inf
ROOT
ATOM      1  C   UNL A   1      33.508  27.729  26.068  1.00  0.00     0.202 C 
ENDROOT
BRANCH   1   2
ATOM      2  C   UNL A   1      32.616  26.588  26.581  1.00  0.00     0.261 C 
BRANCH   2   3
ATOM      3  O   UNL A   1      32.488  25.534  25.602  1.00  0.00    -0.463 OA
BRANCH   3   4
ATOM      4  C   UNL A   1      31.407  24.713  25.735  1.00  0.00     0.313 C 
ATOM      5  O   UNL A   1      31.079  24.181  26.789  1.00  0.00    -0.252 OA
BRANCH   4   6
ATOM      6  C   UNL A   1      30.677  24.496  24.395  1.00  0.00     0.127 C 
ATOM      7  C   UNL A   1      31.188  23.340  23.529  1.00  0.00     0.025 C 
BRANCH   6   8
ATOM      8  C   UNL A   1      30.499  25.830  23.662  1.00  0.00    -0.020 A 
ATOM      9  C   UNL A   1      29.330  26.562  23.949  1.00  0.00     0.006 A 
ATOM     10  C   UNL A   1      31.451  26.461  22.845  1.00  0.00     0.022 A 
ATOM     11  C   UNL A   1      29.121  27.846  23.434  1.00  0.00     0.004 A 
ATOM     12  C   UNL A   1      31.316  27.802  22.488  1.00  0.00     0.019 A 
ATOM     13  Br  UNL A   1      32.773  25.601  21.802  1.00  0.00    -0.050 Br
ATOM     14  C   UNL A   1      30.116  28.471  22.684  1.00  0.00    -0.047 A 
BRANCH  14  15
ATOM     15  C   UNL A   1      29.892  29.755  21.937  1.00  0.00     0.041 C 
BRANCH  15  16
ATOM     16  C   UNL A   1      28.546  30.467  22.221  1.00  0.00     0.022 C 
ATOM     17  C   UNL A   1      27.858  31.012  20.964  1.00  0.00     0.007 C 
ATOM     18  C   UNL A   1      28.518  31.684  23.163  1.00  0.00     0.117 C 
ATOM     19  C   UNL A   1      28.110  32.523  20.931  1.00  0.00     0.003 C 
ATOM     20  C   UNL A   1      28.734  32.898  22.268  1.00  0.00     0.032 C 
BRANCH  18  21
ATOM     21  O   UNL A   1      29.439  31.636  24.231  1.00  0.00    -0.393 OA
ATOM     22  H   UNL A   1      30.099  32.338  24.120  1.00  0.00     0.210 HD
ENDBRANCH  18  21
ENDBRANCH  15  16
ENDBRANCH  14  15
ENDBRANCH   6   8
ENDBRANCH   4   6
ENDBRANCH   3   4
ENDBRANCH   2   3
ENDBRANCH   1   2
BRANCH   1  23
ATOM     23  O   UNL A   1      32.838  28.825  25.437  1.00  0.00    -0.374 OA
BRANCH  23  24
ATOM     24  C   UNL A   1      31.770  29.400  26.181  1.00  0.00     0.202 C 
BRANCH  24  25
ATOM     25  C   UNL A   1      31.991  30.820  26.703  1.00  0.00     0.261 C 
BRANCH  25  26
ATOM     26  O   UNL A   1      33.370  31.159  26.568  1.00  0.00    -0.460 OA
BRANCH  26  27
ATOM     27  C   UNL A   1      33.798  32.009  27.525  1.00  0.00     0.338 C 
ATOM     28  O   UNL A   1      33.157  32.870  28.093  1.00  0.00    -0.246 OA
BRANCH  27  29
ATOM     29  C   UNL A   1      35.141  31.589  27.943  1.00  0.00     0.060 A 
ATOM     30  C   UNL A   1      35.297  30.229  28.226  1.00  0.00     0.016 A 
ATOM     31  C   UNL A   1      36.209  32.483  28.060  1.00  0.00     0.016 A 
ATOM     32  C   UNL A   1      36.504  29.768  28.723  1.00  0.00     0.010 A 
ATOM     33  C   UNL A   1      37.424  32.019  28.558  1.00  0.00     0.010 A 
ATOM     34  C   UNL A   1      37.550  30.672  28.942  1.00  0.00    -0.014 A 
BRANCH  34  35
ATOM     35  C   UNL A   1      38.701  30.227  29.749  1.00  0.00     0.031 A 
ATOM     36  C   UNL A   1      39.636  29.210  29.160  1.00  0.00     0.074 A 
ATOM     37  C   UNL A   1      38.928  30.767  30.957  1.00  0.00     0.049 A 
ATOM     38  N   UNL A   1      40.721  28.695  29.672  1.00  0.00    -0.248 NA
ATOM     39  C   UNL A   1      39.307  28.708  27.814  1.00  0.00     0.031 C 
ATOM     40  C   UNL A   1      38.087  31.777  31.601  1.00  0.00     0.029 A 
ATOM     41  N   UNL A   1      39.929  30.531  31.859  1.00  0.00    -0.354 N 
ATOM     42  C   UNL A   1      41.183  27.784  28.731  1.00  0.00     0.074 A 
ATOM     43  C   UNL A   1      40.258  27.807  27.620  1.00  0.00     0.031 C 
ATOM     44  C   UNL A   1      38.601  32.061  32.808  1.00  0.00     0.029 A 
ATOM     45  C   UNL A   1      39.784  31.234  33.030  1.00  0.00     0.049 A 
ATOM     46  H   UNL A   1      40.679  29.919  31.686  1.00  0.00     0.167 HD
ATOM     47  C   UNL A   1      42.289  27.005  28.786  1.00  0.00     0.034 A 
ATOM     48  C   UNL A   1      40.517  31.191  34.158  1.00  0.00     0.034 A 
ATOM     49  C   UNL A   1      43.208  27.008  29.890  1.00  0.00     0.049 A 
ATOM     50  C   UNL A   1      41.725  30.292  34.203  1.00  0.00     0.074 A 
ATOM     51  C   UNL A   1      44.385  26.297  30.028  1.00  0.00     0.029 A 
ATOM     52  N   UNL A   1      43.043  27.744  31.053  1.00  0.00    -0.354 N 
ATOM     53  N   UNL A   1      42.213  29.516  33.266  1.00  0.00    -0.248 NA
ATOM     54  C   UNL A   1      42.501  30.288  35.451  1.00  0.00     0.031 C 
ATOM     55  C   UNL A   1      44.909  26.569  31.296  1.00  0.00     0.029 A 
ATOM     56  C   UNL A   1      44.084  27.488  31.926  1.00  0.00     0.049 A 
ATOM     57  H   UNL A   1      42.293  28.358  31.232  1.00  0.00     0.167 HD
ATOM     58  C   UNL A   1      43.374  28.962  33.794  1.00  0.00     0.074 A 
ATOM     59  C   UNL A   1      43.523  29.507  35.129  1.00  0.00     0.031 C 
ATOM     60  C   UNL A   1      44.236  28.077  33.232  1.00  0.00     0.034 A 
BRANCH  47  61
ATOM     61  C   UNL A   1      42.559  26.089  27.623  1.00  0.00     0.023 A 
ATOM     62  C   UNL A   1      43.348  26.529  26.541  1.00  0.00     0.012 A 
ATOM     63  C   UNL A   1      42.067  24.769  27.627  1.00  0.00     0.148 A 
ATOM     64  C   UNL A   1      43.617  25.682  25.467  1.00  0.00     0.002 A 
ATOM     65  C   UNL A   1      42.380  23.915  26.577  1.00  0.00     0.091 A 
ATOM     66  F   UNL A   1      41.297  24.377  28.651  1.00  0.00    -0.205 F 
ATOM     67  C   UNL A   1      43.143  24.372  25.490  1.00  0.00     0.022 A 
BRANCH  65  68
ATOM     68  S   UNL A   1      41.886  22.188  26.554  1.00  0.00     0.127 S 
ATOM     69  O   UNL A   1      42.574  21.668  27.735  1.00  0.00    -0.237 OA
ATOM     70  O   UNL A   1      40.432  22.284  26.688  1.00  0.00    -0.237 OA
ATOM     71  O   UNL A   1      42.346  21.654  25.279  1.00  0.00    -0.744 OA
ENDBRANCH  65  68
ENDBRANCH  47  61
BRANCH  48  72
ATOM     72  C   UNL A   1      40.143  32.039  35.322  1.00  0.00     0.023 A 
ATOM     73  C   UNL A   1      40.790  33.273  35.523  1.00  0.00     0.012 A 
ATOM     74  C   UNL A   1      39.136  31.636  36.222  1.00  0.00     0.148 A 
ATOM     75  C   UNL A   1      40.466  34.075  36.618  1.00  0.00     0.002 A 
ATOM     76  C   UNL A   1      38.778  32.465  37.277  1.00  0.00     0.091 A 
ATOM     77  F   UNL A   1      38.541  30.452  36.018  1.00  0.00    -0.205 F 
ATOM     78  C   UNL A   1      39.454  33.676  37.489  1.00  0.00     0.022 A 
BRANCH  76  79
ATOM     79  S   UNL A   1      37.403  32.092  38.371  1.00  0.00     0.127 S 
ATOM     80  O   UNL A   1      37.891  32.602  39.649  1.00  0.00    -0.237 OA
ATOM     81  O   UNL A   1      36.321  32.870  37.768  1.00  0.00    -0.237 OA
ATOM     82  O   UNL A   1      37.219  30.648  38.297  1.00  0.00    -0.744 OA
ENDBRANCH  76  79
ENDBRANCH  48  72
BRANCH  60  83
ATOM     83  C   UNL A   1      45.443  27.676  34.037  1.00  0.00     0.023 A 
ATOM     84  C   UNL A   1      46.632  28.425  33.953  1.00  0.00     0.012 A 
ATOM     85  C   UNL A   1      45.371  26.592  34.936  1.00  0.00     0.148 A 
ATOM     86  C   UNL A   1      47.743  28.081  34.722  1.00  0.00     0.002 A 
ATOM     87  C   UNL A   1      46.461  26.290  35.740  1.00  0.00     0.091 A 
ATOM     88  F   UNL A   1      44.235  25.882  34.990  1.00  0.00    -0.205 F 
ATOM     89  C   UNL A   1      47.653  27.022  35.624  1.00  0.00     0.022 A 
BRANCH  87  90
ATOM     90  S   UNL A   1      46.405  25.012  37.001  1.00  0.00     0.127 S 
ATOM     91  O   UNL A   1      47.802  24.948  37.424  1.00  0.00    -0.237 OA
ATOM     92  O   UNL A   1      45.493  25.592  37.988  1.00  0.00    -0.237 OA
ATOM     93  O   UNL A   1      45.899  23.816  36.340  1.00  0.00    -0.744 OA
ENDBRANCH  87  90
ENDBRANCH  60  83
ENDBRANCH  34  35
ENDBRANCH  27  29
ENDBRANCH  26  27
ENDBRANCH  25  26
ENDBRANCH  24  25
ENDBRANCH  23  24
ENDBRANCH   1  23
TORSDOF 21
ENDMDL
