MODEL 1
REMARK VINA RESULT:     -11.3      0.000      0.000
REMARK SMILES NS(=O)(=O)c1ccc(-n2nc(C(F)F)cc2-c2ccc(C(=O)OCCOCCOC(=O)c3ccc(-c4c5nc(c(-c6cccc(S(=O)(=O)[O-])c6F)c6ccc([nH]6)c(-c6cccc(S(=O)(=O)[O-])c6F)c6nc(c(-c7cccc(S(=O)(=O)[O-])c7F)c7ccc4[nH]7)C=C6)C=C5)cc3)cc2)cc1
REMARK SMILES IDX 25 1 24 2 23 3 21 4 22 5 20 6 17 7 18 8 96 9 19 10 95 11
REMARK SMILES IDX 16 12 9 13 10 14 11 15 15 16 8 17 5 18 6 19 98 20 7 21 97 22
REMARK SMILES IDX 2 23 3 24 4 25 1 26 12 29 13 30 14 31 26 32 27 33 28 34
REMARK SMILES IDX 29 35 30 36 31 37 32 38 33 39 94 40 34 41 93 42 35 43 36 44
REMARK SMILES IDX 37 45 87 46 38 47 92 48 86 49 88 50 39 51 91 52 85 53 84 54
REMARK SMILES IDX 40 56 72 57 52 58 71 59 53 60 56 61 70 62 89 63 54 64 55 65
REMARK SMILES IDX 69 67 90 68 57 69 41 70 42 71 50 72 43 73 45 74 51 75 44 76
REMARK SMILES IDX 46 77 47 78 48 79 49 80 73 81 74 82 82 83 75 84 77 85 83 86
REMARK SMILES IDX 76 87 78 88 79 89 80 90 81 91 58 92 59 93 67 94 60 95 62 96
REMARK SMILES IDX 68 97 61 98 63 99 64 100 65 101 66 102
REMARK H PARENT 1 27 1 28 88 55 56 66
REMARK Flexibility Score: inf
ROOT
ATOM      1  C   UNL A   1      34.937  33.961  28.496  1.00  0.00     0.202 C 
ENDROOT
BRANCH   1   2
ATOM      2  C   UNL A   1      35.544  32.647  28.005  1.00  0.00     0.261 C 
BRANCH   2   3
ATOM      3  O   UNL A   1      34.718  31.509  28.290  1.00  0.00    -0.460 OA
BRANCH   3   4
ATOM      4  C   UNL A   1      35.013  30.416  27.547  1.00  0.00     0.338 C 
ATOM      5  O   UNL A   1      36.047  29.767  27.574  1.00  0.00    -0.246 OA
BRANCH   4   6
ATOM      6  C   UNL A   1      33.837  29.978  26.769  1.00  0.00     0.060 A 
ATOM      7  C   UNL A   1      31.738  29.435  25.011  1.00  0.00     0.000 A 
ATOM      8  C   UNL A   1      33.046  29.050  24.685  1.00  0.00     0.011 A 
ATOM      9  C   UNL A   1      31.478  30.006  26.264  1.00  0.00     0.011 A 
ATOM     10  C   UNL A   1      34.093  29.327  25.558  1.00  0.00     0.016 A 
ATOM     11  C   UNL A   1      32.527  30.269  27.154  1.00  0.00     0.016 A 
BRANCH   7  12
ATOM     12  C   UNL A   1      30.708  29.392  23.974  1.00  0.00     0.075 A 
ATOM     13  N   UNL A   1      30.592  28.437  22.972  1.00  0.00    -0.233 N 
ATOM     14  N   UNL A   1      29.884  28.908  21.912  1.00  0.00    -0.166 NA
ATOM     15  C   UNL A   1      29.326  30.049  22.355  1.00  0.00     0.129 A 
ATOM     16  C   UNL A   1      29.831  30.399  23.627  1.00  0.00     0.060 A 
BRANCH  13  17
ATOM     17  C   UNL A   1      31.155  27.136  22.958  1.00  0.00     0.065 A 
ATOM     18  C   UNL A   1      32.334  24.622  23.075  1.00  0.00     0.082 A 
ATOM     19  C   UNL A   1      31.145  24.859  23.771  1.00  0.00     0.024 A 
ATOM     20  C   UNL A   1      32.922  25.622  22.294  1.00  0.00     0.024 A 
ATOM     21  C   UNL A   1      30.561  26.121  23.722  1.00  0.00     0.030 A 
ATOM     22  C   UNL A   1      32.313  26.879  22.211  1.00  0.00     0.030 A 
BRANCH  18  23
ATOM     23  S   UNL A   1      33.097  23.037  23.259  1.00  0.00     0.238 S 
ATOM     24  O   UNL A   1      32.320  22.069  22.534  1.00  0.00    -0.207 OA
ATOM     25  O   UNL A   1      33.456  22.848  24.653  1.00  0.00    -0.207 OA
BRANCH  23  26
ATOM     26  N   UNL A   1      34.534  23.246  22.434  1.00  0.00    -0.225 NA
ATOM     27  H   UNL A   1      35.055  22.369  22.431  1.00  0.00     0.137 HD
ATOM     28  H   UNL A   1      35.088  23.969  22.893  1.00  0.00     0.137 HD
ENDBRANCH  23  26
ENDBRANCH  18  23
ENDBRANCH  13  17
BRANCH  15  29
ATOM     29  C   UNL A   1      28.356  30.857  21.546  1.00  0.00     0.393 C 
ATOM     30  F   UNL A   1      27.755  30.129  20.565  1.00  0.00    -0.203 F 
ATOM     31  F   UNL A   1      27.360  31.373  22.316  1.00  0.00    -0.203 F 
ENDBRANCH  15  29
ENDBRANCH   7  12
ENDBRANCH   4   6
ENDBRANCH   3   4
ENDBRANCH   2   3
ENDBRANCH   1   2
BRANCH   1  32
ATOM     32  O   UNL A   1      33.954  33.926  29.530  1.00  0.00    -0.374 OA
BRANCH  32  33
ATOM     33  C   UNL A   1      34.300  34.275  30.867  1.00  0.00     0.202 C 
BRANCH  33  34
ATOM     34  C   UNL A   1      34.367  33.185  31.926  1.00  0.00     0.261 C 
BRANCH  34  35
ATOM     35  O   UNL A   1      34.928  31.988  31.421  1.00  0.00    -0.460 OA
BRANCH  35  36
ATOM     36  C   UNL A   1      36.052  31.608  32.069  1.00  0.00     0.338 C 
ATOM     37  O   UNL A   1      36.324  31.788  33.244  1.00  0.00    -0.246 OA
BRANCH  36  38
ATOM     38  C   UNL A   1      36.989  31.065  31.088  1.00  0.00     0.060 A 
ATOM     39  C   UNL A   1      36.983  29.676  30.956  1.00  0.00     0.016 A 
ATOM     40  C   UNL A   1      38.059  31.864  30.658  1.00  0.00     0.016 A 
ATOM     41  C   UNL A   1      38.173  29.063  30.659  1.00  0.00     0.010 A 
ATOM     42  C   UNL A   1      39.250  31.249  30.388  1.00  0.00     0.010 A 
ATOM     43  C   UNL A   1      39.308  29.863  30.494  1.00  0.00    -0.014 A 
BRANCH  43  44
ATOM     44  C   UNL A   1      40.571  29.201  30.276  1.00  0.00     0.031 A 
ATOM     45  C   UNL A   1      41.261  29.002  31.566  1.00  0.00     0.074 A 
ATOM     46  C   UNL A   1      40.946  28.771  29.056  1.00  0.00     0.049 A 
ATOM     47  N   UNL A   1      42.232  29.705  32.051  1.00  0.00    -0.248 NA
ATOM     48  C   UNL A   1      40.598  28.138  32.560  1.00  0.00     0.031 C 
ATOM     49  C   UNL A   1      40.127  28.700  27.840  1.00  0.00     0.029 A 
ATOM     50  N   UNL A   1      42.104  28.172  28.674  1.00  0.00    -0.354 N 
ATOM     51  C   UNL A   1      42.485  29.126  33.291  1.00  0.00     0.074 A 
ATOM     52  C   UNL A   1      41.280  28.445  33.664  1.00  0.00     0.031 C 
ATOM     53  C   UNL A   1      40.716  27.858  26.959  1.00  0.00     0.029 A 
ATOM     54  C   UNL A   1      41.999  27.439  27.494  1.00  0.00     0.049 A 
ATOM     55  H   UNL A   1      42.942  28.249  29.185  1.00  0.00     0.167 HD
ATOM     56  C   UNL A   1      43.767  28.890  33.680  1.00  0.00     0.034 A 
ATOM     57  C   UNL A   1      42.867  26.487  27.065  1.00  0.00     0.034 A 
ATOM     58  C   UNL A   1      44.682  29.655  32.868  1.00  0.00     0.049 A 
ATOM     59  C   UNL A   1      44.129  26.689  27.812  1.00  0.00     0.074 A 
ATOM     60  C   UNL A   1      44.944  30.990  32.645  1.00  0.00     0.029 A 
ATOM     61  N   UNL A   1      45.192  28.955  31.803  1.00  0.00    -0.354 N 
ATOM     62  N   UNL A   1      44.882  27.745  27.681  1.00  0.00    -0.248 NA
ATOM     63  C   UNL A   1      44.347  25.909  29.022  1.00  0.00     0.031 C 
ATOM     64  C   UNL A   1      45.360  31.073  31.284  1.00  0.00     0.029 A 
ATOM     65  C   UNL A   1      45.406  29.786  30.743  1.00  0.00     0.049 A 
ATOM     66  H   UNL A   1      45.377  27.989  31.805  1.00  0.00     0.167 HD
ATOM     67  C   UNL A   1      45.309  28.016  28.972  1.00  0.00     0.074 A 
ATOM     68  C   UNL A   1      45.090  26.778  29.714  1.00  0.00     0.031 C 
ATOM     69  C   UNL A   1      45.491  29.306  29.379  1.00  0.00     0.034 A 
BRANCH  56  70
ATOM     70  C   UNL A   1      44.238  27.614  34.372  1.00  0.00     0.023 A 
ATOM     71  C   UNL A   1      45.135  27.784  35.451  1.00  0.00     0.012 A 
ATOM     72  C   UNL A   1      44.112  26.298  33.863  1.00  0.00     0.148 A 
ATOM     73  C   UNL A   1      45.910  26.727  35.942  1.00  0.00     0.002 A 
ATOM     74  C   UNL A   1      44.835  25.236  34.396  1.00  0.00     0.091 A 
ATOM     75  F   UNL A   1      43.385  26.051  32.776  1.00  0.00    -0.205 F 
ATOM     76  C   UNL A   1      45.760  25.451  35.415  1.00  0.00     0.022 A 
BRANCH  74  77
ATOM     77  S   UNL A   1      44.658  23.561  33.759  1.00  0.00     0.127 S 
ATOM     78  O   UNL A   1      44.970  23.754  32.345  1.00  0.00    -0.237 OA
ATOM     79  O   UNL A   1      45.675  22.847  34.529  1.00  0.00    -0.237 OA
ATOM     80  O   UNL A   1      43.290  23.158  34.057  1.00  0.00    -0.744 OA
ENDBRANCH  74  77
ENDBRANCH  56  70
BRANCH  57  81
ATOM     81  C   UNL A   1      42.608  25.225  26.327  1.00  0.00     0.023 A 
ATOM     82  C   UNL A   1      43.523  24.784  25.348  1.00  0.00     0.012 A 
ATOM     83  C   UNL A   1      41.639  24.308  26.788  1.00  0.00     0.148 A 
ATOM     84  C   UNL A   1      43.496  23.465  24.872  1.00  0.00     0.002 A 
ATOM     85  C   UNL A   1      41.611  23.001  26.308  1.00  0.00     0.091 A 
ATOM     86  F   UNL A   1      40.807  24.688  27.766  1.00  0.00    -0.205 F 
ATOM     87  C   UNL A   1      42.547  22.571  25.359  1.00  0.00     0.022 A 
BRANCH  85  88
ATOM     88  S   UNL A   1      40.430  21.786  26.913  1.00  0.00     0.127 S 
ATOM     89  O   UNL A   1      40.773  21.717  28.334  1.00  0.00    -0.237 OA
ATOM     90  O   UNL A   1      39.154  22.431  26.620  1.00  0.00    -0.237 OA
ATOM     91  O   UNL A   1      40.703  20.560  26.172  1.00  0.00    -0.744 OA
ENDBRANCH  85  88
ENDBRANCH  57  81
BRANCH  69  92
ATOM     92  C   UNL A   1      45.647  30.357  28.318  1.00  0.00     0.023 A 
ATOM     93  C   UNL A   1      44.567  31.048  27.732  1.00  0.00     0.012 A 
ATOM     94  C   UNL A   1      46.960  30.766  28.036  1.00  0.00     0.148 A 
ATOM     95  C   UNL A   1      44.803  32.129  26.875  1.00  0.00     0.002 A 
ATOM     96  C   UNL A   1      47.187  31.871  27.233  1.00  0.00     0.091 A 
ATOM     97  F   UNL A   1      47.967  30.081  28.599  1.00  0.00    -0.205 F 
ATOM     98  C   UNL A   1      46.112  32.553  26.642  1.00  0.00     0.022 A 
BRANCH  96  99
ATOM     99  S   UNL A   1      48.838  32.535  27.022  1.00  0.00     0.127 S 
ATOM    100  O   UNL A   1      49.545  31.406  26.422  1.00  0.00    -0.237 OA
ATOM    101  O   UNL A   1      48.606  33.664  26.120  1.00  0.00    -0.237 OA
ATOM    102  O   UNL A   1      49.290  32.922  28.354  1.00  0.00    -0.744 OA
ENDBRANCH  96  99
ENDBRANCH  69  92
ENDBRANCH  43  44
ENDBRANCH  36  38
ENDBRANCH  35  36
ENDBRANCH  34  35
ENDBRANCH  33  34
ENDBRANCH  32  33
ENDBRANCH   1  32
TORSDOF 22
ENDMDL
MODEL 2
REMARK VINA RESULT:     -11.2      3.955      9.381
REMARK SMILES NS(=O)(=O)c1ccc(-n2nc(C(F)F)cc2-c2ccc(C(=O)OCCOCCOC(=O)c3ccc(-c4c5nc(c(-c6cccc(S(=O)(=O)[O-])c6F)c6ccc([nH]6)c(-c6cccc(S(=O)(=O)[O-])c6F)c6nc(c(-c7cccc(S(=O)(=O)[O-])c7F)c7ccc4[nH]7)C=C6)C=C5)cc3)cc2)cc1
REMARK SMILES IDX 25 1 24 2 23 3 21 4 22 5 20 6 17 7 18 8 96 9 19 10 95 11
REMARK SMILES IDX 16 12 9 13 10 14 11 15 15 16 8 17 5 18 6 19 98 20 7 21 97 22
REMARK SMILES IDX 2 23 3 24 4 25 1 26 12 29 13 30 14 31 26 32 27 33 28 34
REMARK SMILES IDX 29 35 30 36 31 37 32 38 33 39 94 40 34 41 93 42 35 43 36 44
REMARK SMILES IDX 37 45 87 46 38 47 92 48 86 49 88 50 39 51 91 52 85 53 84 54
REMARK SMILES IDX 40 56 72 57 52 58 71 59 53 60 56 61 70 62 89 63 54 64 55 65
REMARK SMILES IDX 69 67 90 68 57 69 41 70 42 71 50 72 43 73 45 74 51 75 44 76
REMARK SMILES IDX 46 77 47 78 48 79 49 80 73 81 74 82 82 83 75 84 77 85 83 86
REMARK SMILES IDX 76 87 78 88 79 89 80 90 81 91 58 92 59 93 67 94 60 95 62 96
REMARK SMILES IDX 68 97 61 98 63 99 64 100 65 101 66 102
REMARK H PARENT 1 27 1 28 88 55 56 66
REMARK Flexibility Score: inf
ROOT
ATOM      1  C   UNL A   1      41.276  22.638  27.607  1.00  0.00     0.202 C 
ENDROOT
BRANCH   1   2
ATOM      2  C   UNL A   1      40.312  23.420  26.715  1.00  0.00     0.261 C 
BRANCH   2   3
ATOM      3  O   UNL A   1      38.949  22.998  26.859  1.00  0.00    -0.460 OA
BRANCH   3   4
ATOM      4  C   UNL A   1      38.485  22.272  25.815  1.00  0.00     0.338 C 
ATOM      5  O   UNL A   1      38.951  21.228  25.382  1.00  0.00    -0.246 OA
BRANCH   4   6
ATOM      6  C   UNL A   1      37.205  22.817  25.323  1.00  0.00     0.060 A 
ATOM      7  C   UNL A   1      34.604  23.612  24.695  1.00  0.00     0.000 A 
ATOM      8  C   UNL A   1      35.206  24.052  25.881  1.00  0.00     0.011 A 
ATOM      9  C   UNL A   1      35.348  22.851  23.782  1.00  0.00     0.011 A 
ATOM     10  C   UNL A   1      36.500  23.650  26.197  1.00  0.00     0.016 A 
ATOM     11  C   UNL A   1      36.658  22.461  24.089  1.00  0.00     0.016 A 
BRANCH   7  12
ATOM     12  C   UNL A   1      33.166  23.807  24.516  1.00  0.00     0.075 A 
ATOM     13  N   UNL A   1      32.250  22.841  24.121  1.00  0.00    -0.233 N 
ATOM     14  N   UNL A   1      31.136  23.400  23.579  1.00  0.00    -0.166 NA
ATOM     15  C   UNL A   1      31.229  24.707  23.880  1.00  0.00     0.129 A 
ATOM     16  C   UNL A   1      32.489  25.008  24.445  1.00  0.00     0.060 A 
BRANCH  13  17
ATOM     17  C   UNL A   1      32.405  21.434  24.191  1.00  0.00     0.065 A 
ATOM     18  C   UNL A   1      32.872  18.696  24.313  1.00  0.00     0.082 A 
ATOM     19  C   UNL A   1      32.996  19.469  25.471  1.00  0.00     0.024 A 
ATOM     20  C   UNL A   1      32.486  19.275  23.100  1.00  0.00     0.024 A 
ATOM     21  C   UNL A   1      32.772  20.841  25.408  1.00  0.00     0.030 A 
ATOM     22  C   UNL A   1      32.221  20.648  23.044  1.00  0.00     0.030 A 
BRANCH  18  23
ATOM     23  S   UNL A   1      33.275  16.978  24.420  1.00  0.00     0.238 S 
ATOM     24  O   UNL A   1      33.551  16.490  23.096  1.00  0.00    -0.207 OA
ATOM     25  O   UNL A   1      32.320  16.325  25.298  1.00  0.00    -0.207 OA
BRANCH  23  26
ATOM     26  N   UNL A   1      34.722  17.011  25.254  1.00  0.00    -0.225 NA
ATOM     27  H   UNL A   1      35.486  16.778  24.619  1.00  0.00     0.137 HD
ATOM     28  H   UNL A   1      34.693  16.332  26.014  1.00  0.00     0.137 HD
ENDBRANCH  23  26
ENDBRANCH  18  23
ENDBRANCH  13  17
BRANCH  15  29
ATOM     29  C   UNL A   1      30.148  25.700  23.576  1.00  0.00     0.393 C 
ATOM     30  F   UNL A   1      29.742  26.391  24.677  1.00  0.00    -0.203 F 
ATOM     31  F   UNL A   1      30.549  26.622  22.660  1.00  0.00    -0.203 F 
ENDBRANCH  15  29
ENDBRANCH   7  12
ENDBRANCH   4   6
ENDBRANCH   3   4
ENDBRANCH   2   3
ENDBRANCH   1   2
BRANCH   1  32
ATOM     32  O   UNL A   1      42.253  21.794  26.998  1.00  0.00    -0.374 OA
BRANCH  32  33
ATOM     33  C   UNL A   1      42.794  22.120  25.721  1.00  0.00     0.202 C 
BRANCH  33  34
ATOM     34  C   UNL A   1      43.805  23.251  25.610  1.00  0.00     0.261 C 
BRANCH  34  35
ATOM     35  O   UNL A   1      43.234  24.420  25.052  1.00  0.00    -0.460 OA
BRANCH  35  36
ATOM     36  C   UNL A   1      43.893  25.551  25.391  1.00  0.00     0.338 C 
ATOM     37  O   UNL A   1      45.038  25.855  25.101  1.00  0.00    -0.246 OA
BRANCH  36  38
ATOM     38  C   UNL A   1      43.054  26.316  26.312  1.00  0.00     0.060 A 
ATOM     39  C   UNL A   1      42.264  27.305  25.726  1.00  0.00     0.016 A 
ATOM     40  C   UNL A   1      43.365  26.303  27.680  1.00  0.00     0.016 A 
ATOM     41  C   UNL A   1      42.028  28.441  26.456  1.00  0.00     0.010 A 
ATOM     42  C   UNL A   1      43.150  27.447  28.397  1.00  0.00     0.010 A 
ATOM     43  C   UNL A   1      42.576  28.531  27.740  1.00  0.00    -0.014 A 
BRANCH  43  44
ATOM     44  C   UNL A   1      42.400  29.767  28.461  1.00  0.00     0.031 A 
ATOM     45  C   UNL A   1      43.557  30.654  28.223  1.00  0.00     0.074 A 
ATOM     46  C   UNL A   1      41.273  30.036  29.146  1.00  0.00     0.049 A 
ATOM     47  N   UNL A   1      44.557  30.866  29.015  1.00  0.00    -0.248 NA
ATOM     48  C   UNL A   1      43.789  31.105  26.838  1.00  0.00     0.031 C 
ATOM     49  C   UNL A   1      40.012  29.284  29.127  1.00  0.00     0.029 A 
ATOM     50  N   UNL A   1      40.963  31.121  29.902  1.00  0.00    -0.354 N 
ATOM     51  C   UNL A   1      45.372  31.744  28.306  1.00  0.00     0.074 A 
ATOM     52  C   UNL A   1      45.035  31.570  26.925  1.00  0.00     0.031 C 
ATOM     53  C   UNL A   1      39.020  30.071  29.606  1.00  0.00     0.029 A 
ATOM     54  C   UNL A   1      39.596  31.318  30.077  1.00  0.00     0.049 A 
ATOM     55  H   UNL A   1      41.645  31.715  30.292  1.00  0.00     0.167 HD
ATOM     56  C   UNL A   1      45.915  32.822  28.935  1.00  0.00     0.034 A 
ATOM     57  C   UNL A   1      38.999  32.469  30.481  1.00  0.00     0.034 A 
ATOM     58  C   UNL A   1      45.852  32.646  30.366  1.00  0.00     0.049 A 
ATOM     59  C   UNL A   1      40.048  33.295  31.119  1.00  0.00     0.074 A 
ATOM     60  C   UNL A   1      46.387  31.775  31.291  1.00  0.00     0.029 A 
ATOM     61  N   UNL A   1      44.756  33.234  30.946  1.00  0.00    -0.354 N 
ATOM     62  N   UNL A   1      40.652  32.962  32.226  1.00  0.00    -0.248 NA
ATOM     63  C   UNL A   1      40.731  34.292  30.308  1.00  0.00     0.031 C 
ATOM     64  C   UNL A   1      45.403  31.657  32.316  1.00  0.00     0.029 A 
ATOM     65  C   UNL A   1      44.336  32.509  32.021  1.00  0.00     0.049 A 
ATOM     66  H   UNL A   1      44.333  34.065  30.630  1.00  0.00     0.167 HD
ATOM     67  C   UNL A   1      41.971  33.337  32.016  1.00  0.00     0.074 A 
ATOM     68  C   UNL A   1      41.926  34.285  30.906  1.00  0.00     0.031 C 
ATOM     69  C   UNL A   1      42.988  32.597  32.544  1.00  0.00     0.034 A 
BRANCH  56  70
ATOM     70  C   UNL A   1      45.989  34.223  28.337  1.00  0.00     0.023 A 
ATOM     71  C   UNL A   1      47.246  34.864  28.406  1.00  0.00     0.012 A 
ATOM     72  C   UNL A   1      44.884  35.044  28.003  1.00  0.00     0.148 A 
ATOM     73  C   UNL A   1      47.382  36.247  28.227  1.00  0.00     0.002 A 
ATOM     74  C   UNL A   1      45.031  36.405  27.762  1.00  0.00     0.091 A 
ATOM     75  F   UNL A   1      43.643  34.564  28.027  1.00  0.00    -0.205 F 
ATOM     76  C   UNL A   1      46.275  37.018  27.905  1.00  0.00     0.022 A 
BRANCH  74  77
ATOM     77  S   UNL A   1      43.627  37.442  27.321  1.00  0.00     0.127 S 
ATOM     78  O   UNL A   1      42.992  37.641  28.621  1.00  0.00    -0.237 OA
ATOM     79  O   UNL A   1      44.296  38.619  26.767  1.00  0.00    -0.237 OA
ATOM     80  O   UNL A   1      42.854  36.681  26.347  1.00  0.00    -0.744 OA
ENDBRANCH  74  77
ENDBRANCH  56  70
BRANCH  57  81
ATOM     81  C   UNL A   1      37.700  33.063  30.075  1.00  0.00     0.023 A 
ATOM     82  C   UNL A   1      37.234  32.894  28.754  1.00  0.00     0.012 A 
ATOM     83  C   UNL A   1      36.786  33.526  31.045  1.00  0.00     0.148 A 
ATOM     84  C   UNL A   1      35.894  33.143  28.421  1.00  0.00     0.002 A 
ATOM     85  C   UNL A   1      35.458  33.778  30.709  1.00  0.00     0.091 A 
ATOM     86  F   UNL A   1      37.193  33.627  32.317  1.00  0.00    -0.205 F 
ATOM     87  C   UNL A   1      35.004  33.575  29.400  1.00  0.00     0.022 A 
BRANCH  85  88
ATOM     88  S   UNL A   1      34.248  34.313  31.928  1.00  0.00     0.127 S 
ATOM     89  O   UNL A   1      34.973  35.377  32.622  1.00  0.00    -0.237 OA
ATOM     90  O   UNL A   1      33.148  34.769  31.083  1.00  0.00    -0.237 OA
ATOM     91  O   UNL A   1      33.967  33.144  32.753  1.00  0.00    -0.744 OA
ENDBRANCH  85  88
ENDBRANCH  57  81
BRANCH  69  92
ATOM     92  C   UNL A   1      42.660  31.671  33.681  1.00  0.00     0.023 A 
ATOM     93  C   UNL A   1      42.458  32.099  35.009  1.00  0.00     0.012 A 
ATOM     94  C   UNL A   1      42.386  30.338  33.338  1.00  0.00     0.148 A 
ATOM     95  C   UNL A   1      41.990  31.200  35.975  1.00  0.00     0.002 A 
ATOM     96  C   UNL A   1      41.869  29.468  34.283  1.00  0.00     0.091 A 
ATOM     97  F   UNL A   1      42.600  29.958  32.069  1.00  0.00    -0.205 F 
ATOM     98  C   UNL A   1      41.677  29.891  35.608  1.00  0.00     0.022 A 
BRANCH  96  99
ATOM     99  S   UNL A   1      41.321  27.825  33.824  1.00  0.00     0.127 S 
ATOM    100  O   UNL A   1      40.065  28.106  33.133  1.00  0.00    -0.237 OA
ATOM    101  O   UNL A   1      42.408  27.364  32.960  1.00  0.00    -0.237 OA
ATOM    102  O   UNL A   1      41.197  27.079  35.071  1.00  0.00    -0.744 OA
ENDBRANCH  96  99
ENDBRANCH  69  92
ENDBRANCH  43  44
ENDBRANCH  36  38
ENDBRANCH  35  36
ENDBRANCH  34  35
ENDBRANCH  33  34
ENDBRANCH  32  33
ENDBRANCH   1  32
TORSDOF 22
ENDMDL
MODEL 3
REMARK VINA RESULT:     -11.2      3.470      7.533
REMARK SMILES NS(=O)(=O)c1ccc(-n2nc(C(F)F)cc2-c2ccc(C(=O)OCCOCCOC(=O)c3ccc(-c4c5nc(c(-c6cccc(S(=O)(=O)[O-])c6F)c6ccc([nH]6)c(-c6cccc(S(=O)(=O)[O-])c6F)c6nc(c(-c7cccc(S(=O)(=O)[O-])c7F)c7ccc4[nH]7)C=C6)C=C5)cc3)cc2)cc1
REMARK SMILES IDX 25 1 24 2 23 3 21 4 22 5 20 6 17 7 18 8 96 9 19 10 95 11
REMARK SMILES IDX 16 12 9 13 10 14 11 15 15 16 8 17 5 18 6 19 98 20 7 21 97 22
REMARK SMILES IDX 2 23 3 24 4 25 1 26 12 29 13 30 14 31 26 32 27 33 28 34
REMARK SMILES IDX 29 35 30 36 31 37 32 38 33 39 94 40 34 41 93 42 35 43 36 44
REMARK SMILES IDX 37 45 87 46 38 47 92 48 86 49 88 50 39 51 91 52 85 53 84 54
REMARK SMILES IDX 40 56 72 57 52 58 71 59 53 60 56 61 70 62 89 63 54 64 55 65
REMARK SMILES IDX 69 67 90 68 57 69 41 70 42 71 50 72 43 73 45 74 51 75 44 76
REMARK SMILES IDX 46 77 47 78 48 79 49 80 73 81 74 82 82 83 75 84 77 85 83 86
REMARK SMILES IDX 76 87 78 88 79 89 80 90 81 91 58 92 59 93 67 94 60 95 62 96
REMARK SMILES IDX 68 97 61 98 63 99 64 100 65 101 66 102
REMARK H PARENT 1 27 1 28 88 55 56 66
REMARK Flexibility Score: inf
ROOT
ATOM      1  C   UNL A   1      36.434  32.821  28.292  1.00  0.00     0.202 C 
ENDROOT
BRANCH   1   2
ATOM      2  C   UNL A   1      34.947  32.609  28.011  1.00  0.00     0.261 C 
BRANCH   2   3
ATOM      3  O   UNL A   1      34.585  31.223  27.928  1.00  0.00    -0.460 OA
BRANCH   3   4
ATOM      4  C   UNL A   1      33.321  31.010  27.494  1.00  0.00     0.338 C 
ATOM      5  O   UNL A   1      32.451  31.852  27.324  1.00  0.00    -0.246 OA
BRANCH   4   6
ATOM      6  C   UNL A   1      33.136  29.605  27.083  1.00  0.00     0.060 A 
ATOM      7  C   UNL A   1      32.765  27.099  25.909  1.00  0.00     0.000 A 
ATOM      8  C   UNL A   1      33.973  27.786  25.732  1.00  0.00     0.011 A 
ATOM      9  C   UNL A   1      31.783  27.634  26.756  1.00  0.00     0.011 A 
ATOM     10  C   UNL A   1      34.156  29.037  26.312  1.00  0.00     0.016 A 
ATOM     11  C   UNL A   1      31.972  28.885  27.356  1.00  0.00     0.016 A 
BRANCH   7  12
ATOM     12  C   UNL A   1      32.484  25.932  25.075  1.00  0.00     0.075 A 
ATOM     13  N   UNL A   1      31.423  25.793  24.190  1.00  0.00    -0.233 N 
ATOM     14  N   UNL A   1      31.144  24.485  23.945  1.00  0.00    -0.166 NA
ATOM     15  C   UNL A   1      32.192  23.813  24.453  1.00  0.00     0.129 A 
ATOM     16  C   UNL A   1      33.040  24.674  25.185  1.00  0.00     0.060 A 
BRANCH  13  17
ATOM     17  C   UNL A   1      30.645  26.828  23.614  1.00  0.00     0.065 A 
ATOM     18  C   UNL A   1      29.159  28.955  22.615  1.00  0.00     0.082 A 
ATOM     19  C   UNL A   1      30.537  28.908  22.385  1.00  0.00     0.024 A 
ATOM     20  C   UNL A   1      28.512  27.931  23.314  1.00  0.00     0.024 A 
ATOM     21  C   UNL A   1      31.283  27.849  22.894  1.00  0.00     0.030 A 
ATOM     22  C   UNL A   1      29.254  26.845  23.791  1.00  0.00     0.030 A 
BRANCH  18  23
ATOM     23  S   UNL A   1      28.274  30.376  22.045  1.00  0.00     0.238 S 
ATOM     24  O   UNL A   1      27.267  30.707  23.017  1.00  0.00    -0.207 OA
ATOM     25  O   UNL A   1      27.958  30.200  20.639  1.00  0.00    -0.207 OA
BRANCH  23  26
ATOM     26  N   UNL A   1      29.445  31.565  22.112  1.00  0.00    -0.225 NA
ATOM     27  H   UNL A   1      30.338  31.148  22.373  1.00  0.00     0.137 HD
ATOM     28  H   UNL A   1      29.180  32.264  22.806  1.00  0.00     0.137 HD
ENDBRANCH  23  26
ENDBRANCH  18  23
ENDBRANCH  13  17
BRANCH  15  29
ATOM     29  C   UNL A   1      32.367  22.331  24.305  1.00  0.00     0.393 C 
ATOM     30  F   UNL A   1      32.262  21.915  23.013  1.00  0.00    -0.203 F 
ATOM     31  F   UNL A   1      33.583  21.916  24.752  1.00  0.00    -0.203 F 
ENDBRANCH  15  29
ENDBRANCH   7  12
ENDBRANCH   4   6
ENDBRANCH   3   4
ENDBRANCH   2   3
ENDBRANCH   1   2
BRANCH   1  32
ATOM     32  O   UNL A   1      36.827  33.413  29.530  1.00  0.00    -0.374 OA
BRANCH  32  33
ATOM     33  C   UNL A   1      36.071  33.178  30.714  1.00  0.00     0.202 C 
BRANCH  33  34
ATOM     34  C   UNL A   1      36.377  31.952  31.561  1.00  0.00     0.261 C 
BRANCH  34  35
ATOM     35  O   UNL A   1      37.379  31.140  30.977  1.00  0.00    -0.460 OA
BRANCH  35  36
ATOM     36  C   UNL A   1      36.919  29.940  30.556  1.00  0.00     0.338 C 
ATOM     37  O   UNL A   1      35.842  29.429  30.814  1.00  0.00    -0.246 OA
BRANCH  36  38
ATOM     38  C   UNL A   1      37.997  29.256  29.845  1.00  0.00     0.060 A 
ATOM     39  C   UNL A   1      38.350  28.004  30.349  1.00  0.00     0.016 A 
ATOM     40  C   UNL A   1      38.843  30.006  29.014  1.00  0.00     0.016 A 
ATOM     41  C   UNL A   1      39.666  27.633  30.258  1.00  0.00     0.010 A 
ATOM     42  C   UNL A   1      40.160  29.645  28.946  1.00  0.00     0.010 A 
ATOM     43  C   UNL A   1      40.565  28.519  29.655  1.00  0.00    -0.014 A 
BRANCH  43  44
ATOM     44  C   UNL A   1      41.962  28.159  29.649  1.00  0.00     0.031 A 
ATOM     45  C   UNL A   1      42.190  27.058  28.692  1.00  0.00     0.074 A 
ATOM     46  C   UNL A   1      42.875  28.842  30.365  1.00  0.00     0.049 A 
ATOM     47  N   UNL A   1      42.338  25.802  28.964  1.00  0.00    -0.248 NA
ATOM     48  C   UNL A   1      41.909  27.329  27.270  1.00  0.00     0.031 C 
ATOM     49  C   UNL A   1      42.689  30.115  31.071  1.00  0.00     0.029 A 
ATOM     50  N   UNL A   1      44.207  28.615  30.501  1.00  0.00    -0.354 N 
ATOM     51  C   UNL A   1      42.486  25.200  27.718  1.00  0.00     0.074 A 
ATOM     52  C   UNL A   1      41.888  26.093  26.771  1.00  0.00     0.031 C 
ATOM     53  C   UNL A   1      43.901  30.667  31.315  1.00  0.00     0.029 A 
ATOM     54  C   UNL A   1      44.934  29.733  30.902  1.00  0.00     0.049 A 
ATOM     55  H   UNL A   1      44.621  27.737  30.332  1.00  0.00     0.167 HD
ATOM     56  C   UNL A   1      43.454  24.262  27.529  1.00  0.00     0.034 A 
ATOM     57  C   UNL A   1      46.278  29.894  30.793  1.00  0.00     0.034 A 
ATOM     58  C   UNL A   1      43.925  23.770  28.802  1.00  0.00     0.049 A 
ATOM     59  C   UNL A   1      46.858  28.545  30.609  1.00  0.00     0.074 A 
ATOM     60  C   UNL A   1      43.388  23.074  29.864  1.00  0.00     0.029 A 
ATOM     61  N   UNL A   1      45.050  24.409  29.259  1.00  0.00    -0.354 N 
ATOM     62  N   UNL A   1      46.823  27.616  31.524  1.00  0.00    -0.248 NA
ATOM     63  C   UNL A   1      47.110  28.081  29.253  1.00  0.00     0.031 C 
ATOM     64  C   UNL A   1      44.068  23.561  31.019  1.00  0.00     0.029 A 
ATOM     65  C   UNL A   1      45.040  24.481  30.620  1.00  0.00     0.049 A 
ATOM     66  H   UNL A   1      45.765  24.765  28.683  1.00  0.00     0.167 HD
ATOM     67  C   UNL A   1      46.576  26.452  30.811  1.00  0.00     0.074 A 
ATOM     68  C   UNL A   1      46.924  26.770  29.429  1.00  0.00     0.031 C 
ATOM     69  C   UNL A   1      45.813  25.461  31.356  1.00  0.00     0.034 A 
BRANCH  56  70
ATOM     70  C   UNL A   1      44.351  24.183  26.298  1.00  0.00     0.023 A 
ATOM     71  C   UNL A   1      44.463  22.913  25.689  1.00  0.00     0.012 A 
ATOM     72  C   UNL A   1      45.297  25.158  25.895  1.00  0.00     0.148 A 
ATOM     73  C   UNL A   1      45.496  22.611  24.792  1.00  0.00     0.002 A 
ATOM     74  C   UNL A   1      46.282  24.875  24.955  1.00  0.00     0.091 A 
ATOM     75  F   UNL A   1      45.352  26.346  26.491  1.00  0.00    -0.205 F 
ATOM     76  C   UNL A   1      46.406  23.592  24.424  1.00  0.00     0.022 A 
BRANCH  74  77
ATOM     77  S   UNL A   1      47.472  26.121  24.432  1.00  0.00     0.127 S 
ATOM     78  O   UNL A   1      46.593  27.240  24.100  1.00  0.00    -0.237 OA
ATOM     79  O   UNL A   1      48.268  26.293  25.646  1.00  0.00    -0.237 OA
ATOM     80  O   UNL A   1      48.204  25.537  23.315  1.00  0.00    -0.744 OA
ENDBRANCH  74  77
ENDBRANCH  56  70
BRANCH  57  81
ATOM     81  C   UNL A   1      47.070  31.114  30.498  1.00  0.00     0.023 A 
ATOM     82  C   UNL A   1      48.174  31.449  31.311  1.00  0.00     0.012 A 
ATOM     83  C   UNL A   1      46.936  31.777  29.259  1.00  0.00     0.148 A 
ATOM     84  C   UNL A   1      49.130  32.382  30.886  1.00  0.00     0.002 A 
ATOM     85  C   UNL A   1      47.884  32.708  28.844  1.00  0.00     0.091 A 
ATOM     86  F   UNL A   1      45.933  31.423  28.445  1.00  0.00    -0.205 F 
ATOM     87  C   UNL A   1      48.992  33.005  29.649  1.00  0.00     0.022 A 
BRANCH  85  88
ATOM     88  S   UNL A   1      47.782  33.530  27.247  1.00  0.00     0.127 S 
ATOM     89  O   UNL A   1      46.501  34.230  27.352  1.00  0.00    -0.237 OA
ATOM     90  O   UNL A   1      48.958  34.395  27.275  1.00  0.00    -0.237 OA
ATOM     91  O   UNL A   1      47.803  32.469  26.248  1.00  0.00    -0.744 OA
ENDBRANCH  85  88
ENDBRANCH  57  81
BRANCH  69  92
ATOM     92  C   UNL A   1      45.628  25.462  32.847  1.00  0.00     0.023 A 
ATOM     93  C   UNL A   1      46.605  25.015  33.760  1.00  0.00     0.012 A 
ATOM     94  C   UNL A   1      44.476  26.101  33.330  1.00  0.00     0.148 A 
ATOM     95  C   UNL A   1      46.425  25.207  35.134  1.00  0.00     0.002 A 
ATOM     96  C   UNL A   1      44.328  26.338  34.686  1.00  0.00     0.091 A 
ATOM     97  F   UNL A   1      43.559  26.504  32.437  1.00  0.00    -0.205 F 
ATOM     98  C   UNL A   1      45.296  25.885  35.596  1.00  0.00     0.022 A 
BRANCH  96  99
ATOM     99  S   UNL A   1      42.970  27.328  35.308  1.00  0.00     0.127 S 
ATOM    100  O   UNL A   1      41.817  26.480  35.016  1.00  0.00    -0.237 OA
ATOM    101  O   UNL A   1      43.299  27.449  36.729  1.00  0.00    -0.237 OA
ATOM    102  O   UNL A   1      43.022  28.589  34.577  1.00  0.00    -0.744 OA
ENDBRANCH  96  99
ENDBRANCH  69  92
ENDBRANCH  43  44
ENDBRANCH  36  38
ENDBRANCH  35  36
ENDBRANCH  34  35
ENDBRANCH  33  34
ENDBRANCH  32  33
ENDBRANCH   1  32
TORSDOF 22
ENDMDL
