MODEL 1
REMARK VINA RESULT:     -10.9      0.000      0.000
REMARK SMILES Cn1ncc(C(=O)OCCOCCOC(=O)c2ccc(-c3c4nc(c(-c5cccc(S(=O)(=O)[O-])c5F)c5ccc([nH]5)c(-c5cccc(S(=O)(=O)[O-])c5F)c5nc(c(-c6cccc(S(=O)(=O)[O-])c6F)c6ccc3[nH]6)C=C5)C=C4)cc2)c1C(=O)Nc1ccccn1
REMARK SMILES IDX 12 1 11 2 10 3 9 4 8 5 6 6 7 7 5 8 1 9 2 10 3 11 80 12 4 13
REMARK SMILES IDX 81 14 82 15 83 16 84 18 85 19 89 20 86 21 88 22 87 23 13 24
REMARK SMILES IDX 14 25 15 26 16 27 17 28 18 29 79 30 19 31 78 32 20 33 21 34
REMARK SMILES IDX 22 35 72 36 23 37 77 38 71 39 73 40 24 41 76 42 70 43 69 44
REMARK SMILES IDX 25 46 57 47 37 48 56 49 38 50 41 51 55 52 74 53 39 54 40 55
REMARK SMILES IDX 54 57 75 58 42 59 26 60 27 61 35 62 28 63 30 64 36 65 29 66
REMARK SMILES IDX 31 67 32 68 33 69 34 70 58 71 59 72 67 73 60 74 62 75 68 76
REMARK SMILES IDX 61 77 63 78 64 79 65 80 66 81 43 82 44 83 52 84 45 85 47 86
REMARK SMILES IDX 53 87 46 88 48 89 49 90 50 91 51 92
REMARK H PARENT 83 17 73 45 41 56
REMARK Flexibility Score: inf
ROOT
ATOM      1  C   UNL A   1      32.162  29.253  25.756  1.00  0.00     0.202 C 
ENDROOT
BRANCH   1   2
ATOM      2  O   UNL A   1      31.117  28.707  24.946  1.00  0.00    -0.374 OA
BRANCH   2   3
ATOM      3  C   UNL A   1      30.988  27.281  24.951  1.00  0.00     0.202 C 
BRANCH   3   4
ATOM      4  C   UNL A   1      31.424  26.601  23.655  1.00  0.00     0.261 C 
BRANCH   4   5
ATOM      5  O   UNL A   1      32.122  25.386  23.968  1.00  0.00    -0.460 OA
BRANCH   5   6
ATOM      6  C   UNL A   1      31.347  24.282  24.101  1.00  0.00     0.342 C 
ATOM      7  O   UNL A   1      30.641  23.812  23.215  1.00  0.00    -0.246 OA
BRANCH   6   8
ATOM      8  C   UNL A   1      31.555  23.559  25.343  1.00  0.00     0.111 A 
ATOM      9  C   UNL A   1      33.588  22.131  27.762  1.00  0.00     0.174 C 
ATOM     10  N   UNL A   1      32.406  22.450  26.991  1.00  0.00    -0.262 N 
ATOM     11  N   UNL A   1      31.520  23.272  27.596  1.00  0.00    -0.180 NA
ATOM     12  C   UNL A   1      32.207  22.348  25.624  1.00  0.00     0.140 A 
ATOM     13  C   UNL A   1      31.114  24.043  26.593  1.00  0.00     0.151 A 
BRANCH  12  14
ATOM     14  C   UNL A   1      32.755  21.403  24.663  1.00  0.00     0.275 C 
ATOM     15  O   UNL A   1      32.024  20.578  24.111  1.00  0.00    -0.267 OA
ATOM     16  N   UNL A   1      34.052  21.406  24.226  1.00  0.00    -0.305 N 
ATOM     17  H   UNL A   1      34.183  20.836  23.434  1.00  0.00     0.171 HD
BRANCH  16  18
ATOM     18  C   UNL A   1      35.225  22.020  24.631  1.00  0.00     0.132 A 
ATOM     19  C   UNL A   1      36.363  21.339  25.033  1.00  0.00     0.047 A 
ATOM     20  N   UNL A   1      35.142  23.366  24.634  1.00  0.00    -0.239 NA
ATOM     21  C   UNL A   1      37.435  22.087  25.533  1.00  0.00     0.005 A 
ATOM     22  C   UNL A   1      36.177  24.063  25.144  1.00  0.00     0.113 A 
ATOM     23  C   UNL A   1      37.332  23.472  25.618  1.00  0.00     0.020 A 
ENDBRANCH  16  18
ENDBRANCH  12  14
ENDBRANCH   6   8
ENDBRANCH   5   6
ENDBRANCH   4   5
ENDBRANCH   3   4
ENDBRANCH   2   3
ENDBRANCH   1   2
BRANCH   1  24
ATOM     24  C   UNL A   1      32.072  30.759  26.018  1.00  0.00     0.261 C 
BRANCH  24  25
ATOM     25  O   UNL A   1      32.429  31.072  27.376  1.00  0.00    -0.460 OA
BRANCH  25  26
ATOM     26  C   UNL A   1      33.281  32.117  27.518  1.00  0.00     0.338 C 
ATOM     27  O   UNL A   1      32.998  33.302  27.479  1.00  0.00    -0.246 OA
BRANCH  26  28
ATOM     28  C   UNL A   1      34.616  31.627  27.920  1.00  0.00     0.060 A 
ATOM     29  C   UNL A   1      34.732  30.263  28.222  1.00  0.00     0.016 A 
ATOM     30  C   UNL A   1      35.718  32.475  28.045  1.00  0.00     0.016 A 
ATOM     31  C   UNL A   1      35.936  29.754  28.704  1.00  0.00     0.010 A 
ATOM     32  C   UNL A   1      36.924  31.964  28.538  1.00  0.00     0.010 A 
ATOM     33  C   UNL A   1      37.026  30.610  28.905  1.00  0.00    -0.014 A 
BRANCH  33  34
ATOM     34  C   UNL A   1      38.219  30.111  29.628  1.00  0.00     0.031 A 
ATOM     35  C   UNL A   1      38.471  30.587  31.033  1.00  0.00     0.074 A 
ATOM     36  C   UNL A   1      39.062  29.237  29.049  1.00  0.00     0.049 A 
ATOM     37  N   UNL A   1      39.436  30.268  31.854  1.00  0.00    -0.248 NA
ATOM     38  C   UNL A   1      37.505  31.551  31.587  1.00  0.00     0.031 C 
ATOM     39  C   UNL A   1      38.929  28.709  27.693  1.00  0.00     0.029 A 
ATOM     40  N   UNL A   1      40.209  28.656  29.528  1.00  0.00    -0.354 N 
ATOM     41  C   UNL A   1      39.207  31.001  33.012  1.00  0.00     0.074 A 
ATOM     42  C   UNL A   1      38.020  31.794  32.784  1.00  0.00     0.031 C 
ATOM     43  C   UNL A   1      39.972  27.900  27.438  1.00  0.00     0.029 A 
ATOM     44  C   UNL A   1      40.850  27.862  28.606  1.00  0.00     0.049 A 
ATOM     45  H   UNL A   1      40.542  28.795  30.445  1.00  0.00     0.167 HD
ATOM     46  C   UNL A   1      39.909  30.999  34.169  1.00  0.00     0.034 A 
ATOM     47  C   UNL A   1      42.017  27.193  28.694  1.00  0.00     0.034 A 
ATOM     48  C   UNL A   1      41.076  30.193  34.407  1.00  0.00     0.049 A 
ATOM     49  C   UNL A   1      42.788  27.222  29.989  1.00  0.00     0.074 A 
ATOM     50  C   UNL A   1      41.824  30.083  35.566  1.00  0.00     0.029 A 
ATOM     51  N   UNL A   1      41.671  29.369  33.465  1.00  0.00    -0.354 N 
ATOM     52  N   UNL A   1      42.481  27.808  31.121  1.00  0.00    -0.248 NA
ATOM     53  C   UNL A   1      44.052  26.469  30.028  1.00  0.00     0.031 C 
ATOM     54  C   UNL A   1      42.882  29.201  35.320  1.00  0.00     0.029 A 
ATOM     55  C   UNL A   1      42.785  28.754  34.011  1.00  0.00     0.049 A 
ATOM     56  H   UNL A   1      41.350  29.239  32.545  1.00  0.00     0.167 HD
ATOM     57  C   UNL A   1      43.494  27.472  32.013  1.00  0.00     0.074 A 
ATOM     58  C   UNL A   1      44.413  26.611  31.297  1.00  0.00     0.031 C 
ATOM     59  C   UNL A   1      43.659  27.855  33.303  1.00  0.00     0.034 A 
BRANCH  46  60
ATOM     60  C   UNL A   1      39.405  31.865  35.291  1.00  0.00     0.023 A 
ATOM     61  C   UNL A   1      38.497  31.324  36.225  1.00  0.00     0.012 A 
ATOM     62  C   UNL A   1      39.865  33.185  35.456  1.00  0.00     0.148 A 
ATOM     63  C   UNL A   1      38.039  32.091  37.294  1.00  0.00     0.002 A 
ATOM     64  C   UNL A   1      39.429  33.933  36.544  1.00  0.00     0.091 A 
ATOM     65  F   UNL A   1      40.705  33.689  34.542  1.00  0.00    -0.205 F 
ATOM     66  C   UNL A   1      38.512  33.390  37.459  1.00  0.00     0.022 A 
BRANCH  64  67
ATOM     67  S   UNL A   1      40.031  35.593  36.876  1.00  0.00     0.127 S 
ATOM     68  O   UNL A   1      39.529  36.326  35.715  1.00  0.00    -0.237 OA
ATOM     69  O   UNL A   1      39.362  35.918  38.137  1.00  0.00    -0.237 OA
ATOM     70  O   UNL A   1      41.479  35.480  36.972  1.00  0.00    -0.744 OA
ENDBRANCH  64  67
ENDBRANCH  46  60
BRANCH  47  71
ATOM     71  C   UNL A   1      42.506  26.399  27.533  1.00  0.00     0.023 A 
ATOM     72  C   UNL A   1      43.340  27.011  26.577  1.00  0.00     0.012 A 
ATOM     73  C   UNL A   1      42.166  25.040  27.379  1.00  0.00     0.148 A 
ATOM     74  C   UNL A   1      43.806  26.290  25.476  1.00  0.00     0.002 A 
ATOM     75  C   UNL A   1      42.674  24.316  26.307  1.00  0.00     0.091 A 
ATOM     76  F   UNL A   1      41.350  24.482  28.286  1.00  0.00    -0.205 F 
ATOM     77  C   UNL A   1      43.482  24.943  25.346  1.00  0.00     0.022 A 
BRANCH  75  78
ATOM     78  S   UNL A   1      42.401  22.548  26.133  1.00  0.00     0.127 S 
ATOM     79  O   UNL A   1      40.944  22.473  26.089  1.00  0.00    -0.237 OA
ATOM     80  O   UNL A   1      43.072  22.258  24.865  1.00  0.00    -0.237 OA
ATOM     81  O   UNL A   1      43.036  21.943  27.296  1.00  0.00    -0.744 OA
ENDBRANCH  75  78
ENDBRANCH  47  71
BRANCH  59  82
ATOM     82  C   UNL A   1      44.868  27.340  34.039  1.00  0.00     0.023 A 
ATOM     83  C   UNL A   1      46.052  28.104  34.048  1.00  0.00     0.012 A 
ATOM     84  C   UNL A   1      44.807  26.150  34.791  1.00  0.00     0.148 A 
ATOM     85  C   UNL A   1      47.165  27.680  34.772  1.00  0.00     0.002 A 
ATOM     86  C   UNL A   1      45.906  25.754  35.545  1.00  0.00     0.091 A 
ATOM     87  F   UNL A   1      43.679  25.426  34.756  1.00  0.00    -0.205 F 
ATOM     88  C   UNL A   1      47.088  26.512  35.530  1.00  0.00     0.022 A 
BRANCH  86  89
ATOM     89  S   UNL A   1      45.863  24.316  36.620  1.00  0.00     0.127 S 
ATOM     90  O   UNL A   1      47.211  24.325  37.186  1.00  0.00    -0.237 OA
ATOM     91  O   UNL A   1      44.803  24.662  37.568  1.00  0.00    -0.237 OA
ATOM     92  O   UNL A   1      45.551  23.184  35.757  1.00  0.00    -0.744 OA
ENDBRANCH  86  89
ENDBRANCH  59  82
ENDBRANCH  33  34
ENDBRANCH  26  28
ENDBRANCH  25  26
ENDBRANCH  24  25
ENDBRANCH   1  24
TORSDOF 19
ENDMDL
MODEL 2
REMARK VINA RESULT:     -10.8      1.621      2.120
REMARK SMILES Cn1ncc(C(=O)OCCOCCOC(=O)c2ccc(-c3c4nc(c(-c5cccc(S(=O)(=O)[O-])c5F)c5ccc([nH]5)c(-c5cccc(S(=O)(=O)[O-])c5F)c5nc(c(-c6cccc(S(=O)(=O)[O-])c6F)c6ccc3[nH]6)C=C5)C=C4)cc2)c1C(=O)Nc1ccccn1
REMARK SMILES IDX 12 1 11 2 10 3 9 4 8 5 6 6 7 7 5 8 1 9 2 10 3 11 80 12 4 13
REMARK SMILES IDX 81 14 82 15 83 16 84 18 85 19 89 20 86 21 88 22 87 23 13 24
REMARK SMILES IDX 14 25 15 26 16 27 17 28 18 29 79 30 19 31 78 32 20 33 21 34
REMARK SMILES IDX 22 35 72 36 23 37 77 38 71 39 73 40 24 41 76 42 70 43 69 44
REMARK SMILES IDX 25 46 57 47 37 48 56 49 38 50 41 51 55 52 74 53 39 54 40 55
REMARK SMILES IDX 54 57 75 58 42 59 26 60 27 61 35 62 28 63 30 64 36 65 29 66
REMARK SMILES IDX 31 67 32 68 33 69 34 70 58 71 59 72 67 73 60 74 62 75 68 76
REMARK SMILES IDX 61 77 63 78 64 79 65 80 66 81 43 82 44 83 52 84 45 85 47 86
REMARK SMILES IDX 53 87 46 88 48 89 49 90 50 91 51 92
REMARK H PARENT 83 17 73 45 41 56
REMARK Flexibility Score: inf
ROOT
ATOM      1  C   UNL A   1      31.379  31.326  26.109  1.00  0.00     0.202 C 
ENDROOT
BRANCH   1   2
ATOM      2  O   UNL A   1      31.735  29.990  26.480  1.00  0.00    -0.374 OA
BRANCH   2   3
ATOM      3  C   UNL A   1      32.449  29.228  25.501  1.00  0.00     0.202 C 
BRANCH   3   4
ATOM      4  C   UNL A   1      33.034  27.917  26.024  1.00  0.00     0.261 C 
BRANCH   4   5
ATOM      5  O   UNL A   1      32.370  26.814  25.389  1.00  0.00    -0.460 OA
BRANCH   5   6
ATOM      6  C   UNL A   1      31.459  26.160  26.151  1.00  0.00     0.342 C 
ATOM      7  O   UNL A   1      30.773  26.683  27.023  1.00  0.00    -0.246 OA
BRANCH   6   8
ATOM      8  C   UNL A   1      31.206  24.794  25.729  1.00  0.00     0.111 A 
ATOM      9  C   UNL A   1      32.253  21.646  24.724  1.00  0.00     0.174 C 
ATOM     10  N   UNL A   1      31.389  22.781  24.966  1.00  0.00    -0.262 N 
ATOM     11  N   UNL A   1      30.522  22.644  25.993  1.00  0.00    -0.180 NA
ATOM     12  C   UNL A   1      31.550  24.096  24.561  1.00  0.00     0.140 A 
ATOM     13  C   UNL A   1      30.532  23.856  26.538  1.00  0.00     0.151 A 
BRANCH  12  14
ATOM     14  C   UNL A   1      32.172  24.641  23.363  1.00  0.00     0.275 C 
ATOM     15  O   UNL A   1      31.484  25.170  22.488  1.00  0.00    -0.267 OA
ATOM     16  N   UNL A   1      33.523  24.707  23.153  1.00  0.00    -0.305 N 
ATOM     17  H   UNL A   1      33.757  25.287  22.394  1.00  0.00     0.171 HD
BRANCH  16  18
ATOM     18  C   UNL A   1      34.639  24.151  23.754  1.00  0.00     0.132 A 
ATOM     19  C   UNL A   1      35.058  24.442  25.043  1.00  0.00     0.047 A 
ATOM     20  N   UNL A   1      35.316  23.316  22.940  1.00  0.00    -0.239 NA
ATOM     21  C   UNL A   1      36.272  23.901  25.478  1.00  0.00     0.005 A 
ATOM     22  C   UNL A   1      36.496  22.828  23.372  1.00  0.00     0.113 A 
ATOM     23  C   UNL A   1      37.021  23.102  24.619  1.00  0.00     0.020 A 
ENDBRANCH  16  18
ENDBRANCH  12  14
ENDBRANCH   6   8
ENDBRANCH   5   6
ENDBRANCH   4   5
ENDBRANCH   3   4
ENDBRANCH   2   3
ENDBRANCH   1   2
BRANCH   1  24
ATOM     24  C   UNL A   1      31.791  32.416  27.103  1.00  0.00     0.261 C 
BRANCH  24  25
ATOM     25  O   UNL A   1      33.168  32.793  26.918  1.00  0.00    -0.460 OA
BRANCH  25  26
ATOM     26  C   UNL A   1      33.749  33.384  27.990  1.00  0.00     0.338 C 
ATOM     27  O   UNL A   1      33.273  34.263  28.688  1.00  0.00    -0.246 OA
BRANCH  26  28
ATOM     28  C   UNL A   1      35.004  32.685  28.332  1.00  0.00     0.060 A 
ATOM     29  C   UNL A   1      34.901  31.349  28.741  1.00  0.00     0.016 A 
ATOM     30  C   UNL A   1      36.248  33.320  28.300  1.00  0.00     0.016 A 
ATOM     31  C   UNL A   1      36.033  30.660  29.174  1.00  0.00     0.010 A 
ATOM     32  C   UNL A   1      37.381  32.630  28.744  1.00  0.00     0.010 A 
ATOM     33  C   UNL A   1      37.272  31.310  29.218  1.00  0.00    -0.014 A 
BRANCH  33  34
ATOM     34  C   UNL A   1      38.416  30.651  29.891  1.00  0.00     0.031 A 
ATOM     35  C   UNL A   1      38.746  31.034  31.308  1.00  0.00     0.074 A 
ATOM     36  C   UNL A   1      39.144  29.716  29.256  1.00  0.00     0.049 A 
ATOM     37  N   UNL A   1      39.686  30.575  32.091  1.00  0.00    -0.248 NA
ATOM     38  C   UNL A   1      37.905  32.075  31.924  1.00  0.00     0.031 C 
ATOM     39  C   UNL A   1      38.926  29.266  27.883  1.00  0.00     0.029 A 
ATOM     40  N   UNL A   1      40.229  28.991  29.682  1.00  0.00    -0.354 N 
ATOM     41  C   UNL A   1      39.563  31.277  33.284  1.00  0.00     0.074 A 
ATOM     42  C   UNL A   1      38.467  32.207  33.118  1.00  0.00     0.031 C 
ATOM     43  C   UNL A   1      39.867  28.358  27.569  1.00  0.00     0.029 A 
ATOM     44  C   UNL A   1      40.758  28.173  28.713  1.00  0.00     0.049 A 
ATOM     45  H   UNL A   1      40.593  29.052  30.595  1.00  0.00     0.167 HD
ATOM     46  C   UNL A   1      40.283  31.147  34.422  1.00  0.00     0.034 A 
ATOM     47  C   UNL A   1      41.845  27.376  28.744  1.00  0.00     0.034 A 
ATOM     48  C   UNL A   1      41.357  30.208  34.597  1.00  0.00     0.049 A 
ATOM     49  C   UNL A   1      42.640  27.263  30.020  1.00  0.00     0.074 A 
ATOM     50  C   UNL A   1      42.110  29.965  35.732  1.00  0.00     0.029 A 
ATOM     51  N   UNL A   1      41.838  29.365  33.608  1.00  0.00    -0.354 N 
ATOM     52  N   UNL A   1      42.422  27.828  31.182  1.00  0.00    -0.248 NA
ATOM     53  C   UNL A   1      43.812  26.373  29.997  1.00  0.00     0.031 C 
ATOM     54  C   UNL A   1      43.059  28.983  35.424  1.00  0.00     0.029 A 
ATOM     55  C   UNL A   1      42.887  28.608  34.101  1.00  0.00     0.049 A 
ATOM     56  H   UNL A   1      41.486  29.312  32.691  1.00  0.00     0.167 HD
ATOM     57  C   UNL A   1      43.409  27.343  32.035  1.00  0.00     0.074 A 
ATOM     58  C   UNL A   1      44.212  26.419  31.261  1.00  0.00     0.031 C 
ATOM     59  C   UNL A   1      43.642  27.650  33.335  1.00  0.00     0.034 A 
BRANCH  46  60
ATOM     60  C   UNL A   1      39.900  32.014  35.591  1.00  0.00     0.023 A 
ATOM     61  C   UNL A   1      40.538  33.259  35.764  1.00  0.00     0.012 A 
ATOM     62  C   UNL A   1      38.879  31.628  36.480  1.00  0.00     0.148 A 
ATOM     63  C   UNL A   1      40.180  34.098  36.817  1.00  0.00     0.002 A 
ATOM     64  C   UNL A   1      38.505  32.485  37.509  1.00  0.00     0.091 A 
ATOM     65  F   UNL A   1      38.306  30.428  36.314  1.00  0.00    -0.205 F 
ATOM     66  C   UNL A   1      39.158  33.717  37.683  1.00  0.00     0.022 A 
BRANCH  64  67
ATOM     67  S   UNL A   1      37.157  32.108  38.635  1.00  0.00     0.127 S 
ATOM     68  O   UNL A   1      36.067  32.899  38.066  1.00  0.00    -0.237 OA
ATOM     69  O   UNL A   1      37.011  30.662  38.471  1.00  0.00    -0.237 OA
ATOM     70  O   UNL A   1      37.612  32.524  39.955  1.00  0.00    -0.744 OA
ENDBRANCH  64  67
ENDBRANCH  46  60
BRANCH  47  71
ATOM     71  C   UNL A   1      42.220  26.584  27.540  1.00  0.00     0.023 A 
ATOM     72  C   UNL A   1      42.910  27.212  26.485  1.00  0.00     0.012 A 
ATOM     73  C   UNL A   1      41.913  25.212  27.440  1.00  0.00     0.148 A 
ATOM     74  C   UNL A   1      43.266  26.494  25.342  1.00  0.00     0.002 A 
ATOM     75  C   UNL A   1      42.315  24.492  26.321  1.00  0.00     0.091 A 
ATOM     76  F   UNL A   1      41.233  24.638  28.443  1.00  0.00    -0.205 F 
ATOM     77  C   UNL A   1      42.978  25.134  25.264  1.00  0.00     0.022 A 
BRANCH  75  78
ATOM     78  S   UNL A   1      42.087  22.714  26.197  1.00  0.00     0.127 S 
ATOM     79  O   UNL A   1      42.743  22.416  24.927  1.00  0.00    -0.237 OA
ATOM     80  O   UNL A   1      42.794  22.231  27.383  1.00  0.00    -0.237 OA
ATOM     81  O   UNL A   1      40.646  22.505  26.235  1.00  0.00    -0.744 OA
ENDBRANCH  75  78
ENDBRANCH  47  71
BRANCH  59  82
ATOM     82  C   UNL A   1      44.799  26.972  34.019  1.00  0.00     0.023 A 
ATOM     83  C   UNL A   1      46.063  27.597  34.026  1.00  0.00     0.012 A 
ATOM     84  C   UNL A   1      44.620  25.767  34.727  1.00  0.00     0.148 A 
ATOM     85  C   UNL A   1      47.135  27.021  34.704  1.00  0.00     0.002 A 
ATOM     86  C   UNL A   1      45.683  25.220  35.437  1.00  0.00     0.091 A 
ATOM     87  F   UNL A   1      43.416  25.176  34.694  1.00  0.00    -0.205 F 
ATOM     88  C   UNL A   1      46.943  25.840  35.420  1.00  0.00     0.022 A 
BRANCH  86  89
ATOM     89  S   UNL A   1      45.500  23.753  36.458  1.00  0.00     0.127 S 
ATOM     90  O   UNL A   1      44.618  22.926  35.637  1.00  0.00    -0.237 OA
ATOM     91  O   UNL A   1      46.876  23.263  36.555  1.00  0.00    -0.237 OA
ATOM     92  O   UNL A   1      44.937  24.214  37.719  1.00  0.00    -0.744 OA
ENDBRANCH  86  89
ENDBRANCH  59  82
ENDBRANCH  33  34
ENDBRANCH  26  28
ENDBRANCH  25  26
ENDBRANCH  24  25
ENDBRANCH   1  24
TORSDOF 19
ENDMDL
MODEL 3
REMARK VINA RESULT:     -10.8      5.094     10.128
REMARK SMILES Cn1ncc(C(=O)OCCOCCOC(=O)c2ccc(-c3c4nc(c(-c5cccc(S(=O)(=O)[O-])c5F)c5ccc([nH]5)c(-c5cccc(S(=O)(=O)[O-])c5F)c5nc(c(-c6cccc(S(=O)(=O)[O-])c6F)c6ccc3[nH]6)C=C5)C=C4)cc2)c1C(=O)Nc1ccccn1
REMARK SMILES IDX 12 1 11 2 10 3 9 4 8 5 6 6 7 7 5 8 1 9 2 10 3 11 80 12 4 13
REMARK SMILES IDX 81 14 82 15 83 16 84 18 85 19 89 20 86 21 88 22 87 23 13 24
REMARK SMILES IDX 14 25 15 26 16 27 17 28 18 29 79 30 19 31 78 32 20 33 21 34
REMARK SMILES IDX 22 35 72 36 23 37 77 38 71 39 73 40 24 41 76 42 70 43 69 44
REMARK SMILES IDX 25 46 57 47 37 48 56 49 38 50 41 51 55 52 74 53 39 54 40 55
REMARK SMILES IDX 54 57 75 58 42 59 26 60 27 61 35 62 28 63 30 64 36 65 29 66
REMARK SMILES IDX 31 67 32 68 33 69 34 70 58 71 59 72 67 73 60 74 62 75 68 76
REMARK SMILES IDX 61 77 63 78 64 79 65 80 66 81 43 82 44 83 52 84 45 85 47 86
REMARK SMILES IDX 53 87 46 88 48 89 49 90 50 91 51 92
REMARK H PARENT 83 17 73 45 41 56
REMARK Flexibility Score: inf
ROOT
ATOM      1  C   UNL A   1      35.912  20.663  25.322  1.00  0.00     0.202 C 
ENDROOT
BRANCH   1   2
ATOM      2  O   UNL A   1      35.854  21.846  26.125  1.00  0.00    -0.374 OA
BRANCH   2   3
ATOM      3  C   UNL A   1      34.969  22.877  25.676  1.00  0.00     0.202 C 
BRANCH   3   4
ATOM      4  C   UNL A   1      35.667  24.087  25.058  1.00  0.00     0.261 C 
BRANCH   4   5
ATOM      5  O   UNL A   1      34.771  24.738  24.144  1.00  0.00    -0.460 OA
BRANCH   5   6
ATOM      6  C   UNL A   1      33.907  25.622  24.700  1.00  0.00     0.342 C 
ATOM      7  O   UNL A   1      34.093  26.208  25.761  1.00  0.00    -0.246 OA
BRANCH   6   8
ATOM      8  C   UNL A   1      32.797  25.985  23.838  1.00  0.00     0.111 A 
ATOM      9  C   UNL A   1      29.941  27.813  23.112  1.00  0.00     0.174 C 
ATOM     10  N   UNL A   1      30.957  26.786  23.035  1.00  0.00    -0.262 N 
ATOM     11  N   UNL A   1      31.820  26.897  22.001  1.00  0.00    -0.180 NA
ATOM     12  C   UNL A   1      31.406  25.933  24.029  1.00  0.00     0.140 A 
ATOM     13  C   UNL A   1      32.974  26.538  22.552  1.00  0.00     0.151 A 
BRANCH  12  14
ATOM     14  C   UNL A   1      30.697  25.348  25.157  1.00  0.00     0.275 C 
ATOM     15  O   UNL A   1      30.087  26.066  25.952  1.00  0.00    -0.267 OA
ATOM     16  N   UNL A   1      30.561  24.003  25.374  1.00  0.00    -0.305 N 
ATOM     17  H   UNL A   1      29.884  23.800  26.058  1.00  0.00     0.171 HD
BRANCH  16  18
ATOM     18  C   UNL A   1      31.148  22.860  24.860  1.00  0.00     0.132 A 
ATOM     19  C   UNL A   1      31.463  21.739  25.613  1.00  0.00     0.047 A 
ATOM     20  N   UNL A   1      31.424  22.954  23.544  1.00  0.00    -0.239 NA
ATOM     21  C   UNL A   1      32.165  20.703  24.988  1.00  0.00     0.005 A 
ATOM     22  C   UNL A   1      32.124  21.954  22.970  1.00  0.00     0.113 A 
ATOM     23  C   UNL A   1      32.529  20.823  23.650  1.00  0.00     0.020 A 
ENDBRANCH  16  18
ENDBRANCH  12  14
ENDBRANCH   6   8
ENDBRANCH   5   6
ENDBRANCH   4   5
ENDBRANCH   3   4
ENDBRANCH   2   3
ENDBRANCH   1   2
BRANCH   1  24
ATOM     24  C   UNL A   1      37.320  20.154  25.001  1.00  0.00     0.261 C 
BRANCH  24  25
ATOM     25  O   UNL A   1      38.289  21.213  25.100  1.00  0.00    -0.460 OA
BRANCH  25  26
ATOM     26  C   UNL A   1      39.299  20.985  25.974  1.00  0.00     0.338 C 
ATOM     27  O   UNL A   1      39.887  19.933  26.155  1.00  0.00    -0.246 OA
BRANCH  26  28
ATOM     28  C   UNL A   1      39.739  22.259  26.580  1.00  0.00     0.060 A 
ATOM     29  C   UNL A   1      39.118  23.431  26.125  1.00  0.00     0.016 A 
ATOM     30  C   UNL A   1      40.758  22.323  27.533  1.00  0.00     0.016 A 
ATOM     31  C   UNL A   1      39.554  24.674  26.579  1.00  0.00     0.010 A 
ATOM     32  C   UNL A   1      41.199  23.573  27.981  1.00  0.00     0.010 A 
ATOM     33  C   UNL A   1      40.625  24.754  27.478  1.00  0.00    -0.014 A 
BRANCH  33  34
ATOM     34  C   UNL A   1      41.228  26.074  27.775  1.00  0.00     0.031 A 
ATOM     35  C   UNL A   1      42.634  26.353  27.318  1.00  0.00     0.074 A 
ATOM     36  C   UNL A   1      40.531  27.019  28.433  1.00  0.00     0.049 A 
ATOM     37  N   UNL A   1      43.348  27.439  27.454  1.00  0.00    -0.248 NA
ATOM     38  C   UNL A   1      43.328  25.260  26.616  1.00  0.00     0.031 C 
ATOM     39  C   UNL A   1      39.165  26.866  28.931  1.00  0.00     0.029 A 
ATOM     40  N   UNL A   1      40.888  28.289  28.809  1.00  0.00    -0.354 N 
ATOM     41  C   UNL A   1      44.578  27.160  26.871  1.00  0.00     0.074 A 
ATOM     42  C   UNL A   1      44.521  25.795  26.393  1.00  0.00     0.031 C 
ATOM     43  C   UNL A   1      38.809  27.992  29.573  1.00  0.00     0.029 A 
ATOM     44  C   UNL A   1      39.923  28.938  29.540  1.00  0.00     0.049 A 
ATOM     45  H   UNL A   1      41.755  28.696  28.577  1.00  0.00     0.167 HD
ATOM     46  C   UNL A   1      45.651  27.971  26.726  1.00  0.00     0.034 A 
ATOM     47  C   UNL A   1      39.943  30.152  30.126  1.00  0.00     0.034 A 
ATOM     48  C   UNL A   1      45.701  29.335  27.178  1.00  0.00     0.049 A 
ATOM     49  C   UNL A   1      41.158  31.029  29.964  1.00  0.00     0.074 A 
ATOM     50  C   UNL A   1      46.725  30.254  27.028  1.00  0.00     0.029 A 
ATOM     51  N   UNL A   1      44.689  29.973  27.876  1.00  0.00    -0.354 N 
ATOM     52  N   UNL A   1      42.257  30.802  29.287  1.00  0.00    -0.248 NA
ATOM     53  C   UNL A   1      41.120  32.347  30.620  1.00  0.00     0.031 C 
ATOM     54  C   UNL A   1      46.337  31.445  27.652  1.00  0.00     0.029 A 
ATOM     55  C   UNL A   1      45.066  31.270  28.178  1.00  0.00     0.049 A 
ATOM     56  H   UNL A   1      43.828  29.564  28.123  1.00  0.00     0.167 HD
ATOM     57  C   UNL A   1      43.029  31.953  29.411  1.00  0.00     0.074 A 
ATOM     58  C   UNL A   1      42.260  32.887  30.208  1.00  0.00     0.031 C 
ATOM     59  C   UNL A   1      44.268  32.208  28.924  1.00  0.00     0.034 A 
BRANCH  46  60
ATOM     60  C   UNL A   1      46.850  27.418  26.005  1.00  0.00     0.023 A 
ATOM     61  C   UNL A   1      47.705  26.520  26.676  1.00  0.00     0.012 A 
ATOM     62  C   UNL A   1      47.100  27.737  24.657  1.00  0.00     0.148 A 
ATOM     63  C   UNL A   1      48.803  25.965  26.023  1.00  0.00     0.002 A 
ATOM     64  C   UNL A   1      48.179  27.153  24.002  1.00  0.00     0.091 A 
ATOM     65  F   UNL A   1      46.292  28.615  24.046  1.00  0.00    -0.205 F 
ATOM     66  C   UNL A   1      49.035  26.273  24.685  1.00  0.00     0.022 A 
BRANCH  64  67
ATOM     67  S   UNL A   1      48.521  27.440  22.262  1.00  0.00     0.127 S 
ATOM     68  O   UNL A   1      47.345  28.206  21.853  1.00  0.00    -0.237 OA
ATOM     69  O   UNL A   1      49.763  28.211  22.313  1.00  0.00    -0.237 OA
ATOM     70  O   UNL A   1      48.653  26.120  21.659  1.00  0.00    -0.744 OA
ENDBRANCH  64  67
ENDBRANCH  46  60
BRANCH  47  71
ATOM     71  C   UNL A   1      38.753  30.631  30.883  1.00  0.00     0.023 A 
ATOM     72  C   UNL A   1      38.692  30.435  32.276  1.00  0.00     0.012 A 
ATOM     73  C   UNL A   1      37.690  31.293  30.236  1.00  0.00     0.148 A 
ATOM     74  C   UNL A   1      37.585  30.867  33.008  1.00  0.00     0.002 A 
ATOM     75  C   UNL A   1      36.614  31.765  30.978  1.00  0.00     0.091 A 
ATOM     76  F   UNL A   1      37.754  31.448  28.905  1.00  0.00    -0.205 F 
ATOM     77  C   UNL A   1      36.552  31.540  32.362  1.00  0.00     0.022 A 
BRANCH  75  78
ATOM     78  S   UNL A   1      35.301  32.746  30.239  1.00  0.00     0.127 S 
ATOM     79  O   UNL A   1      34.791  31.841  29.214  1.00  0.00    -0.237 OA
ATOM     80  O   UNL A   1      34.403  32.960  31.375  1.00  0.00    -0.237 OA
ATOM     81  O   UNL A   1      35.950  33.957  29.755  1.00  0.00    -0.744 OA
ENDBRANCH  75  78
ENDBRANCH  47  71
BRANCH  59  82
ATOM     82  C   UNL A   1      44.875  33.554  29.221  1.00  0.00     0.023 A 
ATOM     83  C   UNL A   1      45.624  33.732  30.401  1.00  0.00     0.012 A 
ATOM     84  C   UNL A   1      44.780  34.613  28.296  1.00  0.00     0.148 A 
ATOM     85  C   UNL A   1      46.247  34.949  30.669  1.00  0.00     0.002 A 
ATOM     86  C   UNL A   1      45.439  35.810  28.550  1.00  0.00     0.091 A 
ATOM     87  F   UNL A   1      44.047  34.432  27.187  1.00  0.00    -0.205 F 
ATOM     88  C   UNL A   1      46.166  35.984  29.739  1.00  0.00     0.022 A 
BRANCH  86  89
ATOM     89  S   UNL A   1      45.463  37.161  27.365  1.00  0.00     0.127 S 
ATOM     90  O   UNL A   1      46.120  36.540  26.216  1.00  0.00    -0.237 OA
ATOM     91  O   UNL A   1      44.038  37.437  27.174  1.00  0.00    -0.237 OA
ATOM     92  O   UNL A   1      46.202  38.240  28.006  1.00  0.00    -0.744 OA
ENDBRANCH  86  89
ENDBRANCH  59  82
ENDBRANCH  33  34
ENDBRANCH  26  28
ENDBRANCH  25  26
ENDBRANCH  24  25
ENDBRANCH   1  24
TORSDOF 19
ENDMDL
