MODEL 1
REMARK VINA RESULT:     -11.2      0.000      0.000
REMARK SMILES Cc1nc(C)c(C(=O)N[C@@H](Cc2ccccc2)C(=O)OCCOCCOC(=O)c2ccc(-c3c4nc(c(-c5cccc(S(=O)(=O)[O-])c5F)c5ccc([nH]5)c(-c5cccc(S(=O)(=O)[O-])c5F)c5nc(c(-c6cccc(S(=O)(=O)[O-])c6F)c6ccc3[nH]6)C=C5)C=C4)cc2)s1
REMARK SMILES IDX 24 1 23 2 22 3 21 4 20 5 18 6 19 7 10 8 9 9 7 10 8 11 6 13
REMARK SMILES IDX 1 14 2 15 3 16 92 17 4 18 5 19 11 20 12 21 13 22 17 23 14 24
REMARK SMILES IDX 16 25 15 26 25 27 26 28 27 29 28 30 29 31 30 32 91 33 31 34
REMARK SMILES IDX 90 35 32 36 33 37 34 38 84 39 35 40 89 41 83 42 85 43 36 44
REMARK SMILES IDX 88 45 82 46 81 47 37 49 69 50 49 51 68 52 50 53 53 54 67 55
REMARK SMILES IDX 86 56 51 57 52 58 66 60 87 61 54 62 38 63 39 64 47 65 40 66
REMARK SMILES IDX 42 67 48 68 41 69 43 70 44 71 45 72 46 73 70 74 71 75 79 76
REMARK SMILES IDX 72 77 74 78 80 79 73 80 75 81 76 82 77 83 78 84 55 85 56 86
REMARK SMILES IDX 64 87 57 88 59 89 65 90 58 91 60 92 61 93 62 94 63 95
REMARK H PARENT 9 12 85 48 53 59
REMARK Flexibility Score: inf
ROOT
ATOM      1  C   UNL A   1      31.312  31.017  26.598  1.00  0.00     0.202 C 
ENDROOT
BRANCH   1   2
ATOM      2  O   UNL A   1      32.504  30.268  26.359  1.00  0.00    -0.374 OA
BRANCH   2   3
ATOM      3  C   UNL A   1      32.698  29.079  27.124  1.00  0.00     0.202 C 
BRANCH   3   4
ATOM      4  C   UNL A   1      33.015  27.801  26.341  1.00  0.00     0.261 C 
BRANCH   4   5
ATOM      5  O   UNL A   1      32.204  27.679  25.162  1.00  0.00    -0.462 OA
BRANCH   5   6
ATOM      6  C   UNL A   1      32.834  27.895  23.973  1.00  0.00     0.329 C 
ATOM      7  O   UNL A   1      33.995  28.268  23.850  1.00  0.00    -0.250 OA
BRANCH   6   8
ATOM      8  C   UNL A   1      31.885  27.726  22.774  1.00  0.00     0.197 C 
BRANCH   8   9
ATOM      9  N   UNL A   1      32.356  26.755  21.774  1.00  0.00    -0.338 N 
ATOM     10  C   UNL A   1      32.598  25.401  21.794  1.00  0.00     0.263 C 
ATOM     11  O   UNL A   1      32.995  24.933  20.723  1.00  0.00    -0.268 OA
ATOM     12  H   UNL A   1      32.539  27.164  20.897  1.00  0.00     0.164 HD
BRANCH  10  13
ATOM     13  C   UNL A   1      32.426  24.556  22.969  1.00  0.00     0.115 A 
ATOM     14  C   UNL A   1      30.847  22.513  25.887  1.00  0.00     0.079 C 
ATOM     15  C   UNL A   1      31.654  23.184  24.833  1.00  0.00     0.091 A 
ATOM     16  N   UNL A   1      32.965  23.201  24.815  1.00  0.00    -0.246 NA
ATOM     17  S   UNL A   1      30.906  23.976  23.520  1.00  0.00    -0.113 S 
ATOM     18  C   UNL A   1      33.422  23.942  23.729  1.00  0.00     0.061 A 
ATOM     19  C   UNL A   1      34.900  23.978  23.542  1.00  0.00     0.068 C 
ENDBRANCH  10  13
ENDBRANCH   8   9
BRANCH   8  20
ATOM     20  C   UNL A   1      30.475  27.393  23.293  1.00  0.00     0.072 C 
BRANCH  20  21
ATOM     21  C   UNL A   1      29.499  28.544  23.265  1.00  0.00    -0.045 A 
ATOM     22  C   UNL A   1      29.936  29.853  23.504  1.00  0.00     0.004 A 
ATOM     23  C   UNL A   1      28.140  28.319  22.994  1.00  0.00     0.004 A 
ATOM     24  C   UNL A   1      29.031  30.915  23.475  1.00  0.00     0.000 A 
ATOM     25  C   UNL A   1      27.239  29.384  22.964  1.00  0.00     0.000 A 
ATOM     26  C   UNL A   1      27.685  30.680  23.207  1.00  0.00     0.000 A 
ENDBRANCH  20  21
ENDBRANCH   8  20
ENDBRANCH   6   8
ENDBRANCH   5   6
ENDBRANCH   4   5
ENDBRANCH   3   4
ENDBRANCH   2   3
ENDBRANCH   1   2
BRANCH   1  27
ATOM     27  C   UNL A   1      31.459  32.516  26.892  1.00  0.00     0.261 C 
BRANCH  27  28
ATOM     28  O   UNL A   1      32.796  33.010  26.688  1.00  0.00    -0.460 OA
BRANCH  28  29
ATOM     29  C   UNL A   1      33.382  33.523  27.797  1.00  0.00     0.338 C 
ATOM     30  O   UNL A   1      32.914  34.361  28.558  1.00  0.00    -0.246 OA
BRANCH  29  31
ATOM     31  C   UNL A   1      34.637  32.817  28.104  1.00  0.00     0.060 A 
ATOM     32  C   UNL A   1      34.540  31.513  28.608  1.00  0.00     0.016 A 
ATOM     33  C   UNL A   1      35.875  33.457  28.028  1.00  0.00     0.016 A 
ATOM     34  C   UNL A   1      35.676  30.863  29.088  1.00  0.00     0.010 A 
ATOM     35  C   UNL A   1      37.014  32.805  28.518  1.00  0.00     0.010 A 
ATOM     36  C   UNL A   1      36.913  31.521  29.085  1.00  0.00    -0.014 A 
BRANCH  36  37
ATOM     37  C   UNL A   1      38.067  30.912  29.793  1.00  0.00     0.031 A 
ATOM     38  C   UNL A   1      38.369  31.328  31.208  1.00  0.00     0.074 A 
ATOM     39  C   UNL A   1      38.830  29.984  29.187  1.00  0.00     0.049 A 
ATOM     40  N   UNL A   1      39.324  30.921  32.004  1.00  0.00    -0.248 NA
ATOM     41  C   UNL A   1      37.478  32.337  31.805  1.00  0.00     0.031 C 
ATOM     42  C   UNL A   1      38.637  29.496  27.822  1.00  0.00     0.029 A 
ATOM     43  N   UNL A   1      39.933  29.304  29.638  1.00  0.00    -0.354 N 
ATOM     44  C   UNL A   1      39.164  31.636  33.185  1.00  0.00     0.074 A 
ATOM     45  C   UNL A   1      38.028  32.513  32.997  1.00  0.00     0.031 C 
ATOM     46  C   UNL A   1      39.608  28.610  27.537  1.00  0.00     0.029 A 
ATOM     47  C   UNL A   1      40.499  28.485  28.690  1.00  0.00     0.049 A 
ATOM     48  H   UNL A   1      40.285  29.393  30.552  1.00  0.00     0.167 HD
ATOM     49  C   UNL A   1      39.886  31.559  34.328  1.00  0.00     0.034 A 
ATOM     50  C   UNL A   1      41.618  27.734  28.740  1.00  0.00     0.034 A 
ATOM     51  C   UNL A   1      41.001  30.671  34.525  1.00  0.00     0.049 A 
ATOM     52  C   UNL A   1      42.416  27.683  30.018  1.00  0.00     0.074 A 
ATOM     53  C   UNL A   1      41.763  30.487  35.665  1.00  0.00     0.029 A 
ATOM     54  N   UNL A   1      41.522  29.829  33.555  1.00  0.00    -0.354 N 
ATOM     55  N   UNL A   1      42.176  28.267  31.167  1.00  0.00    -0.248 NA
ATOM     56  C   UNL A   1      43.624  26.844  30.015  1.00  0.00     0.031 C 
ATOM     57  C   UNL A   1      42.758  29.546  35.378  1.00  0.00     0.029 A 
ATOM     58  C   UNL A   1      42.603  29.131  34.065  1.00  0.00     0.049 A 
ATOM     59  H   UNL A   1      41.174  29.740  32.639  1.00  0.00     0.167 HD
ATOM     60  C   UNL A   1      43.179  27.841  32.030  1.00  0.00     0.074 A 
ATOM     61  C   UNL A   1      44.019  26.932  31.278  1.00  0.00     0.031 C 
ATOM     62  C   UNL A   1      43.396  28.185  33.324  1.00  0.00     0.034 A 
BRANCH  49  63
ATOM     63  C   UNL A   1      39.467  32.433  35.481  1.00  0.00     0.023 A 
ATOM     64  C   UNL A   1      38.632  31.903  36.484  1.00  0.00     0.012 A 
ATOM     65  C   UNL A   1      39.948  33.751  35.604  1.00  0.00     0.148 A 
ATOM     66  C   UNL A   1      38.259  32.680  37.581  1.00  0.00     0.002 A 
ATOM     67  C   UNL A   1      39.604  34.506  36.721  1.00  0.00     0.091 A 
ATOM     68  F   UNL A   1      40.723  34.243  34.628  1.00  0.00    -0.205 F 
ATOM     69  C   UNL A   1      38.753  33.976  37.704  1.00  0.00     0.022 A 
BRANCH  67  70
ATOM     70  S   UNL A   1      40.247  36.160  37.005  1.00  0.00     0.127 S 
ATOM     71  O   UNL A   1      41.680  35.900  37.138  1.00  0.00    -0.237 OA
ATOM     72  O   UNL A   1      39.866  36.855  35.776  1.00  0.00    -0.237 OA
ATOM     73  O   UNL A   1      39.585  36.645  38.207  1.00  0.00    -0.744 OA
ENDBRANCH  67  70
ENDBRANCH  49  63
BRANCH  50  74
ATOM     74  C   UNL A   1      42.032  26.937  27.552  1.00  0.00     0.023 A 
ATOM     75  C   UNL A   1      42.687  27.573  26.481  1.00  0.00     0.012 A 
ATOM     76  C   UNL A   1      41.796  25.550  27.486  1.00  0.00     0.148 A 
ATOM     77  C   UNL A   1      43.074  26.848  25.353  1.00  0.00     0.002 A 
ATOM     78  C   UNL A   1      42.236  24.824  26.386  1.00  0.00     0.091 A 
ATOM     79  F   UNL A   1      41.149  24.966  28.505  1.00  0.00    -0.205 F 
ATOM     80  C   UNL A   1      42.859  25.473  25.310  1.00  0.00     0.022 A 
BRANCH  78  81
ATOM     81  S   UNL A   1      42.123  23.032  26.320  1.00  0.00     0.127 S 
ATOM     82  O   UNL A   1      40.679  22.820  26.382  1.00  0.00    -0.237 OA
ATOM     83  O   UNL A   1      42.737  22.735  25.025  1.00  0.00    -0.237 OA
ATOM     84  O   UNL A   1      42.889  22.556  27.465  1.00  0.00    -0.744 OA
ENDBRANCH  78  81
ENDBRANCH  50  74
BRANCH  62  85
ATOM     85  C   UNL A   1      44.574  27.560  34.028  1.00  0.00     0.023 A 
ATOM     86  C   UNL A   1      45.773  28.286  34.158  1.00  0.00     0.012 A 
ATOM     87  C   UNL A   1      44.465  26.289  34.627  1.00  0.00     0.148 A 
ATOM     88  C   UNL A   1      46.858  27.746  34.849  1.00  0.00     0.002 A 
ATOM     89  C   UNL A   1      45.536  25.776  35.353  1.00  0.00     0.091 A 
ATOM     90  F   UNL A   1      43.322  25.605  34.476  1.00  0.00    -0.205 F 
ATOM     91  C   UNL A   1      46.735  26.499  35.456  1.00  0.00     0.022 A 
BRANCH  89  92
ATOM     92  S   UNL A   1      45.433  24.219  36.243  1.00  0.00     0.127 S 
ATOM     93  O   UNL A   1      46.677  24.232  37.010  1.00  0.00    -0.237 OA
ATOM     94  O   UNL A   1      44.221  24.395  37.043  1.00  0.00    -0.237 OA
ATOM     95  O   UNL A   1      45.336  23.183  35.224  1.00  0.00    -0.744 OA
ENDBRANCH  89  92
ENDBRANCH  62  85
ENDBRANCH  36  37
ENDBRANCH  29  31
ENDBRANCH  28  29
ENDBRANCH  27  28
ENDBRANCH   1  27
TORSDOF 21
ENDMDL
MODEL 2
REMARK VINA RESULT:     -11.2      2.018      3.402
REMARK SMILES Cc1nc(C)c(C(=O)N[C@@H](Cc2ccccc2)C(=O)OCCOCCOC(=O)c2ccc(-c3c4nc(c(-c5cccc(S(=O)(=O)[O-])c5F)c5ccc([nH]5)c(-c5cccc(S(=O)(=O)[O-])c5F)c5nc(c(-c6cccc(S(=O)(=O)[O-])c6F)c6ccc3[nH]6)C=C5)C=C4)cc2)s1
REMARK SMILES IDX 24 1 23 2 22 3 21 4 20 5 18 6 19 7 10 8 9 9 7 10 8 11 6 13
REMARK SMILES IDX 1 14 2 15 3 16 92 17 4 18 5 19 11 20 12 21 13 22 17 23 14 24
REMARK SMILES IDX 16 25 15 26 25 27 26 28 27 29 28 30 29 31 30 32 91 33 31 34
REMARK SMILES IDX 90 35 32 36 33 37 34 38 84 39 35 40 89 41 83 42 85 43 36 44
REMARK SMILES IDX 88 45 82 46 81 47 37 49 69 50 49 51 68 52 50 53 53 54 67 55
REMARK SMILES IDX 86 56 51 57 52 58 66 60 87 61 54 62 38 63 39 64 47 65 40 66
REMARK SMILES IDX 42 67 48 68 41 69 43 70 44 71 45 72 46 73 70 74 71 75 79 76
REMARK SMILES IDX 72 77 74 78 80 79 73 80 75 81 76 82 77 83 78 84 55 85 56 86
REMARK SMILES IDX 64 87 57 88 59 89 65 90 58 91 60 92 61 93 62 94 63 95
REMARK H PARENT 9 12 85 48 53 59
REMARK Flexibility Score: inf
ROOT
ATOM      1  C   UNL A   1      31.180  31.817  26.478  1.00  0.00     0.202 C 
ENDROOT
BRANCH   1   2
ATOM      2  O   UNL A   1      31.703  30.549  26.876  1.00  0.00    -0.374 OA
BRANCH   2   3
ATOM      3  C   UNL A   1      32.704  29.961  26.047  1.00  0.00     0.202 C 
BRANCH   3   4
ATOM      4  C   UNL A   1      32.218  29.000  24.958  1.00  0.00     0.261 C 
BRANCH   4   5
ATOM      5  O   UNL A   1      33.151  27.933  24.728  1.00  0.00    -0.462 OA
BRANCH   5   6
ATOM      6  C   UNL A   1      33.685  27.351  25.839  1.00  0.00     0.329 C 
ATOM      7  O   UNL A   1      34.349  27.934  26.689  1.00  0.00    -0.250 OA
BRANCH   6   8
ATOM      8  C   UNL A   1      33.457  25.830  25.864  1.00  0.00     0.197 C 
BRANCH   8   9
ATOM      9  N   UNL A   1      32.097  25.437  26.266  1.00  0.00    -0.338 N 
ATOM     10  C   UNL A   1      31.432  24.236  26.346  1.00  0.00     0.263 C 
ATOM     11  O   UNL A   1      30.265  24.319  26.741  1.00  0.00    -0.268 OA
ATOM     12  H   UNL A   1      31.540  26.202  26.536  1.00  0.00     0.164 HD
BRANCH  10  13
ATOM     13  C   UNL A   1      32.017  22.950  25.987  1.00  0.00     0.115 A 
ATOM     14  C   UNL A   1      32.891  19.652  24.105  1.00  0.00     0.079 C 
ATOM     15  C   UNL A   1      32.744  20.858  24.964  1.00  0.00     0.091 A 
ATOM     16  N   UNL A   1      33.334  21.005  26.126  1.00  0.00    -0.246 NA
ATOM     17  S   UNL A   1      31.791  22.183  24.467  1.00  0.00    -0.113 S 
ATOM     18  C   UNL A   1      32.966  22.217  26.702  1.00  0.00     0.061 A 
ATOM     19  C   UNL A   1      33.628  22.551  27.995  1.00  0.00     0.068 C 
ENDBRANCH  10  13
ENDBRANCH   8   9
BRANCH   8  20
ATOM     20  C   UNL A   1      33.856  25.239  24.500  1.00  0.00     0.072 C 
BRANCH  20  21
ATOM     21  C   UNL A   1      35.031  24.292  24.537  1.00  0.00    -0.045 A 
ATOM     22  C   UNL A   1      35.889  24.266  25.644  1.00  0.00     0.004 A 
ATOM     23  C   UNL A   1      35.278  23.422  23.463  1.00  0.00     0.004 A 
ATOM     24  C   UNL A   1      36.973  23.388  25.674  1.00  0.00     0.000 A 
ATOM     25  C   UNL A   1      36.362  22.545  23.498  1.00  0.00     0.000 A 
ATOM     26  C   UNL A   1      37.209  22.529  24.603  1.00  0.00     0.000 A 
ENDBRANCH  20  21
ENDBRANCH   8  20
ENDBRANCH   6   8
ENDBRANCH   5   6
ENDBRANCH   4   5
ENDBRANCH   3   4
ENDBRANCH   2   3
ENDBRANCH   1   2
BRANCH   1  27
ATOM     27  C   UNL A   1      31.974  33.071  26.871  1.00  0.00     0.261 C 
BRANCH  27  28
ATOM     28  O   UNL A   1      32.859  32.861  27.987  1.00  0.00    -0.460 OA
BRANCH  28  29
ATOM     29  C   UNL A   1      33.951  33.663  27.999  1.00  0.00     0.338 C 
ATOM     30  O   UNL A   1      33.969  34.885  27.916  1.00  0.00    -0.246 OA
BRANCH  29  31
ATOM     31  C   UNL A   1      35.169  32.892  28.301  1.00  0.00     0.060 A 
ATOM     32  C   UNL A   1      35.006  31.575  28.750  1.00  0.00     0.016 A 
ATOM     33  C   UNL A   1      36.434  33.481  28.274  1.00  0.00     0.016 A 
ATOM     34  C   UNL A   1      36.104  30.859  29.225  1.00  0.00     0.010 A 
ATOM     35  C   UNL A   1      37.533  32.762  28.759  1.00  0.00     0.010 A 
ATOM     36  C   UNL A   1      37.367  31.463  29.272  1.00  0.00    -0.014 A 
BRANCH  36  37
ATOM     37  C   UNL A   1      38.479  30.777  29.976  1.00  0.00     0.031 A 
ATOM     38  C   UNL A   1      38.791  31.148  31.402  1.00  0.00     0.074 A 
ATOM     39  C   UNL A   1      39.197  29.822  29.357  1.00  0.00     0.049 A 
ATOM     40  N   UNL A   1      39.715  30.673  32.197  1.00  0.00    -0.248 NA
ATOM     41  C   UNL A   1      37.950  32.191  32.012  1.00  0.00     0.031 C 
ATOM     42  C   UNL A   1      38.991  29.373  27.980  1.00  0.00     0.029 A 
ATOM     43  N   UNL A   1      40.258  29.073  29.803  1.00  0.00    -0.354 N 
ATOM     44  C   UNL A   1      39.583  31.371  33.392  1.00  0.00     0.074 A 
ATOM     45  C   UNL A   1      38.498  32.312  33.213  1.00  0.00     0.031 C 
ATOM     46  C   UNL A   1      39.915  28.442  27.685  1.00  0.00     0.029 A 
ATOM     47  C   UNL A   1      40.788  28.245  28.842  1.00  0.00     0.049 A 
ATOM     48  H   UNL A   1      40.605  29.125  30.722  1.00  0.00     0.167 HD
ATOM     49  C   UNL A   1      40.289  31.231  34.539  1.00  0.00     0.034 A 
ATOM     50  C   UNL A   1      41.863  27.433  28.886  1.00  0.00     0.034 A 
ATOM     51  C   UNL A   1      41.352  30.280  34.726  1.00  0.00     0.049 A 
ATOM     52  C   UNL A   1      42.645  27.313  30.169  1.00  0.00     0.074 A 
ATOM     53  C   UNL A   1      42.092  30.032  35.868  1.00  0.00     0.029 A 
ATOM     54  N   UNL A   1      41.835  29.432  33.743  1.00  0.00    -0.354 N 
ATOM     55  N   UNL A   1      42.426  27.886  31.328  1.00  0.00    -0.248 NA
ATOM     56  C   UNL A   1      43.806  26.409  30.158  1.00  0.00     0.031 C 
ATOM     57  C   UNL A   1      43.037  29.044  35.569  1.00  0.00     0.029 A 
ATOM     58  C   UNL A   1      42.872  28.665  34.247  1.00  0.00     0.049 A 
ATOM     59  H   UNL A   1      41.492  29.380  32.822  1.00  0.00     0.167 HD
ATOM     60  C   UNL A   1      43.397  27.388  32.191  1.00  0.00     0.074 A 
ATOM     61  C   UNL A   1      44.193  26.450  31.426  1.00  0.00     0.031 C 
ATOM     62  C   UNL A   1      43.620  27.693  33.493  1.00  0.00     0.034 A 
BRANCH  49  63
ATOM     63  C   UNL A   1      39.907  32.103  35.706  1.00  0.00     0.023 A 
ATOM     64  C   UNL A   1      40.551  33.343  35.883  1.00  0.00     0.012 A 
ATOM     65  C   UNL A   1      38.872  31.727  36.584  1.00  0.00     0.148 A 
ATOM     66  C   UNL A   1      40.190  34.187  36.933  1.00  0.00     0.002 A 
ATOM     67  C   UNL A   1      38.491  32.592  37.605  1.00  0.00     0.091 A 
ATOM     68  F   UNL A   1      38.287  30.534  36.412  1.00  0.00    -0.205 F 
ATOM     69  C   UNL A   1      39.154  33.816  37.787  1.00  0.00     0.022 A 
BRANCH  67  70
ATOM     70  S   UNL A   1      37.121  32.235  38.713  1.00  0.00     0.127 S 
ATOM     71  O   UNL A   1      37.084  30.774  38.675  1.00  0.00    -0.237 OA
ATOM     72  O   UNL A   1      37.592  32.800  39.978  1.00  0.00    -0.237 OA
ATOM     73  O   UNL A   1      35.961  32.906  38.143  1.00  0.00    -0.744 OA
ENDBRANCH  67  70
ENDBRANCH  49  63
BRANCH  50  74
ATOM     74  C   UNL A   1      42.245  26.640  27.685  1.00  0.00     0.023 A 
ATOM     75  C   UNL A   1      43.000  27.244  26.662  1.00  0.00     0.012 A 
ATOM     76  C   UNL A   1      41.877  25.285  27.559  1.00  0.00     0.148 A 
ATOM     77  C   UNL A   1      43.360  26.522  25.523  1.00  0.00     0.002 A 
ATOM     78  C   UNL A   1      42.288  24.557  26.449  1.00  0.00     0.091 A 
ATOM     79  F   UNL A   1      41.137  24.734  28.531  1.00  0.00    -0.205 F 
ATOM     80  C   UNL A   1      43.014  25.177  25.421  1.00  0.00     0.022 A 
BRANCH  78  81
ATOM     81  S   UNL A   1      42.004  22.788  26.313  1.00  0.00     0.127 S 
ATOM     82  O   UNL A   1      42.691  22.282  27.498  1.00  0.00    -0.237 OA
ATOM     83  O   UNL A   1      40.544  22.709  26.364  1.00  0.00    -0.237 OA
ATOM     84  O   UNL A   1      42.577  22.404  25.029  1.00  0.00    -0.744 OA
ENDBRANCH  78  81
ENDBRANCH  50  74
BRANCH  62  85
ATOM     85  C   UNL A   1      44.755  26.991  34.193  1.00  0.00     0.023 A 
ATOM     86  C   UNL A   1      46.049  27.545  34.152  1.00  0.00     0.012 A 
ATOM     87  C   UNL A   1      44.525  25.828  34.955  1.00  0.00     0.148 A 
ATOM     88  C   UNL A   1      47.103  26.938  34.834  1.00  0.00     0.002 A 
ATOM     89  C   UNL A   1      45.571  25.253  35.670  1.00  0.00     0.091 A 
ATOM     90  F   UNL A   1      43.291  25.303  34.967  1.00  0.00    -0.205 F 
ATOM     91  C   UNL A   1      46.862  25.801  35.602  1.00  0.00     0.022 A 
BRANCH  89  92
ATOM     92  S   UNL A   1      45.331  23.842  36.757  1.00  0.00     0.127 S 
ATOM     93  O   UNL A   1      46.665  23.677  37.329  1.00  0.00    -0.237 OA
ATOM     94  O   UNL A   1      44.322  24.337  37.693  1.00  0.00    -0.237 OA
ATOM     95  O   UNL A   1      44.877  22.754  35.902  1.00  0.00    -0.744 OA
ENDBRANCH  89  92
ENDBRANCH  62  85
ENDBRANCH  36  37
ENDBRANCH  29  31
ENDBRANCH  28  29
ENDBRANCH  27  28
ENDBRANCH   1  27
TORSDOF 21
ENDMDL
MODEL 3
REMARK VINA RESULT:     -11.2      4.792     10.109
REMARK SMILES Cc1nc(C)c(C(=O)N[C@@H](Cc2ccccc2)C(=O)OCCOCCOC(=O)c2ccc(-c3c4nc(c(-c5cccc(S(=O)(=O)[O-])c5F)c5ccc([nH]5)c(-c5cccc(S(=O)(=O)[O-])c5F)c5nc(c(-c6cccc(S(=O)(=O)[O-])c6F)c6ccc3[nH]6)C=C5)C=C4)cc2)s1
REMARK SMILES IDX 24 1 23 2 22 3 21 4 20 5 18 6 19 7 10 8 9 9 7 10 8 11 6 13
REMARK SMILES IDX 1 14 2 15 3 16 92 17 4 18 5 19 11 20 12 21 13 22 17 23 14 24
REMARK SMILES IDX 16 25 15 26 25 27 26 28 27 29 28 30 29 31 30 32 91 33 31 34
REMARK SMILES IDX 90 35 32 36 33 37 34 38 84 39 35 40 89 41 83 42 85 43 36 44
REMARK SMILES IDX 88 45 82 46 81 47 37 49 69 50 49 51 68 52 50 53 53 54 67 55
REMARK SMILES IDX 86 56 51 57 52 58 66 60 87 61 54 62 38 63 39 64 47 65 40 66
REMARK SMILES IDX 42 67 48 68 41 69 43 70 44 71 45 72 46 73 70 74 71 75 79 76
REMARK SMILES IDX 72 77 74 78 80 79 73 80 75 81 76 82 77 83 78 84 55 85 56 86
REMARK SMILES IDX 64 87 57 88 59 89 65 90 58 91 60 92 61 93 62 94 63 95
REMARK H PARENT 9 12 85 48 53 59
REMARK Flexibility Score: inf
ROOT
ATOM      1  C   UNL A   1      36.978  21.116  24.614  1.00  0.00     0.202 C 
ENDROOT
BRANCH   1   2
ATOM      2  O   UNL A   1      35.655  20.906  25.110  1.00  0.00    -0.374 OA
BRANCH   2   3
ATOM      3  C   UNL A   1      34.621  21.747  24.600  1.00  0.00     0.202 C 
BRANCH   3   4
ATOM      4  C   UNL A   1      33.640  22.328  25.623  1.00  0.00     0.261 C 
BRANCH   4   5
ATOM      5  O   UNL A   1      34.176  23.484  26.285  1.00  0.00    -0.462 OA
BRANCH   5   6
ATOM      6  C   UNL A   1      34.980  24.288  25.534  1.00  0.00     0.329 C 
ATOM      7  O   UNL A   1      36.205  24.229  25.506  1.00  0.00    -0.250 OA
BRANCH   6   8
ATOM      8  C   UNL A   1      34.185  25.376  24.792  1.00  0.00     0.197 C 
BRANCH   8   9
ATOM      9  N   UNL A   1      33.900  25.051  23.385  1.00  0.00    -0.338 N 
ATOM     10  C   UNL A   1      33.142  25.642  22.402  1.00  0.00     0.263 C 
ATOM     11  O   UNL A   1      33.156  25.052  21.317  1.00  0.00    -0.268 OA
ATOM     12  H   UNL A   1      34.350  24.230  23.082  1.00  0.00     0.164 HD
BRANCH  10  13
ATOM     13  C   UNL A   1      32.359  26.856  22.590  1.00  0.00     0.115 A 
ATOM     14  C   UNL A   1      29.393  29.336  23.082  1.00  0.00     0.079 C 
ATOM     15  C   UNL A   1      30.665  28.576  22.948  1.00  0.00     0.091 A 
ATOM     16  N   UNL A   1      31.847  29.138  22.855  1.00  0.00    -0.246 NA
ATOM     17  S   UNL A   1      30.675  26.870  22.932  1.00  0.00    -0.113 S 
ATOM     18  C   UNL A   1      32.830  28.166  22.697  1.00  0.00     0.061 A 
ATOM     19  C   UNL A   1      34.235  28.662  22.658  1.00  0.00     0.068 C 
ENDBRANCH  10  13
ENDBRANCH   8   9
BRANCH   8  20
ATOM     20  C   UNL A   1      32.907  25.695  25.588  1.00  0.00     0.072 C 
BRANCH  20  21
ATOM     21  C   UNL A   1      32.859  27.081  26.184  1.00  0.00    -0.045 A 
ATOM     22  C   UNL A   1      31.654  27.604  26.672  1.00  0.00     0.004 A 
ATOM     23  C   UNL A   1      34.021  27.863  26.262  1.00  0.00     0.004 A 
ATOM     24  C   UNL A   1      31.614  28.885  27.224  1.00  0.00     0.000 A 
ATOM     25  C   UNL A   1      33.978  29.142  26.816  1.00  0.00     0.000 A 
ATOM     26  C   UNL A   1      32.774  29.653  27.295  1.00  0.00     0.000 A 
ENDBRANCH  20  21
ENDBRANCH   8  20
ENDBRANCH   6   8
ENDBRANCH   5   6
ENDBRANCH   4   5
ENDBRANCH   3   4
ENDBRANCH   2   3
ENDBRANCH   1   2
BRANCH   1  27
ATOM     27  C   UNL A   1      38.135  20.436  25.360  1.00  0.00     0.261 C 
BRANCH  27  28
ATOM     28  O   UNL A   1      39.315  21.256  25.452  1.00  0.00    -0.460 OA
BRANCH  28  29
ATOM     29  C   UNL A   1      40.013  21.111  26.605  1.00  0.00     0.338 C 
ATOM     30  O   UNL A   1      40.496  20.076  27.049  1.00  0.00    -0.246 OA
BRANCH  29  31
ATOM     31  C   UNL A   1      40.288  22.419  27.223  1.00  0.00     0.060 A 
ATOM     32  C   UNL A   1      39.553  23.520  26.764  1.00  0.00     0.016 A 
ATOM     33  C   UNL A   1      41.330  22.592  28.136  1.00  0.00     0.016 A 
ATOM     34  C   UNL A   1      39.894  24.807  27.175  1.00  0.00     0.010 A 
ATOM     35  C   UNL A   1      41.674  23.888  28.542  1.00  0.00     0.010 A 
ATOM     36  C   UNL A   1      40.983  25.003  28.034  1.00  0.00    -0.014 A 
BRANCH  36  37
ATOM     37  C   UNL A   1      41.472  26.380  28.292  1.00  0.00     0.031 A 
ATOM     38  C   UNL A   1      42.875  26.754  27.892  1.00  0.00     0.074 A 
ATOM     39  C   UNL A   1      40.669  27.296  28.865  1.00  0.00     0.049 A 
ATOM     40  N   UNL A   1      43.496  27.897  28.025  1.00  0.00    -0.248 NA
ATOM     41  C   UNL A   1      43.683  25.699  27.258  1.00  0.00     0.031 C 
ATOM     42  C   UNL A   1      39.292  27.058  29.294  1.00  0.00     0.029 A 
ATOM     43  N   UNL A   1      40.908  28.606  29.201  1.00  0.00    -0.354 N 
ATOM     44  C   UNL A   1      44.773  27.697  27.513  1.00  0.00     0.074 A 
ATOM     45  C   UNL A   1      44.842  26.318  27.079  1.00  0.00     0.031 C 
ATOM     46  C   UNL A   1      38.814  28.179  29.861  1.00  0.00     0.029 A 
ATOM     47  C   UNL A   1      39.856  29.206  29.852  1.00  0.00     0.049 A 
ATOM     48  H   UNL A   1      41.750  29.070  28.994  1.00  0.00     0.167 HD
ATOM     49  C   UNL A   1      45.790  28.583  27.399  1.00  0.00     0.034 A 
ATOM     50  C   UNL A   1      39.753  30.435  30.395  1.00  0.00     0.034 A 
ATOM     51  C   UNL A   1      45.716  29.960  27.809  1.00  0.00     0.049 A 
ATOM     52  C   UNL A   1      40.908  31.395  30.274  1.00  0.00     0.074 A 
ATOM     53  C   UNL A   1      46.679  30.946  27.688  1.00  0.00     0.029 A 
ATOM     54  N   UNL A   1      44.622  30.542  28.430  1.00  0.00    -0.354 N 
ATOM     55  N   UNL A   1      42.062  31.230  29.672  1.00  0.00    -0.248 NA
ATOM     56  C   UNL A   1      40.737  32.725  30.881  1.00  0.00     0.031 C 
ATOM     57  C   UNL A   1      46.173  32.122  28.254  1.00  0.00     0.029 A 
ATOM     58  C   UNL A   1      44.888  31.871  28.710  1.00  0.00     0.049 A 
ATOM     59  H   UNL A   1      43.780  30.079  28.641  1.00  0.00     0.167 HD
ATOM     60  C   UNL A   1      42.737  32.439  29.797  1.00  0.00     0.074 A 
ATOM     61  C   UNL A   1      41.855  33.337  30.515  1.00  0.00     0.031 C 
ATOM     62  C   UNL A   1      43.982  32.771  29.373  1.00  0.00     0.034 A 
BRANCH  49  63
ATOM     63  C   UNL A   1      47.069  28.102  26.765  1.00  0.00     0.023 A 
ATOM     64  C   UNL A   1      48.138  27.693  27.588  1.00  0.00     0.012 A 
ATOM     65  C   UNL A   1      47.190  27.994  25.367  1.00  0.00     0.148 A 
ATOM     66  C   UNL A   1      49.319  27.208  27.028  1.00  0.00     0.002 A 
ATOM     67  C   UNL A   1      48.357  27.472  24.817  1.00  0.00     0.091 A 
ATOM     68  F   UNL A   1      46.171  28.409  24.602  1.00  0.00    -0.205 F 
ATOM     69  C   UNL A   1      49.424  27.088  25.644  1.00  0.00     0.022 A 
BRANCH  67  70
ATOM     70  S   UNL A   1      48.561  27.213  23.050  1.00  0.00     0.127 S 
ATOM     71  O   UNL A   1      47.590  28.157  22.499  1.00  0.00    -0.237 OA
ATOM     72  O   UNL A   1      49.960  27.586  22.843  1.00  0.00    -0.237 OA
ATOM     73  O   UNL A   1      48.267  25.805  22.816  1.00  0.00    -0.744 OA
ENDBRANCH  67  70
ENDBRANCH  49  63
BRANCH  50  74
ATOM     74  C   UNL A   1      38.492  30.845  31.072  1.00  0.00     0.023 A 
ATOM     75  C   UNL A   1      38.330  30.601  32.449  1.00  0.00     0.012 A 
ATOM     76  C   UNL A   1      37.459  31.490  30.363  1.00  0.00     0.148 A 
ATOM     77  C   UNL A   1      37.151  30.967  33.102  1.00  0.00     0.002 A 
ATOM     78  C   UNL A   1      36.314  31.903  31.031  1.00  0.00     0.091 A 
ATOM     79  F   UNL A   1      37.621  31.692  29.047  1.00  0.00    -0.205 F 
ATOM     80  C   UNL A   1      36.149  31.628  32.397  1.00  0.00     0.022 A 
BRANCH  78  81
ATOM     81  S   UNL A   1      35.042  32.884  30.225  1.00  0.00     0.127 S 
ATOM     82  O   UNL A   1      34.130  33.160  31.331  1.00  0.00    -0.237 OA
ATOM     83  O   UNL A   1      35.804  34.039  29.748  1.00  0.00    -0.237 OA
ATOM     84  O   UNL A   1      34.519  32.036  29.160  1.00  0.00    -0.744 OA
ENDBRANCH  78  81
ENDBRANCH  50  74
BRANCH  62  85
ATOM     85  C   UNL A   1      44.464  34.173  29.646  1.00  0.00     0.023 A 
ATOM     86  C   UNL A   1      45.098  34.466  30.869  1.00  0.00     0.012 A 
ATOM     87  C   UNL A   1      44.362  35.176  28.661  1.00  0.00     0.148 A 
ATOM     88  C   UNL A   1      45.596  35.744  31.121  1.00  0.00     0.002 A 
ATOM     89  C   UNL A   1      44.902  36.436  28.902  1.00  0.00     0.091 A 
ATOM     90  F   UNL A   1      43.739  34.884  27.511  1.00  0.00    -0.205 F 
ATOM     91  C   UNL A   1      45.510  36.723  30.134  1.00  0.00     0.022 A 
BRANCH  89  92
ATOM     92  S   UNL A   1      44.916  37.729  27.654  1.00  0.00     0.127 S 
ATOM     93  O   UNL A   1      43.489  37.986  27.476  1.00  0.00    -0.237 OA
ATOM     94  O   UNL A   1      45.651  38.802  28.325  1.00  0.00    -0.237 OA
ATOM     95  O   UNL A   1      45.600  37.161  26.500  1.00  0.00    -0.744 OA
ENDBRANCH  89  92
ENDBRANCH  62  85
ENDBRANCH  36  37
ENDBRANCH  29  31
ENDBRANCH  28  29
ENDBRANCH  27  28
ENDBRANCH   1  27
TORSDOF 21
ENDMDL
