MODEL 1
REMARK VINA RESULT:     -11.8      0.000      0.000
REMARK SMILES Cc1cccc(CNC(=O)N[C@@H](CC2=c3ccccc3=NC2)C(=O)OCCOCCOC(=O)c2ccc(-c3c4nc(c(-c5cccc(S(=O)(=O)[O-])c5F)c5ccc([nH]5)c(-c5cccc(S(=O)(=O)[O-])c5F)c5nc(c(-c6cccc(S(=O)(=O)[O-])c6F)c6ccc3[nH]6)C=C5)C=C4)cc2)c1
REMARK SMILES IDX 28 1 27 2 26 3 25 4 23 5 24 6 12 7 11 8 8 9 9 10 10 12 7 14
REMARK SMILES IDX 6 15 1 16 2 17 3 18 97 19 4 20 5 21 13 22 14 23 15 24 22 25
REMARK SMILES IDX 16 26 20 27 21 28 17 29 19 30 18 31 29 32 30 33 31 34 32 35
REMARK SMILES IDX 33 36 34 37 35 38 96 39 36 40 95 41 37 42 38 43 39 44 89 45
REMARK SMILES IDX 40 46 94 47 88 48 90 49 41 50 93 51 87 52 86 53 42 55 74 56
REMARK SMILES IDX 54 57 73 58 55 59 58 60 72 61 91 62 56 63 57 64 71 66 92 67
REMARK SMILES IDX 59 68 43 69 44 70 52 71 45 72 47 73 53 74 46 75 48 76 49 77
REMARK SMILES IDX 50 78 51 79 75 80 76 81 84 82 77 83 79 84 85 85 78 86 80 87
REMARK SMILES IDX 81 88 82 89 83 90 60 91 61 92 69 93 62 94 64 95 70 96 63 97
REMARK SMILES IDX 65 98 66 99 67 100 68 101
REMARK H PARENT 8 11 11 13 90 54 58 65
REMARK Flexibility Score: inf
ROOT
ATOM      1  O   UNL A   1      37.597  20.200  24.814  1.00  0.00    -0.374 OA
ENDROOT
BRANCH   1   2
ATOM      2  C   UNL A   1      36.926  21.412  25.078  1.00  0.00     0.202 C 
BRANCH   2   3
ATOM      3  C   UNL A   1      36.739  22.393  23.943  1.00  0.00     0.261 C 
BRANCH   3   4
ATOM      4  O   UNL A   1      35.423  22.903  23.953  1.00  0.00    -0.462 OA
BRANCH   4   5
ATOM      5  C   UNL A   1      35.286  24.092  24.568  1.00  0.00     0.329 C 
ATOM      6  O   UNL A   1      35.910  24.472  25.550  1.00  0.00    -0.250 OA
BRANCH   5   7
ATOM      7  C   UNL A   1      34.158  24.901  23.930  1.00  0.00     0.198 C 
BRANCH   7   8
ATOM      8  N   UNL A   1      33.832  24.614  22.532  1.00  0.00    -0.324 N 
ATOM      9  N   UNL A   1      32.712  26.455  21.574  1.00  0.00    -0.334 N 
ATOM     10  C   UNL A   1      33.231  25.232  21.522  1.00  0.00     0.315 C 
ATOM     11  H   UNL A   1      32.320  26.752  20.722  1.00  0.00     0.165 HD
ATOM     12  O   UNL A   1      33.159  24.616  20.455  1.00  0.00    -0.249 OA
ATOM     13  H   UNL A   1      34.144  23.718  22.268  1.00  0.00     0.166 HD
BRANCH   9  14
ATOM     14  C   UNL A   1      32.607  27.432  22.625  1.00  0.00     0.153 C 
BRANCH  14  15
ATOM     15  C   UNL A   1      31.203  27.898  22.916  1.00  0.00    -0.028 A 
ATOM     16  C   UNL A   1      29.097  30.924  21.968  1.00  0.00     0.044 C 
ATOM     17  C   UNL A   1      29.483  29.564  22.463  1.00  0.00    -0.051 A 
ATOM     18  C   UNL A   1      28.507  28.685  22.942  1.00  0.00     0.003 A 
ATOM     19  C   UNL A   1      30.820  29.155  22.433  1.00  0.00     0.009 A 
ATOM     20  C   UNL A   1      28.877  27.446  23.458  1.00  0.00     0.001 A 
ATOM     21  C   UNL A   1      30.222  27.072  23.474  1.00  0.00     0.005 A 
ENDBRANCH  14  15
ENDBRANCH   9  14
ENDBRANCH   7   8
BRANCH   7  22
ATOM     22  C   UNL A   1      32.896  24.716  24.803  1.00  0.00     0.070 C 
BRANCH  22  23
ATOM     23  C   UNL A   1      32.469  25.752  25.825  1.00  0.00    -0.037 C 
ATOM     24  C   UNL A   1      32.943  26.933  26.235  1.00  0.00     0.001 A 
ATOM     25  C   UNL A   1      31.144  25.481  26.500  1.00  0.00     0.174 C 
ATOM     26  C   UNL A   1      34.105  27.763  26.125  1.00  0.00     0.010 A 
ATOM     27  C   UNL A   1      31.718  27.527  26.782  1.00  0.00     0.065 A 
ATOM     28  N   UNL A   1      30.712  26.765  27.074  1.00  0.00    -0.280 NA
ATOM     29  C   UNL A   1      34.005  29.104  26.194  1.00  0.00     0.001 A 
ATOM     30  C   UNL A   1      31.693  28.992  26.773  1.00  0.00     0.028 A 
ATOM     31  C   UNL A   1      32.733  29.731  26.382  1.00  0.00     0.002 A 
ENDBRANCH  22  23
ENDBRANCH   7  22
ENDBRANCH   5   7
ENDBRANCH   4   5
ENDBRANCH   3   4
ENDBRANCH   2   3
ENDBRANCH   1   2
BRANCH   1  32
ATOM     32  C   UNL A   1      38.947  20.260  25.246  1.00  0.00     0.202 C 
BRANCH  32  33
ATOM     33  C   UNL A   1      39.303  21.308  26.306  1.00  0.00     0.261 C 
BRANCH  33  34
ATOM     34  O   UNL A   1      40.418  22.291  26.282  1.00  0.00    -0.460 OA
BRANCH  34  35
ATOM     35  C   UNL A   1      41.125  23.428  26.287  1.00  0.00     0.338 C 
ATOM     36  O   UNL A   1      42.337  23.371  26.093  1.00  0.00    -0.246 OA
BRANCH  35  37
ATOM     37  C   UNL A   1      40.526  24.749  26.567  1.00  0.00     0.060 A 
ATOM     38  C   UNL A   1      40.986  25.867  25.860  1.00  0.00     0.016 A 
ATOM     39  C   UNL A   1      39.592  24.943  27.559  1.00  0.00     0.016 A 
ATOM     40  C   UNL A   1      40.871  27.151  26.401  1.00  0.00     0.010 A 
ATOM     41  C   UNL A   1      39.508  26.218  28.119  1.00  0.00     0.010 A 
ATOM     42  C   UNL A   1      40.280  27.293  27.637  1.00  0.00    -0.014 A 
BRANCH  42  43
ATOM     43  C   UNL A   1      40.569  28.403  28.566  1.00  0.00     0.031 A 
ATOM     44  C   UNL A   1      39.555  29.492  28.692  1.00  0.00     0.074 A 
ATOM     45  C   UNL A   1      41.571  28.296  29.490  1.00  0.00     0.049 A 
ATOM     46  N   UNL A   1      39.625  30.444  29.555  1.00  0.00    -0.248 NA
ATOM     47  C   UNL A   1      38.379  29.623  27.826  1.00  0.00     0.031 C 
ATOM     48  C   UNL A   1      41.519  28.837  30.858  1.00  0.00     0.029 A 
ATOM     49  N   UNL A   1      42.783  27.585  29.497  1.00  0.00    -0.354 N 
ATOM     50  C   UNL A   1      38.448  31.157  29.521  1.00  0.00     0.074 A 
ATOM     51  C   UNL A   1      37.731  30.649  28.385  1.00  0.00     0.031 C 
ATOM     52  C   UNL A   1      42.652  28.541  31.514  1.00  0.00     0.029 A 
ATOM     53  C   UNL A   1      43.610  28.018  30.552  1.00  0.00     0.049 A 
ATOM     54  H   UNL A   1      43.022  26.881  28.852  1.00  0.00     0.167 HD
ATOM     55  C   UNL A   1      38.204  32.049  30.517  1.00  0.00     0.034 A 
ATOM     56  C   UNL A   1      44.869  28.557  30.398  1.00  0.00     0.034 A 
ATOM     57  C   UNL A   1      39.432  32.265  31.310  1.00  0.00     0.049 A 
ATOM     58  C   UNL A   1      44.867  30.050  30.695  1.00  0.00     0.074 A 
ATOM     59  C   UNL A   1      39.840  31.872  32.571  1.00  0.00     0.029 A 
ATOM     60  N   UNL A   1      40.579  32.735  30.662  1.00  0.00    -0.354 N 
ATOM     61  N   UNL A   1      43.794  30.729  31.006  1.00  0.00    -0.248 NA
ATOM     62  C   UNL A   1      46.046  30.910  30.637  1.00  0.00     0.031 C 
ATOM     63  C   UNL A   1      41.261  32.008  32.630  1.00  0.00     0.029 A 
ATOM     64  C   UNL A   1      41.717  32.553  31.438  1.00  0.00     0.049 A 
ATOM     65  H   UNL A   1      40.580  33.145  29.767  1.00  0.00     0.167 HD
ATOM     66  C   UNL A   1      44.048  32.064  30.974  1.00  0.00     0.074 A 
ATOM     67  C   UNL A   1      45.495  32.123  30.828  1.00  0.00     0.031 C 
ATOM     68  C   UNL A   1      43.039  32.990  30.963  1.00  0.00     0.034 A 
BRANCH  55  69
ATOM     69  C   UNL A   1      36.853  32.666  30.857  1.00  0.00     0.023 A 
ATOM     70  C   UNL A   1      36.321  32.381  32.134  1.00  0.00     0.012 A 
ATOM     71  C   UNL A   1      36.013  33.428  29.997  1.00  0.00     0.148 A 
ATOM     72  C   UNL A   1      35.051  32.817  32.539  1.00  0.00     0.002 A 
ATOM     73  C   UNL A   1      34.773  33.923  30.426  1.00  0.00     0.091 A 
ATOM     74  F   UNL A   1      36.354  33.610  28.719  1.00  0.00    -0.205 F 
ATOM     75  C   UNL A   1      34.282  33.604  31.693  1.00  0.00     0.022 A 
BRANCH  73  76
ATOM     76  S   UNL A   1      33.734  34.997  29.409  1.00  0.00     0.127 S 
ATOM     77  O   UNL A   1      34.682  35.498  28.415  1.00  0.00    -0.237 OA
ATOM     78  O   UNL A   1      32.739  34.062  28.879  1.00  0.00    -0.237 OA
ATOM     79  O   UNL A   1      33.189  36.010  30.305  1.00  0.00    -0.744 OA
ENDBRANCH  73  76
ENDBRANCH  55  69
BRANCH  56  80
ATOM     80  C   UNL A   1      45.836  27.880  29.461  1.00  0.00     0.023 A 
ATOM     81  C   UNL A   1      46.296  26.567  29.745  1.00  0.00     0.012 A 
ATOM     82  C   UNL A   1      45.877  28.317  28.130  1.00  0.00     0.148 A 
ATOM     83  C   UNL A   1      46.513  25.640  28.701  1.00  0.00     0.002 A 
ATOM     84  C   UNL A   1      46.023  27.380  27.110  1.00  0.00     0.091 A 
ATOM     85  F   UNL A   1      45.619  29.607  27.884  1.00  0.00    -0.205 F 
ATOM     86  C   UNL A   1      46.289  26.033  27.389  1.00  0.00     0.022 A 
BRANCH  84  87
ATOM     87  S   UNL A   1      45.542  27.755  25.428  1.00  0.00     0.127 S 
ATOM     88  O   UNL A   1      45.766  26.478  24.744  1.00  0.00    -0.237 OA
ATOM     89  O   UNL A   1      44.127  28.082  25.646  1.00  0.00    -0.237 OA
ATOM     90  O   UNL A   1      46.388  28.841  24.998  1.00  0.00    -0.744 OA
ENDBRANCH  84  87
ENDBRANCH  56  80
BRANCH  68  91
ATOM     91  C   UNL A   1      43.240  34.413  30.474  1.00  0.00     0.023 A 
ATOM     92  C   UNL A   1      43.546  35.468  31.359  1.00  0.00     0.012 A 
ATOM     93  C   UNL A   1      43.295  34.712  29.093  1.00  0.00     0.148 A 
ATOM     94  C   UNL A   1      43.790  36.769  30.913  1.00  0.00     0.002 A 
ATOM     95  C   UNL A   1      43.682  35.973  28.650  1.00  0.00     0.091 A 
ATOM     96  F   UNL A   1      42.957  33.781  28.190  1.00  0.00    -0.205 F 
ATOM     97  C   UNL A   1      43.881  37.017  29.553  1.00  0.00     0.022 A 
BRANCH  95  98
ATOM     98  S   UNL A   1      44.119  36.259  26.930  1.00  0.00     0.127 S 
ATOM     99  O   UNL A   1      44.473  37.676  26.942  1.00  0.00    -0.237 OA
ATOM    100  O   UNL A   1      45.250  35.348  26.744  1.00  0.00    -0.237 OA
ATOM    101  O   UNL A   1      42.931  35.897  26.169  1.00  0.00    -0.744 OA
ENDBRANCH  95  98
ENDBRANCH  68  91
ENDBRANCH  42  43
ENDBRANCH  35  37
ENDBRANCH  34  35
ENDBRANCH  33  34
ENDBRANCH  32  33
ENDBRANCH   1  32
TORSDOF 22
ENDMDL
MODEL 2
REMARK VINA RESULT:     -11.7      4.125      9.673
REMARK SMILES Cc1cccc(CNC(=O)N[C@@H](CC2=c3ccccc3=NC2)C(=O)OCCOCCOC(=O)c2ccc(-c3c4nc(c(-c5cccc(S(=O)(=O)[O-])c5F)c5ccc([nH]5)c(-c5cccc(S(=O)(=O)[O-])c5F)c5nc(c(-c6cccc(S(=O)(=O)[O-])c6F)c6ccc3[nH]6)C=C5)C=C4)cc2)c1
REMARK SMILES IDX 28 1 27 2 26 3 25 4 23 5 24 6 12 7 11 8 8 9 9 10 10 12 7 14
REMARK SMILES IDX 6 15 1 16 2 17 3 18 97 19 4 20 5 21 13 22 14 23 15 24 22 25
REMARK SMILES IDX 16 26 20 27 21 28 17 29 19 30 18 31 29 32 30 33 31 34 32 35
REMARK SMILES IDX 33 36 34 37 35 38 96 39 36 40 95 41 37 42 38 43 39 44 89 45
REMARK SMILES IDX 40 46 94 47 88 48 90 49 41 50 93 51 87 52 86 53 42 55 74 56
REMARK SMILES IDX 54 57 73 58 55 59 58 60 72 61 91 62 56 63 57 64 71 66 92 67
REMARK SMILES IDX 59 68 43 69 44 70 52 71 45 72 47 73 53 74 46 75 48 76 49 77
REMARK SMILES IDX 50 78 51 79 75 80 76 81 84 82 77 83 79 84 85 85 78 86 80 87
REMARK SMILES IDX 81 88 82 89 83 90 60 91 61 92 69 93 62 94 64 95 70 96 63 97
REMARK SMILES IDX 65 98 66 99 67 100 68 101
REMARK H PARENT 8 11 11 13 90 54 58 65
REMARK Flexibility Score: inf
ROOT
ATOM      1  O   UNL A   1      31.653  29.071  25.173  1.00  0.00    -0.374 OA
ENDROOT
BRANCH   1   2
ATOM      2  C   UNL A   1      32.178  29.278  23.882  1.00  0.00     0.202 C 
BRANCH   2   3
ATOM      3  C   UNL A   1      31.404  28.747  22.696  1.00  0.00     0.261 C 
BRANCH   3   4
ATOM      4  O   UNL A   1      30.853  27.484  23.001  1.00  0.00    -0.462 OA
BRANCH   4   5
ATOM      5  C   UNL A   1      31.449  26.447  22.386  1.00  0.00     0.329 C 
ATOM      6  O   UNL A   1      31.392  26.187  21.191  1.00  0.00    -0.250 OA
BRANCH   5   7
ATOM      7  C   UNL A   1      32.154  25.551  23.403  1.00  0.00     0.198 C 
BRANCH   7   8
ATOM      8  N   UNL A   1      32.601  26.173  24.651  1.00  0.00    -0.324 N 
ATOM      9  N   UNL A   1      34.665  25.245  25.317  1.00  0.00    -0.334 N 
ATOM     10  C   UNL A   1      33.636  26.072  25.477  1.00  0.00     0.315 C 
ATOM     11  H   UNL A   1      35.344  25.323  26.024  1.00  0.00     0.165 HD
ATOM     12  O   UNL A   1      33.634  26.812  26.465  1.00  0.00    -0.249 OA
ATOM     13  H   UNL A   1      31.960  26.852  24.962  1.00  0.00     0.166 HD
BRANCH   9  14
ATOM     14  C   UNL A   1      34.985  24.261  24.317  1.00  0.00     0.153 C 
BRANCH  14  15
ATOM     15  C   UNL A   1      36.231  23.461  24.597  1.00  0.00    -0.028 A 
ATOM     16  C   UNL A   1      39.124  23.715  27.058  1.00  0.00     0.044 C 
ATOM     17  C   UNL A   1      38.171  23.164  26.043  1.00  0.00    -0.051 A 
ATOM     18  C   UNL A   1      38.317  21.855  25.576  1.00  0.00     0.003 A 
ATOM     19  C   UNL A   1      37.116  23.949  25.566  1.00  0.00     0.009 A 
ATOM     20  C   UNL A   1      37.467  21.368  24.587  1.00  0.00     0.001 A 
ATOM     21  C   UNL A   1      36.453  22.180  24.079  1.00  0.00     0.005 A 
ENDBRANCH  14  15
ENDBRANCH   9  14
ENDBRANCH   7   8
BRANCH   7  22
ATOM     22  C   UNL A   1      31.209  24.371  23.724  1.00  0.00     0.070 C 
BRANCH  22  23
ATOM     23  C   UNL A   1      31.259  23.641  25.053  1.00  0.00    -0.037 C 
ATOM     24  C   UNL A   1      31.928  22.587  25.533  1.00  0.00     0.001 A 
ATOM     25  C   UNL A   1      30.455  24.274  26.164  1.00  0.00     0.174 C 
ATOM     26  C   UNL A   1      32.759  21.505  25.096  1.00  0.00     0.010 A 
ATOM     27  C   UNL A   1      31.864  22.873  26.970  1.00  0.00     0.065 A 
ATOM     28  N   UNL A   1      30.983  23.711  27.417  1.00  0.00    -0.280 NA
ATOM     29  C   UNL A   1      33.701  20.987  25.907  1.00  0.00     0.001 A 
ATOM     30  C   UNL A   1      32.958  22.298  27.756  1.00  0.00     0.028 A 
ATOM     31  C   UNL A   1      33.891  21.505  27.226  1.00  0.00     0.002 A 
ENDBRANCH  22  23
ENDBRANCH   7  22
ENDBRANCH   5   7
ENDBRANCH   4   5
ENDBRANCH   3   4
ENDBRANCH   2   3
ENDBRANCH   1   2
BRANCH   1  32
ATOM     32  C   UNL A   1      31.867  30.204  25.999  1.00  0.00     0.202 C 
BRANCH  32  33
ATOM     33  C   UNL A   1      33.022  30.135  27.005  1.00  0.00     0.261 C 
BRANCH  33  34
ATOM     34  O   UNL A   1      33.790  31.263  27.595  1.00  0.00    -0.460 OA
BRANCH  34  35
ATOM     35  C   UNL A   1      34.129  32.447  28.120  1.00  0.00     0.338 C 
ATOM     36  O   UNL A   1      33.584  33.461  27.691  1.00  0.00    -0.246 OA
BRANCH  35  37
ATOM     37  C   UNL A   1      35.168  32.601  29.159  1.00  0.00     0.060 A 
ATOM     38  C   UNL A   1      36.305  33.368  28.875  1.00  0.00     0.016 A 
ATOM     39  C   UNL A   1      35.107  31.948  30.368  1.00  0.00     0.016 A 
ATOM     40  C   UNL A   1      37.507  33.141  29.551  1.00  0.00     0.010 A 
ATOM     41  C   UNL A   1      36.313  31.692  31.021  1.00  0.00     0.010 A 
ATOM     42  C   UNL A   1      37.543  32.156  30.514  1.00  0.00    -0.014 A 
BRANCH  42  43
ATOM     43  C   UNL A   1      38.765  31.421  30.897  1.00  0.00     0.031 A 
ATOM     44  C   UNL A   1      39.104  30.182  30.136  1.00  0.00     0.074 A 
ATOM     45  C   UNL A   1      39.704  32.001  31.706  1.00  0.00     0.049 A 
ATOM     46  N   UNL A   1      40.199  29.524  30.283  1.00  0.00    -0.248 NA
ATOM     47  C   UNL A   1      38.213  29.551  29.157  1.00  0.00     0.031 C 
ATOM     48  C   UNL A   1      41.158  31.823  31.572  1.00  0.00     0.029 A 
ATOM     49  N   UNL A   1      39.613  32.969  32.720  1.00  0.00    -0.354 N 
ATOM     50  C   UNL A   1      40.266  28.556  29.307  1.00  0.00     0.074 A 
ATOM     51  C   UNL A   1      38.979  28.570  28.672  1.00  0.00     0.031 C 
ATOM     52  C   UNL A   1      41.799  32.546  32.505  1.00  0.00     0.029 A 
ATOM     53  C   UNL A   1      40.813  33.033  33.457  1.00  0.00     0.049 A 
ATOM     54  H   UNL A   1      38.821  33.527  32.892  1.00  0.00     0.167 HD
ATOM     55  C   UNL A   1      41.447  27.910  29.119  1.00  0.00     0.034 A 
ATOM     56  C   UNL A   1      40.920  32.803  34.811  1.00  0.00     0.034 A 
ATOM     57  C   UNL A   1      42.368  28.210  30.234  1.00  0.00     0.049 A 
ATOM     58  C   UNL A   1      41.618  31.478  35.089  1.00  0.00     0.074 A 
ATOM     59  C   UNL A   1      43.500  28.994  30.357  1.00  0.00     0.029 A 
ATOM     60  N   UNL A   1      41.974  27.893  31.538  1.00  0.00    -0.354 N 
ATOM     61  N   UNL A   1      42.014  30.655  34.155  1.00  0.00    -0.248 NA
ATOM     62  C   UNL A   1      41.899  30.952  36.422  1.00  0.00     0.031 C 
ATOM     63  C   UNL A   1      43.713  29.235  31.750  1.00  0.00     0.029 A 
ATOM     64  C   UNL A   1      42.761  28.540  32.482  1.00  0.00     0.049 A 
ATOM     65  H   UNL A   1      41.231  27.286  31.759  1.00  0.00     0.167 HD
ATOM     66  C   UNL A   1      42.376  29.461  34.694  1.00  0.00     0.074 A 
ATOM     67  C   UNL A   1      42.373  29.728  36.126  1.00  0.00     0.031 C 
ATOM     68  C   UNL A   1      42.538  28.340  33.923  1.00  0.00     0.034 A 
BRANCH  55  69
ATOM     69  C   UNL A   1      41.831  27.081  27.898  1.00  0.00     0.023 A 
ATOM     70  C   UNL A   1      41.612  27.667  26.631  1.00  0.00     0.012 A 
ATOM     71  C   UNL A   1      42.302  25.738  27.882  1.00  0.00     0.148 A 
ATOM     72  C   UNL A   1      41.843  26.979  25.431  1.00  0.00     0.002 A 
ATOM     73  C   UNL A   1      42.600  25.075  26.682  1.00  0.00     0.091 A 
ATOM     74  F   UNL A   1      42.384  25.045  29.020  1.00  0.00    -0.205 F 
ATOM     75  C   UNL A   1      42.354  25.690  25.453  1.00  0.00     0.022 A 
BRANCH  73  76
ATOM     76  S   UNL A   1      43.316  23.417  26.623  1.00  0.00     0.127 S 
ATOM     77  O   UNL A   1      44.637  23.627  27.214  1.00  0.00    -0.237 OA
ATOM     78  O   UNL A   1      42.395  22.645  27.459  1.00  0.00    -0.237 OA
ATOM     79  O   UNL A   1      43.326  23.024  25.218  1.00  0.00    -0.744 OA
ENDBRANCH  73  76
ENDBRANCH  55  69
BRANCH  56  80
ATOM     80  C   UNL A   1      39.915  33.442  35.736  1.00  0.00     0.023 A 
ATOM     81  C   UNL A   1      38.901  32.651  36.336  1.00  0.00     0.012 A 
ATOM     82  C   UNL A   1      40.273  34.641  36.366  1.00  0.00     0.148 A 
ATOM     83  C   UNL A   1      38.475  32.909  37.658  1.00  0.00     0.002 A 
ATOM     84  C   UNL A   1      39.902  34.849  37.693  1.00  0.00     0.091 A 
ATOM     85  F   UNL A   1      41.091  35.475  35.714  1.00  0.00    -0.205 F 
ATOM     86  C   UNL A   1      39.047  33.961  38.359  1.00  0.00     0.022 A 
BRANCH  84  87
ATOM     87  S   UNL A   1      40.753  36.042  38.719  1.00  0.00     0.127 S 
ATOM     88  O   UNL A   1      39.979  37.266  38.488  1.00  0.00    -0.237 OA
ATOM     89  O   UNL A   1      40.535  35.430  40.036  1.00  0.00    -0.237 OA
ATOM     90  O   UNL A   1      42.117  36.080  38.250  1.00  0.00    -0.744 OA
ENDBRANCH  84  87
ENDBRANCH  56  80
BRANCH  68  91
ATOM     91  C   UNL A   1      42.482  26.937  34.498  1.00  0.00     0.023 A 
ATOM     92  C   UNL A   1      41.344  26.457  35.180  1.00  0.00     0.012 A 
ATOM     93  C   UNL A   1      43.501  25.993  34.230  1.00  0.00     0.148 A 
ATOM     94  C   UNL A   1      41.259  25.149  35.663  1.00  0.00     0.002 A 
ATOM     95  C   UNL A   1      43.347  24.656  34.584  1.00  0.00     0.091 A 
ATOM     96  F   UNL A   1      44.640  26.383  33.642  1.00  0.00    -0.205 F 
ATOM     97  C   UNL A   1      42.253  24.240  35.343  1.00  0.00     0.022 A 
BRANCH  95  98
ATOM     98  S   UNL A   1      44.441  23.390  33.926  1.00  0.00     0.127 S 
ATOM     99  O   UNL A   1      44.049  23.356  32.520  1.00  0.00    -0.237 OA
ATOM    100  O   UNL A   1      45.764  23.964  34.180  1.00  0.00    -0.237 OA
ATOM    101  O   UNL A   1      44.151  22.194  34.705  1.00  0.00    -0.744 OA
ENDBRANCH  95  98
ENDBRANCH  68  91
ENDBRANCH  42  43
ENDBRANCH  35  37
ENDBRANCH  34  35
ENDBRANCH  33  34
ENDBRANCH  32  33
ENDBRANCH   1  32
TORSDOF 22
ENDMDL
MODEL 3
REMARK VINA RESULT:     -11.6      1.780      3.757
REMARK SMILES Cc1cccc(CNC(=O)N[C@@H](CC2=c3ccccc3=NC2)C(=O)OCCOCCOC(=O)c2ccc(-c3c4nc(c(-c5cccc(S(=O)(=O)[O-])c5F)c5ccc([nH]5)c(-c5cccc(S(=O)(=O)[O-])c5F)c5nc(c(-c6cccc(S(=O)(=O)[O-])c6F)c6ccc3[nH]6)C=C5)C=C4)cc2)c1
REMARK SMILES IDX 28 1 27 2 26 3 25 4 23 5 24 6 12 7 11 8 8 9 9 10 10 12 7 14
REMARK SMILES IDX 6 15 1 16 2 17 3 18 97 19 4 20 5 21 13 22 14 23 15 24 22 25
REMARK SMILES IDX 16 26 20 27 21 28 17 29 19 30 18 31 29 32 30 33 31 34 32 35
REMARK SMILES IDX 33 36 34 37 35 38 96 39 36 40 95 41 37 42 38 43 39 44 89 45
REMARK SMILES IDX 40 46 94 47 88 48 90 49 41 50 93 51 87 52 86 53 42 55 74 56
REMARK SMILES IDX 54 57 73 58 55 59 58 60 72 61 91 62 56 63 57 64 71 66 92 67
REMARK SMILES IDX 59 68 43 69 44 70 52 71 45 72 47 73 53 74 46 75 48 76 49 77
REMARK SMILES IDX 50 78 51 79 75 80 76 81 84 82 77 83 79 84 85 85 78 86 80 87
REMARK SMILES IDX 81 88 82 89 83 90 60 91 61 92 69 93 62 94 64 95 70 96 63 97
REMARK SMILES IDX 65 98 66 99 67 100 68 101
REMARK H PARENT 8 11 11 13 90 54 58 65
REMARK Flexibility Score: inf
ROOT
ATOM      1  O   UNL A   1      36.689  22.906  25.662  1.00  0.00    -0.374 OA
ENDROOT
BRANCH   1   2
ATOM      2  C   UNL A   1      36.607  23.525  24.398  1.00  0.00     0.202 C 
BRANCH   2   3
ATOM      3  C   UNL A   1      35.384  23.265  23.547  1.00  0.00     0.261 C 
BRANCH   3   4
ATOM      4  O   UNL A   1      34.386  24.222  23.824  1.00  0.00    -0.462 OA
BRANCH   4   5
ATOM      5  C   UNL A   1      33.324  24.182  22.999  1.00  0.00     0.329 C 
ATOM      6  O   UNL A   1      33.309  24.526  21.824  1.00  0.00    -0.250 OA
BRANCH   5   7
ATOM      7  C   UNL A   1      32.075  23.726  23.752  1.00  0.00     0.198 C 
BRANCH   7   8
ATOM      8  N   UNL A   1      32.223  23.421  25.176  1.00  0.00    -0.324 N 
ATOM      9  N   UNL A   1      32.317  21.084  25.490  1.00  0.00    -0.334 N 
ATOM     10  C   UNL A   1      32.324  22.337  25.937  1.00  0.00     0.315 C 
ATOM     11  H   UNL A   1      32.418  20.413  26.202  1.00  0.00     0.165 HD
ATOM     12  O   UNL A   1      32.440  22.519  27.152  1.00  0.00    -0.249 OA
ATOM     13  H   UNL A   1      32.257  24.242  25.717  1.00  0.00     0.166 HD
BRANCH   9  14
ATOM     14  C   UNL A   1      32.190  20.513  24.175  1.00  0.00     0.153 C 
BRANCH  14  15
ATOM     15  C   UNL A   1      32.994  19.258  23.952  1.00  0.00    -0.028 A 
ATOM     16  C   UNL A   1      36.418  18.001  25.041  1.00  0.00     0.044 C 
ATOM     17  C   UNL A   1      35.020  18.021  24.506  1.00  0.00    -0.051 A 
ATOM     18  C   UNL A   1      34.421  16.841  24.054  1.00  0.00     0.003 A 
ATOM     19  C   UNL A   1      34.293  19.215  24.472  1.00  0.00     0.009 A 
ATOM     20  C   UNL A   1      33.143  16.875  23.501  1.00  0.00     0.001 A 
ATOM     21  C   UNL A   1      32.451  18.084  23.421  1.00  0.00     0.005 A 
ENDBRANCH  14  15
ENDBRANCH   9  14
ENDBRANCH   7   8
BRANCH   7  22
ATOM     22  C   UNL A   1      30.993  24.814  23.566  1.00  0.00     0.070 C 
BRANCH  22  23
ATOM     23  C   UNL A   1      31.289  26.286  23.783  1.00  0.00    -0.037 C 
ATOM     24  C   UNL A   1      31.869  27.005  24.749  1.00  0.00     0.001 A 
ATOM     25  C   UNL A   1      30.959  27.186  22.615  1.00  0.00     0.174 C 
ATOM     26  C   UNL A   1      32.337  26.884  26.097  1.00  0.00     0.010 A 
ATOM     27  C   UNL A   1      32.269  28.191  23.984  1.00  0.00     0.065 A 
ATOM     28  N   UNL A   1      31.714  28.429  22.837  1.00  0.00    -0.280 NA
ATOM     29  C   UNL A   1      33.364  27.632  26.542  1.00  0.00     0.001 A 
ATOM     30  C   UNL A   1      33.422  28.911  24.529  1.00  0.00     0.028 A 
ATOM     31  C   UNL A   1      34.010  28.569  25.678  1.00  0.00     0.002 A 
ENDBRANCH  22  23
ENDBRANCH   7  22
ENDBRANCH   5   7
ENDBRANCH   4   5
ENDBRANCH   3   4
ENDBRANCH   2   3
ENDBRANCH   1   2
BRANCH   1  32
ATOM     32  C   UNL A   1      37.020  21.532  25.537  1.00  0.00     0.202 C 
BRANCH  32  33
ATOM     33  C   UNL A   1      38.508  21.162  25.533  1.00  0.00     0.261 C 
BRANCH  33  34
ATOM     34  O   UNL A   1      39.654  21.975  26.017  1.00  0.00    -0.460 OA
BRANCH  34  35
ATOM     35  C   UNL A   1      40.400  22.905  26.627  1.00  0.00     0.338 C 
ATOM     36  O   UNL A   1      41.457  22.564  27.151  1.00  0.00    -0.246 OA
BRANCH  35  37
ATOM     37  C   UNL A   1      39.988  24.318  26.746  1.00  0.00     0.060 A 
ATOM     38  C   UNL A   1      40.708  25.297  26.048  1.00  0.00     0.016 A 
ATOM     39  C   UNL A   1      38.976  24.727  27.585  1.00  0.00     0.016 A 
ATOM     40  C   UNL A   1      40.729  26.621  26.495  1.00  0.00     0.010 A 
ATOM     41  C   UNL A   1      39.024  26.039  28.055  1.00  0.00     0.010 A 
ATOM     42  C   UNL A   1      40.013  26.945  27.626  1.00  0.00    -0.014 A 
BRANCH  42  43
ATOM     43  C   UNL A   1      40.352  28.067  28.523  1.00  0.00     0.031 A 
ATOM     44  C   UNL A   1      39.383  29.199  28.626  1.00  0.00     0.074 A 
ATOM     45  C   UNL A   1      41.356  27.946  29.444  1.00  0.00     0.049 A 
ATOM     46  N   UNL A   1      39.497  30.170  29.461  1.00  0.00    -0.248 NA
ATOM     47  C   UNL A   1      38.208  29.353  27.762  1.00  0.00     0.031 C 
ATOM     48  C   UNL A   1      41.335  28.526  30.796  1.00  0.00     0.029 A 
ATOM     49  N   UNL A   1      42.539  27.187  29.463  1.00  0.00    -0.354 N 
ATOM     50  C   UNL A   1      38.350  30.929  29.414  1.00  0.00     0.074 A 
ATOM     51  C   UNL A   1      37.605  30.419  28.298  1.00  0.00     0.031 C 
ATOM     52  C   UNL A   1      42.460  28.202  31.454  1.00  0.00     0.029 A 
ATOM     53  C   UNL A   1      43.390  27.616  30.502  1.00  0.00     0.049 A 
ATOM     54  H   UNL A   1      42.745  26.457  28.837  1.00  0.00     0.167 HD
ATOM     55  C   UNL A   1      38.148  31.856  30.387  1.00  0.00     0.034 A 
ATOM     56  C   UNL A   1      44.667  28.099  30.326  1.00  0.00     0.034 A 
ATOM     57  C   UNL A   1      39.388  32.045  31.167  1.00  0.00     0.049 A 
ATOM     58  C   UNL A   1      44.727  29.599  30.581  1.00  0.00     0.074 A 
ATOM     59  C   UNL A   1      39.789  31.670  32.436  1.00  0.00     0.029 A 
ATOM     60  N   UNL A   1      40.549  32.451  30.500  1.00  0.00    -0.354 N 
ATOM     61  N   UNL A   1      43.684  30.328  30.880  1.00  0.00    -0.248 NA
ATOM     62  C   UNL A   1      45.939  30.409  30.493  1.00  0.00     0.031 C 
ATOM     63  C   UNL A   1      41.216  31.750  32.483  1.00  0.00     0.029 A 
ATOM     64  C   UNL A   1      41.684  32.245  31.274  1.00  0.00     0.049 A 
ATOM     65  H   UNL A   1      40.560  32.836  29.594  1.00  0.00     0.167 HD
ATOM     66  C   UNL A   1      43.991  31.650  30.810  1.00  0.00     0.074 A 
ATOM     67  C   UNL A   1      45.438  31.648  30.654  1.00  0.00     0.031 C 
ATOM     68  C   UNL A   1      43.019  32.616  30.780  1.00  0.00     0.034 A 
BRANCH  55  69
ATOM     69  C   UNL A   1      36.825  32.536  30.718  1.00  0.00     0.023 A 
ATOM     70  C   UNL A   1      36.375  32.446  32.054  1.00  0.00     0.012 A 
ATOM     71  C   UNL A   1      35.935  33.177  29.810  1.00  0.00     0.148 A 
ATOM     72  C   UNL A   1      35.135  32.955  32.470  1.00  0.00     0.002 A 
ATOM     73  C   UNL A   1      34.728  33.748  30.240  1.00  0.00     0.091 A 
ATOM     74  F   UNL A   1      36.194  33.168  28.501  1.00  0.00    -0.205 F 
ATOM     75  C   UNL A   1      34.318  33.623  31.569  1.00  0.00     0.022 A 
BRANCH  73  76
ATOM     76  S   UNL A   1      33.631  34.678  29.145  1.00  0.00     0.127 S 
ATOM     77  O   UNL A   1      33.207  33.657  28.188  1.00  0.00    -0.237 OA
ATOM     78  O   UNL A   1      32.579  35.125  30.059  1.00  0.00    -0.237 OA
ATOM     79  O   UNL A   1      34.434  35.756  28.579  1.00  0.00    -0.744 OA
ENDBRANCH  73  76
ENDBRANCH  55  69
BRANCH  56  80
ATOM     80  C   UNL A   1      45.601  27.359  29.401  1.00  0.00     0.023 A 
ATOM     81  C   UNL A   1      46.146  26.110  29.798  1.00  0.00     0.012 A 
ATOM     82  C   UNL A   1      45.526  27.638  28.030  1.00  0.00     0.148 A 
ATOM     83  C   UNL A   1      46.338  25.077  28.853  1.00  0.00     0.002 A 
ATOM     84  C   UNL A   1      45.649  26.595  27.115  1.00  0.00     0.091 A 
ATOM     85  F   UNL A   1      45.186  28.878  27.659  1.00  0.00    -0.205 F 
ATOM     86  C   UNL A   1      46.002  25.303  27.526  1.00  0.00     0.022 A 
BRANCH  84  87
ATOM     87  S   UNL A   1      45.033  26.749  25.443  1.00  0.00     0.127 S 
ATOM     88  O   UNL A   1      46.225  26.458  24.640  1.00  0.00    -0.237 OA
ATOM     89  O   UNL A   1      44.034  25.674  25.451  1.00  0.00    -0.237 OA
ATOM     90  O   UNL A   1      44.523  28.093  25.322  1.00  0.00    -0.744 OA
ENDBRANCH  84  87
ENDBRANCH  56  80
BRANCH  68  91
ATOM     91  C   UNL A   1      43.274  34.015  30.250  1.00  0.00     0.023 A 
ATOM     92  C   UNL A   1      43.401  35.125  31.112  1.00  0.00     0.012 A 
ATOM     93  C   UNL A   1      43.560  34.242  28.884  1.00  0.00     0.148 A 
ATOM     94  C   UNL A   1      43.692  36.407  30.640  1.00  0.00     0.002 A 
ATOM     95  C   UNL A   1      43.992  35.488  28.441  1.00  0.00     0.091 A 
ATOM     96  F   UNL A   1      43.400  33.254  27.992  1.00  0.00    -0.205 F 
ATOM     97  C   UNL A   1      44.012  36.584  29.304  1.00  0.00     0.022 A 
BRANCH  95  98
ATOM     98  S   UNL A   1      44.713  35.694  26.808  1.00  0.00     0.127 S 
ATOM     99  O   UNL A   1      43.564  35.452  25.940  1.00  0.00    -0.237 OA
ATOM    100  O   UNL A   1      45.169  37.085  26.846  1.00  0.00    -0.237 OA
ATOM    101  O   UNL A   1      45.790  34.716  26.740  1.00  0.00    -0.744 OA
ENDBRANCH  95  98
ENDBRANCH  68  91
ENDBRANCH  42  43
ENDBRANCH  35  37
ENDBRANCH  34  35
ENDBRANCH  33  34
ENDBRANCH  32  33
ENDBRANCH   1  32
TORSDOF 22
ENDMDL
