MODEL 1
REMARK VINA RESULT:     -11.3      0.000      0.000
REMARK SMILES N#Cc1ccc2c(c1)C=C(C(=O)OCCOCCOC(=O)c1ccc(-c3c4nc(c(-c5cccc(S(=O)(=O)[O-])c5F)c5ccc([nH]5)c(-c5cccc(S(=O)(=O)[O-])c5F)c5nc(c(-c6cccc(S(=O)(=O)[O-])c6F)c6ccc3[nH]6)C=C5)C=C4)cc1)[C@@H](C(F)(F)F)O2
REMARK SMILES IDX 17 1 16 2 15 3 14 4 13 5 11 6 12 7 10 8 3 9 4 10 8 11 5 12
REMARK SMILES IDX 7 13 6 14 9 15 90 16 85 17 2 18 1 19 86 20 87 21 88 22 89 23
REMARK SMILES IDX 18 24 19 25 20 26 21 27 22 28 23 29 84 30 24 31 83 32 25 33
REMARK SMILES IDX 26 34 27 35 77 36 28 37 82 38 76 39 78 40 29 41 81 42 75 43
REMARK SMILES IDX 74 44 30 46 62 47 42 48 61 49 43 50 46 51 60 52 79 53 44 54
REMARK SMILES IDX 45 55 59 57 80 58 47 59 31 60 32 61 40 62 33 63 35 64 41 65
REMARK SMILES IDX 34 66 36 67 37 68 38 69 39 70 63 71 64 72 72 73 65 74 67 75
REMARK SMILES IDX 73 76 66 77 68 78 69 79 70 80 71 81 48 82 49 83 57 84 50 85
REMARK SMILES IDX 52 86 58 87 51 88 53 89 54 90 55 91 56 92
REMARK H PARENT 78 45 46 56
REMARK Flexibility Score: inf
ROOT
ATOM      1  C   UNL A   1      31.013  29.119  25.101  1.00  0.00     0.202 C 
ENDROOT
BRANCH   1   2
ATOM      2  O   UNL A   1      30.718  28.956  23.718  1.00  0.00    -0.374 OA
BRANCH   2   3
ATOM      3  C   UNL A   1      30.382  27.661  23.227  1.00  0.00     0.202 C 
BRANCH   3   4
ATOM      4  C   UNL A   1      31.149  27.106  22.022  1.00  0.00     0.261 C 
BRANCH   4   5
ATOM      5  O   UNL A   1      31.635  25.776  22.245  1.00  0.00    -0.460 OA
BRANCH   5   6
ATOM      6  C   UNL A   1      32.974  25.644  22.096  1.00  0.00     0.338 C 
ATOM      7  O   UNL A   1      33.688  26.238  21.304  1.00  0.00    -0.246 OA
BRANCH   6   8
ATOM      8  C   UNL A   1      33.507  24.761  23.151  1.00  0.00     0.087 C 
ATOM      9  C   UNL A   1      33.247  20.481  25.308  1.00  0.00     0.053 A 
ATOM     10  C   UNL A   1      33.987  20.986  26.382  1.00  0.00     0.023 A 
ATOM     11  C   UNL A   1      33.015  21.285  24.189  1.00  0.00     0.031 A 
ATOM     12  C   UNL A   1      34.510  22.281  26.325  1.00  0.00     0.048 A 
ATOM     13  C   UNL A   1      33.501  22.597  24.154  1.00  0.00     0.019 A 
ATOM     14  C   UNL A   1      34.265  23.087  25.214  1.00  0.00     0.128 A 
ATOM     15  C   UNL A   1      33.142  23.476  23.061  1.00  0.00     0.027 C 
ATOM     16  O   UNL A   1      34.808  24.339  25.238  1.00  0.00    -0.475 OA
ATOM     17  C   UNL A   1      34.365  25.320  24.254  1.00  0.00     0.316 C 
BRANCH   9  18
ATOM     18  C   UNL A   1      32.701  19.158  25.362  1.00  0.00     0.099 C 
ATOM     19  N   UNL A   1      32.264  18.081  25.413  1.00  0.00    -0.192 NA
ENDBRANCH   9  18
BRANCH  17  20
ATOM     20  C   UNL A   1      33.684  26.479  24.996  1.00  0.00     0.430 C 
ATOM     21  F   UNL A   1      32.389  26.193  25.269  1.00  0.00    -0.167 F 
ATOM     22  F   UNL A   1      34.284  26.745  26.177  1.00  0.00    -0.167 F 
ATOM     23  F   UNL A   1      33.702  27.618  24.265  1.00  0.00    -0.167 F 
ENDBRANCH  17  20
ENDBRANCH   6   8
ENDBRANCH   5   6
ENDBRANCH   4   5
ENDBRANCH   3   4
ENDBRANCH   2   3
ENDBRANCH   1   2
BRANCH   1  24
ATOM     24  C   UNL A   1      31.598  30.445  25.610  1.00  0.00     0.261 C 
BRANCH  24  25
ATOM     25  O   UNL A   1      32.922  30.328  26.147  1.00  0.00    -0.460 OA
BRANCH  25  26
ATOM     26  C   UNL A   1      33.289  31.348  26.968  1.00  0.00     0.338 C 
ATOM     27  O   UNL A   1      32.613  32.307  27.295  1.00  0.00    -0.246 OA
BRANCH  26  28
ATOM     28  C   UNL A   1      34.586  31.015  27.584  1.00  0.00     0.060 A 
ATOM     29  C   UNL A   1      35.468  32.023  27.970  1.00  0.00     0.016 A 
ATOM     30  C   UNL A   1      34.902  29.667  27.797  1.00  0.00     0.016 A 
ATOM     31  C   UNL A   1      36.670  31.675  28.587  1.00  0.00     0.010 A 
ATOM     32  C   UNL A   1      36.105  29.322  28.414  1.00  0.00     0.010 A 
ATOM     33  C   UNL A   1      36.992  30.325  28.827  1.00  0.00    -0.014 A 
BRANCH  33  34
ATOM     34  C   UNL A   1      38.197  29.984  29.623  1.00  0.00     0.031 A 
ATOM     35  C   UNL A   1      38.411  30.527  31.004  1.00  0.00     0.074 A 
ATOM     36  C   UNL A   1      39.118  29.170  29.070  1.00  0.00     0.049 A 
ATOM     37  N   UNL A   1      39.370  30.250  31.848  1.00  0.00    -0.248 NA
ATOM     38  C   UNL A   1      37.432  31.505  31.505  1.00  0.00     0.031 C 
ATOM     39  C   UNL A   1      39.049  28.626  27.712  1.00  0.00     0.029 A 
ATOM     40  N   UNL A   1      40.286  28.657  29.576  1.00  0.00    -0.354 N 
ATOM     41  C   UNL A   1      39.120  31.019  32.976  1.00  0.00     0.074 A 
ATOM     42  C   UNL A   1      37.927  31.792  32.703  1.00  0.00     0.031 C 
ATOM     43  C   UNL A   1      40.110  27.833  27.503  1.00  0.00     0.029 A 
ATOM     44  C   UNL A   1      40.951  27.836  28.697  1.00  0.00     0.049 A 
ATOM     45  H   UNL A   1      40.615  28.858  30.481  1.00  0.00     0.167 HD
ATOM     46  C   UNL A   1      39.812  31.058  34.140  1.00  0.00     0.034 A 
ATOM     47  C   UNL A   1      42.107  27.159  28.830  1.00  0.00     0.034 A 
ATOM     48  C   UNL A   1      40.992  30.282  34.410  1.00  0.00     0.049 A 
ATOM     49  C   UNL A   1      42.857  27.223  30.129  1.00  0.00     0.074 A 
ATOM     50  C   UNL A   1      41.719  30.216  35.587  1.00  0.00     0.029 A 
ATOM     51  N   UNL A   1      41.631  29.458  33.499  1.00  0.00    -0.354 N 
ATOM     52  N   UNL A   1      42.534  27.858  31.228  1.00  0.00    -0.248 NA
ATOM     53  C   UNL A   1      44.112  26.463  30.216  1.00  0.00     0.031 C 
ATOM     54  C   UNL A   1      42.818  29.379  35.376  1.00  0.00     0.029 A 
ATOM     55  C   UNL A   1      42.753  28.893  34.081  1.00  0.00     0.049 A 
ATOM     56  H   UNL A   1      41.333  29.298  32.575  1.00  0.00     0.167 HD
ATOM     57  C   UNL A   1      43.533  27.560  32.146  1.00  0.00     0.074 A 
ATOM     58  C   UNL A   1      44.468  26.678  31.478  1.00  0.00     0.031 C 
ATOM     59  C   UNL A   1      43.663  27.990  33.423  1.00  0.00     0.034 A 
BRANCH  46  60
ATOM     60  C   UNL A   1      39.296  31.937  35.245  1.00  0.00     0.023 A 
ATOM     61  C   UNL A   1      38.395  31.403  36.187  1.00  0.00     0.012 A 
ATOM     62  C   UNL A   1      39.797  33.241  35.423  1.00  0.00     0.148 A 
ATOM     63  C   UNL A   1      37.996  32.157  37.290  1.00  0.00     0.002 A 
ATOM     64  C   UNL A   1      39.414  33.977  36.538  1.00  0.00     0.091 A 
ATOM     65  F   UNL A   1      40.649  33.727  34.510  1.00  0.00    -0.205 F 
ATOM     66  C   UNL A   1      38.513  33.437  37.471  1.00  0.00     0.022 A 
BRANCH  64  67
ATOM     67  S   UNL A   1      40.048  35.622  36.884  1.00  0.00     0.127 S 
ATOM     68  O   UNL A   1      39.561  36.372  35.727  1.00  0.00    -0.237 OA
ATOM     69  O   UNL A   1      39.383  35.946  38.146  1.00  0.00    -0.237 OA
ATOM     70  O   UNL A   1      41.495  35.489  36.967  1.00  0.00    -0.744 OA
ENDBRANCH  64  67
ENDBRANCH  46  60
BRANCH  47  71
ATOM     71  C   UNL A   1      42.581  26.316  27.701  1.00  0.00     0.023 A 
ATOM     72  C   UNL A   1      43.570  26.813  26.833  1.00  0.00     0.012 A 
ATOM     73  C   UNL A   1      42.118  24.996  27.544  1.00  0.00     0.148 A 
ATOM     74  C   UNL A   1      44.095  26.005  25.824  1.00  0.00     0.002 A 
ATOM     75  C   UNL A   1      42.669  24.186  26.558  1.00  0.00     0.091 A 
ATOM     76  F   UNL A   1      41.181  24.549  28.391  1.00  0.00    -0.205 F 
ATOM     77  C   UNL A   1      43.653  24.690  25.693  1.00  0.00     0.022 A 
BRANCH  75  78
ATOM     78  S   UNL A   1      42.220  22.459  26.360  1.00  0.00     0.127 S 
ATOM     79  O   UNL A   1      42.982  22.088  25.170  1.00  0.00    -0.237 OA
ATOM     80  O   UNL A   1      42.710  21.881  27.611  1.00  0.00    -0.237 OA
ATOM     81  O   UNL A   1      40.772  22.439  26.204  1.00  0.00    -0.744 OA
ENDBRANCH  75  78
ENDBRANCH  47  71
BRANCH  59  82
ATOM     82  C   UNL A   1      44.845  27.513  34.222  1.00  0.00     0.023 A 
ATOM     83  C   UNL A   1      46.005  28.307  34.290  1.00  0.00     0.012 A 
ATOM     84  C   UNL A   1      44.748  26.352  35.016  1.00  0.00     0.148 A 
ATOM     85  C   UNL A   1      47.053  27.954  35.138  1.00  0.00     0.002 A 
ATOM     86  C   UNL A   1      45.783  26.022  35.880  1.00  0.00     0.091 A 
ATOM     87  F   UNL A   1      43.632  25.614  34.930  1.00  0.00    -0.205 F 
ATOM     88  C   UNL A   1      46.937  26.821  35.942  1.00  0.00     0.022 A 
BRANCH  86  89
ATOM     89  S   UNL A   1      45.706  24.615  36.995  1.00  0.00     0.127 S 
ATOM     90  O   UNL A   1      46.905  24.816  37.809  1.00  0.00    -0.237 OA
ATOM     91  O   UNL A   1      44.445  24.846  37.697  1.00  0.00    -0.237 OA
ATOM     92  O   UNL A   1      45.729  23.427  36.151  1.00  0.00    -0.744 OA
ENDBRANCH  86  89
ENDBRANCH  59  82
ENDBRANCH  33  34
ENDBRANCH  26  28
ENDBRANCH  25  26
ENDBRANCH  24  25
ENDBRANCH   1  24
TORSDOF 19
ENDMDL
MODEL 2
REMARK VINA RESULT:     -11.0      1.224      1.944
REMARK SMILES N#Cc1ccc2c(c1)C=C(C(=O)OCCOCCOC(=O)c1ccc(-c3c4nc(c(-c5cccc(S(=O)(=O)[O-])c5F)c5ccc([nH]5)c(-c5cccc(S(=O)(=O)[O-])c5F)c5nc(c(-c6cccc(S(=O)(=O)[O-])c6F)c6ccc3[nH]6)C=C5)C=C4)cc1)[C@@H](C(F)(F)F)O2
REMARK SMILES IDX 17 1 16 2 15 3 14 4 13 5 11 6 12 7 10 8 3 9 4 10 8 11 5 12
REMARK SMILES IDX 7 13 6 14 9 15 90 16 85 17 2 18 1 19 86 20 87 21 88 22 89 23
REMARK SMILES IDX 18 24 19 25 20 26 21 27 22 28 23 29 84 30 24 31 83 32 25 33
REMARK SMILES IDX 26 34 27 35 77 36 28 37 82 38 76 39 78 40 29 41 81 42 75 43
REMARK SMILES IDX 74 44 30 46 62 47 42 48 61 49 43 50 46 51 60 52 79 53 44 54
REMARK SMILES IDX 45 55 59 57 80 58 47 59 31 60 32 61 40 62 33 63 35 64 41 65
REMARK SMILES IDX 34 66 36 67 37 68 38 69 39 70 63 71 64 72 72 73 65 74 67 75
REMARK SMILES IDX 73 76 66 77 68 78 69 79 70 80 71 81 48 82 49 83 57 84 50 85
REMARK SMILES IDX 52 86 58 87 51 88 53 89 54 90 55 91 56 92
REMARK H PARENT 78 45 46 56
REMARK Flexibility Score: inf
ROOT
ATOM      1  C   UNL A   1      31.216  29.187  24.520  1.00  0.00     0.202 C 
ENDROOT
BRANCH   1   2
ATOM      2  O   UNL A   1      31.413  27.788  24.697  1.00  0.00    -0.374 OA
BRANCH   2   3
ATOM      3  C   UNL A   1      31.202  27.214  25.985  1.00  0.00     0.202 C 
BRANCH   3   4
ATOM      4  C   UNL A   1      31.981  25.950  26.366  1.00  0.00     0.261 C 
BRANCH   4   5
ATOM      5  O   UNL A   1      31.987  24.972  25.317  1.00  0.00    -0.460 OA
BRANCH   5   6
ATOM      6  C   UNL A   1      33.015  24.095  25.385  1.00  0.00     0.338 C 
ATOM      7  O   UNL A   1      34.037  24.208  26.043  1.00  0.00    -0.246 OA
BRANCH   6   8
ATOM      8  C   UNL A   1      32.670  22.866  24.644  1.00  0.00     0.087 C 
ATOM      9  C   UNL A   1      32.663  18.066  24.619  1.00  0.00     0.053 A 
ATOM     10  C   UNL A   1      32.437  18.082  23.238  1.00  0.00     0.023 A 
ATOM     11  C   UNL A   1      32.693  19.270  25.329  1.00  0.00     0.031 A 
ATOM     12  C   UNL A   1      32.222  19.295  22.578  1.00  0.00     0.048 A 
ATOM     13  C   UNL A   1      32.522  20.485  24.656  1.00  0.00     0.019 A 
ATOM     14  C   UNL A   1      32.267  20.496  23.284  1.00  0.00     0.128 A 
ATOM     15  C   UNL A   1      32.694  21.737  25.364  1.00  0.00     0.027 C 
ATOM     16  O   UNL A   1      32.050  21.634  22.565  1.00  0.00    -0.475 OA
ATOM     17  C   UNL A   1      32.357  22.923  23.173  1.00  0.00     0.316 C 
BRANCH   9  18
ATOM     18  C   UNL A   1      32.892  16.829  25.303  1.00  0.00     0.099 C 
ATOM     19  N   UNL A   1      33.082  15.829  25.865  1.00  0.00    -0.192 NA
ENDBRANCH   9  18
BRANCH  17  20
ATOM     20  C   UNL A   1      33.477  23.590  22.362  1.00  0.00     0.430 C 
ATOM     21  F   UNL A   1      33.450  24.936  22.504  1.00  0.00    -0.167 F 
ATOM     22  F   UNL A   1      34.702  23.178  22.758  1.00  0.00    -0.167 F 
ATOM     23  F   UNL A   1      33.364  23.320  21.040  1.00  0.00    -0.167 F 
ENDBRANCH  17  20
ENDBRANCH   6   8
ENDBRANCH   5   6
ENDBRANCH   4   5
ENDBRANCH   3   4
ENDBRANCH   2   3
ENDBRANCH   1   2
BRANCH   1  24
ATOM     24  C   UNL A   1      31.518  30.157  25.671  1.00  0.00     0.261 C 
BRANCH  24  25
ATOM     25  O   UNL A   1      32.913  30.285  25.972  1.00  0.00    -0.460 OA
BRANCH  25  26
ATOM     26  C   UNL A   1      33.208  31.259  26.875  1.00  0.00     0.338 C 
ATOM     27  O   UNL A   1      32.476  32.156  27.252  1.00  0.00    -0.246 OA
BRANCH  26  28
ATOM     28  C   UNL A   1      34.507  30.948  27.498  1.00  0.00     0.060 A 
ATOM     29  C   UNL A   1      35.332  31.969  27.966  1.00  0.00     0.016 A 
ATOM     30  C   UNL A   1      34.882  29.605  27.634  1.00  0.00     0.016 A 
ATOM     31  C   UNL A   1      36.537  31.638  28.587  1.00  0.00     0.010 A 
ATOM     32  C   UNL A   1      36.087  29.277  28.256  1.00  0.00     0.010 A 
ATOM     33  C   UNL A   1      36.917  30.291  28.751  1.00  0.00    -0.014 A 
BRANCH  33  34
ATOM     34  C   UNL A   1      38.121  29.957  29.551  1.00  0.00     0.031 A 
ATOM     35  C   UNL A   1      38.331  30.508  30.930  1.00  0.00     0.074 A 
ATOM     36  C   UNL A   1      39.044  29.141  29.005  1.00  0.00     0.049 A 
ATOM     37  N   UNL A   1      39.288  30.238  31.778  1.00  0.00    -0.248 NA
ATOM     38  C   UNL A   1      37.349  31.488  31.423  1.00  0.00     0.031 C 
ATOM     39  C   UNL A   1      38.979  28.589  27.650  1.00  0.00     0.029 A 
ATOM     40  N   UNL A   1      40.211  28.632  29.517  1.00  0.00    -0.354 N 
ATOM     41  C   UNL A   1      39.035  31.012  32.901  1.00  0.00     0.074 A 
ATOM     42  C   UNL A   1      37.842  31.783  32.620  1.00  0.00     0.031 C 
ATOM     43  C   UNL A   1      40.042  27.796  27.449  1.00  0.00     0.029 A 
ATOM     44  C   UNL A   1      40.879  27.807  28.645  1.00  0.00     0.049 A 
ATOM     45  H   UNL A   1      40.538  28.839  30.422  1.00  0.00     0.167 HD
ATOM     46  C   UNL A   1      39.724  31.060  34.066  1.00  0.00     0.034 A 
ATOM     47  C   UNL A   1      42.036  27.132  28.785  1.00  0.00     0.034 A 
ATOM     48  C   UNL A   1      40.905  30.287  34.344  1.00  0.00     0.049 A 
ATOM     49  C   UNL A   1      42.783  27.205  30.084  1.00  0.00     0.074 A 
ATOM     50  C   UNL A   1      41.628  30.228  35.522  1.00  0.00     0.029 A 
ATOM     51  N   UNL A   1      41.547  29.458  33.439  1.00  0.00    -0.354 N 
ATOM     52  N   UNL A   1      42.457  27.846  31.179  1.00  0.00    -0.248 NA
ATOM     53  C   UNL A   1      44.039  26.447  30.179  1.00  0.00     0.031 C 
ATOM     54  C   UNL A   1      42.729  29.391  35.319  1.00  0.00     0.029 A 
ATOM     55  C   UNL A   1      42.668  28.898  34.026  1.00  0.00     0.049 A 
ATOM     56  H   UNL A   1      41.250  29.292  32.515  1.00  0.00     0.167 HD
ATOM     57  C   UNL A   1      43.454  27.554  32.101  1.00  0.00     0.074 A 
ATOM     58  C   UNL A   1      44.392  26.669  31.441  1.00  0.00     0.031 C 
ATOM     59  C   UNL A   1      43.580  27.992  33.377  1.00  0.00     0.034 A 
BRANCH  46  60
ATOM     60  C   UNL A   1      39.204  31.944  35.165  1.00  0.00     0.023 A 
ATOM     61  C   UNL A   1      38.280  31.423  36.091  1.00  0.00     0.012 A 
ATOM     62  C   UNL A   1      39.723  33.240  35.353  1.00  0.00     0.148 A 
ATOM     63  C   UNL A   1      37.875  32.181  37.189  1.00  0.00     0.002 A 
ATOM     64  C   UNL A   1      39.334  33.979  36.464  1.00  0.00     0.091 A 
ATOM     65  F   UNL A   1      40.597  33.714  34.455  1.00  0.00    -0.205 F 
ATOM     66  C   UNL A   1      38.410  33.452  37.381  1.00  0.00     0.022 A 
BRANCH  64  67
ATOM     67  S   UNL A   1      39.988  35.613  36.824  1.00  0.00     0.127 S 
ATOM     68  O   UNL A   1      41.422  35.340  36.918  1.00  0.00    -0.237 OA
ATOM     69  O   UNL A   1      39.588  36.371  35.638  1.00  0.00    -0.237 OA
ATOM     70  O   UNL A   1      39.359  36.037  38.066  1.00  0.00    -0.744 OA
ENDBRANCH  64  67
ENDBRANCH  46  60
BRANCH  47  71
ATOM     71  C   UNL A   1      42.514  26.282  27.661  1.00  0.00     0.023 A 
ATOM     72  C   UNL A   1      43.482  26.788  26.775  1.00  0.00     0.012 A 
ATOM     73  C   UNL A   1      42.077  24.951  27.528  1.00  0.00     0.148 A 
ATOM     74  C   UNL A   1      44.011  25.976  25.771  1.00  0.00     0.002 A 
ATOM     75  C   UNL A   1      42.632  24.139  26.547  1.00  0.00     0.091 A 
ATOM     76  F   UNL A   1      41.159  24.498  28.393  1.00  0.00    -0.205 F 
ATOM     77  C   UNL A   1      43.595  24.651  25.664  1.00  0.00     0.022 A 
BRANCH  75  78
ATOM     78  S   UNL A   1      42.216  22.400  26.379  1.00  0.00     0.127 S 
ATOM     79  O   UNL A   1      40.768  22.457  26.193  1.00  0.00    -0.237 OA
ATOM     80  O   UNL A   1      42.977  22.028  25.187  1.00  0.00    -0.237 OA
ATOM     81  O   UNL A   1      42.661  21.764  27.611  1.00  0.00    -0.744 OA
ENDBRANCH  75  78
ENDBRANCH  47  71
BRANCH  59  82
ATOM     82  C   UNL A   1      44.761  27.521  34.181  1.00  0.00     0.023 A 
ATOM     83  C   UNL A   1      45.916  28.322  34.255  1.00  0.00     0.012 A 
ATOM     84  C   UNL A   1      44.666  26.360  34.974  1.00  0.00     0.148 A 
ATOM     85  C   UNL A   1      46.962  27.973  35.107  1.00  0.00     0.002 A 
ATOM     86  C   UNL A   1      45.700  26.035  35.843  1.00  0.00     0.091 A 
ATOM     87  F   UNL A   1      43.555  25.616  34.882  1.00  0.00    -0.205 F 
ATOM     88  C   UNL A   1      46.849  26.840  35.911  1.00  0.00     0.022 A 
BRANCH  86  89
ATOM     89  S   UNL A   1      45.625  24.627  36.957  1.00  0.00     0.127 S 
ATOM     90  O   UNL A   1      46.907  24.732  37.654  1.00  0.00    -0.237 OA
ATOM     91  O   UNL A   1      44.456  24.944  37.777  1.00  0.00    -0.237 OA
ATOM     92  O   UNL A   1      45.480  23.449  36.113  1.00  0.00    -0.744 OA
ENDBRANCH  86  89
ENDBRANCH  59  82
ENDBRANCH  33  34
ENDBRANCH  26  28
ENDBRANCH  25  26
ENDBRANCH  24  25
ENDBRANCH   1  24
TORSDOF 19
ENDMDL
MODEL 3
REMARK VINA RESULT:     -10.9      5.425      8.262
REMARK SMILES N#Cc1ccc2c(c1)C=C(C(=O)OCCOCCOC(=O)c1ccc(-c3c4nc(c(-c5cccc(S(=O)(=O)[O-])c5F)c5ccc([nH]5)c(-c5cccc(S(=O)(=O)[O-])c5F)c5nc(c(-c6cccc(S(=O)(=O)[O-])c6F)c6ccc3[nH]6)C=C5)C=C4)cc1)[C@@H](C(F)(F)F)O2
REMARK SMILES IDX 17 1 16 2 15 3 14 4 13 5 11 6 12 7 10 8 3 9 4 10 8 11 5 12
REMARK SMILES IDX 7 13 6 14 9 15 90 16 85 17 2 18 1 19 86 20 87 21 88 22 89 23
REMARK SMILES IDX 18 24 19 25 20 26 21 27 22 28 23 29 84 30 24 31 83 32 25 33
REMARK SMILES IDX 26 34 27 35 77 36 28 37 82 38 76 39 78 40 29 41 81 42 75 43
REMARK SMILES IDX 74 44 30 46 62 47 42 48 61 49 43 50 46 51 60 52 79 53 44 54
REMARK SMILES IDX 45 55 59 57 80 58 47 59 31 60 32 61 40 62 33 63 35 64 41 65
REMARK SMILES IDX 34 66 36 67 37 68 38 69 39 70 63 71 64 72 72 73 65 74 67 75
REMARK SMILES IDX 73 76 66 77 68 78 69 79 70 80 71 81 48 82 49 83 57 84 50 85
REMARK SMILES IDX 52 86 58 87 51 88 53 89 54 90 55 91 56 92
REMARK H PARENT 78 45 46 56
REMARK Flexibility Score: inf
ROOT
ATOM      1  C   UNL A   1      38.025  20.710  25.456  1.00  0.00     0.202 C 
ENDROOT
BRANCH   1   2
ATOM      2  O   UNL A   1      38.203  22.067  25.062  1.00  0.00    -0.374 OA
BRANCH   2   3
ATOM      3  C   UNL A   1      38.009  23.100  26.024  1.00  0.00     0.202 C 
BRANCH   3   4
ATOM      4  C   UNL A   1      36.617  23.725  26.165  1.00  0.00     0.261 C 
BRANCH   4   5
ATOM      5  O   UNL A   1      35.772  23.443  25.042  1.00  0.00    -0.460 OA
BRANCH   5   6
ATOM      6  C   UNL A   1      34.449  23.450  25.330  1.00  0.00     0.338 C 
ATOM      7  O   UNL A   1      33.813  24.354  25.847  1.00  0.00    -0.246 OA
BRANCH   6   8
ATOM      8  C   UNL A   1      33.817  22.231  24.788  1.00  0.00     0.087 C 
ATOM      9  C   UNL A   1      34.002  17.450  24.401  1.00  0.00     0.053 A 
ATOM     10  C   UNL A   1      33.081  17.508  23.350  1.00  0.00     0.023 A 
ATOM     11  C   UNL A   1      34.352  18.622  25.080  1.00  0.00     0.031 A 
ATOM     12  C   UNL A   1      32.498  18.728  22.996  1.00  0.00     0.048 A 
ATOM     13  C   UNL A   1      33.800  19.848  24.692  1.00  0.00     0.019 A 
ATOM     14  C   UNL A   1      32.859  19.898  23.663  1.00  0.00     0.128 A 
ATOM     15  C   UNL A   1      34.266  21.078  25.299  1.00  0.00     0.027 C 
ATOM     16  O   UNL A   1      32.246  21.046  23.254  1.00  0.00    -0.475 OA
ATOM     17  C   UNL A   1      32.773  22.327  23.709  1.00  0.00     0.316 C 
BRANCH   9  18
ATOM     18  C   UNL A   1      34.611  16.206  24.766  1.00  0.00     0.099 C 
ATOM     19  N   UNL A   1      35.097  15.191  25.058  1.00  0.00    -0.192 NA
ENDBRANCH   9  18
BRANCH  17  20
ATOM     20  C   UNL A   1      33.266  23.112  22.484  1.00  0.00     0.430 C 
ATOM     21  F   UNL A   1      32.631  22.710  21.357  1.00  0.00    -0.167 F 
ATOM     22  F   UNL A   1      33.040  24.439  22.610  1.00  0.00    -0.167 F 
ATOM     23  F   UNL A   1      34.594  22.941  22.284  1.00  0.00    -0.167 F 
ENDBRANCH  17  20
ENDBRANCH   6   8
ENDBRANCH   5   6
ENDBRANCH   4   5
ENDBRANCH   3   4
ENDBRANCH   2   3
ENDBRANCH   1   2
BRANCH   1  24
ATOM     24  C   UNL A   1      39.148  19.689  25.221  1.00  0.00     0.261 C 
BRANCH  24  25
ATOM     25  O   UNL A   1      39.911  19.383  26.394  1.00  0.00    -0.460 OA
BRANCH  25  26
ATOM     26  C   UNL A   1      41.243  19.637  26.283  1.00  0.00     0.338 C 
ATOM     27  O   UNL A   1      42.108  18.866  25.907  1.00  0.00    -0.246 OA
BRANCH  26  28
ATOM     28  C   UNL A   1      41.469  21.078  26.498  1.00  0.00     0.060 A 
ATOM     29  C   UNL A   1      41.180  21.666  27.728  1.00  0.00     0.016 A 
ATOM     30  C   UNL A   1      42.006  21.836  25.449  1.00  0.00     0.016 A 
ATOM     31  C   UNL A   1      41.444  23.024  27.910  1.00  0.00     0.010 A 
ATOM     32  C   UNL A   1      42.269  23.193  25.635  1.00  0.00     0.010 A 
ATOM     33  C   UNL A   1      42.004  23.795  26.873  1.00  0.00    -0.014 A 
BRANCH  33  34
ATOM     34  C   UNL A   1      42.422  25.194  27.136  1.00  0.00     0.031 A 
ATOM     35  C   UNL A   1      41.521  26.169  27.833  1.00  0.00     0.074 A 
ATOM     36  C   UNL A   1      43.645  25.583  26.723  1.00  0.00     0.049 A 
ATOM     37  N   UNL A   1      41.782  27.394  28.206  1.00  0.00    -0.248 NA
ATOM     38  C   UNL A   1      40.156  25.720  28.150  1.00  0.00     0.031 C 
ATOM     39  C   UNL A   1      44.588  24.741  25.984  1.00  0.00     0.029 A 
ATOM     40  N   UNL A   1      44.305  26.777  26.867  1.00  0.00    -0.354 N 
ATOM     41  C   UNL A   1      40.619  27.870  28.796  1.00  0.00     0.074 A 
ATOM     42  C   UNL A   1      39.640  26.807  28.713  1.00  0.00     0.031 C 
ATOM     43  C   UNL A   1      45.715  25.435  25.764  1.00  0.00     0.029 A 
ATOM     44  C   UNL A   1      45.564  26.777  26.318  1.00  0.00     0.049 A 
ATOM     45  H   UNL A   1      43.913  27.559  27.319  1.00  0.00     0.167 HD
ATOM     46  C   UNL A   1      40.398  29.076  29.371  1.00  0.00     0.034 A 
ATOM     47  C   UNL A   1      46.499  27.746  26.262  1.00  0.00     0.034 A 
ATOM     48  C   UNL A   1      41.376  30.127  29.458  1.00  0.00     0.049 A 
ATOM     49  C   UNL A   1      46.227  29.075  26.903  1.00  0.00     0.074 A 
ATOM     50  C   UNL A   1      41.253  31.358  30.080  1.00  0.00     0.029 A 
ATOM     51  N   UNL A   1      42.641  30.088  28.896  1.00  0.00    -0.354 N 
ATOM     52  N   UNL A   1      45.165  29.459  27.566  1.00  0.00    -0.248 NA
ATOM     53  C   UNL A   1      47.284  30.092  26.810  1.00  0.00     0.031 C 
ATOM     54  C   UNL A   1      42.431  32.076  29.864  1.00  0.00     0.029 A 
ATOM     55  C   UNL A   1      43.303  31.278  29.142  1.00  0.00     0.049 A 
ATOM     56  H   UNL A   1      43.014  29.326  28.397  1.00  0.00     0.167 HD
ATOM     57  C   UNL A   1      45.431  30.756  27.989  1.00  0.00     0.074 A 
ATOM     58  C   UNL A   1      46.759  31.088  27.517  1.00  0.00     0.031 C 
ATOM     59  C   UNL A   1      44.637  31.593  28.698  1.00  0.00     0.034 A 
BRANCH  46  60
ATOM     60  C   UNL A   1      39.056  29.328  30.001  1.00  0.00     0.023 A 
ATOM     61  C   UNL A   1      38.789  28.811  31.285  1.00  0.00     0.012 A 
ATOM     62  C   UNL A   1      38.117  30.176  29.383  1.00  0.00     0.148 A 
ATOM     63  C   UNL A   1      37.602  29.131  31.943  1.00  0.00     0.002 A 
ATOM     64  C   UNL A   1      36.948  30.510  30.056  1.00  0.00     0.091 A 
ATOM     65  F   UNL A   1      38.393  30.650  28.160  1.00  0.00    -0.205 F 
ATOM     66  C   UNL A   1      36.688  29.988  31.334  1.00  0.00     0.022 A 
BRANCH  64  67
ATOM     67  S   UNL A   1      35.721  31.633  29.377  1.00  0.00     0.127 S 
ATOM     68  O   UNL A   1      34.829  31.818  30.521  1.00  0.00    -0.237 OA
ATOM     69  O   UNL A   1      36.531  32.803  29.039  1.00  0.00    -0.237 OA
ATOM     70  O   UNL A   1      35.128  30.946  28.239  1.00  0.00    -0.744 OA
ENDBRANCH  64  67
ENDBRANCH  46  60
BRANCH  47  71
ATOM     71  C   UNL A   1      47.804  27.449  25.613  1.00  0.00     0.023 A 
ATOM     72  C   UNL A   1      48.847  26.896  26.377  1.00  0.00     0.012 A 
ATOM     73  C   UNL A   1      47.977  27.630  24.228  1.00  0.00     0.148 A 
ATOM     74  C   UNL A   1      50.047  26.525  25.770  1.00  0.00     0.002 A 
ATOM     75  C   UNL A   1      49.162  27.228  23.624  1.00  0.00     0.091 A 
ATOM     76  F   UNL A   1      46.962  28.152  23.527  1.00  0.00    -0.205 F 
ATOM     77  C   UNL A   1      50.201  26.681  24.394  1.00  0.00     0.022 A 
BRANCH  75  78
ATOM     78  S   UNL A   1      49.425  27.316  21.850  1.00  0.00     0.127 S 
ATOM     79  O   UNL A   1      49.203  28.737  21.588  1.00  0.00    -0.237 OA
ATOM     80  O   UNL A   1      50.815  26.877  21.734  1.00  0.00    -0.237 OA
ATOM     81  O   UNL A   1      48.447  26.414  21.257  1.00  0.00    -0.744 OA
ENDBRANCH  75  78
ENDBRANCH  47  71
BRANCH  59  82
ATOM     82  C   UNL A   1      45.164  32.959  29.041  1.00  0.00     0.023 A 
ATOM     83  C   UNL A   1      45.913  33.141  30.219  1.00  0.00     0.012 A 
ATOM     84  C   UNL A   1      45.037  34.023  28.125  1.00  0.00     0.148 A 
ATOM     85  C   UNL A   1      46.530  34.363  30.481  1.00  0.00     0.002 A 
ATOM     86  C   UNL A   1      45.679  35.228  28.378  1.00  0.00     0.091 A 
ATOM     87  F   UNL A   1      44.317  33.822  27.013  1.00  0.00    -0.205 F 
ATOM     88  C   UNL A   1      46.425  35.400  29.556  1.00  0.00     0.022 A 
BRANCH  86  89
ATOM     89  S   UNL A   1      45.650  36.605  27.223  1.00  0.00     0.127 S 
ATOM     90  O   UNL A   1      44.215  36.875  27.121  1.00  0.00    -0.237 OA
ATOM     91  O   UNL A   1      46.414  37.625  27.940  1.00  0.00    -0.237 OA
ATOM     92  O   UNL A   1      46.272  36.121  25.998  1.00  0.00    -0.744 OA
ENDBRANCH  86  89
ENDBRANCH  59  82
ENDBRANCH  33  34
ENDBRANCH  26  28
ENDBRANCH  25  26
ENDBRANCH  24  25
ENDBRANCH   1  24
TORSDOF 19
ENDMDL
