MODEL 1
REMARK VINA RESULT:     -11.3      0.000      0.000
REMARK SMILES O=C(OCCOCCOC(=O)c1ccc(-c2c3nc(c(-c4cccc(S(=O)(=O)[O-])c4F)c4ccc([nH]4)c(-c4cccc(S(=O)(=O)[O-])c4F)c4nc(c(-c5cccc(S(=O)(=O)[O-])c5F)c5ccc2[nH]5)C=C4)C=C3)cc1)c1ccc(CNC(=O)c2ccccc2I)cc1
REMARK SMILES IDX 6 1 5 2 4 3 3 4 2 5 1 6 75 7 76 8 91 9 77 10 90 11 78 12
REMARK SMILES IDX 79 13 80 14 81 15 82 17 83 18 84 19 88 20 85 21 87 22 89 23
REMARK SMILES IDX 86 24 7 25 8 26 9 27 10 28 11 29 12 30 13 31 74 32 14 33
REMARK SMILES IDX 73 34 15 35 16 36 17 37 67 38 18 39 72 40 66 41 68 42 19 43
REMARK SMILES IDX 71 44 65 45 64 46 20 48 52 49 32 50 51 51 33 52 36 53 50 54
REMARK SMILES IDX 69 55 34 56 35 57 49 59 70 60 37 61 21 62 22 63 30 64 23 65
REMARK SMILES IDX 25 66 31 67 24 68 26 69 27 70 28 71 29 72 53 73 54 74 62 75
REMARK SMILES IDX 55 76 57 77 63 78 56 79 58 80 59 81 60 82 61 83 38 84 39 85
REMARK SMILES IDX 47 86 40 87 42 88 48 89 41 90 43 91 44 92 45 93 46 94
REMARK H PARENT 80 16 68 47 36 58
REMARK Flexibility Score: inf
ROOT
ATOM      1  O   UNL A   1      34.552  35.108  31.304  1.00  0.00    -0.374 OA
ENDROOT
BRANCH   1   2
ATOM      2  C   UNL A   1      33.269  35.185  30.676  1.00  0.00     0.202 C 
BRANCH   2   3
ATOM      3  C   UNL A   1      33.272  34.686  29.231  1.00  0.00     0.261 C 
BRANCH   3   4
ATOM      4  O   UNL A   1      33.923  33.405  29.154  1.00  0.00    -0.460 OA
BRANCH   4   5
ATOM      5  C   UNL A   1      34.454  32.834  28.050  1.00  0.00     0.338 C 
ATOM      6  O   UNL A   1      35.207  33.478  27.323  1.00  0.00    -0.246 OA
BRANCH   5   7
ATOM      7  C   UNL A   1      34.193  31.416  27.690  1.00  0.00     0.060 A 
ATOM      8  C   UNL A   1      32.994  30.965  27.136  1.00  0.00     0.016 A 
ATOM      9  C   UNL A   1      35.274  30.529  27.767  1.00  0.00     0.016 A 
ATOM     10  C   UNL A   1      32.853  29.649  26.701  1.00  0.00     0.006 A 
ATOM     11  C   UNL A   1      35.143  29.214  27.312  1.00  0.00     0.006 A 
ATOM     12  C   UNL A   1      33.929  28.763  26.776  1.00  0.00    -0.029 A 
BRANCH  12  13
ATOM     13  C   UNL A   1      33.809  27.396  26.163  1.00  0.00     0.152 C 
BRANCH  13  14
ATOM     14  N   UNL A   1      32.571  26.733  26.518  1.00  0.00    -0.348 N 
ATOM     15  C   UNL A   1      32.163  25.442  26.301  1.00  0.00     0.252 C 
ATOM     16  H   UNL A   1      31.919  27.299  26.991  1.00  0.00     0.164 HD
ATOM     17  O   UNL A   1      31.043  25.086  26.658  1.00  0.00    -0.269 OA
BRANCH  15  18
ATOM     18  C   UNL A   1      33.010  24.487  25.554  1.00  0.00     0.053 A 
ATOM     19  C   UNL A   1      33.892  23.720  26.335  1.00  0.00     0.015 A 
ATOM     20  C   UNL A   1      33.038  24.357  24.160  1.00  0.00     0.026 A 
ATOM     21  C   UNL A   1      34.740  22.784  25.741  1.00  0.00     0.001 A 
ATOM     22  C   UNL A   1      33.860  23.383  23.573  1.00  0.00     0.015 A 
ATOM     23  I   UNL A   1      32.021  25.638  22.841  1.00  0.00    -0.043 I 
ATOM     24  C   UNL A   1      34.704  22.598  24.362  1.00  0.00     0.001 A 
ENDBRANCH  15  18
ENDBRANCH  13  14
ENDBRANCH  12  13
ENDBRANCH   5   7
ENDBRANCH   4   5
ENDBRANCH   3   4
ENDBRANCH   2   3
ENDBRANCH   1   2
BRANCH   1  25
ATOM     25  C   UNL A   1      34.537  35.175  32.737  1.00  0.00     0.202 C 
BRANCH  25  26
ATOM     26  C   UNL A   1      35.884  34.696  33.283  1.00  0.00     0.261 C 
BRANCH  26  27
ATOM     27  O   UNL A   1      36.489  33.860  32.290  1.00  0.00    -0.460 OA
BRANCH  27  28
ATOM     28  C   UNL A   1      36.363  32.529  32.545  1.00  0.00     0.338 C 
ATOM     29  O   UNL A   1      35.501  31.990  33.201  1.00  0.00    -0.246 OA
BRANCH  28  30
ATOM     30  C   UNL A   1      37.353  31.808  31.711  1.00  0.00     0.060 A 
ATOM     31  C   UNL A   1      38.187  30.881  32.350  1.00  0.00     0.016 A 
ATOM     32  C   UNL A   1      37.444  32.007  30.330  1.00  0.00     0.016 A 
ATOM     33  C   UNL A   1      39.162  30.207  31.620  1.00  0.00     0.010 A 
ATOM     34  C   UNL A   1      38.413  31.326  29.597  1.00  0.00     0.010 A 
ATOM     35  C   UNL A   1      39.307  30.465  30.251  1.00  0.00    -0.014 A 
BRANCH  35  36
ATOM     36  C   UNL A   1      40.517  29.990  29.549  1.00  0.00     0.031 A 
ATOM     37  C   UNL A   1      40.475  28.635  28.899  1.00  0.00     0.074 A 
ATOM     38  C   UNL A   1      41.618  30.758  29.482  1.00  0.00     0.049 A 
ATOM     39  N   UNL A   1      41.395  28.020  28.206  1.00  0.00    -0.248 NA
ATOM     40  C   UNL A   1      39.228  27.865  29.058  1.00  0.00     0.031 C 
ATOM     41  C   UNL A   1      41.771  32.072  30.106  1.00  0.00     0.029 A 
ATOM     42  N   UNL A   1      42.824  30.527  28.875  1.00  0.00    -0.354 N 
ATOM     43  C   UNL A   1      40.845  26.793  27.855  1.00  0.00     0.074 A 
ATOM     44  C   UNL A   1      39.525  26.732  28.440  1.00  0.00     0.031 C 
ATOM     45  C   UNL A   1      43.016  32.522  29.870  1.00  0.00     0.029 A 
ATOM     46  C   UNL A   1      43.744  31.525  29.089  1.00  0.00     0.049 A 
ATOM     47  H   UNL A   1      43.013  29.724  28.339  1.00  0.00     0.167 HD
ATOM     48  C   UNL A   1      41.381  25.815  27.088  1.00  0.00     0.034 A 
ATOM     49  C   UNL A   1      45.033  31.611  28.703  1.00  0.00     0.034 A 
ATOM     50  C   UNL A   1      42.692  25.890  26.506  1.00  0.00     0.049 A 
ATOM     51  C   UNL A   1      45.604  30.511  27.846  1.00  0.00     0.074 A 
ATOM     52  C   UNL A   1      43.328  24.972  25.691  1.00  0.00     0.029 A 
ATOM     53  N   UNL A   1      43.575  26.944  26.689  1.00  0.00    -0.354 N 
ATOM     54  N   UNL A   1      45.029  29.413  27.415  1.00  0.00    -0.248 NA
ATOM     55  C   UNL A   1      46.987  30.685  27.381  1.00  0.00     0.031 C 
ATOM     56  C   UNL A   1      44.603  25.463  25.394  1.00  0.00     0.029 A 
ATOM     57  C   UNL A   1      44.752  26.700  26.002  1.00  0.00     0.049 A 
ATOM     58  H   UNL A   1      43.392  27.747  27.227  1.00  0.00     0.167 HD
ATOM     59  C   UNL A   1      45.967  28.779  26.609  1.00  0.00     0.074 A 
ATOM     60  C   UNL A   1      47.136  29.636  26.583  1.00  0.00     0.031 C 
ATOM     61  C   UNL A   1      45.885  27.589  25.964  1.00  0.00     0.034 A 
BRANCH  48  62
ATOM     62  C   UNL A   1      40.527  24.607  26.803  1.00  0.00     0.023 A 
ATOM     63  C   UNL A   1      39.203  24.787  26.351  1.00  0.00     0.012 A 
ATOM     64  C   UNL A   1      41.041  23.304  26.939  1.00  0.00     0.148 A 
ATOM     65  C   UNL A   1      38.393  23.687  26.068  1.00  0.00     0.002 A 
ATOM     66  C   UNL A   1      40.241  22.214  26.612  1.00  0.00     0.091 A 
ATOM     67  F   UNL A   1      42.292  23.154  27.394  1.00  0.00    -0.205 F 
ATOM     68  C   UNL A   1      38.916  22.402  26.189  1.00  0.00     0.022 A 
BRANCH  66  69
ATOM     69  S   UNL A   1      40.838  20.521  26.663  1.00  0.00     0.127 S 
ATOM     70  O   UNL A   1      39.792  19.816  25.924  1.00  0.00    -0.237 OA
ATOM     71  O   UNL A   1      42.116  20.627  25.959  1.00  0.00    -0.237 OA
ATOM     72  O   UNL A   1      40.946  20.172  28.072  1.00  0.00    -0.744 OA
ENDBRANCH  66  69
ENDBRANCH  48  62
BRANCH  49  73
ATOM     73  C   UNL A   1      45.851  32.794  29.089  1.00  0.00     0.023 A 
ATOM     74  C   UNL A   1      46.601  32.773  30.280  1.00  0.00     0.012 A 
ATOM     75  C   UNL A   1      45.902  33.938  28.266  1.00  0.00     0.148 A 
ATOM     76  C   UNL A   1      47.358  33.882  30.664  1.00  0.00     0.002 A 
ATOM     77  C   UNL A   1      46.704  35.014  28.625  1.00  0.00     0.091 A 
ATOM     78  F   UNL A   1      45.167  33.947  27.146  1.00  0.00    -0.205 F 
ATOM     79  C   UNL A   1      47.419  34.996  29.832  1.00  0.00     0.022 A 
BRANCH  77  80
ATOM     80  S   UNL A   1      46.946  36.428  27.543  1.00  0.00     0.127 S 
ATOM     81  O   UNL A   1      45.696  37.160  27.724  1.00  0.00    -0.237 OA
ATOM     82  O   UNL A   1      48.124  37.064  28.136  1.00  0.00    -0.237 OA
ATOM     83  O   UNL A   1      47.173  35.870  26.217  1.00  0.00    -0.744 OA
ENDBRANCH  77  80
ENDBRANCH  49  73
BRANCH  61  84
ATOM     84  C   UNL A   1      47.085  27.157  25.161  1.00  0.00     0.023 A 
ATOM     85  C   UNL A   1      47.980  26.210  25.695  1.00  0.00     0.012 A 
ATOM     86  C   UNL A   1      47.300  27.658  23.862  1.00  0.00     0.148 A 
ATOM     87  C   UNL A   1      49.099  25.805  24.969  1.00  0.00     0.002 A 
ATOM     88  C   UNL A   1      48.390  27.210  23.124  1.00  0.00     0.091 A 
ATOM     89  F   UNL A   1      46.447  28.572  23.377  1.00  0.00    -0.205 F 
ATOM     90  C   UNL A   1      49.298  26.296  23.681  1.00  0.00     0.022 A 
BRANCH  88  91
ATOM     91  S   UNL A   1      48.667  27.718  21.424  1.00  0.00     0.127 S 
ATOM     92  O   UNL A   1      47.310  27.701  20.882  1.00  0.00    -0.237 OA
ATOM     93  O   UNL A   1      49.243  29.054  21.587  1.00  0.00    -0.237 OA
ATOM     94  O   UNL A   1      49.583  26.735  20.860  1.00  0.00    -0.744 OA
ENDBRANCH  88  91
ENDBRANCH  61  84
ENDBRANCH  35  36
ENDBRANCH  28  30
ENDBRANCH  27  28
ENDBRANCH  26  27
ENDBRANCH  25  26
ENDBRANCH   1  25
TORSDOF 20
ENDMDL
MODEL 2
REMARK VINA RESULT:     -10.4      3.357     10.321
REMARK SMILES O=C(OCCOCCOC(=O)c1ccc(-c2c3nc(c(-c4cccc(S(=O)(=O)[O-])c4F)c4ccc([nH]4)c(-c4cccc(S(=O)(=O)[O-])c4F)c4nc(c(-c5cccc(S(=O)(=O)[O-])c5F)c5ccc2[nH]5)C=C4)C=C3)cc1)c1ccc(CNC(=O)c2ccccc2I)cc1
REMARK SMILES IDX 6 1 5 2 4 3 3 4 2 5 1 6 75 7 76 8 91 9 77 10 90 11 78 12
REMARK SMILES IDX 79 13 80 14 81 15 82 17 83 18 84 19 88 20 85 21 87 22 89 23
REMARK SMILES IDX 86 24 7 25 8 26 9 27 10 28 11 29 12 30 13 31 74 32 14 33
REMARK SMILES IDX 73 34 15 35 16 36 17 37 67 38 18 39 72 40 66 41 68 42 19 43
REMARK SMILES IDX 71 44 65 45 64 46 20 48 52 49 32 50 51 51 33 52 36 53 50 54
REMARK SMILES IDX 69 55 34 56 35 57 49 59 70 60 37 61 21 62 22 63 30 64 23 65
REMARK SMILES IDX 25 66 31 67 24 68 26 69 27 70 28 71 29 72 53 73 54 74 62 75
REMARK SMILES IDX 55 76 57 77 63 78 56 79 58 80 59 81 60 82 61 83 38 84 39 85
REMARK SMILES IDX 47 86 40 87 42 88 48 89 41 90 43 91 44 92 45 93 46 94
REMARK H PARENT 80 16 68 47 36 58
REMARK Flexibility Score: inf
ROOT
ATOM      1  O   UNL A   1      41.697  20.665  27.020  1.00  0.00    -0.374 OA
ENDROOT
BRANCH   1   2
ATOM      2  C   UNL A   1      41.492  22.078  26.930  1.00  0.00     0.202 C 
BRANCH   2   3
ATOM      3  C   UNL A   1      40.058  22.502  27.250  1.00  0.00     0.261 C 
BRANCH   3   4
ATOM      4  O   UNL A   1      39.364  22.847  26.037  1.00  0.00    -0.460 OA
BRANCH   4   5
ATOM      5  C   UNL A   1      38.286  22.220  25.517  1.00  0.00     0.338 C 
ATOM      6  O   UNL A   1      38.279  20.997  25.402  1.00  0.00    -0.246 OA
BRANCH   5   7
ATOM      7  C   UNL A   1      37.063  22.958  25.106  1.00  0.00     0.060 A 
ATOM      8  C   UNL A   1      36.565  22.968  23.802  1.00  0.00     0.016 A 
ATOM      9  C   UNL A   1      36.295  23.536  26.123  1.00  0.00     0.016 A 
ATOM     10  C   UNL A   1      35.347  23.572  23.502  1.00  0.00     0.006 A 
ATOM     11  C   UNL A   1      35.061  24.125  25.830  1.00  0.00     0.006 A 
ATOM     12  C   UNL A   1      34.578  24.148  24.514  1.00  0.00    -0.029 A 
BRANCH  12  13
ATOM     13  C   UNL A   1      33.199  24.658  24.201  1.00  0.00     0.152 C 
BRANCH  13  14
ATOM     14  N   UNL A   1      32.296  24.549  25.329  1.00  0.00    -0.348 N 
ATOM     15  C   UNL A   1      31.273  25.371  25.727  1.00  0.00     0.252 C 
ATOM     16  H   UNL A   1      32.440  23.760  25.901  1.00  0.00     0.164 HD
ATOM     17  O   UNL A   1      30.643  25.111  26.749  1.00  0.00    -0.269 OA
BRANCH  15  18
ATOM     18  C   UNL A   1      30.971  26.624  25.002  1.00  0.00     0.053 A 
ATOM     19  C   UNL A   1      30.017  26.516  23.976  1.00  0.00     0.015 A 
ATOM     20  C   UNL A   1      31.609  27.852  25.220  1.00  0.00     0.026 A 
ATOM     21  C   UNL A   1      29.651  27.633  23.224  1.00  0.00     0.001 A 
ATOM     22  C   UNL A   1      31.203  28.980  24.491  1.00  0.00     0.015 A 
ATOM     23  I   UNL A   1      33.264  28.106  26.489  1.00  0.00    -0.043 I 
ATOM     24  C   UNL A   1      30.225  28.870  23.500  1.00  0.00     0.001 A 
ENDBRANCH  15  18
ENDBRANCH  13  14
ENDBRANCH  12  13
ENDBRANCH   5   7
ENDBRANCH   4   5
ENDBRANCH   3   4
ENDBRANCH   2   3
ENDBRANCH   1   2
BRANCH   1  25
ATOM     25  C   UNL A   1      41.738  19.971  25.765  1.00  0.00     0.202 C 
BRANCH  25  26
ATOM     26  C   UNL A   1      42.722  18.803  25.860  1.00  0.00     0.261 C 
BRANCH  26  27
ATOM     27  O   UNL A   1      44.049  19.341  25.805  1.00  0.00    -0.460 OA
BRANCH  27  28
ATOM     28  C   UNL A   1      44.330  19.985  24.640  1.00  0.00     0.338 C 
ATOM     29  O   UNL A   1      44.139  19.580  23.516  1.00  0.00    -0.246 OA
BRANCH  28  30
ATOM     30  C   UNL A   1      44.734  21.372  24.971  1.00  0.00     0.060 A 
ATOM     31  C   UNL A   1      45.255  21.609  26.250  1.00  0.00     0.016 A 
ATOM     32  C   UNL A   1      44.638  22.413  24.042  1.00  0.00     0.016 A 
ATOM     33  C   UNL A   1      45.612  22.902  26.624  1.00  0.00     0.010 A 
ATOM     34  C   UNL A   1      45.003  23.705  24.413  1.00  0.00     0.010 A 
ATOM     35  C   UNL A   1      45.440  23.959  25.721  1.00  0.00    -0.014 A 
BRANCH  35  36
ATOM     36  C   UNL A   1      45.526  25.350  26.210  1.00  0.00     0.031 A 
ATOM     37  C   UNL A   1      46.883  25.994  26.282  1.00  0.00     0.074 A 
ATOM     38  C   UNL A   1      44.419  26.023  26.565  1.00  0.00     0.049 A 
ATOM     39  N   UNL A   1      47.206  27.205  26.648  1.00  0.00    -0.248 NA
ATOM     40  C   UNL A   1      48.033  25.156  25.897  1.00  0.00     0.031 C 
ATOM     41  C   UNL A   1      43.061  25.478  26.562  1.00  0.00     0.029 A 
ATOM     42  N   UNL A   1      44.269  27.307  27.019  1.00  0.00    -0.354 N 
ATOM     43  C   UNL A   1      48.590  27.273  26.546  1.00  0.00     0.074 A 
ATOM     44  C   UNL A   1      49.053  25.972  26.120  1.00  0.00     0.031 C 
ATOM     45  C   UNL A   1      42.216  26.418  27.020  1.00  0.00     0.029 A 
ATOM     46  C   UNL A   1      42.974  27.620  27.356  1.00  0.00     0.049 A 
ATOM     47  H   UNL A   1      45.016  27.942  27.098  1.00  0.00     0.167 HD
ATOM     48  C   UNL A   1      49.403  28.334  26.760  1.00  0.00     0.034 A 
ATOM     49  C   UNL A   1      42.468  28.752  27.885  1.00  0.00     0.034 A 
ATOM     50  C   UNL A   1      48.931  29.625  27.179  1.00  0.00     0.049 A 
ATOM     51  C   UNL A   1      43.392  29.920  28.109  1.00  0.00     0.074 A 
ATOM     52  C   UNL A   1      49.659  30.780  27.401  1.00  0.00     0.029 A 
ATOM     53  N   UNL A   1      47.605  29.928  27.448  1.00  0.00    -0.354 N 
ATOM     54  N   UNL A   1      44.683  30.010  27.888  1.00  0.00    -0.248 NA
ATOM     55  C   UNL A   1      42.783  31.159  28.612  1.00  0.00     0.031 C 
ATOM     56  C   UNL A   1      48.774  31.778  27.822  1.00  0.00     0.029 A 
ATOM     57  C   UNL A   1      47.491  31.252  27.836  1.00  0.00     0.049 A 
ATOM     58  H   UNL A   1      46.854  29.296  27.374  1.00  0.00     0.167 HD
ATOM     59  C   UNL A   1      45.035  31.319  28.198  1.00  0.00     0.074 A 
ATOM     60  C   UNL A   1      43.813  31.994  28.587  1.00  0.00     0.031 C 
ATOM     61  C   UNL A   1      46.256  31.908  28.183  1.00  0.00     0.034 A 
BRANCH  48  62
ATOM     62  C   UNL A   1      50.875  28.147  26.502  1.00  0.00     0.023 A 
ATOM     63  C   UNL A   1      51.739  27.880  27.584  1.00  0.00     0.012 A 
ATOM     64  C   UNL A   1      51.397  28.191  25.195  1.00  0.00     0.148 A 
ATOM     65  C   UNL A   1      53.104  27.690  27.374  1.00  0.00     0.002 A 
ATOM     66  C   UNL A   1      52.752  27.956  24.989  1.00  0.00     0.091 A 
ATOM     67  F   UNL A   1      50.564  28.471  24.183  1.00  0.00    -0.205 F 
ATOM     68  C   UNL A   1      53.608  27.717  26.076  1.00  0.00     0.022 A 
BRANCH  66  69
ATOM     69  S   UNL A   1      53.490  27.898  23.353  1.00  0.00     0.127 S 
ATOM     70  O   UNL A   1      53.311  29.276  22.898  1.00  0.00    -0.237 OA
ATOM     71  O   UNL A   1      54.874  27.531  23.656  1.00  0.00    -0.237 OA
ATOM     72  O   UNL A   1      52.743  26.895  22.608  1.00  0.00    -0.744 OA
ENDBRANCH  66  69
ENDBRANCH  48  62
BRANCH  49  73
ATOM     73  C   UNL A   1      41.014  28.845  28.198  1.00  0.00     0.023 A 
ATOM     74  C   UNL A   1      40.080  29.013  27.158  1.00  0.00     0.012 A 
ATOM     75  C   UNL A   1      40.552  28.747  29.525  1.00  0.00     0.148 A 
ATOM     76  C   UNL A   1      38.717  29.120  27.437  1.00  0.00     0.002 A 
ATOM     77  C   UNL A   1      39.189  28.794  29.790  1.00  0.00     0.091 A 
ATOM     78  F   UNL A   1      41.457  28.605  30.504  1.00  0.00    -0.205 F 
ATOM     79  C   UNL A   1      38.270  28.999  28.750  1.00  0.00     0.022 A 
BRANCH  77  80
ATOM     80  S   UNL A   1      38.524  28.509  31.434  1.00  0.00     0.127 S 
ATOM     81  O   UNL A   1      38.866  27.106  31.657  1.00  0.00    -0.237 OA
ATOM     82  O   UNL A   1      39.288  29.464  32.239  1.00  0.00    -0.237 OA
ATOM     83  O   UNL A   1      37.103  28.811  31.338  1.00  0.00    -0.744 OA
ENDBRANCH  77  80
ENDBRANCH  49  73
BRANCH  61  84
ATOM     84  C   UNL A   1      46.324  33.360  28.581  1.00  0.00     0.023 A 
ATOM     85  C   UNL A   1      46.699  33.708  29.894  1.00  0.00     0.012 A 
ATOM     86  C   UNL A   1      46.058  34.377  27.644  1.00  0.00     0.148 A 
ATOM     87  C   UNL A   1      46.760  35.046  30.282  1.00  0.00     0.002 A 
ATOM     88  C   UNL A   1      46.171  35.709  28.024  1.00  0.00     0.091 A 
ATOM     89  F   UNL A   1      45.685  34.027  26.404  1.00  0.00    -0.205 F 
ATOM     90  C   UNL A   1      46.506  36.045  29.346  1.00  0.00     0.022 A 
BRANCH  88  91
ATOM     91  S   UNL A   1      45.956  37.058  26.859  1.00  0.00     0.127 S 
ATOM     92  O   UNL A   1      44.533  36.957  26.544  1.00  0.00    -0.237 OA
ATOM     93  O   UNL A   1      46.323  38.226  27.660  1.00  0.00    -0.237 OA
ATOM     94  O   UNL A   1      46.866  36.778  25.755  1.00  0.00    -0.744 OA
ENDBRANCH  88  91
ENDBRANCH  61  84
ENDBRANCH  35  36
ENDBRANCH  28  30
ENDBRANCH  27  28
ENDBRANCH  26  27
ENDBRANCH  25  26
ENDBRANCH   1  25
TORSDOF 20
ENDMDL
MODEL 3
REMARK VINA RESULT:     -10.3      3.494      8.624
REMARK SMILES O=C(OCCOCCOC(=O)c1ccc(-c2c3nc(c(-c4cccc(S(=O)(=O)[O-])c4F)c4ccc([nH]4)c(-c4cccc(S(=O)(=O)[O-])c4F)c4nc(c(-c5cccc(S(=O)(=O)[O-])c5F)c5ccc2[nH]5)C=C4)C=C3)cc1)c1ccc(CNC(=O)c2ccccc2I)cc1
REMARK SMILES IDX 6 1 5 2 4 3 3 4 2 5 1 6 75 7 76 8 91 9 77 10 90 11 78 12
REMARK SMILES IDX 79 13 80 14 81 15 82 17 83 18 84 19 88 20 85 21 87 22 89 23
REMARK SMILES IDX 86 24 7 25 8 26 9 27 10 28 11 29 12 30 13 31 74 32 14 33
REMARK SMILES IDX 73 34 15 35 16 36 17 37 67 38 18 39 72 40 66 41 68 42 19 43
REMARK SMILES IDX 71 44 65 45 64 46 20 48 52 49 32 50 51 51 33 52 36 53 50 54
REMARK SMILES IDX 69 55 34 56 35 57 49 59 70 60 37 61 21 62 22 63 30 64 23 65
REMARK SMILES IDX 25 66 31 67 24 68 26 69 27 70 28 71 29 72 53 73 54 74 62 75
REMARK SMILES IDX 55 76 57 77 63 78 56 79 58 80 59 81 60 82 61 83 38 84 39 85
REMARK SMILES IDX 47 86 40 87 42 88 48 89 41 90 43 91 44 92 45 93 46 94
REMARK H PARENT 80 16 68 47 36 58
REMARK Flexibility Score: inf
ROOT
ATOM      1  O   UNL A   1      34.486  32.276  30.449  1.00  0.00    -0.374 OA
ENDROOT
BRANCH   1   2
ATOM      2  C   UNL A   1      34.241  33.221  29.404  1.00  0.00     0.202 C 
BRANCH   2   3
ATOM      3  C   UNL A   1      34.429  32.636  28.003  1.00  0.00     0.261 C 
BRANCH   3   4
ATOM      4  O   UNL A   1      34.033  31.253  27.991  1.00  0.00    -0.460 OA
BRANCH   4   5
ATOM      5  C   UNL A   1      32.985  30.718  27.327  1.00  0.00     0.338 C 
ATOM      6  O   UNL A   1      32.073  31.441  26.930  1.00  0.00    -0.246 OA
BRANCH   5   7
ATOM      7  C   UNL A   1      32.903  29.269  27.012  1.00  0.00     0.060 A 
ATOM      8  C   UNL A   1      31.725  28.523  27.094  1.00  0.00     0.016 A 
ATOM      9  C   UNL A   1      34.038  28.672  26.452  1.00  0.00     0.016 A 
ATOM     10  C   UNL A   1      31.682  27.199  26.665  1.00  0.00     0.006 A 
ATOM     11  C   UNL A   1      33.993  27.350  26.000  1.00  0.00     0.006 A 
ATOM     12  C   UNL A   1      32.812  26.602  26.105  1.00  0.00    -0.029 A 
BRANCH  12  13
ATOM     13  C   UNL A   1      32.707  25.227  25.507  1.00  0.00     0.152 C 
BRANCH  13  14
ATOM     14  N   UNL A   1      33.104  25.193  24.114  1.00  0.00    -0.348 N 
ATOM     15  C   UNL A   1      33.491  24.138  23.328  1.00  0.00     0.252 C 
ATOM     16  H   UNL A   1      33.095  26.067  23.660  1.00  0.00     0.164 HD
ATOM     17  O   UNL A   1      33.826  24.335  22.163  1.00  0.00    -0.269 OA
BRANCH  15  18
ATOM     18  C   UNL A   1      33.609  22.773  23.883  1.00  0.00     0.053 A 
ATOM     19  C   UNL A   1      32.434  22.002  23.851  1.00  0.00     0.015 A 
ATOM     20  C   UNL A   1      34.759  22.246  24.484  1.00  0.00     0.026 A 
ATOM     21  C   UNL A   1      32.424  20.698  24.346  1.00  0.00     0.001 A 
ATOM     22  C   UNL A   1      34.755  20.918  24.938  1.00  0.00     0.015 A 
ATOM     23  I   UNL A   1      36.489  23.367  24.893  1.00  0.00    -0.043 I 
ATOM     24  C   UNL A   1      33.592  20.148  24.866  1.00  0.00     0.001 A 
ENDBRANCH  15  18
ENDBRANCH  13  14
ENDBRANCH  12  13
ENDBRANCH   5   7
ENDBRANCH   4   5
ENDBRANCH   3   4
ENDBRANCH   2   3
ENDBRANCH   1   2
BRANCH   1  25
ATOM     25  C   UNL A   1      35.753  32.406  31.109  1.00  0.00     0.202 C 
BRANCH  25  26
ATOM     26  C   UNL A   1      35.837  31.397  32.255  1.00  0.00     0.261 C 
BRANCH  26  27
ATOM     27  O   UNL A   1      36.215  30.131  31.700  1.00  0.00    -0.460 OA
BRANCH  27  28
ATOM     28  C   UNL A   1      37.319  29.587  32.278  1.00  0.00     0.338 C 
ATOM     29  O   UNL A   1      37.362  28.618  33.002  1.00  0.00    -0.246 OA
BRANCH  28  30
ATOM     30  C   UNL A   1      38.511  30.262  31.713  1.00  0.00     0.060 A 
ATOM     31  C   UNL A   1      38.610  30.345  30.319  1.00  0.00     0.016 A 
ATOM     32  C   UNL A   1      39.495  30.831  32.528  1.00  0.00     0.016 A 
ATOM     33  C   UNL A   1      39.730  30.933  29.737  1.00  0.00     0.010 A 
ATOM     34  C   UNL A   1      40.611  31.428  31.947  1.00  0.00     0.010 A 
ATOM     35  C   UNL A   1      40.755  31.432  30.551  1.00  0.00    -0.014 A 
BRANCH  35  36
ATOM     36  C   UNL A   1      42.059  31.772  29.947  1.00  0.00     0.031 A 
ATOM     37  C   UNL A   1      42.344  33.216  29.641  1.00  0.00     0.074 A 
ATOM     38  C   UNL A   1      42.968  30.816  29.694  1.00  0.00     0.049 A 
ATOM     39  N   UNL A   1      43.421  33.759  29.140  1.00  0.00    -0.248 NA
ATOM     40  C   UNL A   1      41.266  34.178  29.931  1.00  0.00     0.031 C 
ATOM     41  C   UNL A   1      42.776  29.384  29.924  1.00  0.00     0.029 A 
ATOM     42  N   UNL A   1      44.228  30.909  29.164  1.00  0.00    -0.354 N 
ATOM     43  C   UNL A   1      43.149  35.119  29.048  1.00  0.00     0.074 A 
ATOM     44  C   UNL A   1      41.794  35.317  29.509  1.00  0.00     0.031 C 
ATOM     45  C   UNL A   1      43.875  28.728  29.512  1.00  0.00     0.029 A 
ATOM     46  C   UNL A   1      44.837  29.691  28.983  1.00  0.00     0.049 A 
ATOM     47  H   UNL A   1      44.655  31.765  28.935  1.00  0.00     0.167 HD
ATOM     48  C   UNL A   1      43.967  36.119  28.643  1.00  0.00     0.034 A 
ATOM     49  C   UNL A   1      46.035  29.394  28.440  1.00  0.00     0.034 A 
ATOM     50  C   UNL A   1      45.314  35.910  28.192  1.00  0.00     0.049 A 
ATOM     51  C   UNL A   1      46.928  30.526  28.001  1.00  0.00     0.074 A 
ATOM     52  C   UNL A   1      46.243  36.850  27.783  1.00  0.00     0.029 A 
ATOM     53  N   UNL A   1      45.924  34.669  28.082  1.00  0.00    -0.354 N 
ATOM     54  N   UNL A   1      46.706  31.819  28.038  1.00  0.00    -0.248 NA
ATOM     55  C   UNL A   1      48.256  30.160  27.490  1.00  0.00     0.031 C 
ATOM     56  C   UNL A   1      47.409  36.175  27.408  1.00  0.00     0.029 A 
ATOM     57  C   UNL A   1      47.217  34.817  27.610  1.00  0.00     0.049 A 
ATOM     58  H   UNL A   1      45.500  33.810  28.306  1.00  0.00     0.167 HD
ATOM     59  C   UNL A   1      47.872  32.422  27.581  1.00  0.00     0.074 A 
ATOM     60  C   UNL A   1      48.811  31.351  27.309  1.00  0.00     0.031 C 
ATOM     61  C   UNL A   1      48.142  33.736  27.383  1.00  0.00     0.034 A 
BRANCH  48  62
ATOM     62  C   UNL A   1      43.433  37.526  28.713  1.00  0.00     0.023 A 
ATOM     63  C   UNL A   1      43.708  38.314  29.850  1.00  0.00     0.012 A 
ATOM     64  C   UNL A   1      42.702  38.082  27.646  1.00  0.00     0.148 A 
ATOM     65  C   UNL A   1      43.238  39.624  29.938  1.00  0.00     0.002 A 
ATOM     66  C   UNL A   1      42.275  39.403  27.722  1.00  0.00     0.091 A 
ATOM     67  F   UNL A   1      42.430  37.308  26.586  1.00  0.00    -0.205 F 
ATOM     68  C   UNL A   1      42.531  40.171  28.870  1.00  0.00     0.022 A 
BRANCH  66  69
ATOM     69  S   UNL A   1      41.420  40.227  26.375  1.00  0.00     0.127 S 
ATOM     70  O   UNL A   1      40.690  39.117  25.765  1.00  0.00    -0.237 OA
ATOM     71  O   UNL A   1      40.582  41.190  27.089  1.00  0.00    -0.237 OA
ATOM     72  O   UNL A   1      42.456  40.821  25.542  1.00  0.00    -0.744 OA
ENDBRANCH  66  69
ENDBRANCH  48  62
BRANCH  49  73
ATOM     73  C   UNL A   1      46.470  27.975  28.321  1.00  0.00     0.023 A 
ATOM     74  C   UNL A   1      47.235  27.385  29.346  1.00  0.00     0.012 A 
ATOM     75  C   UNL A   1      46.111  27.199  27.200  1.00  0.00     0.148 A 
ATOM     76  C   UNL A   1      47.665  26.062  29.239  1.00  0.00     0.002 A 
ATOM     77  C   UNL A   1      46.493  25.865  27.130  1.00  0.00     0.091 A 
ATOM     78  F   UNL A   1      45.398  27.783  26.227  1.00  0.00    -0.205 F 
ATOM     79  C   UNL A   1      47.285  25.299  28.139  1.00  0.00     0.022 A 
BRANCH  77  80
ATOM     80  S   UNL A   1      45.929  24.778  25.815  1.00  0.00     0.127 S 
ATOM     81  O   UNL A   1      44.478  24.878  25.945  1.00  0.00    -0.237 OA
ATOM     82  O   UNL A   1      46.487  25.427  24.626  1.00  0.00    -0.237 OA
ATOM     83  O   UNL A   1      46.508  23.475  26.111  1.00  0.00    -0.744 OA
ENDBRANCH  77  80
ENDBRANCH  49  73
BRANCH  61  84
ATOM     84  C   UNL A   1      49.513  34.086  26.866  1.00  0.00     0.023 A 
ATOM     85  C   UNL A   1      49.719  34.246  25.481  1.00  0.00     0.012 A 
ATOM     86  C   UNL A   1      50.585  34.300  27.754  1.00  0.00     0.148 A 
ATOM     87  C   UNL A   1      50.982  34.563  24.985  1.00  0.00     0.002 A 
ATOM     88  C   UNL A   1      51.829  34.666  27.256  1.00  0.00     0.091 A 
ATOM     89  F   UNL A   1      50.375  34.127  29.068  1.00  0.00    -0.205 F 
ATOM     90  C   UNL A   1      52.034  34.783  25.871  1.00  0.00     0.022 A 
BRANCH  88  91
ATOM     91  S   UNL A   1      53.212  35.062  28.331  1.00  0.00     0.127 S 
ATOM     92  O   UNL A   1      54.291  35.268  27.366  1.00  0.00    -0.237 OA
ATOM     93  O   UNL A   1      52.751  36.280  28.999  1.00  0.00    -0.237 OA
ATOM     94  O   UNL A   1      53.369  33.915  29.215  1.00  0.00    -0.744 OA
ENDBRANCH  88  91
ENDBRANCH  61  84
ENDBRANCH  35  36
ENDBRANCH  28  30
ENDBRANCH  27  28
ENDBRANCH  26  27
ENDBRANCH  25  26
ENDBRANCH   1  25
TORSDOF 20
ENDMDL
