MODEL 1
REMARK VINA RESULT:     -12.6      0.000      0.000
REMARK SMILES O=C(CSc1nnc2sc3ccccc3n12)N[C@H](Cc1c[nH]c2ccccc12)C(=O)OCCOCCOC(=O)c1ccc(-c2c3nc(c(-c4cccc(S(=O)(=O)[O-])c4F)c4ccc([nH]4)c(-c4cccc(S(=O)(=O)[O-])c4F)c4nc(c(-c5cccc(S(=O)(=O)[O-])c5F)c5ccc2[nH]5)C=C4)C=C3)cc1
REMARK SMILES IDX 33 1 32 2 31 3 29 4 30 5 18 6 17 7 1 8 2 9 3 11 4 12 5 13
REMARK SMILES IDX 6 14 16 15 7 16 8 17 15 18 9 19 10 20 14 21 11 22 13 23
REMARK SMILES IDX 12 24 19 25 20 26 21 27 28 28 22 29 23 30 27 31 24 33 26 34
REMARK SMILES IDX 25 35 34 36 35 37 36 38 37 39 38 40 39 41 40 42 41 43 102 44
REMARK SMILES IDX 42 45 101 46 43 47 44 48 45 49 95 50 46 51 100 52 94 53
REMARK SMILES IDX 96 54 47 55 99 56 93 57 92 58 48 60 80 61 60 62 79 63 61 64
REMARK SMILES IDX 64 65 78 66 97 67 62 68 63 69 77 71 98 72 65 73 49 74 50 75
REMARK SMILES IDX 58 76 51 77 53 78 59 79 52 80 54 81 55 82 56 83 57 84 81 85
REMARK SMILES IDX 82 86 90 87 83 88 85 89 91 90 84 91 86 92 87 93 88 94 89 95
REMARK SMILES IDX 66 96 67 97 75 98 68 99 70 100 76 101 69 102 71 103 72 104
REMARK SMILES IDX 73 105 74 106
REMARK H PARENT 17 10 22 32 96 59 64 70
REMARK Flexibility Score: inf
ROOT
ATOM      1  C   UNL A   1      36.567  23.501  25.842  1.00  0.00     0.202 C 
ENDROOT
BRANCH   1   2
ATOM      2  C   UNL A   1      35.131  22.973  25.714  1.00  0.00     0.261 C 
BRANCH   2   3
ATOM      3  O   UNL A   1      34.220  23.677  24.875  1.00  0.00    -0.462 OA
BRANCH   3   4
ATOM      4  C   UNL A   1      34.146  23.207  23.614  1.00  0.00     0.329 C 
ATOM      5  O   UNL A   1      35.063  23.288  22.795  1.00  0.00    -0.250 OA
BRANCH   4   6
ATOM      6  C   UNL A   1      32.757  22.682  23.201  1.00  0.00     0.196 C 
BRANCH   6   7
ATOM      7  N   UNL A   1      31.820  23.408  24.102  1.00  0.00    -0.342 N 
ATOM      8  O   UNL A   1      31.089  24.823  22.470  1.00  0.00    -0.274 OA
ATOM      9  C   UNL A   1      31.001  24.417  23.628  1.00  0.00     0.231 C 
ATOM     10  H   UNL A   1      31.783  23.165  25.055  1.00  0.00     0.164 HD
BRANCH   9  11
ATOM     11  C   UNL A   1      30.047  25.075  24.616  1.00  0.00     0.178 C 
BRANCH  11  12
ATOM     12  S   UNL A   1      29.028  26.367  23.926  1.00  0.00    -0.076 SA
BRANCH  12  13
ATOM     13  C   UNL A   1      29.936  27.812  23.595  1.00  0.00     0.197 A 
ATOM     14  N   UNL A   1      29.758  28.375  22.402  1.00  0.00    -0.122 NA
ATOM     15  N   UNL A   1      31.163  28.215  24.067  1.00  0.00    -0.260 N 
ATOM     16  N   UNL A   1      30.953  28.928  21.982  1.00  0.00    -0.118 NA
ATOM     17  C   UNL A   1      31.788  28.728  22.961  1.00  0.00     0.217 A 
ATOM     18  C   UNL A   1      31.927  28.279  25.232  1.00  0.00     0.068 A 
ATOM     19  S   UNL A   1      33.467  29.057  23.180  1.00  0.00    -0.094 S 
ATOM     20  C   UNL A   1      33.245  28.664  24.914  1.00  0.00     0.055 A 
ATOM     21  C   UNL A   1      31.517  28.158  26.546  1.00  0.00     0.028 A 
ATOM     22  C   UNL A   1      34.205  28.807  25.897  1.00  0.00     0.021 A 
ATOM     23  C   UNL A   1      32.473  28.353  27.548  1.00  0.00     0.002 A 
ATOM     24  C   UNL A   1      33.807  28.649  27.222  1.00  0.00     0.002 A 
ENDBRANCH  12  13
ENDBRANCH  11  12
ENDBRANCH   9  11
ENDBRANCH   6   7
BRANCH   6  25
ATOM     25  C   UNL A   1      32.339  21.199  23.046  1.00  0.00     0.074 C 
BRANCH  25  26
ATOM     26  C   UNL A   1      32.623  20.188  24.117  1.00  0.00    -0.020 A 
ATOM     27  C   UNL A   1      32.391  20.406  25.461  1.00  0.00     0.087 A 
ATOM     28  C   UNL A   1      32.973  18.793  24.010  1.00  0.00     0.003 A 
ATOM     29  N   UNL A   1      32.787  19.310  26.165  1.00  0.00    -0.361 N 
ATOM     30  C   UNL A   1      33.148  18.306  25.308  1.00  0.00     0.046 A 
ATOM     31  C   UNL A   1      33.134  17.875  22.949  1.00  0.00     0.010 A 
ATOM     32  H   UNL A   1      32.811  19.250  27.147  1.00  0.00     0.166 HD
ATOM     33  C   UNL A   1      33.575  17.005  25.603  1.00  0.00     0.026 A 
ATOM     34  C   UNL A   1      33.487  16.543  23.229  1.00  0.00     0.001 A 
ATOM     35  C   UNL A   1      33.731  16.125  24.535  1.00  0.00     0.002 A 
ENDBRANCH  25  26
ENDBRANCH   6  25
ENDBRANCH   4   6
ENDBRANCH   3   4
ENDBRANCH   2   3
ENDBRANCH   1   2
BRANCH   1  36
ATOM     36  O   UNL A   1      37.605  22.908  25.076  1.00  0.00    -0.374 OA
BRANCH  36  37
ATOM     37  C   UNL A   1      38.023  21.588  25.420  1.00  0.00     0.202 C 
BRANCH  37  38
ATOM     38  C   UNL A   1      39.412  21.415  26.055  1.00  0.00     0.261 C 
BRANCH  38  39
ATOM     39  O   UNL A   1      39.884  22.649  26.605  1.00  0.00    -0.460 OA
BRANCH  39  40
ATOM     40  C   UNL A   1      41.227  22.837  26.564  1.00  0.00     0.338 C 
ATOM     41  O   UNL A   1      42.059  22.104  26.065  1.00  0.00    -0.246 OA
BRANCH  40  42
ATOM     42  C   UNL A   1      41.419  24.231  26.986  1.00  0.00     0.060 A 
ATOM     43  C   UNL A   1      42.316  24.551  28.006  1.00  0.00     0.016 A 
ATOM     44  C   UNL A   1      40.469  25.154  26.537  1.00  0.00     0.016 A 
ATOM     45  C   UNL A   1      42.174  25.767  28.664  1.00  0.00     0.010 A 
ATOM     46  C   UNL A   1      40.337  26.372  27.191  1.00  0.00     0.010 A 
ATOM     47  C   UNL A   1      41.152  26.658  28.290  1.00  0.00    -0.014 A 
BRANCH  47  48
ATOM     48  C   UNL A   1      41.102  27.959  28.964  1.00  0.00     0.031 A 
ATOM     49  C   UNL A   1      42.129  28.909  28.461  1.00  0.00     0.074 A 
ATOM     50  C   UNL A   1      40.135  28.388  29.804  1.00  0.00     0.049 A 
ATOM     51  N   UNL A   1      43.100  29.471  29.103  1.00  0.00    -0.248 NA
ATOM     52  C   UNL A   1      42.126  29.161  27.009  1.00  0.00     0.031 C 
ATOM     53  C   UNL A   1      38.860  27.720  30.063  1.00  0.00     0.029 A 
ATOM     54  N   UNL A   1      40.018  29.569  30.495  1.00  0.00    -0.354 N 
ATOM     55  C   UNL A   1      43.682  30.331  28.174  1.00  0.00     0.074 A 
ATOM     56  C   UNL A   1      43.177  29.965  26.875  1.00  0.00     0.031 C 
ATOM     57  C   UNL A   1      38.020  28.586  30.669  1.00  0.00     0.029 A 
ATOM     58  C   UNL A   1      38.717  29.836  30.918  1.00  0.00     0.049 A 
ATOM     59  H   UNL A   1      40.778  30.169  30.673  1.00  0.00     0.167 HD
ATOM     60  C   UNL A   1      44.289  31.488  28.544  1.00  0.00     0.034 A 
ATOM     61  C   UNL A   1      38.215  31.020  31.348  1.00  0.00     0.034 A 
ATOM     62  C   UNL A   1      44.549  31.568  29.947  1.00  0.00     0.049 A 
ATOM     63  C   UNL A   1      39.339  31.876  31.787  1.00  0.00     0.074 A 
ATOM     64  C   UNL A   1      45.512  31.147  30.833  1.00  0.00     0.029 A 
ATOM     65  N   UNL A   1      43.470  31.981  30.673  1.00  0.00    -0.354 N 
ATOM     66  N   UNL A   1      40.091  31.629  32.823  1.00  0.00    -0.248 NA
ATOM     67  C   UNL A   1      39.789  32.967  30.926  1.00  0.00     0.031 C 
ATOM     68  C   UNL A   1      44.928  31.227  32.132  1.00  0.00     0.029 A 
ATOM     69  C   UNL A   1      43.625  31.698  32.002  1.00  0.00     0.049 A 
ATOM     70  H   UNL A   1      42.680  32.426  30.289  1.00  0.00     0.167 HD
ATOM     71  C   UNL A   1      41.286  32.245  32.519  1.00  0.00     0.074 A 
ATOM     72  C   UNL A   1      40.992  33.190  31.455  1.00  0.00     0.031 C 
ATOM     73  C   UNL A   1      42.472  31.682  32.871  1.00  0.00     0.034 A 
BRANCH  60  74
ATOM     74  C   UNL A   1      44.227  32.739  27.708  1.00  0.00     0.023 A 
ATOM     75  C   UNL A   1      45.182  32.929  26.693  1.00  0.00     0.012 A 
ATOM     76  C   UNL A   1      43.418  33.847  28.055  1.00  0.00     0.148 A 
ATOM     77  C   UNL A   1      45.297  34.155  26.027  1.00  0.00     0.002 A 
ATOM     78  C   UNL A   1      43.469  35.028  27.328  1.00  0.00     0.091 A 
ATOM     79  F   UNL A   1      42.688  33.803  29.178  1.00  0.00    -0.205 F 
ATOM     80  C   UNL A   1      44.421  35.195  26.323  1.00  0.00     0.022 A 
BRANCH  78  81
ATOM     81  S   UNL A   1      42.303  36.359  27.632  1.00  0.00     0.127 S 
ATOM     82  O   UNL A   1      42.560  37.240  26.498  1.00  0.00    -0.237 OA
ATOM     83  O   UNL A   1      41.024  35.651  27.595  1.00  0.00    -0.237 OA
ATOM     84  O   UNL A   1      42.657  36.875  28.949  1.00  0.00    -0.744 OA
ENDBRANCH  78  81
ENDBRANCH  60  74
BRANCH  61  85
ATOM     85  C   UNL A   1      36.845  31.592  31.222  1.00  0.00     0.023 A 
ATOM     86  C   UNL A   1      36.225  32.136  32.370  1.00  0.00     0.012 A 
ATOM     87  C   UNL A   1      36.271  31.884  29.968  1.00  0.00     0.148 A 
ATOM     88  C   UNL A   1      35.131  33.003  32.266  1.00  0.00     0.002 A 
ATOM     89  C   UNL A   1      35.166  32.726  29.871  1.00  0.00     0.091 A 
ATOM     90  F   UNL A   1      36.858  31.430  28.855  1.00  0.00    -0.205 F 
ATOM     91  C   UNL A   1      34.608  33.308  31.014  1.00  0.00     0.022 A 
BRANCH  89  92
ATOM     92  S   UNL A   1      34.446  33.139  28.277  1.00  0.00     0.127 S 
ATOM     93  O   UNL A   1      33.458  34.158  28.635  1.00  0.00    -0.237 OA
ATOM     94  O   UNL A   1      35.602  33.637  27.540  1.00  0.00    -0.237 OA
ATOM     95  O   UNL A   1      33.860  31.895  27.789  1.00  0.00    -0.744 OA
ENDBRANCH  89  92
ENDBRANCH  61  85
BRANCH  73  96
ATOM     96  C   UNL A   1      42.517  30.837  34.100  1.00  0.00     0.023 A 
ATOM     97  C   UNL A   1      42.713  31.364  35.388  1.00  0.00     0.012 A 
ATOM     98  C   UNL A   1      42.252  29.467  33.943  1.00  0.00     0.148 A 
ATOM     99  C   UNL A   1      42.646  30.529  36.506  1.00  0.00     0.002 A 
ATOM    100  C   UNL A   1      42.138  28.652  35.058  1.00  0.00     0.091 A 
ATOM    101  F   UNL A   1      42.088  28.994  32.698  1.00  0.00    -0.205 F 
ATOM    102  C   UNL A   1      42.339  29.178  36.343  1.00  0.00     0.022 A 
BRANCH 100 103
ATOM    103  S   UNL A   1      41.651  26.932  34.924  1.00  0.00     0.127 S 
ATOM    104  O   UNL A   1      40.463  27.015  34.076  1.00  0.00    -0.237 OA
ATOM    105  O   UNL A   1      42.825  26.337  34.282  1.00  0.00    -0.237 OA
ATOM    106  O   UNL A   1      41.409  26.469  36.285  1.00  0.00    -0.744 OA
ENDBRANCH 100 103
ENDBRANCH  73  96
ENDBRANCH  47  48
ENDBRANCH  40  42
ENDBRANCH  39  40
ENDBRANCH  38  39
ENDBRANCH  37  38
ENDBRANCH  36  37
ENDBRANCH   1  36
TORSDOF 23
ENDMDL
MODEL 2
REMARK VINA RESULT:     -12.3      3.368      6.916
REMARK SMILES O=C(CSc1nnc2sc3ccccc3n12)N[C@H](Cc1c[nH]c2ccccc12)C(=O)OCCOCCOC(=O)c1ccc(-c2c3nc(c(-c4cccc(S(=O)(=O)[O-])c4F)c4ccc([nH]4)c(-c4cccc(S(=O)(=O)[O-])c4F)c4nc(c(-c5cccc(S(=O)(=O)[O-])c5F)c5ccc2[nH]5)C=C4)C=C3)cc1
REMARK SMILES IDX 33 1 32 2 31 3 29 4 30 5 18 6 17 7 1 8 2 9 3 11 4 12 5 13
REMARK SMILES IDX 6 14 16 15 7 16 8 17 15 18 9 19 10 20 14 21 11 22 13 23
REMARK SMILES IDX 12 24 19 25 20 26 21 27 28 28 22 29 23 30 27 31 24 33 26 34
REMARK SMILES IDX 25 35 34 36 35 37 36 38 37 39 38 40 39 41 40 42 41 43 102 44
REMARK SMILES IDX 42 45 101 46 43 47 44 48 45 49 95 50 46 51 100 52 94 53
REMARK SMILES IDX 96 54 47 55 99 56 93 57 92 58 48 60 80 61 60 62 79 63 61 64
REMARK SMILES IDX 64 65 78 66 97 67 62 68 63 69 77 71 98 72 65 73 49 74 50 75
REMARK SMILES IDX 58 76 51 77 53 78 59 79 52 80 54 81 55 82 56 83 57 84 81 85
REMARK SMILES IDX 82 86 90 87 83 88 85 89 91 90 84 91 86 92 87 93 88 94 89 95
REMARK SMILES IDX 66 96 67 97 75 98 68 99 70 100 76 101 69 102 71 103 72 104
REMARK SMILES IDX 73 105 74 106
REMARK H PARENT 17 10 22 32 96 59 64 70
REMARK Flexibility Score: inf
ROOT
ATOM      1  C   UNL A   1      36.613  21.633  24.818  1.00  0.00     0.202 C 
ENDROOT
BRANCH   1   2
ATOM      2  C   UNL A   1      36.185  23.002  25.363  1.00  0.00     0.261 C 
BRANCH   2   3
ATOM      3  O   UNL A   1      35.832  24.023  24.434  1.00  0.00    -0.462 OA
BRANCH   3   4
ATOM      4  C   UNL A   1      35.323  23.567  23.272  1.00  0.00     0.329 C 
ATOM      5  O   UNL A   1      35.988  22.986  22.412  1.00  0.00    -0.250 OA
BRANCH   4   6
ATOM      6  C   UNL A   1      33.857  23.961  23.010  1.00  0.00     0.196 C 
BRANCH   6   7
ATOM      7  N   UNL A   1      33.858  25.445  23.139  1.00  0.00    -0.342 N 
ATOM      8  O   UNL A   1      33.359  25.800  20.942  1.00  0.00    -0.274 OA
ATOM      9  C   UNL A   1      33.547  26.262  22.067  1.00  0.00     0.231 C 
ATOM     10  H   UNL A   1      34.085  25.852  24.006  1.00  0.00     0.164 HD
BRANCH   9  11
ATOM     11  C   UNL A   1      33.535  27.766  22.305  1.00  0.00     0.178 C 
BRANCH  11  12
ATOM     12  S   UNL A   1      33.434  28.252  24.018  1.00  0.00    -0.076 SA
BRANCH  12  13
ATOM     13  C   UNL A   1      31.953  27.730  24.763  1.00  0.00     0.197 A 
ATOM     14  N   UNL A   1      32.014  26.641  25.526  1.00  0.00    -0.122 NA
ATOM     15  N   UNL A   1      30.652  27.870  24.341  1.00  0.00    -0.260 N 
ATOM     16  N   UNL A   1      30.833  25.934  25.398  1.00  0.00    -0.118 NA
ATOM     17  C   UNL A   1      30.085  26.652  24.609  1.00  0.00     0.217 A 
ATOM     18  C   UNL A   1      29.772  28.793  23.776  1.00  0.00     0.068 A 
ATOM     19  S   UNL A   1      28.519  26.427  23.923  1.00  0.00    -0.094 S 
ATOM     20  C   UNL A   1      28.569  28.147  23.425  1.00  0.00     0.055 A 
ATOM     21  C   UNL A   1      29.900  30.165  23.675  1.00  0.00     0.028 A 
ATOM     22  C   UNL A   1      27.525  28.845  22.848  1.00  0.00     0.021 A 
ATOM     23  C   UNL A   1      28.826  30.883  23.140  1.00  0.00     0.002 A 
ATOM     24  C   UNL A   1      27.663  30.223  22.709  1.00  0.00     0.002 A 
ENDBRANCH  12  13
ENDBRANCH  11  12
ENDBRANCH   9  11
ENDBRANCH   6   7
BRANCH   6  25
ATOM     25  C   UNL A   1      32.602  23.348  23.679  1.00  0.00     0.074 C 
BRANCH  25  26
ATOM     26  C   UNL A   1      32.687  22.102  24.511  1.00  0.00    -0.020 A 
ATOM     27  C   UNL A   1      32.687  22.097  25.892  1.00  0.00     0.087 A 
ATOM     28  C   UNL A   1      32.585  20.717  24.124  1.00  0.00     0.003 A 
ATOM     29  N   UNL A   1      32.811  20.816  26.334  1.00  0.00    -0.361 N 
ATOM     30  C   UNL A   1      32.752  19.947  25.278  1.00  0.00     0.046 A 
ATOM     31  C   UNL A   1      32.340  20.025  22.917  1.00  0.00     0.010 A 
ATOM     32  H   UNL A   1      32.926  20.553  27.275  1.00  0.00     0.166 HD
ATOM     33  C   UNL A   1      32.797  18.547  25.283  1.00  0.00     0.026 A 
ATOM     34  C   UNL A   1      32.303  18.619  22.915  1.00  0.00     0.001 A 
ATOM     35  C   UNL A   1      32.557  17.894  24.077  1.00  0.00     0.002 A 
ENDBRANCH  25  26
ENDBRANCH   6  25
ENDBRANCH   4   6
ENDBRANCH   3   4
ENDBRANCH   2   3
ENDBRANCH   1   2
BRANCH   1  36
ATOM     36  O   UNL A   1      37.751  20.983  25.366  1.00  0.00    -0.374 OA
BRANCH  36  37
ATOM     37  C   UNL A   1      37.949  19.604  25.059  1.00  0.00     0.202 C 
BRANCH  37  38
ATOM     38  C   UNL A   1      39.149  18.889  25.702  1.00  0.00     0.261 C 
BRANCH  38  39
ATOM     39  O   UNL A   1      40.375  19.274  25.073  1.00  0.00    -0.460 OA
BRANCH  39  40
ATOM     40  C   UNL A   1      41.460  19.332  25.884  1.00  0.00     0.338 C 
ATOM     41  O   UNL A   1      42.358  18.516  25.974  1.00  0.00    -0.246 OA
BRANCH  40  42
ATOM     42  C   UNL A   1      41.463  20.706  26.404  1.00  0.00     0.060 A 
ATOM     43  C   UNL A   1      42.215  21.704  25.782  1.00  0.00     0.016 A 
ATOM     44  C   UNL A   1      40.932  20.887  27.685  1.00  0.00     0.016 A 
ATOM     45  C   UNL A   1      42.540  22.845  26.507  1.00  0.00     0.010 A 
ATOM     46  C   UNL A   1      41.251  22.034  28.401  1.00  0.00     0.010 A 
ATOM     47  C   UNL A   1      42.100  22.988  27.835  1.00  0.00    -0.014 A 
BRANCH  47  48
ATOM     48  C   UNL A   1      42.403  24.248  28.520  1.00  0.00     0.031 A 
ATOM     49  C   UNL A   1      41.402  25.311  28.243  1.00  0.00     0.074 A 
ATOM     50  C   UNL A   1      43.346  24.435  29.470  1.00  0.00     0.049 A 
ATOM     51  N   UNL A   1      41.574  26.462  27.680  1.00  0.00    -0.248 NA
ATOM     52  C   UNL A   1      39.998  24.975  28.536  1.00  0.00     0.031 C 
ATOM     53  C   UNL A   1      44.120  23.386  30.134  1.00  0.00     0.029 A 
ATOM     54  N   UNL A   1      43.714  25.574  30.144  1.00  0.00    -0.354 N 
ATOM     55  C   UNL A   1      40.330  27.083  27.767  1.00  0.00     0.074 A 
ATOM     56  C   UNL A   1      39.368  26.070  28.119  1.00  0.00     0.031 C 
ATOM     57  C   UNL A   1      44.698  23.895  31.243  1.00  0.00     0.029 A 
ATOM     58  C   UNL A   1      44.409  25.316  31.325  1.00  0.00     0.049 A 
ATOM     59  H   UNL A   1      43.508  26.482  29.825  1.00  0.00     0.167 HD
ATOM     60  C   UNL A   1      40.202  28.432  27.859  1.00  0.00     0.034 A 
ATOM     61  C   UNL A   1      44.646  26.177  32.347  1.00  0.00     0.034 A 
ATOM     62  C   UNL A   1      41.403  29.138  27.541  1.00  0.00     0.049 A 
ATOM     63  C   UNL A   1      44.511  27.560  31.839  1.00  0.00     0.074 A 
ATOM     64  C   UNL A   1      42.054  29.593  26.419  1.00  0.00     0.029 A 
ATOM     65  N   UNL A   1      42.276  29.216  28.587  1.00  0.00    -0.354 N 
ATOM     66  N   UNL A   1      45.316  28.106  30.972  1.00  0.00    -0.248 NA
ATOM     67  C   UNL A   1      43.308  28.326  32.155  1.00  0.00     0.031 C 
ATOM     68  C   UNL A   1      43.399  29.856  26.813  1.00  0.00     0.029 A 
ATOM     69  C   UNL A   1      43.531  29.557  28.165  1.00  0.00     0.049 A 
ATOM     70  H   UNL A   1      42.033  29.049  29.527  1.00  0.00     0.167 HD
ATOM     71  C   UNL A   1      44.536  29.059  30.351  1.00  0.00     0.074 A 
ATOM     72  C   UNL A   1      43.396  29.276  31.224  1.00  0.00     0.031 C 
ATOM     73  C   UNL A   1      44.667  29.311  29.022  1.00  0.00     0.034 A 
BRANCH  60  74
ATOM     74  C   UNL A   1      39.127  29.089  28.686  1.00  0.00     0.023 A 
ATOM     75  C   UNL A   1      38.259  30.007  28.068  1.00  0.00     0.012 A 
ATOM     76  C   UNL A   1      39.107  29.023  30.099  1.00  0.00     0.148 A 
ATOM     77  C   UNL A   1      37.382  30.794  28.824  1.00  0.00     0.002 A 
ATOM     78  C   UNL A   1      38.170  29.733  30.836  1.00  0.00     0.091 A 
ATOM     79  F   UNL A   1      40.085  28.371  30.742  1.00  0.00    -0.205 F 
ATOM     80  C   UNL A   1      37.316  30.637  30.205  1.00  0.00     0.022 A 
BRANCH  78  81
ATOM     81  S   UNL A   1      38.006  29.495  32.608  1.00  0.00     0.127 S 
ATOM     82  O   UNL A   1      36.871  30.358  32.917  1.00  0.00    -0.237 OA
ATOM     83  O   UNL A   1      37.739  28.059  32.694  1.00  0.00    -0.237 OA
ATOM     84  O   UNL A   1      39.295  29.893  33.162  1.00  0.00    -0.744 OA
ENDBRANCH  78  81
ENDBRANCH  60  74
BRANCH  61  85
ATOM     85  C   UNL A   1      44.775  25.927  33.810  1.00  0.00     0.023 A 
ATOM     86  C   UNL A   1      46.065  25.908  34.387  1.00  0.00     0.012 A 
ATOM     87  C   UNL A   1      43.669  26.008  34.681  1.00  0.00     0.148 A 
ATOM     88  C   UNL A   1      46.247  26.050  35.768  1.00  0.00     0.002 A 
ATOM     89  C   UNL A   1      43.854  26.123  36.057  1.00  0.00     0.091 A 
ATOM     90  F   UNL A   1      42.434  26.080  34.170  1.00  0.00    -0.205 F 
ATOM     91  C   UNL A   1      45.141  26.170  36.603  1.00  0.00     0.022 A 
BRANCH  89  92
ATOM     92  S   UNL A   1      42.456  26.267  37.176  1.00  0.00     0.127 S 
ATOM     93  O   UNL A   1      41.813  27.498  36.715  1.00  0.00    -0.237 OA
ATOM     94  O   UNL A   1      41.713  25.044  36.895  1.00  0.00    -0.237 OA
ATOM     95  O   UNL A   1      43.043  26.371  38.508  1.00  0.00    -0.744 OA
ENDBRANCH  89  92
ENDBRANCH  61  85
BRANCH  73  96
ATOM     96  C   UNL A   1      46.005  29.114  28.392  1.00  0.00     0.023 A 
ATOM     97  C   UNL A   1      47.066  30.023  28.542  1.00  0.00     0.012 A 
ATOM     98  C   UNL A   1      46.217  27.907  27.705  1.00  0.00     0.148 A 
ATOM     99  C   UNL A   1      48.323  29.730  28.008  1.00  0.00     0.002 A 
ATOM    100  C   UNL A   1      47.477  27.599  27.220  1.00  0.00     0.091 A 
ATOM    101  F   UNL A   1      45.178  27.071  27.565  1.00  0.00    -0.205 F 
ATOM    102  C   UNL A   1      48.534  28.511  27.364  1.00  0.00     0.022 A 
BRANCH 100 103
ATOM    103  S   UNL A   1      47.838  26.011  26.470  1.00  0.00     0.127 S 
ATOM    104  O   UNL A   1      47.006  26.045  25.268  1.00  0.00    -0.237 OA
ATOM    105  O   UNL A   1      49.277  26.114  26.226  1.00  0.00    -0.237 OA
ATOM    106  O   UNL A   1      47.464  25.002  27.453  1.00  0.00    -0.744 OA
ENDBRANCH 100 103
ENDBRANCH  73  96
ENDBRANCH  47  48
ENDBRANCH  40  42
ENDBRANCH  39  40
ENDBRANCH  38  39
ENDBRANCH  37  38
ENDBRANCH  36  37
ENDBRANCH   1  36
TORSDOF 23
ENDMDL
MODEL 3
REMARK VINA RESULT:     -12.0      3.390      9.646
REMARK SMILES O=C(CSc1nnc2sc3ccccc3n12)N[C@H](Cc1c[nH]c2ccccc12)C(=O)OCCOCCOC(=O)c1ccc(-c2c3nc(c(-c4cccc(S(=O)(=O)[O-])c4F)c4ccc([nH]4)c(-c4cccc(S(=O)(=O)[O-])c4F)c4nc(c(-c5cccc(S(=O)(=O)[O-])c5F)c5ccc2[nH]5)C=C4)C=C3)cc1
REMARK SMILES IDX 33 1 32 2 31 3 29 4 30 5 18 6 17 7 1 8 2 9 3 11 4 12 5 13
REMARK SMILES IDX 6 14 16 15 7 16 8 17 15 18 9 19 10 20 14 21 11 22 13 23
REMARK SMILES IDX 12 24 19 25 20 26 21 27 28 28 22 29 23 30 27 31 24 33 26 34
REMARK SMILES IDX 25 35 34 36 35 37 36 38 37 39 38 40 39 41 40 42 41 43 102 44
REMARK SMILES IDX 42 45 101 46 43 47 44 48 45 49 95 50 46 51 100 52 94 53
REMARK SMILES IDX 96 54 47 55 99 56 93 57 92 58 48 60 80 61 60 62 79 63 61 64
REMARK SMILES IDX 64 65 78 66 97 67 62 68 63 69 77 71 98 72 65 73 49 74 50 75
REMARK SMILES IDX 58 76 51 77 53 78 59 79 52 80 54 81 55 82 56 83 57 84 81 85
REMARK SMILES IDX 82 86 90 87 83 88 85 89 91 90 84 91 86 92 87 93 88 94 89 95
REMARK SMILES IDX 66 96 67 97 75 98 68 99 70 100 76 101 69 102 71 103 72 104
REMARK SMILES IDX 73 105 74 106
REMARK H PARENT 17 10 22 32 96 59 64 70
REMARK Flexibility Score: inf
ROOT
ATOM      1  C   UNL A   1      34.707  29.881  27.536  1.00  0.00     0.202 C 
ENDROOT
BRANCH   1   2
ATOM      2  C   UNL A   1      33.660  29.272  26.594  1.00  0.00     0.261 C 
BRANCH   2   3
ATOM      3  O   UNL A   1      33.356  27.886  26.721  1.00  0.00    -0.462 OA
BRANCH   3   4
ATOM      4  C   UNL A   1      32.042  27.615  26.856  1.00  0.00     0.329 C 
ATOM      5  O   UNL A   1      31.384  27.887  27.862  1.00  0.00    -0.250 OA
BRANCH   4   6
ATOM      6  C   UNL A   1      31.433  26.786  25.709  1.00  0.00     0.196 C 
BRANCH   6   7
ATOM      7  N   UNL A   1      31.512  25.383  26.203  1.00  0.00    -0.342 N 
ATOM      8  O   UNL A   1      29.252  25.152  26.402  1.00  0.00    -0.274 OA
ATOM      9  C   UNL A   1      30.372  24.646  26.466  1.00  0.00     0.231 C 
ATOM     10  H   UNL A   1      32.395  24.972  26.345  1.00  0.00     0.164 HD
BRANCH   9  11
ATOM     11  C   UNL A   1      30.552  23.206  26.929  1.00  0.00     0.178 C 
BRANCH  11  12
ATOM     12  S   UNL A   1      32.246  22.655  27.020  1.00  0.00    -0.076 SA
BRANCH  12  13
ATOM     13  C   UNL A   1      32.687  21.660  25.665  1.00  0.00     0.197 A 
ATOM     14  N   UNL A   1      31.724  20.918  25.123  1.00  0.00    -0.122 NA
ATOM     15  N   UNL A   1      33.890  21.073  25.352  1.00  0.00    -0.260 N 
ATOM     16  N   UNL A   1      32.267  19.726  24.682  1.00  0.00    -0.118 NA
ATOM     17  C   UNL A   1      33.543  19.819  24.923  1.00  0.00     0.217 A 
ATOM     18  C   UNL A   1      35.262  21.325  25.318  1.00  0.00     0.068 A 
ATOM     19  S   UNL A   1      34.874  18.739  24.728  1.00  0.00    -0.094 S 
ATOM     20  C   UNL A   1      35.957  20.128  25.053  1.00  0.00     0.055 A 
ATOM     21  C   UNL A   1      35.923  22.537  25.368  1.00  0.00     0.028 A 
ATOM     22  C   UNL A   1      37.335  20.107  24.963  1.00  0.00     0.021 A 
ATOM     23  C   UNL A   1      37.314  22.528  25.225  1.00  0.00     0.002 A 
ATOM     24  C   UNL A   1      38.011  21.321  25.050  1.00  0.00     0.002 A 
ENDBRANCH  12  13
ENDBRANCH  11  12
ENDBRANCH   9  11
ENDBRANCH   6   7
BRANCH   6  25
ATOM     25  C   UNL A   1      31.808  26.867  24.209  1.00  0.00     0.074 C 
BRANCH  25  26
ATOM     26  C   UNL A   1      31.377  28.023  23.355  1.00  0.00    -0.020 A 
ATOM     27  C   UNL A   1      32.235  28.750  22.553  1.00  0.00     0.087 A 
ATOM     28  C   UNL A   1      30.054  28.490  23.020  1.00  0.00     0.003 A 
ATOM     29  N   UNL A   1      31.539  29.746  21.941  1.00  0.00    -0.361 N 
ATOM     30  C   UNL A   1      30.202  29.615  22.206  1.00  0.00     0.046 A 
ATOM     31  C   UNL A   1      28.737  28.062  23.297  1.00  0.00     0.010 A 
ATOM     32  H   UNL A   1      31.938  30.456  21.390  1.00  0.00     0.166 HD
ATOM     33  C   UNL A   1      29.132  30.393  21.747  1.00  0.00     0.026 A 
ATOM     34  C   UNL A   1      27.647  28.785  22.780  1.00  0.00     0.001 A 
ATOM     35  C   UNL A   1      27.845  29.949  22.041  1.00  0.00     0.002 A 
ENDBRANCH  25  26
ENDBRANCH   6  25
ENDBRANCH   4   6
ENDBRANCH   3   4
ENDBRANCH   2   3
ENDBRANCH   1   2
BRANCH   1  36
ATOM     36  O   UNL A   1      35.405  31.055  27.147  1.00  0.00    -0.374 OA
BRANCH  36  37
ATOM     37  C   UNL A   1      35.662  32.045  28.142  1.00  0.00     0.202 C 
BRANCH  37  38
ATOM     38  C   UNL A   1      34.936  31.915  29.491  1.00  0.00     0.261 C 
BRANCH  38  39
ATOM     39  O   UNL A   1      35.650  31.050  30.379  1.00  0.00    -0.460 OA
BRANCH  39  40
ATOM     40  C   UNL A   1      36.283  31.659  31.412  1.00  0.00     0.338 C 
ATOM     41  O   UNL A   1      35.836  32.516  32.149  1.00  0.00    -0.246 OA
BRANCH  40  42
ATOM     42  C   UNL A   1      37.500  30.861  31.624  1.00  0.00     0.060 A 
ATOM     43  C   UNL A   1      38.745  31.478  31.746  1.00  0.00     0.016 A 
ATOM     44  C   UNL A   1      37.388  29.485  31.402  1.00  0.00     0.016 A 
ATOM     45  C   UNL A   1      39.890  30.723  31.519  1.00  0.00     0.010 A 
ATOM     46  C   UNL A   1      38.535  28.732  31.186  1.00  0.00     0.010 A 
ATOM     47  C   UNL A   1      39.783  29.360  31.189  1.00  0.00    -0.014 A 
BRANCH  47  48
ATOM     48  C   UNL A   1      41.026  28.595  31.042  1.00  0.00     0.031 A 
ATOM     49  C   UNL A   1      41.797  28.497  32.309  1.00  0.00     0.074 A 
ATOM     50  C   UNL A   1      41.391  27.863  29.967  1.00  0.00     0.049 A 
ATOM     51  N   UNL A   1      42.988  28.925  32.571  1.00  0.00    -0.248 NA
ATOM     52  C   UNL A   1      41.074  27.948  33.469  1.00  0.00     0.031 C 
ATOM     53  C   UNL A   1      40.546  27.536  28.819  1.00  0.00     0.029 A 
ATOM     54  N   UNL A   1      42.536  27.141  29.732  1.00  0.00    -0.354 N 
ATOM     55  C   UNL A   1      43.242  28.480  33.867  1.00  0.00     0.074 A 
ATOM     56  C   UNL A   1      41.985  28.063  34.432  1.00  0.00     0.031 C 
ATOM     57  C   UNL A   1      41.112  26.525  28.125  1.00  0.00     0.029 A 
ATOM     58  C   UNL A   1      42.392  26.190  28.723  1.00  0.00     0.049 A 
ATOM     59  H   UNL A   1      43.375  27.281  30.227  1.00  0.00     0.167 HD
ATOM     60  C   UNL A   1      44.497  28.180  34.294  1.00  0.00     0.034 A 
ATOM     61  C   UNL A   1      43.209  25.140  28.456  1.00  0.00     0.034 A 
ATOM     62  C   UNL A   1      45.521  28.660  33.421  1.00  0.00     0.049 A 
ATOM     63  C   UNL A   1      44.537  25.414  29.048  1.00  0.00     0.074 A 
ATOM     64  C   UNL A   1      46.215  29.827  33.202  1.00  0.00     0.029 A 
ATOM     65  N   UNL A   1      45.757  27.834  32.360  1.00  0.00    -0.354 N 
ATOM     66  N   UNL A   1      45.341  26.357  28.644  1.00  0.00    -0.248 NA
ATOM     67  C   UNL A   1      44.925  24.739  30.283  1.00  0.00     0.031 C 
ATOM     68  C   UNL A   1      46.802  29.711  31.908  1.00  0.00     0.029 A 
ATOM     69  C   UNL A   1      46.453  28.475  31.373  1.00  0.00     0.049 A 
ATOM     70  H   UNL A   1      45.463  26.895  32.312  1.00  0.00     0.167 HD
ATOM     71  C   UNL A   1      46.090  26.655  29.763  1.00  0.00     0.074 A 
ATOM     72  C   UNL A   1      45.928  25.529  30.667  1.00  0.00     0.031 C 
ATOM     73  C   UNL A   1      46.463  27.933  30.035  1.00  0.00     0.034 A 
BRANCH  60  74
ATOM     74  C   UNL A   1      44.777  27.055  35.254  1.00  0.00     0.023 A 
ATOM     75  C   UNL A   1      45.365  27.352  36.497  1.00  0.00     0.012 A 
ATOM     76  C   UNL A   1      44.716  25.695  34.872  1.00  0.00     0.148 A 
ATOM     77  C   UNL A   1      45.833  26.334  37.338  1.00  0.00     0.002 A 
ATOM     78  C   UNL A   1      45.092  24.686  35.747  1.00  0.00     0.091 A 
ATOM     79  F   UNL A   1      44.417  25.380  33.604  1.00  0.00    -0.205 F 
ATOM     80  C   UNL A   1      45.670  25.000  36.977  1.00  0.00     0.022 A 
BRANCH  78  81
ATOM     81  S   UNL A   1      44.824  22.957  35.345  1.00  0.00     0.127 S 
ATOM     82  O   UNL A   1      45.237  22.300  36.581  1.00  0.00    -0.237 OA
ATOM     83  O   UNL A   1      43.386  22.932  35.076  1.00  0.00    -0.237 OA
ATOM     84  O   UNL A   1      45.652  22.711  34.170  1.00  0.00    -0.744 OA
ENDBRANCH  78  81
ENDBRANCH  60  74
BRANCH  61  85
ATOM     85  C   UNL A   1      42.899  23.790  27.909  1.00  0.00     0.023 A 
ATOM     86  C   UNL A   1      41.610  23.248  28.118  1.00  0.00     0.012 A 
ATOM     87  C   UNL A   1      43.722  23.168  26.947  1.00  0.00     0.148 A 
ATOM     88  C   UNL A   1      41.131  22.186  27.342  1.00  0.00     0.002 A 
ATOM     89  C   UNL A   1      43.250  22.094  26.196  1.00  0.00     0.091 A 
ATOM     90  F   UNL A   1      44.928  23.682  26.684  1.00  0.00    -0.205 F 
ATOM     91  C   UNL A   1      41.947  21.616  26.372  1.00  0.00     0.022 A 
BRANCH  89  92
ATOM     92  S   UNL A   1      44.273  21.316  24.940  1.00  0.00     0.127 S 
ATOM     93  O   UNL A   1      43.571  20.053  24.705  1.00  0.00    -0.237 OA
ATOM     94  O   UNL A   1      44.193  22.275  23.844  1.00  0.00    -0.237 OA
ATOM     95  O   UNL A   1      45.584  21.156  25.559  1.00  0.00    -0.744 OA
ENDBRANCH  89  92
ENDBRANCH  61  85
BRANCH  73  96
ATOM     96  C   UNL A   1      46.680  28.866  28.890  1.00  0.00     0.023 A 
ATOM     97  C   UNL A   1      47.869  28.901  28.143  1.00  0.00     0.012 A 
ATOM     98  C   UNL A   1      45.592  29.665  28.502  1.00  0.00     0.148 A 
ATOM     99  C   UNL A   1      47.971  29.729  27.023  1.00  0.00     0.002 A 
ATOM    100  C   UNL A   1      45.680  30.447  27.362  1.00  0.00     0.091 A 
ATOM    101  F   UNL A   1      44.478  29.620  29.248  1.00  0.00    -0.205 F 
ATOM    102  C   UNL A   1      46.871  30.486  26.620  1.00  0.00     0.022 A 
BRANCH 100 103
ATOM    103  S   UNL A   1      44.274  31.367  26.737  1.00  0.00     0.127 S 
ATOM    104  O   UNL A   1      43.306  30.305  26.474  1.00  0.00    -0.237 OA
ATOM    105  O   UNL A   1      43.950  32.228  27.875  1.00  0.00    -0.237 OA
ATOM    106  O   UNL A   1      44.746  32.081  25.557  1.00  0.00    -0.744 OA
ENDBRANCH 100 103
ENDBRANCH  73  96
ENDBRANCH  47  48
ENDBRANCH  40  42
ENDBRANCH  39  40
ENDBRANCH  38  39
ENDBRANCH  37  38
ENDBRANCH  36  37
ENDBRANCH   1  36
TORSDOF 23
ENDMDL
