MODEL 1
REMARK VINA RESULT:     -11.0      0.000      0.000
REMARK SMILES O=C(C[C@@H]1CN(C(=O)NCc2cccs2)CCO1)OCCOCCOC(=O)c1ccc(-c2c3nc(c(-c4cccc(S(=O)(=O)[O-])c4F)c4ccc([nH]4)c(-c4cccc(S(=O)(=O)[O-])c4F)c4nc(c(-c5cccc(S(=O)(=O)[O-])c5F)c5ccc2[nH]5)C=C4)C=C3)cc1
REMARK SMILES IDX 21 1 20 2 19 3 2 4 1 5 3 6 4 7 5 8 18 9 6 10 17 11 16 12
REMARK SMILES IDX 7 13 8 14 9 15 10 17 11 18 12 19 15 20 13 21 14 22 22 23
REMARK SMILES IDX 23 24 24 25 25 26 26 27 27 28 28 29 29 30 90 31 30 32 89 33
REMARK SMILES IDX 31 34 32 35 33 36 83 37 34 38 88 39 82 40 84 41 35 42 87 43
REMARK SMILES IDX 81 44 80 45 36 47 68 48 48 49 67 50 49 51 52 52 66 53 85 54
REMARK SMILES IDX 50 55 51 56 65 58 86 59 53 60 37 61 38 62 46 63 39 64 41 65
REMARK SMILES IDX 47 66 40 67 42 68 43 69 44 70 45 71 69 72 70 73 78 74 71 75
REMARK SMILES IDX 73 76 79 77 72 78 74 79 75 80 76 81 77 82 54 83 55 84 63 85
REMARK SMILES IDX 56 86 58 87 64 88 57 89 59 90 60 91 61 92 62 93
REMARK H PARENT 9 16 84 46 52 57
REMARK Flexibility Score: inf
ROOT
ATOM      1  C   UNL A   1      30.591  28.591  23.799  1.00  0.00     0.202 C 
ENDROOT
BRANCH   1   2
ATOM      2  C   UNL A   1      31.097  28.388  22.366  1.00  0.00     0.261 C 
BRANCH   2   3
ATOM      3  O   UNL A   1      30.968  27.078  21.820  1.00  0.00    -0.463 OA
BRANCH   3   4
ATOM      4  C   UNL A   1      31.926  26.136  21.819  1.00  0.00     0.308 C 
ATOM      5  O   UNL A   1      32.907  26.297  21.091  1.00  0.00    -0.252 OA
BRANCH   4   6
ATOM      6  C   UNL A   1      31.746  24.820  22.538  1.00  0.00     0.156 C 
BRANCH   6   7
ATOM      7  C   UNL A   1      32.052  24.747  24.017  1.00  0.00     0.149 C 
ATOM      8  C   UNL A   1      30.768  25.048  24.800  1.00  0.00     0.154 C 
ATOM      9  O   UNL A   1      32.982  25.744  24.495  1.00  0.00    -0.374 OA
ATOM     10  N   UNL A   1      31.014  24.602  26.154  1.00  0.00    -0.320 N 
ATOM     11  C   UNL A   1      33.296  25.525  25.894  1.00  0.00     0.182 C 
ATOM     12  C   UNL A   1      32.030  25.465  26.783  1.00  0.00     0.150 C 
BRANCH  10  13
ATOM     13  C   UNL A   1      30.812  23.354  26.661  1.00  0.00     0.317 C 
ATOM     14  O   UNL A   1      29.814  23.101  27.345  1.00  0.00    -0.249 OA
ATOM     15  N   UNL A   1      31.669  22.329  26.510  1.00  0.00    -0.333 N 
ATOM     16  H   UNL A   1      31.400  21.575  27.083  1.00  0.00     0.165 HD
BRANCH  15  17
ATOM     17  C   UNL A   1      32.868  21.990  25.764  1.00  0.00     0.164 C 
BRANCH  17  18
ATOM     18  C   UNL A   1      32.611  20.854  24.820  1.00  0.00     0.024 A 
ATOM     19  C   UNL A   1      32.313  20.909  23.473  1.00  0.00     0.017 A 
ATOM     20  S   UNL A   1      32.770  19.233  25.343  1.00  0.00    -0.147 S 
ATOM     21  C   UNL A   1      32.318  19.621  22.860  1.00  0.00     0.012 A 
ATOM     22  C   UNL A   1      32.602  18.622  23.762  1.00  0.00     0.065 A 
ENDBRANCH  17  18
ENDBRANCH  15  17
ENDBRANCH  10  13
ENDBRANCH   6   7
ENDBRANCH   4   6
ENDBRANCH   3   4
ENDBRANCH   2   3
ENDBRANCH   1   2
BRANCH   1  23
ATOM     23  O   UNL A   1      31.471  28.476  24.912  1.00  0.00    -0.374 OA
BRANCH  23  24
ATOM     24  C   UNL A   1      32.377  29.556  25.166  1.00  0.00     0.202 C 
BRANCH  24  25
ATOM     25  C   UNL A   1      31.867  30.669  26.076  1.00  0.00     0.261 C 
BRANCH  25  26
ATOM     26  O   UNL A   1      32.650  30.739  27.269  1.00  0.00    -0.460 OA
BRANCH  26  27
ATOM     27  C   UNL A   1      33.342  31.889  27.436  1.00  0.00     0.338 C 
ATOM     28  O   UNL A   1      32.901  33.027  27.454  1.00  0.00    -0.246 OA
BRANCH  27  29
ATOM     29  C   UNL A   1      34.710  31.529  27.851  1.00  0.00     0.060 A 
ATOM     30  C   UNL A   1      34.975  30.186  28.168  1.00  0.00     0.016 A 
ATOM     31  C   UNL A   1      35.719  32.492  27.897  1.00  0.00     0.016 A 
ATOM     32  C   UNL A   1      36.242  29.813  28.597  1.00  0.00     0.010 A 
ATOM     33  C   UNL A   1      36.981  32.121  28.340  1.00  0.00     0.010 A 
ATOM     34  C   UNL A   1      37.225  30.795  28.739  1.00  0.00    -0.014 A 
BRANCH  34  35
ATOM     35  C   UNL A   1      38.430  30.530  29.545  1.00  0.00     0.031 A 
ATOM     36  C   UNL A   1      39.422  29.550  28.992  1.00  0.00     0.074 A 
ATOM     37  C   UNL A   1      38.580  31.072  30.763  1.00  0.00     0.049 A 
ATOM     38  N   UNL A   1      40.444  28.988  29.573  1.00  0.00    -0.248 NA
ATOM     39  C   UNL A   1      39.208  29.126  27.596  1.00  0.00     0.031 C 
ATOM     40  C   UNL A   1      37.671  32.037  31.377  1.00  0.00     0.029 A 
ATOM     41  N   UNL A   1      39.528  30.832  31.722  1.00  0.00    -0.354 N 
ATOM     42  C   UNL A   1      40.958  28.098  28.638  1.00  0.00     0.074 A 
ATOM     43  C   UNL A   1      40.136  28.194  27.454  1.00  0.00     0.031 C 
ATOM     44  C   UNL A   1      38.076  32.269  32.637  1.00  0.00     0.029 A 
ATOM     45  C   UNL A   1      39.242  31.435  32.922  1.00  0.00     0.049 A 
ATOM     46  H   UNL A   1      40.331  30.285  31.567  1.00  0.00     0.167 HD
ATOM     47  C   UNL A   1      42.023  27.274  28.761  1.00  0.00     0.034 A 
ATOM     48  C   UNL A   1      39.829  31.285  34.125  1.00  0.00     0.034 A 
ATOM     49  C   UNL A   1      42.827  27.201  29.947  1.00  0.00     0.049 A 
ATOM     50  C   UNL A   1      41.007  30.356  34.247  1.00  0.00     0.074 A 
ATOM     51  C   UNL A   1      43.967  26.452  30.171  1.00  0.00     0.029 A 
ATOM     52  N   UNL A   1      42.560  27.890  31.121  1.00  0.00    -0.354 N 
ATOM     53  N   UNL A   1      41.555  29.593  33.331  1.00  0.00    -0.248 NA
ATOM     54  C   UNL A   1      41.669  30.289  35.557  1.00  0.00     0.031 C 
ATOM     55  C   UNL A   1      44.364  26.656  31.495  1.00  0.00     0.029 A 
ATOM     56  C   UNL A   1      43.504  27.575  32.080  1.00  0.00     0.049 A 
ATOM     57  H   UNL A   1      41.808  28.513  31.252  1.00  0.00     0.167 HD
ATOM     58  C   UNL A   1      42.652  28.991  33.938  1.00  0.00     0.074 A 
ATOM     59  C   UNL A   1      42.689  29.479  35.302  1.00  0.00     0.031 C 
ATOM     60  C   UNL A   1      43.547  28.117  33.416  1.00  0.00     0.034 A 
BRANCH  47  61
ATOM     61  C   UNL A   1      42.356  26.388  27.589  1.00  0.00     0.023 A 
ATOM     62  C   UNL A   1      43.096  26.899  26.503  1.00  0.00     0.012 A 
ATOM     63  C   UNL A   1      41.941  25.043  27.568  1.00  0.00     0.148 A 
ATOM     64  C   UNL A   1      43.373  26.101  25.394  1.00  0.00     0.002 A 
ATOM     65  C   UNL A   1      42.268  24.238  26.484  1.00  0.00     0.091 A 
ATOM     66  F   UNL A   1      41.214  24.582  28.596  1.00  0.00    -0.205 F 
ATOM     67  C   UNL A   1      42.968  24.769  25.389  1.00  0.00     0.022 A 
BRANCH  65  68
ATOM     68  S   UNL A   1      41.864  22.490  26.425  1.00  0.00     0.127 S 
ATOM     69  O   UNL A   1      40.404  22.526  26.349  1.00  0.00    -0.237 OA
ATOM     70  O   UNL A   1      42.529  22.063  25.194  1.00  0.00    -0.237 OA
ATOM     71  O   UNL A   1      42.414  21.909  27.642  1.00  0.00    -0.744 OA
ENDBRANCH  65  68
ENDBRANCH  47  61
BRANCH  48  72
ATOM     72  C   UNL A   1      39.317  32.055  35.290  1.00  0.00     0.023 A 
ATOM     73  C   UNL A   1      38.417  31.444  36.183  1.00  0.00     0.012 A 
ATOM     74  C   UNL A   1      39.769  33.364  35.553  1.00  0.00     0.148 A 
ATOM     75  C   UNL A   1      37.961  32.129  37.310  1.00  0.00     0.002 A 
ATOM     76  C   UNL A   1      39.352  34.020  36.705  1.00  0.00     0.091 A 
ATOM     77  F   UNL A   1      40.622  33.926  34.686  1.00  0.00    -0.205 F 
ATOM     78  C   UNL A   1      38.436  33.410  37.577  1.00  0.00     0.022 A 
BRANCH  76  79
ATOM     79  S   UNL A   1      40.005  35.618  37.200  1.00  0.00     0.127 S 
ATOM     80  O   UNL A   1      41.426  35.321  37.367  1.00  0.00    -0.237 OA
ATOM     81  O   UNL A   1      39.678  36.444  36.037  1.00  0.00    -0.237 OA
ATOM     82  O   UNL A   1      39.294  35.979  38.419  1.00  0.00    -0.744 OA
ENDBRANCH  76  79
ENDBRANCH  48  72
BRANCH  60  83
ATOM     83  C   UNL A   1      44.694  27.677  34.287  1.00  0.00     0.023 A 
ATOM     84  C   UNL A   1      45.783  28.537  34.519  1.00  0.00     0.012 A 
ATOM     85  C   UNL A   1      44.625  26.444  34.966  1.00  0.00     0.148 A 
ATOM     86  C   UNL A   1      46.801  28.164  35.398  1.00  0.00     0.002 A 
ATOM     87  C   UNL A   1      45.612  26.104  35.881  1.00  0.00     0.091 A 
ATOM     88  F   UNL A   1      43.584  25.636  34.716  1.00  0.00    -0.205 F 
ATOM     89  C   UNL A   1      46.706  26.958  36.090  1.00  0.00     0.022 A 
BRANCH  87  90
ATOM     90  S   UNL A   1      45.517  24.625  36.895  1.00  0.00     0.127 S 
ATOM     91  O   UNL A   1      46.717  24.754  37.721  1.00  0.00    -0.237 OA
ATOM     92  O   UNL A   1      44.258  24.823  37.613  1.00  0.00    -0.237 OA
ATOM     93  O   UNL A   1      45.518  23.499  35.970  1.00  0.00    -0.744 OA
ENDBRANCH  87  90
ENDBRANCH  60  83
ENDBRANCH  34  35
ENDBRANCH  27  29
ENDBRANCH  26  27
ENDBRANCH  25  26
ENDBRANCH  24  25
ENDBRANCH  23  24
ENDBRANCH   1  23
TORSDOF 21
ENDMDL
MODEL 2
REMARK VINA RESULT:     -10.4      1.661      1.986
REMARK SMILES O=C(C[C@@H]1CN(C(=O)NCc2cccs2)CCO1)OCCOCCOC(=O)c1ccc(-c2c3nc(c(-c4cccc(S(=O)(=O)[O-])c4F)c4ccc([nH]4)c(-c4cccc(S(=O)(=O)[O-])c4F)c4nc(c(-c5cccc(S(=O)(=O)[O-])c5F)c5ccc2[nH]5)C=C4)C=C3)cc1
REMARK SMILES IDX 21 1 20 2 19 3 2 4 1 5 3 6 4 7 5 8 18 9 6 10 17 11 16 12
REMARK SMILES IDX 7 13 8 14 9 15 10 17 11 18 12 19 15 20 13 21 14 22 22 23
REMARK SMILES IDX 23 24 24 25 25 26 26 27 27 28 28 29 29 30 90 31 30 32 89 33
REMARK SMILES IDX 31 34 32 35 33 36 83 37 34 38 88 39 82 40 84 41 35 42 87 43
REMARK SMILES IDX 81 44 80 45 36 47 68 48 48 49 67 50 49 51 52 52 66 53 85 54
REMARK SMILES IDX 50 55 51 56 65 58 86 59 53 60 37 61 38 62 46 63 39 64 41 65
REMARK SMILES IDX 47 66 40 67 42 68 43 69 44 70 45 71 69 72 70 73 78 74 71 75
REMARK SMILES IDX 73 76 79 77 72 78 74 79 75 80 76 81 77 82 54 83 55 84 63 85
REMARK SMILES IDX 56 86 58 87 64 88 57 89 59 90 60 91 61 92 62 93
REMARK H PARENT 9 16 84 46 52 57
REMARK Flexibility Score: inf
ROOT
ATOM      1  C   UNL A   1      30.240  28.739  23.698  1.00  0.00     0.202 C 
ENDROOT
BRANCH   1   2
ATOM      2  C   UNL A   1      30.860  28.553  22.309  1.00  0.00     0.261 C 
BRANCH   2   3
ATOM      3  O   UNL A   1      30.953  27.217  21.822  1.00  0.00    -0.463 OA
BRANCH   3   4
ATOM      4  C   UNL A   1      31.957  26.363  22.078  1.00  0.00     0.308 C 
ATOM      5  O   UNL A   1      33.084  26.640  21.662  1.00  0.00    -0.252 OA
BRANCH   4   6
ATOM      6  C   UNL A   1      31.708  25.006  22.692  1.00  0.00     0.156 C 
BRANCH   6   7
ATOM      7  C   UNL A   1      31.357  24.920  24.160  1.00  0.00     0.149 C 
ATOM      8  C   UNL A   1      31.212  23.444  24.545  1.00  0.00     0.154 C 
ATOM      9  O   UNL A   1      30.076  25.490  24.512  1.00  0.00    -0.374 OA
ATOM     10  N   UNL A   1      31.255  23.404  25.991  1.00  0.00    -0.320 N 
ATOM     11  C   UNL A   1      29.878  25.461  25.949  1.00  0.00     0.182 C 
ATOM     12  C   UNL A   1      30.044  24.040  26.541  1.00  0.00     0.150 C 
BRANCH  10  13
ATOM     13  C   UNL A   1      32.361  23.312  26.781  1.00  0.00     0.317 C 
ATOM     14  O   UNL A   1      32.288  22.839  27.921  1.00  0.00    -0.249 OA
ATOM     15  N   UNL A   1      33.581  23.750  26.428  1.00  0.00    -0.333 N 
ATOM     16  H   UNL A   1      34.189  23.724  27.202  1.00  0.00     0.165 HD
BRANCH  15  17
ATOM     17  C   UNL A   1      34.281  24.252  25.258  1.00  0.00     0.164 C 
BRANCH  17  18
ATOM     18  C   UNL A   1      35.306  23.268  24.781  1.00  0.00     0.024 A 
ATOM     19  C   UNL A   1      36.018  23.277  23.598  1.00  0.00     0.017 A 
ATOM     20  S   UNL A   1      35.807  21.976  25.784  1.00  0.00    -0.147 S 
ATOM     21  C   UNL A   1      37.041  22.283  23.569  1.00  0.00     0.012 A 
ATOM     22  C   UNL A   1      37.065  21.534  24.723  1.00  0.00     0.065 A 
ENDBRANCH  17  18
ENDBRANCH  15  17
ENDBRANCH  10  13
ENDBRANCH   6   7
ENDBRANCH   4   6
ENDBRANCH   3   4
ENDBRANCH   2   3
ENDBRANCH   1   2
BRANCH   1  23
ATOM     23  O   UNL A   1      31.039  28.663  24.875  1.00  0.00    -0.374 OA
BRANCH  23  24
ATOM     24  C   UNL A   1      32.097  29.617  25.032  1.00  0.00     0.202 C 
BRANCH  24  25
ATOM     25  C   UNL A   1      31.925  30.642  26.148  1.00  0.00     0.261 C 
BRANCH  25  26
ATOM     26  O   UNL A   1      32.939  30.477  27.141  1.00  0.00    -0.460 OA
BRANCH  26  27
ATOM     27  C   UNL A   1      33.532  31.620  27.553  1.00  0.00     0.338 C 
ATOM     28  O   UNL A   1      32.999  32.694  27.779  1.00  0.00    -0.246 OA
BRANCH  27  29
ATOM     29  C   UNL A   1      34.917  31.290  27.936  1.00  0.00     0.060 A 
ATOM     30  C   UNL A   1      35.225  29.949  28.218  1.00  0.00     0.016 A 
ATOM     31  C   UNL A   1      35.898  32.280  27.986  1.00  0.00     0.016 A 
ATOM     32  C   UNL A   1      36.510  29.602  28.615  1.00  0.00     0.010 A 
ATOM     33  C   UNL A   1      37.179  31.936  28.398  1.00  0.00     0.010 A 
ATOM     34  C   UNL A   1      37.468  30.609  28.762  1.00  0.00    -0.014 A 
BRANCH  34  35
ATOM     35  C   UNL A   1      38.694  30.361  29.541  1.00  0.00     0.031 A 
ATOM     36  C   UNL A   1      39.654  29.344  28.999  1.00  0.00     0.074 A 
ATOM     37  C   UNL A   1      38.890  30.951  30.729  1.00  0.00     0.049 A 
ATOM     38  N   UNL A   1      40.687  28.791  29.570  1.00  0.00    -0.248 NA
ATOM     39  C   UNL A   1      39.390  28.864  27.629  1.00  0.00     0.031 C 
ATOM     40  C   UNL A   1      38.014  31.954  31.329  1.00  0.00     0.029 A 
ATOM     41  N   UNL A   1      39.865  30.738  31.667  1.00  0.00    -0.354 N 
ATOM     42  C   UNL A   1      41.160  27.856  28.659  1.00  0.00     0.074 A 
ATOM     43  C   UNL A   1      40.301  27.914  27.498  1.00  0.00     0.031 C 
ATOM     44  C   UNL A   1      38.462  32.233  32.565  1.00  0.00     0.029 A 
ATOM     45  C   UNL A   1      39.625  31.395  32.849  1.00  0.00     0.049 A 
ATOM     46  H   UNL A   1      40.655  30.173  31.510  1.00  0.00     0.167 HD
ATOM     47  C   UNL A   1      42.217  27.022  28.783  1.00  0.00     0.034 A 
ATOM     48  C   UNL A   1      40.249  31.287  34.038  1.00  0.00     0.034 A 
ATOM     49  C   UNL A   1      43.057  26.987  29.945  1.00  0.00     0.049 A 
ATOM     50  C   UNL A   1      41.418  30.347  34.162  1.00  0.00     0.074 A 
ATOM     51  C   UNL A   1      44.194  26.232  30.164  1.00  0.00     0.029 A 
ATOM     52  N   UNL A   1      42.837  27.729  31.097  1.00  0.00    -0.354 N 
ATOM     53  N   UNL A   1      41.926  29.538  33.263  1.00  0.00    -0.248 NA
ATOM     54  C   UNL A   1      42.120  30.325  35.452  1.00  0.00     0.031 C 
ATOM     55  C   UNL A   1      44.636  26.485  31.466  1.00  0.00     0.029 A 
ATOM     56  C   UNL A   1      43.807  27.441  32.038  1.00  0.00     0.049 A 
ATOM     57  H   UNL A   1      42.098  28.368  31.224  1.00  0.00     0.167 HD
ATOM     58  C   UNL A   1      43.034  28.946  33.860  1.00  0.00     0.074 A 
ATOM     59  C   UNL A   1      43.121  29.491  35.200  1.00  0.00     0.031 C 
ATOM     60  C   UNL A   1      43.900  28.038  33.347  1.00  0.00     0.034 A 
BRANCH  47  61
ATOM     61  C   UNL A   1      42.501  26.083  27.640  1.00  0.00     0.023 A 
ATOM     62  C   UNL A   1      43.320  26.497  26.569  1.00  0.00     0.012 A 
ATOM     63  C   UNL A   1      41.960  24.783  27.631  1.00  0.00     0.148 A 
ATOM     64  C   UNL A   1      43.554  25.653  25.485  1.00  0.00     0.002 A 
ATOM     65  C   UNL A   1      42.242  23.927  26.574  1.00  0.00     0.091 A 
ATOM     66  F   UNL A   1      41.160  24.416  28.642  1.00  0.00    -0.205 F 
ATOM     67  C   UNL A   1      43.024  24.365  25.492  1.00  0.00     0.022 A 
BRANCH  65  68
ATOM     68  S   UNL A   1      41.676  22.224  26.535  1.00  0.00     0.127 S 
ATOM     69  O   UNL A   1      40.227  22.397  26.435  1.00  0.00    -0.237 OA
ATOM     70  O   UNL A   1      42.315  21.716  25.320  1.00  0.00    -0.237 OA
ATOM     71  O   UNL A   1      42.150  21.614  27.769  1.00  0.00    -0.744 OA
ENDBRANCH  65  68
ENDBRANCH  47  61
BRANCH  48  72
ATOM     72  C   UNL A   1      39.784  32.113  35.185  1.00  0.00     0.023 A 
ATOM     73  C   UNL A   1      40.108  33.482  35.228  1.00  0.00     0.012 A 
ATOM     74  C   UNL A   1      38.970  31.563  36.195  1.00  0.00     0.148 A 
ATOM     75  C   UNL A   1      39.643  34.287  36.269  1.00  0.00     0.002 A 
ATOM     76  C   UNL A   1      38.467  32.382  37.198  1.00  0.00     0.091 A 
ATOM     77  F   UNL A   1      38.679  30.256  36.133  1.00  0.00    -0.205 F 
ATOM     78  C   UNL A   1      38.815  33.741  37.246  1.00  0.00     0.022 A 
BRANCH  76  79
ATOM     79  S   UNL A   1      37.292  31.800  38.426  1.00  0.00     0.127 S 
ATOM     80  O   UNL A   1      37.093  30.412  38.015  1.00  0.00    -0.237 OA
ATOM     81  O   UNL A   1      38.049  31.975  39.666  1.00  0.00    -0.237 OA
ATOM     82  O   UNL A   1      36.125  32.663  38.301  1.00  0.00    -0.744 OA
ENDBRANCH  76  79
ENDBRANCH  48  72
BRANCH  60  83
ATOM     83  C   UNL A   1      45.068  27.618  34.200  1.00  0.00     0.023 A 
ATOM     84  C   UNL A   1      46.260  28.367  34.195  1.00  0.00     0.012 A 
ATOM     85  C   UNL A   1      44.931  26.537  35.093  1.00  0.00     0.148 A 
ATOM     86  C   UNL A   1      47.308  28.031  35.053  1.00  0.00     0.002 A 
ATOM     87  C   UNL A   1      45.955  26.243  35.983  1.00  0.00     0.091 A 
ATOM     88  F   UNL A   1      43.792  25.830  35.068  1.00  0.00    -0.205 F 
ATOM     89  C   UNL A   1      47.149  26.981  35.955  1.00  0.00     0.022 A 
BRANCH  87  90
ATOM     90  S   UNL A   1      45.797  24.981  37.251  1.00  0.00     0.127 S 
ATOM     91  O   UNL A   1      46.162  23.772  36.514  1.00  0.00    -0.237 OA
ATOM     92  O   UNL A   1      46.783  25.414  38.241  1.00  0.00    -0.237 OA
ATOM     93  O   UNL A   1      44.415  25.037  37.708  1.00  0.00    -0.744 OA
ENDBRANCH  87  90
ENDBRANCH  60  83
ENDBRANCH  34  35
ENDBRANCH  27  29
ENDBRANCH  26  27
ENDBRANCH  25  26
ENDBRANCH  24  25
ENDBRANCH  23  24
ENDBRANCH   1  23
TORSDOF 21
ENDMDL
MODEL 3
REMARK VINA RESULT:     -10.1      1.908      7.725
REMARK SMILES O=C(C[C@@H]1CN(C(=O)NCc2cccs2)CCO1)OCCOCCOC(=O)c1ccc(-c2c3nc(c(-c4cccc(S(=O)(=O)[O-])c4F)c4ccc([nH]4)c(-c4cccc(S(=O)(=O)[O-])c4F)c4nc(c(-c5cccc(S(=O)(=O)[O-])c5F)c5ccc2[nH]5)C=C4)C=C3)cc1
REMARK SMILES IDX 21 1 20 2 19 3 2 4 1 5 3 6 4 7 5 8 18 9 6 10 17 11 16 12
REMARK SMILES IDX 7 13 8 14 9 15 10 17 11 18 12 19 15 20 13 21 14 22 22 23
REMARK SMILES IDX 23 24 24 25 25 26 26 27 27 28 28 29 29 30 90 31 30 32 89 33
REMARK SMILES IDX 31 34 32 35 33 36 83 37 34 38 88 39 82 40 84 41 35 42 87 43
REMARK SMILES IDX 81 44 80 45 36 47 68 48 48 49 67 50 49 51 52 52 66 53 85 54
REMARK SMILES IDX 50 55 51 56 65 58 86 59 53 60 37 61 38 62 46 63 39 64 41 65
REMARK SMILES IDX 47 66 40 67 42 68 43 69 44 70 45 71 69 72 70 73 78 74 71 75
REMARK SMILES IDX 73 76 79 77 72 78 74 79 75 80 76 81 77 82 54 83 55 84 63 85
REMARK SMILES IDX 56 86 58 87 64 88 57 89 59 90 60 91 61 92 62 93
REMARK H PARENT 9 16 84 46 52 57
REMARK Flexibility Score: inf
ROOT
ATOM      1  C   UNL A   1      32.763  28.918  24.203  1.00  0.00     0.202 C 
ENDROOT
BRANCH   1   2
ATOM      2  C   UNL A   1      32.373  27.672  23.400  1.00  0.00     0.261 C 
BRANCH   2   3
ATOM      3  O   UNL A   1      33.320  26.607  23.368  1.00  0.00    -0.463 OA
BRANCH   3   4
ATOM      4  C   UNL A   1      33.283  25.557  22.532  1.00  0.00     0.308 C 
ATOM      5  O   UNL A   1      33.561  25.741  21.345  1.00  0.00    -0.252 OA
BRANCH   4   6
ATOM      6  C   UNL A   1      32.740  24.216  22.965  1.00  0.00     0.156 C 
BRANCH   6   7
ATOM      7  C   UNL A   1      32.686  23.890  24.441  1.00  0.00     0.149 C 
ATOM      8  C   UNL A   1      32.063  22.500  24.614  1.00  0.00     0.154 C 
ATOM      9  O   UNL A   1      31.824  24.748  25.221  1.00  0.00    -0.374 OA
ATOM     10  N   UNL A   1      32.377  22.090  25.966  1.00  0.00    -0.320 N 
ATOM     11  C   UNL A   1      31.923  24.430  26.632  1.00  0.00     0.182 C 
ATOM     12  C   UNL A   1      31.643  22.936  26.924  1.00  0.00     0.150 C 
BRANCH  10  13
ATOM     13  C   UNL A   1      33.496  21.440  26.392  1.00  0.00     0.317 C 
ATOM     14  O   UNL A   1      34.046  21.753  27.453  1.00  0.00    -0.249 OA
ATOM     15  N   UNL A   1      34.110  20.463  25.703  1.00  0.00    -0.333 N 
ATOM     16  H   UNL A   1      34.976  20.247  26.120  1.00  0.00     0.165 HD
BRANCH  15  17
ATOM     17  C   UNL A   1      33.895  19.628  24.534  1.00  0.00     0.164 C 
BRANCH  17  18
ATOM     18  C   UNL A   1      33.642  18.205  24.929  1.00  0.00     0.024 A 
ATOM     19  C   UNL A   1      32.577  17.689  25.641  1.00  0.00     0.017 A 
ATOM     20  S   UNL A   1      34.689  16.956  24.410  1.00  0.00    -0.147 S 
ATOM     21  C   UNL A   1      32.577  16.262  25.666  1.00  0.00     0.012 A 
ATOM     22  C   UNL A   1      33.652  15.735  24.988  1.00  0.00     0.065 A 
ENDBRANCH  17  18
ENDBRANCH  15  17
ENDBRANCH  10  13
ENDBRANCH   6   7
ENDBRANCH   4   6
ENDBRANCH   3   4
ENDBRANCH   2   3
ENDBRANCH   1   2
BRANCH   1  23
ATOM     23  O   UNL A   1      32.260  29.130  25.518  1.00  0.00    -0.374 OA
BRANCH  23  24
ATOM     24  C   UNL A   1      31.661  30.398  25.812  1.00  0.00     0.202 C 
BRANCH  24  25
ATOM     25  C   UNL A   1      32.244  31.166  26.994  1.00  0.00     0.261 C 
BRANCH  25  26
ATOM     26  O   UNL A   1      33.672  31.166  26.937  1.00  0.00    -0.460 OA
BRANCH  26  27
ATOM     27  C   UNL A   1      34.280  32.059  27.749  1.00  0.00     0.338 C 
ATOM     28  O   UNL A   1      33.828  33.114  28.165  1.00  0.00    -0.246 OA
BRANCH  27  29
ATOM     29  C   UNL A   1      35.508  31.428  28.266  1.00  0.00     0.060 A 
ATOM     30  C   UNL A   1      35.519  30.032  28.424  1.00  0.00     0.016 A 
ATOM     31  C   UNL A   1      36.636  32.195  28.559  1.00  0.00     0.016 A 
ATOM     32  C   UNL A   1      36.644  29.402  28.941  1.00  0.00     0.010 A 
ATOM     33  C   UNL A   1      37.755  31.567  29.089  1.00  0.00     0.010 A 
ATOM     34  C   UNL A   1      37.737  30.181  29.329  1.00  0.00    -0.014 A 
BRANCH  34  35
ATOM     35  C   UNL A   1      38.766  29.625  30.225  1.00  0.00     0.031 A 
ATOM     36  C   UNL A   1      38.852  30.198  31.608  1.00  0.00     0.074 A 
ATOM     37  C   UNL A   1      39.646  28.713  29.785  1.00  0.00     0.049 A 
ATOM     38  N   UNL A   1      39.776  30.044  32.514  1.00  0.00    -0.248 NA
ATOM     39  C   UNL A   1      37.753  31.096  32.010  1.00  0.00     0.031 C 
ATOM     40  C   UNL A   1      39.633  28.097  28.460  1.00  0.00     0.029 A 
ATOM     41  N   UNL A   1      40.758  28.197  30.395  1.00  0.00    -0.354 N 
ATOM     42  C   UNL A   1      39.406  30.870  33.567  1.00  0.00     0.074 A 
ATOM     43  C   UNL A   1      38.175  31.525  33.189  1.00  0.00     0.031 C 
ATOM     44  C   UNL A   1      40.724  27.322  28.336  1.00  0.00     0.029 A 
ATOM     45  C   UNL A   1      41.524  27.428  29.554  1.00  0.00     0.049 A 
ATOM     46  H   UNL A   1      40.984  28.360  31.339  1.00  0.00     0.167 HD
ATOM     47  C   UNL A   1      40.040  31.064  34.745  1.00  0.00     0.034 A 
ATOM     48  C   UNL A   1      42.756  26.914  29.736  1.00  0.00     0.034 A 
ATOM     49  C   UNL A   1      41.261  30.397  35.100  1.00  0.00     0.049 A 
ATOM     50  C   UNL A   1      43.452  27.148  31.050  1.00  0.00     0.074 A 
ATOM     51  C   UNL A   1      41.965  30.463  36.287  1.00  0.00     0.029 A 
ATOM     52  N   UNL A   1      41.970  29.555  34.255  1.00  0.00    -0.354 N 
ATOM     53  N   UNL A   1      43.050  27.847  32.085  1.00  0.00    -0.248 NA
ATOM     54  C   UNL A   1      44.757  26.498  31.237  1.00  0.00     0.031 C 
ATOM     55  C   UNL A   1      43.124  29.694  36.144  1.00  0.00     0.029 A 
ATOM     56  C   UNL A   1      43.113  29.105  34.888  1.00  0.00     0.049 A 
ATOM     57  H   UNL A   1      41.698  29.314  33.340  1.00  0.00     0.167 HD
ATOM     58  C   UNL A   1      44.027  27.685  33.062  1.00  0.00     0.074 A 
ATOM     59  C   UNL A   1      45.041  26.820  32.493  1.00  0.00     0.031 C 
ATOM     60  C   UNL A   1      44.080  28.202  34.314  1.00  0.00     0.034 A 
BRANCH  47  61
ATOM     61  C   UNL A   1      39.427  32.041  35.713  1.00  0.00     0.023 A 
ATOM     62  C   UNL A   1      38.359  31.642  36.543  1.00  0.00     0.012 A 
ATOM     63  C   UNL A   1      39.916  33.358  35.806  1.00  0.00     0.148 A 
ATOM     64  C   UNL A   1      37.755  32.550  37.412  1.00  0.00     0.002 A 
ATOM     65  C   UNL A   1      39.345  34.243  36.713  1.00  0.00     0.091 A 
ATOM     66  F   UNL A   1      40.912  33.730  34.990  1.00  0.00    -0.205 F 
ATOM     67  C   UNL A   1      38.254  33.846  37.504  1.00  0.00     0.022 A 
BRANCH  65  68
ATOM     68  S   UNL A   1      39.974  35.905  36.964  1.00  0.00     0.127 S 
ATOM     69  O   UNL A   1      41.396  35.653  37.191  1.00  0.00    -0.237 OA
ATOM     70  O   UNL A   1      39.664  36.546  35.686  1.00  0.00    -0.237 OA
ATOM     71  O   UNL A   1      39.244  36.444  38.104  1.00  0.00    -0.744 OA
ENDBRANCH  65  68
ENDBRANCH  47  61
BRANCH  48  72
ATOM     72  C   UNL A   1      43.383  26.114  28.651  1.00  0.00     0.023 A 
ATOM     73  C   UNL A   1      42.970  24.785  28.444  1.00  0.00     0.012 A 
ATOM     74  C   UNL A   1      44.335  26.685  27.783  1.00  0.00     0.148 A 
ATOM     75  C   UNL A   1      43.508  24.029  27.401  1.00  0.00     0.002 A 
ATOM     76  C   UNL A   1      44.827  25.944  26.715  1.00  0.00     0.091 A 
ATOM     77  F   UNL A   1      44.714  27.951  28.003  1.00  0.00    -0.205 F 
ATOM     78  C   UNL A   1      44.427  24.611  26.532  1.00  0.00     0.022 A 
BRANCH  76  79
ATOM     79  S   UNL A   1      45.914  26.646  25.469  1.00  0.00     0.127 S 
ATOM     80  O   UNL A   1      46.195  25.483  24.629  1.00  0.00    -0.237 OA
ATOM     81  O   UNL A   1      45.048  27.654  24.856  1.00  0.00    -0.237 OA
ATOM     82  O   UNL A   1      47.055  27.185  26.194  1.00  0.00    -0.744 OA
ENDBRANCH  76  79
ENDBRANCH  48  72
BRANCH  60  83
ATOM     83  C   UNL A   1      45.232  27.796  35.196  1.00  0.00     0.023 A 
ATOM     84  C   UNL A   1      46.382  28.603  35.282  1.00  0.00     0.012 A 
ATOM     85  C   UNL A   1      45.114  26.663  36.025  1.00  0.00     0.148 A 
ATOM     86  C   UNL A   1      47.409  28.273  36.167  1.00  0.00     0.002 A 
ATOM     87  C   UNL A   1      46.114  26.373  36.943  1.00  0.00     0.091 A 
ATOM     88  F   UNL A   1      44.015  25.902  35.913  1.00  0.00    -0.205 F 
ATOM     89  C   UNL A   1      47.268  27.171  37.007  1.00  0.00     0.022 A 
BRANCH  87  90
ATOM     90  S   UNL A   1      45.969  25.039  38.137  1.00  0.00     0.127 S 
ATOM     91  O   UNL A   1      47.225  25.163  38.875  1.00  0.00    -0.237 OA
ATOM     92  O   UNL A   1      44.777  25.428  38.890  1.00  0.00    -0.237 OA
ATOM     93  O   UNL A   1      45.823  23.815  37.360  1.00  0.00    -0.744 OA
ENDBRANCH  87  90
ENDBRANCH  60  83
ENDBRANCH  34  35
ENDBRANCH  27  29
ENDBRANCH  26  27
ENDBRANCH  25  26
ENDBRANCH  24  25
ENDBRANCH  23  24
ENDBRANCH   1  23
TORSDOF 21
ENDMDL
