MODEL 1
REMARK VINA RESULT:     -12.3      0.000      0.000
REMARK SMILES COc1ccc(N2C(=O)/C(=C/c3c(C(=O)OCCOCCOC(=O)c4ccc(-c5c6nc(c(-c7cccc(S(=O)(=O)[O-])c7F)c7ccc([nH]7)c(-c7cccc(S(=O)(=O)[O-])c7F)c7nc(c(-c8cccc(S(=O)(=O)[O-])c8F)c8ccc5[nH]8)C=C7)C=C6)cc4)[nH]c4cc(OC)ccc34)SC2=S)cc1
REMARK SMILES IDX 19 1 18 2 17 3 16 4 14 5 15 6 13 7 12 8 96 9 88 10 89 11
REMARK SMILES IDX 95 12 90 14 94 15 91 16 11 17 7 18 8 19 98 20 9 21 10 22
REMARK SMILES IDX 97 23 99 24 6 25 3 26 4 27 101 28 5 29 100 30 2 31 1 32
REMARK SMILES IDX 92 33 93 34 20 35 21 36 22 37 23 38 24 39 25 40 26 41 87 42
REMARK SMILES IDX 27 43 86 44 28 45 29 46 30 47 80 48 31 49 85 50 79 51 81 52
REMARK SMILES IDX 32 53 84 54 78 55 77 56 33 58 65 59 45 60 64 61 46 62 49 63
REMARK SMILES IDX 63 64 82 65 47 66 48 67 62 69 83 70 50 71 34 72 35 73 43 74
REMARK SMILES IDX 36 75 38 76 44 77 37 78 39 79 40 80 41 81 42 82 66 83 67 84
REMARK SMILES IDX 75 85 68 86 70 87 76 88 69 89 71 90 72 91 73 92 74 93 51 94
REMARK SMILES IDX 52 95 60 96 53 97 55 98 61 99 54 100 56 101 57 102 58 103
REMARK SMILES IDX 59 104
REMARK H PARENT 88 13 81 57 49 68
REMARK Flexibility Score: inf
ROOT
ATOM      1  O   UNL A   1      35.784  23.139  25.012  1.00  0.00    -0.374 OA
ENDROOT
BRANCH   1   2
ATOM      2  C   UNL A   1      35.459  24.525  25.056  1.00  0.00     0.202 C 
BRANCH   2   3
ATOM      3  C   UNL A   1      34.121  24.963  24.445  1.00  0.00     0.261 C 
BRANCH   3   4
ATOM      4  O   UNL A   1      34.144  26.289  23.905  1.00  0.00    -0.459 OA
BRANCH   4   5
ATOM      5  C   UNL A   1      33.492  26.425  22.716  1.00  0.00     0.355 C 
ATOM      6  O   UNL A   1      33.938  26.097  21.623  1.00  0.00    -0.244 OA
BRANCH   5   7
ATOM      7  C   UNL A   1      32.123  26.845  22.908  1.00  0.00     0.133 A 
ATOM      8  C   UNL A   1      30.893  26.199  23.022  1.00  0.00     0.016 A 
ATOM      9  C   UNL A   1      29.883  27.218  23.187  1.00  0.00     0.008 A 
ATOM     10  N   UNL A   1      31.869  28.192  22.944  1.00  0.00    -0.348 N 
ATOM     11  C   UNL A   1      30.531  28.445  23.023  1.00  0.00     0.050 A 
ATOM     12  C   UNL A   1      28.486  27.262  23.416  1.00  0.00     0.015 A 
ATOM     13  H   UNL A   1      32.564  28.889  22.918  1.00  0.00     0.167 HD
ATOM     14  C   UNL A   1      29.872  29.674  22.955  1.00  0.00     0.073 A 
ATOM     15  C   UNL A   1      27.812  28.507  23.426  1.00  0.00     0.047 A 
ATOM     16  C   UNL A   1      28.499  29.691  23.167  1.00  0.00     0.120 A 
BRANCH   8  17
ATOM     17  C   UNL A   1      30.737  24.775  22.842  1.00  0.00     0.032 C 
ATOM     18  N   UNL A   1      31.890  21.939  24.725  1.00  0.00    -0.261 N 
ATOM     19  C   UNL A   1      31.340  22.468  23.545  1.00  0.00     0.270 C 
ATOM     20  C   UNL A   1      31.765  22.749  25.853  1.00  0.00     0.152 C 
ATOM     21  O   UNL A   1      31.354  21.990  22.418  1.00  0.00    -0.268 OA
ATOM     22  C   UNL A   1      30.806  23.844  23.813  1.00  0.00     0.081 C 
ATOM     23  S   UNL A   1      30.702  24.110  25.504  1.00  0.00    -0.054 SA
ATOM     24  S   UNL A   1      32.576  22.717  27.322  1.00  0.00    -0.051 S 
BRANCH  18  25
ATOM     25  C   UNL A   1      32.667  20.728  24.719  1.00  0.00     0.051 A 
ATOM     26  C   UNL A   1      34.268  18.404  24.459  1.00  0.00     0.119 A 
ATOM     27  C   UNL A   1      32.920  18.385  24.131  1.00  0.00     0.048 A 
ATOM     28  C   UNL A   1      34.831  19.577  24.932  1.00  0.00     0.048 A 
ATOM     29  C   UNL A   1      32.112  19.520  24.288  1.00  0.00     0.030 A 
ATOM     30  C   UNL A   1      34.032  20.724  25.067  1.00  0.00     0.030 A 
BRANCH  26  31
ATOM     31  O   UNL A   1      34.961  17.249  24.233  1.00  0.00    -0.497 OA
ATOM     32  C   UNL A   1      34.622  16.194  25.130  1.00  0.00     0.278 C 
ENDBRANCH  26  31
ENDBRANCH  18  25
ENDBRANCH   8  17
BRANCH  16  33
ATOM     33  O   UNL A   1      27.903  30.913  23.008  1.00  0.00    -0.497 OA
ATOM     34  C   UNL A   1      28.699  32.009  23.440  1.00  0.00     0.278 C 
ENDBRANCH  16  33
ENDBRANCH   5   7
ENDBRANCH   4   5
ENDBRANCH   3   4
ENDBRANCH   2   3
ENDBRANCH   1   2
BRANCH   1  35
ATOM     35  C   UNL A   1      36.768  22.706  24.074  1.00  0.00     0.202 C 
BRANCH  35  36
ATOM     36  C   UNL A   1      37.604  21.462  24.395  1.00  0.00     0.261 C 
BRANCH  36  37
ATOM     37  O   UNL A   1      37.866  21.273  25.797  1.00  0.00    -0.460 OA
BRANCH  37  38
ATOM     38  C   UNL A   1      39.182  21.145  26.108  1.00  0.00     0.338 C 
ATOM     39  O   UNL A   1      39.908  20.211  25.806  1.00  0.00    -0.246 OA
BRANCH  38  40
ATOM     40  C   UNL A   1      39.699  22.351  26.788  1.00  0.00     0.060 A 
ATOM     41  C   UNL A   1      39.171  23.583  26.394  1.00  0.00     0.016 A 
ATOM     42  C   UNL A   1      40.764  22.301  27.693  1.00  0.00     0.016 A 
ATOM     43  C   UNL A   1      39.729  24.764  26.881  1.00  0.00     0.010 A 
ATOM     44  C   UNL A   1      41.324  23.495  28.180  1.00  0.00     0.010 A 
ATOM     45  C   UNL A   1      40.816  24.736  27.773  1.00  0.00    -0.014 A 
BRANCH  45  46
ATOM     46  C   UNL A   1      41.441  26.032  28.163  1.00  0.00     0.031 A 
ATOM     47  C   UNL A   1      42.747  26.418  27.528  1.00  0.00     0.074 A 
ATOM     48  C   UNL A   1      40.828  26.893  29.001  1.00  0.00     0.049 A 
ATOM     49  N   UNL A   1      43.380  27.560  27.562  1.00  0.00    -0.248 NA
ATOM     50  C   UNL A   1      43.439  25.363  26.769  1.00  0.00     0.031 C 
ATOM     51  C   UNL A   1      39.593  26.622  29.724  1.00  0.00     0.029 A 
ATOM     52  N   UNL A   1      41.124  28.198  29.333  1.00  0.00    -0.354 N 
ATOM     53  C   UNL A   1      44.581  27.342  26.900  1.00  0.00     0.074 A 
ATOM     54  C   UNL A   1      44.552  25.982  26.405  1.00  0.00     0.031 C 
ATOM     55  C   UNL A   1      39.153  27.759  30.288  1.00  0.00     0.029 A 
ATOM     56  C   UNL A   1      40.109  28.832  30.023  1.00  0.00     0.049 A 
ATOM     57  H   UNL A   1      41.975  28.635  29.100  1.00  0.00     0.167 HD
ATOM     58  C   UNL A   1      45.636  28.178  26.764  1.00  0.00     0.034 A 
ATOM     59  C   UNL A   1      39.958  30.132  30.361  1.00  0.00     0.034 A 
ATOM     60  C   UNL A   1      45.677  29.518  27.280  1.00  0.00     0.049 A 
ATOM     61  C   UNL A   1      41.086  31.090  30.057  1.00  0.00     0.074 A 
ATOM     62  C   UNL A   1      46.730  30.417  27.266  1.00  0.00     0.029 A 
ATOM     63  N   UNL A   1      44.619  30.151  27.913  1.00  0.00    -0.354 N 
ATOM     64  N   UNL A   1      42.176  30.894  29.358  1.00  0.00    -0.248 NA
ATOM     65  C   UNL A   1      40.964  32.452  30.606  1.00  0.00     0.031 C 
ATOM     66  C   UNL A   1      46.310  31.589  27.904  1.00  0.00     0.029 A 
ATOM     67  C   UNL A   1      44.990  31.428  28.292  1.00  0.00     0.049 A 
ATOM     68  H   UNL A   1      43.734  29.750  28.069  1.00  0.00     0.167 HD
ATOM     69  C   UNL A   1      42.881  32.093  29.407  1.00  0.00     0.074 A 
ATOM     70  C   UNL A   1      42.051  33.039  30.122  1.00  0.00     0.031 C 
ATOM     71  C   UNL A   1      44.132  32.371  28.960  1.00  0.00     0.034 A 
BRANCH  58  72
ATOM     72  C   UNL A   1      46.861  27.625  26.093  1.00  0.00     0.023 A 
ATOM     73  C   UNL A   1      47.042  27.785  24.707  1.00  0.00     0.012 A 
ATOM     74  C   UNL A   1      47.832  26.940  26.849  1.00  0.00     0.148 A 
ATOM     75  C   UNL A   1      48.162  27.241  24.075  1.00  0.00     0.002 A 
ATOM     76  C   UNL A   1      48.962  26.434  26.220  1.00  0.00     0.091 A 
ATOM     77  F   UNL A   1      47.621  26.777  28.163  1.00  0.00    -0.205 F 
ATOM     78  C   UNL A   1      49.123  26.574  24.832  1.00  0.00     0.022 A 
BRANCH  76  79
ATOM     79  S   UNL A   1      50.280  25.607  27.116  1.00  0.00     0.127 S 
ATOM     80  O   UNL A   1      49.601  24.402  27.592  1.00  0.00    -0.237 OA
ATOM     81  O   UNL A   1      51.266  25.374  26.061  1.00  0.00    -0.237 OA
ATOM     82  O   UNL A   1      50.706  26.533  28.155  1.00  0.00    -0.744 OA
ENDBRANCH  76  79
ENDBRANCH  58  72
BRANCH  59  83
ATOM     83  C   UNL A   1      38.668  30.652  30.924  1.00  0.00     0.023 A 
ATOM     84  C   UNL A   1      38.486  30.629  32.325  1.00  0.00     0.012 A 
ATOM     85  C   UNL A   1      37.632  31.172  30.127  1.00  0.00     0.148 A 
ATOM     86  C   UNL A   1      37.310  31.094  32.914  1.00  0.00     0.002 A 
ATOM     87  C   UNL A   1      36.491  31.704  30.725  1.00  0.00     0.091 A 
ATOM     88  F   UNL A   1      37.765  31.137  28.793  1.00  0.00    -0.205 F 
ATOM     89  C   UNL A   1      36.317  31.648  32.115  1.00  0.00     0.022 A 
BRANCH  87  90
ATOM     90  S   UNL A   1      35.270  32.597  29.755  1.00  0.00     0.127 S 
ATOM     91  O   UNL A   1      34.329  33.040  30.779  1.00  0.00    -0.237 OA
ATOM     92  O   UNL A   1      36.066  33.665  29.147  1.00  0.00    -0.237 OA
ATOM     93  O   UNL A   1      34.776  31.614  28.799  1.00  0.00    -0.744 OA
ENDBRANCH  87  90
ENDBRANCH  59  83
BRANCH  71  94
ATOM     94  C   UNL A   1      44.698  33.733  29.268  1.00  0.00     0.023 A 
ATOM     95  C   UNL A   1      45.381  33.931  30.486  1.00  0.00     0.012 A 
ATOM     96  C   UNL A   1      44.638  34.780  28.330  1.00  0.00     0.148 A 
ATOM     97  C   UNL A   1      45.971  35.159  30.779  1.00  0.00     0.002 A 
ATOM     98  C   UNL A   1      45.266  35.990  28.611  1.00  0.00     0.091 A 
ATOM     99  F   UNL A   1      43.971  34.579  27.186  1.00  0.00    -0.205 F 
ATOM    100  C   UNL A   1      45.923  36.184  29.838  1.00  0.00     0.022 A 
BRANCH  98 101
ATOM    101  S   UNL A   1      45.332  37.339  27.426  1.00  0.00     0.127 S 
ATOM    102  O   UNL A   1      46.011  38.379  28.197  1.00  0.00    -0.237 OA
ATOM    103  O   UNL A   1      46.131  36.762  26.343  1.00  0.00    -0.237 OA
ATOM    104  O   UNL A   1      43.949  37.626  27.070  1.00  0.00    -0.744 OA
ENDBRANCH  98 101
ENDBRANCH  71  94
ENDBRANCH  45  46
ENDBRANCH  38  40
ENDBRANCH  37  38
ENDBRANCH  36  37
ENDBRANCH  35  36
ENDBRANCH   1  35
TORSDOF 21
ENDMDL
MODEL 2
REMARK VINA RESULT:     -12.2      2.246      5.733
REMARK SMILES COc1ccc(N2C(=O)/C(=C/c3c(C(=O)OCCOCCOC(=O)c4ccc(-c5c6nc(c(-c7cccc(S(=O)(=O)[O-])c7F)c7ccc([nH]7)c(-c7cccc(S(=O)(=O)[O-])c7F)c7nc(c(-c8cccc(S(=O)(=O)[O-])c8F)c8ccc5[nH]8)C=C7)C=C6)cc4)[nH]c4cc(OC)ccc34)SC2=S)cc1
REMARK SMILES IDX 19 1 18 2 17 3 16 4 14 5 15 6 13 7 12 8 96 9 88 10 89 11
REMARK SMILES IDX 95 12 90 14 94 15 91 16 11 17 7 18 8 19 98 20 9 21 10 22
REMARK SMILES IDX 97 23 99 24 6 25 3 26 4 27 101 28 5 29 100 30 2 31 1 32
REMARK SMILES IDX 92 33 93 34 20 35 21 36 22 37 23 38 24 39 25 40 26 41 87 42
REMARK SMILES IDX 27 43 86 44 28 45 29 46 30 47 80 48 31 49 85 50 79 51 81 52
REMARK SMILES IDX 32 53 84 54 78 55 77 56 33 58 65 59 45 60 64 61 46 62 49 63
REMARK SMILES IDX 63 64 82 65 47 66 48 67 62 69 83 70 50 71 34 72 35 73 43 74
REMARK SMILES IDX 36 75 38 76 44 77 37 78 39 79 40 80 41 81 42 82 66 83 67 84
REMARK SMILES IDX 75 85 68 86 70 87 76 88 69 89 71 90 72 91 73 92 74 93 51 94
REMARK SMILES IDX 52 95 60 96 53 97 55 98 61 99 54 100 56 101 57 102 58 103
REMARK SMILES IDX 59 104
REMARK H PARENT 88 13 81 57 49 68
REMARK Flexibility Score: inf
ROOT
ATOM      1  O   UNL A   1      38.563  22.337  26.022  1.00  0.00    -0.374 OA
ENDROOT
BRANCH   1   2
ATOM      2  C   UNL A   1      37.638  23.419  26.076  1.00  0.00     0.202 C 
BRANCH   2   3
ATOM      3  C   UNL A   1      36.433  23.375  25.127  1.00  0.00     0.261 C 
BRANCH   3   4
ATOM      4  O   UNL A   1      35.196  23.728  25.755  1.00  0.00    -0.459 OA
BRANCH   4   5
ATOM      5  C   UNL A   1      34.640  22.736  26.505  1.00  0.00     0.355 C 
ATOM      6  O   UNL A   1      34.464  22.778  27.717  1.00  0.00    -0.244 OA
BRANCH   5   7
ATOM      7  C   UNL A   1      34.112  21.678  25.674  1.00  0.00     0.133 A 
ATOM      8  C   UNL A   1      32.939  21.478  24.947  1.00  0.00     0.016 A 
ATOM      9  C   UNL A   1      33.026  20.173  24.337  1.00  0.00     0.008 A 
ATOM     10  N   UNL A   1      34.851  20.529  25.559  1.00  0.00    -0.348 N 
ATOM     11  C   UNL A   1      34.188  19.581  24.837  1.00  0.00     0.050 A 
ATOM     12  C   UNL A   1      32.247  19.393  23.448  1.00  0.00     0.015 A 
ATOM     13  H   UNL A   1      35.747  20.405  25.946  1.00  0.00     0.167 HD
ATOM     14  C   UNL A   1      34.549  18.251  24.608  1.00  0.00     0.073 A 
ATOM     15  C   UNL A   1      32.638  18.066  23.144  1.00  0.00     0.047 A 
ATOM     16  C   UNL A   1      33.760  17.500  23.745  1.00  0.00     0.120 A 
BRANCH   8  17
ATOM     17  C   UNL A   1      31.830  22.401  24.983  1.00  0.00     0.032 C 
ATOM     18  N   UNL A   1      31.222  25.547  23.353  1.00  0.00    -0.261 N 
ATOM     19  C   UNL A   1      30.886  24.612  24.347  1.00  0.00     0.270 C 
ATOM     20  C   UNL A   1      31.972  25.041  22.293  1.00  0.00     0.152 C 
ATOM     21  O   UNL A   1      30.280  24.799  25.395  1.00  0.00    -0.268 OA
ATOM     22  C   UNL A   1      31.507  23.286  24.019  1.00  0.00     0.081 C 
ATOM     23  S   UNL A   1      32.054  23.285  22.394  1.00  0.00    -0.054 SA
ATOM     24  S   UNL A   1      32.898  25.824  21.133  1.00  0.00    -0.051 S 
BRANCH  18  25
ATOM     25  C   UNL A   1      30.948  26.950  23.514  1.00  0.00     0.051 A 
ATOM     26  C   UNL A   1      30.271  29.650  24.047  1.00  0.00     0.119 A 
ATOM     27  C   UNL A   1      29.471  28.859  23.237  1.00  0.00     0.048 A 
ATOM     28  C   UNL A   1      31.424  29.110  24.591  1.00  0.00     0.048 A 
ATOM     29  C   UNL A   1      29.814  27.532  22.939  1.00  0.00     0.030 A 
ATOM     30  C   UNL A   1      31.760  27.774  24.318  1.00  0.00     0.030 A 
BRANCH  26  31
ATOM     31  O   UNL A   1      29.819  30.915  24.293  1.00  0.00    -0.497 OA
ATOM     32  C   UNL A   1      28.730  31.305  23.461  1.00  0.00     0.278 C 
ENDBRANCH  26  31
ENDBRANCH  18  25
ENDBRANCH   8  17
BRANCH  16  33
ATOM     33  O   UNL A   1      34.121  16.185  23.627  1.00  0.00    -0.497 OA
ATOM     34  C   UNL A   1      34.603  15.603  24.830  1.00  0.00     0.278 C 
ENDBRANCH  16  33
ENDBRANCH   5   7
ENDBRANCH   4   5
ENDBRANCH   3   4
ENDBRANCH   2   3
ENDBRANCH   1   2
BRANCH   1  35
ATOM     35  C   UNL A   1      38.172  21.149  25.336  1.00  0.00     0.202 C 
BRANCH  35  36
ATOM     36  C   UNL A   1      39.106  19.934  25.362  1.00  0.00     0.261 C 
BRANCH  36  37
ATOM     37  O   UNL A   1      40.024  19.920  26.470  1.00  0.00    -0.460 OA
BRANCH  37  38
ATOM     38  C   UNL A   1      41.331  19.829  26.113  1.00  0.00     0.338 C 
ATOM     39  O   UNL A   1      41.868  18.875  25.571  1.00  0.00    -0.246 OA
BRANCH  38  40
ATOM     40  C   UNL A   1      42.052  21.095  26.358  1.00  0.00     0.060 A 
ATOM     41  C   UNL A   1      42.464  21.353  27.669  1.00  0.00     0.016 A 
ATOM     42  C   UNL A   1      42.210  22.071  25.369  1.00  0.00     0.016 A 
ATOM     43  C   UNL A   1      43.005  22.597  27.994  1.00  0.00     0.010 A 
ATOM     44  C   UNL A   1      42.753  23.323  25.702  1.00  0.00     0.010 A 
ATOM     45  C   UNL A   1      43.149  23.600  27.018  1.00  0.00    -0.014 A 
BRANCH  45  46
ATOM     46  C   UNL A   1      43.622  24.944  27.454  1.00  0.00     0.031 A 
ATOM     47  C   UNL A   1      44.989  25.396  27.024  1.00  0.00     0.074 A 
ATOM     48  C   UNL A   1      42.830  25.786  28.149  1.00  0.00     0.049 A 
ATOM     49  N   UNL A   1      45.539  26.577  27.116  1.00  0.00    -0.248 NA
ATOM     50  C   UNL A   1      45.858  24.367  26.428  1.00  0.00     0.031 C 
ATOM     51  C   UNL A   1      41.511  25.456  28.672  1.00  0.00     0.029 A 
ATOM     52  N   UNL A   1      42.989  27.116  28.474  1.00  0.00    -0.354 N 
ATOM     53  C   UNL A   1      46.843  26.419  26.666  1.00  0.00     0.074 A 
ATOM     54  C   UNL A   1      46.977  25.047  26.226  1.00  0.00     0.031 C 
ATOM     55  C   UNL A   1      40.918  26.577  29.113  1.00  0.00     0.029 A 
ATOM     56  C   UNL A   1      41.839  27.702  28.966  1.00  0.00     0.049 A 
ATOM     57  H   UNL A   1      43.839  27.601  28.365  1.00  0.00     0.167 HD
ATOM     58  C   UNL A   1      47.855  27.318  26.671  1.00  0.00     0.034 A 
ATOM     59  C   UNL A   1      41.558  28.999  29.225  1.00  0.00     0.034 A 
ATOM     60  C   UNL A   1      47.730  28.672  27.135  1.00  0.00     0.049 A 
ATOM     61  C   UNL A   1      42.661  30.019  29.071  1.00  0.00     0.074 A 
ATOM     62  C   UNL A   1      48.715  29.636  27.257  1.00  0.00     0.029 A 
ATOM     63  N   UNL A   1      46.547  29.252  27.564  1.00  0.00    -0.354 N 
ATOM     64  N   UNL A   1      43.861  29.875  28.565  1.00  0.00    -0.248 NA
ATOM     65  C   UNL A   1      42.370  31.385  29.540  1.00  0.00     0.031 C 
ATOM     66  C   UNL A   1      48.128  30.796  27.773  1.00  0.00     0.029 A 
ATOM     67  C   UNL A   1      46.774  30.561  27.949  1.00  0.00     0.049 A 
ATOM     68  H   UNL A   1      45.673  28.799  27.590  1.00  0.00     0.167 HD
ATOM     69  C   UNL A   1      44.475  31.118  28.681  1.00  0.00     0.074 A 
ATOM     70  C   UNL A   1      43.484  32.028  29.217  1.00  0.00     0.031 C 
ATOM     71  C   UNL A   1      45.763  31.464  28.432  1.00  0.00     0.034 A 
BRANCH  58  72
ATOM     72  C   UNL A   1      49.204  26.827  26.228  1.00  0.00     0.023 A 
ATOM     73  C   UNL A   1      49.968  26.000  27.072  1.00  0.00     0.012 A 
ATOM     74  C   UNL A   1      49.711  27.197  24.967  1.00  0.00     0.148 A 
ATOM     75  C   UNL A   1      51.237  25.572  26.678  1.00  0.00     0.002 A 
ATOM     76  C   UNL A   1      50.958  26.737  24.566  1.00  0.00     0.091 A 
ATOM     77  F   UNL A   1      48.974  28.010  24.196  1.00  0.00    -0.205 F 
ATOM     78  C   UNL A   1      51.726  25.934  25.424  1.00  0.00     0.022 A 
BRANCH  76  79
ATOM     79  S   UNL A   1      51.651  27.105  22.951  1.00  0.00     0.127 S 
ATOM     80  O   UNL A   1      51.911  28.540  23.062  1.00  0.00    -0.237 OA
ATOM     81  O   UNL A   1      52.851  26.268  22.937  1.00  0.00    -0.237 OA
ATOM     82  O   UNL A   1      50.634  26.730  21.980  1.00  0.00    -0.744 OA
ENDBRANCH  76  79
ENDBRANCH  58  72
BRANCH  59  83
ATOM     83  C   UNL A   1      40.164  29.449  29.551  1.00  0.00     0.023 A 
ATOM     84  C   UNL A   1      39.317  29.840  28.490  1.00  0.00     0.012 A 
ATOM     85  C   UNL A   1      39.653  29.492  30.860  1.00  0.00     0.148 A 
ATOM     86  C   UNL A   1      38.011  30.272  28.723  1.00  0.00     0.002 A 
ATOM     87  C   UNL A   1      38.324  29.852  31.080  1.00  0.00     0.091 A 
ATOM     88  F   UNL A   1      40.468  29.187  31.881  1.00  0.00    -0.205 F 
ATOM     89  C   UNL A   1      37.507  30.262  30.018  1.00  0.00     0.022 A 
BRANCH  87  90
ATOM     90  S   UNL A   1      37.575  29.675  32.704  1.00  0.00     0.127 S 
ATOM     91  O   UNL A   1      38.482  30.449  33.545  1.00  0.00    -0.237 OA
ATOM     92  O   UNL A   1      36.253  30.273  32.511  1.00  0.00    -0.237 OA
ATOM     93  O   UNL A   1      37.542  28.236  32.935  1.00  0.00    -0.744 OA
ENDBRANCH  87  90
ENDBRANCH  59  83
BRANCH  71  94
ATOM     94  C   UNL A   1      46.189  32.868  28.776  1.00  0.00     0.023 A 
ATOM     95  C   UNL A   1      46.836  33.106  30.006  1.00  0.00     0.012 A 
ATOM     96  C   UNL A   1      46.037  33.925  27.859  1.00  0.00     0.148 A 
ATOM     97  C   UNL A   1      47.299  34.380  30.332  1.00  0.00     0.002 A 
ATOM     98  C   UNL A   1      46.539  35.184  28.172  1.00  0.00     0.091 A 
ATOM     99  F   UNL A   1      45.405  33.683  26.702  1.00  0.00    -0.205 F 
ATOM    100  C   UNL A   1      47.160  35.415  29.411  1.00  0.00     0.022 A 
BRANCH  98 101
ATOM    101  S   UNL A   1      46.485  36.558  27.016  1.00  0.00     0.127 S 
ATOM    102  O   UNL A   1      45.048  36.803  26.913  1.00  0.00    -0.237 OA
ATOM    103  O   UNL A   1      47.231  37.595  27.730  1.00  0.00    -0.237 OA
ATOM    104  O   UNL A   1      47.128  36.081  25.799  1.00  0.00    -0.744 OA
ENDBRANCH  98 101
ENDBRANCH  71  94
ENDBRANCH  45  46
ENDBRANCH  38  40
ENDBRANCH  37  38
ENDBRANCH  36  37
ENDBRANCH  35  36
ENDBRANCH   1  35
TORSDOF 21
ENDMDL
MODEL 3
REMARK VINA RESULT:     -11.8      2.699      9.100
REMARK SMILES COc1ccc(N2C(=O)/C(=C/c3c(C(=O)OCCOCCOC(=O)c4ccc(-c5c6nc(c(-c7cccc(S(=O)(=O)[O-])c7F)c7ccc([nH]7)c(-c7cccc(S(=O)(=O)[O-])c7F)c7nc(c(-c8cccc(S(=O)(=O)[O-])c8F)c8ccc5[nH]8)C=C7)C=C6)cc4)[nH]c4cc(OC)ccc34)SC2=S)cc1
REMARK SMILES IDX 19 1 18 2 17 3 16 4 14 5 15 6 13 7 12 8 96 9 88 10 89 11
REMARK SMILES IDX 95 12 90 14 94 15 91 16 11 17 7 18 8 19 98 20 9 21 10 22
REMARK SMILES IDX 97 23 99 24 6 25 3 26 4 27 101 28 5 29 100 30 2 31 1 32
REMARK SMILES IDX 92 33 93 34 20 35 21 36 22 37 23 38 24 39 25 40 26 41 87 42
REMARK SMILES IDX 27 43 86 44 28 45 29 46 30 47 80 48 31 49 85 50 79 51 81 52
REMARK SMILES IDX 32 53 84 54 78 55 77 56 33 58 65 59 45 60 64 61 46 62 49 63
REMARK SMILES IDX 63 64 82 65 47 66 48 67 62 69 83 70 50 71 34 72 35 73 43 74
REMARK SMILES IDX 36 75 38 76 44 77 37 78 39 79 40 80 41 81 42 82 66 83 67 84
REMARK SMILES IDX 75 85 68 86 70 87 76 88 69 89 71 90 72 91 73 92 74 93 51 94
REMARK SMILES IDX 52 95 60 96 53 97 55 98 61 99 54 100 56 101 57 102 58 103
REMARK SMILES IDX 59 104
REMARK H PARENT 88 13 81 57 49 68
REMARK Flexibility Score: inf
ROOT
ATOM      1  O   UNL A   1      39.249  22.067  25.731  1.00  0.00    -0.374 OA
ENDROOT
BRANCH   1   2
ATOM      2  C   UNL A   1      38.831  23.260  26.389  1.00  0.00     0.202 C 
BRANCH   2   3
ATOM      3  C   UNL A   1      37.402  23.753  26.131  1.00  0.00     0.261 C 
BRANCH   3   4
ATOM      4  O   UNL A   1      36.433  22.699  26.076  1.00  0.00    -0.459 OA
BRANCH   4   5
ATOM      5  C   UNL A   1      35.764  22.609  24.892  1.00  0.00     0.355 C 
ATOM      6  O   UNL A   1      35.967  23.312  23.910  1.00  0.00    -0.244 OA
BRANCH   5   7
ATOM      7  C   UNL A   1      34.893  21.457  24.864  1.00  0.00     0.133 A 
ATOM      8  C   UNL A   1      33.546  21.223  25.140  1.00  0.00     0.016 A 
ATOM      9  C   UNL A   1      33.299  19.817  24.926  1.00  0.00     0.008 A 
ATOM     10  N   UNL A   1      35.451  20.244  24.553  1.00  0.00    -0.348 N 
ATOM     11  C   UNL A   1      34.542  19.233  24.666  1.00  0.00     0.050 A 
ATOM     12  C   UNL A   1      32.183  18.946  24.957  1.00  0.00     0.015 A 
ATOM     13  H   UNL A   1      36.388  20.118  24.281  1.00  0.00     0.167 HD
ATOM     14  C   UNL A   1      34.753  17.858  24.559  1.00  0.00     0.073 A 
ATOM     15  C   UNL A   1      32.367  17.554  24.774  1.00  0.00     0.047 A 
ATOM     16  C   UNL A   1      33.643  17.022  24.608  1.00  0.00     0.120 A 
BRANCH   8  17
ATOM     17  C   UNL A   1      32.671  22.235  25.682  1.00  0.00     0.032 C 
ATOM     18  N   UNL A   1      32.297  25.747  25.017  1.00  0.00    -0.261 N 
ATOM     19  C   UNL A   1      32.037  24.634  25.834  1.00  0.00     0.270 C 
ATOM     20  C   UNL A   1      32.665  25.447  23.706  1.00  0.00     0.152 C 
ATOM     21  O   UNL A   1      31.744  24.614  27.023  1.00  0.00    -0.268 OA
ATOM     22  C   UNL A   1      32.301  23.373  25.064  1.00  0.00     0.081 C 
ATOM     23  S   UNL A   1      32.437  23.729  23.392  1.00  0.00    -0.054 SA
ATOM     24  S   UNL A   1      33.419  26.385  22.536  1.00  0.00    -0.051 S 
BRANCH  18  25
ATOM     25  C   UNL A   1      32.339  27.083  25.551  1.00  0.00     0.051 A 
ATOM     26  C   UNL A   1      32.567  29.780  26.391  1.00  0.00     0.119 A 
ATOM     27  C   UNL A   1      33.486  28.823  26.798  1.00  0.00     0.048 A 
ATOM     28  C   UNL A   1      31.518  29.401  25.570  1.00  0.00     0.048 A 
ATOM     29  C   UNL A   1      33.362  27.480  26.416  1.00  0.00     0.030 A 
ATOM     30  C   UNL A   1      31.404  28.063  25.163  1.00  0.00     0.030 A 
BRANCH  26  31
ATOM     31  O   UNL A   1      32.808  31.060  26.798  1.00  0.00    -0.497 OA
ATOM     32  C   UNL A   1      33.933  31.184  27.664  1.00  0.00     0.278 C 
ENDBRANCH  26  31
ENDBRANCH  18  25
ENDBRANCH   8  17
BRANCH  16  33
ATOM     33  O   UNL A   1      33.925  15.682  24.576  1.00  0.00    -0.497 OA
ATOM     34  C   UNL A   1      33.070  14.888  25.387  1.00  0.00     0.278 C 
ENDBRANCH  16  33
ENDBRANCH   5   7
ENDBRANCH   4   5
ENDBRANCH   3   4
ENDBRANCH   2   3
ENDBRANCH   1   2
BRANCH   1  35
ATOM     35  C   UNL A   1      39.627  20.950  26.534  1.00  0.00     0.202 C 
BRANCH  35  36
ATOM     36  C   UNL A   1      39.800  19.580  25.869  1.00  0.00     0.261 C 
BRANCH  36  37
ATOM     37  O   UNL A   1      41.167  19.231  25.585  1.00  0.00    -0.460 OA
BRANCH  37  38
ATOM     38  C   UNL A   1      42.011  19.371  26.639  1.00  0.00     0.338 C 
ATOM     39  O   UNL A   1      42.268  18.521  27.477  1.00  0.00    -0.246 OA
BRANCH  38  40
ATOM     40  C   UNL A   1      42.704  20.676  26.611  1.00  0.00     0.060 A 
ATOM     41  C   UNL A   1      42.945  21.298  27.838  1.00  0.00     0.016 A 
ATOM     42  C   UNL A   1      42.998  21.343  25.417  1.00  0.00     0.016 A 
ATOM     43  C   UNL A   1      43.449  22.598  27.870  1.00  0.00     0.010 A 
ATOM     44  C   UNL A   1      43.504  22.653  25.454  1.00  0.00     0.010 A 
ATOM     45  C   UNL A   1      43.727  23.295  26.680  1.00  0.00    -0.014 A 
BRANCH  45  46
ATOM     46  C   UNL A   1      44.151  24.721  26.781  1.00  0.00     0.031 A 
ATOM     47  C   UNL A   1      43.250  25.687  27.496  1.00  0.00     0.074 A 
ATOM     48  C   UNL A   1      45.348  25.140  26.322  1.00  0.00     0.049 A 
ATOM     49  N   UNL A   1      43.485  26.916  27.872  1.00  0.00    -0.248 NA
ATOM     50  C   UNL A   1      41.895  25.205  27.809  1.00  0.00     0.031 C 
ATOM     51  C   UNL A   1      46.289  24.324  25.566  1.00  0.00     0.029 A 
ATOM     52  N   UNL A   1      46.010  26.338  26.485  1.00  0.00    -0.354 N 
ATOM     53  C   UNL A   1      42.285  27.382  28.393  1.00  0.00     0.074 A 
ATOM     54  C   UNL A   1      41.349  26.279  28.358  1.00  0.00     0.031 C 
ATOM     55  C   UNL A   1      47.457  24.979  25.461  1.00  0.00     0.029 A 
ATOM     56  C   UNL A   1      47.332  26.294  26.086  1.00  0.00     0.049 A 
ATOM     57  H   UNL A   1      45.582  27.147  26.849  1.00  0.00     0.167 HD
ATOM     58  C   UNL A   1      41.973  28.632  28.810  1.00  0.00     0.034 A 
ATOM     59  C   UNL A   1      48.327  27.195  26.247  1.00  0.00     0.034 A 
ATOM     60  C   UNL A   1      42.894  29.734  28.818  1.00  0.00     0.049 A 
ATOM     61  C   UNL A   1      47.993  28.532  26.865  1.00  0.00     0.074 A 
ATOM     62  C   UNL A   1      42.652  31.058  29.145  1.00  0.00     0.029 A 
ATOM     63  N   UNL A   1      44.233  29.645  28.473  1.00  0.00    -0.354 N 
ATOM     64  N   UNL A   1      46.881  28.932  27.431  1.00  0.00    -0.248 NA
ATOM     65  C   UNL A   1      49.057  29.552  26.852  1.00  0.00     0.031 C 
ATOM     66  C   UNL A   1      43.845  31.771  28.984  1.00  0.00     0.029 A 
ATOM     67  C   UNL A   1      44.833  30.887  28.580  1.00  0.00     0.049 A 
ATOM     68  H   UNL A   1      44.690  28.820  28.193  1.00  0.00     0.167 HD
ATOM     69  C   UNL A   1      47.100  30.252  27.813  1.00  0.00     0.074 A 
ATOM     70  C   UNL A   1      48.481  30.554  27.502  1.00  0.00     0.031 C 
ATOM     71  C   UNL A   1      46.221  31.156  28.314  1.00  0.00     0.034 A 
BRANCH  58  72
ATOM     72  C   UNL A   1      40.548  28.877  29.218  1.00  0.00     0.023 A 
ATOM     73  C   UNL A   1      39.597  29.279  28.262  1.00  0.00     0.012 A 
ATOM     74  C   UNL A   1      40.159  28.710  30.562  1.00  0.00     0.148 A 
ATOM     75  C   UNL A   1      38.281  29.542  28.644  1.00  0.00     0.002 A 
ATOM     76  C   UNL A   1      38.840  28.937  30.928  1.00  0.00     0.091 A 
ATOM     77  F   UNL A   1      41.092  28.354  31.457  1.00  0.00    -0.205 F 
ATOM     78  C   UNL A   1      37.902  29.364  29.973  1.00  0.00     0.022 A 
BRANCH  76  79
ATOM     79  S   UNL A   1      38.244  28.684  32.603  1.00  0.00     0.127 S 
ATOM     80  O   UNL A   1      36.886  29.222  32.516  1.00  0.00    -0.237 OA
ATOM     81  O   UNL A   1      38.315  27.229  32.735  1.00  0.00    -0.237 OA
ATOM     82  O   UNL A   1      39.151  29.420  33.471  1.00  0.00    -0.744 OA
ENDBRANCH  76  79
ENDBRANCH  58  72
BRANCH  59  83
ATOM     83  C   UNL A   1      49.752  26.854  25.930  1.00  0.00     0.023 A 
ATOM     84  C   UNL A   1      50.505  26.142  26.891  1.00  0.00     0.012 A 
ATOM     85  C   UNL A   1      50.377  27.197  24.718  1.00  0.00     0.148 A 
ATOM     86  C   UNL A   1      51.837  25.796  26.662  1.00  0.00     0.002 A 
ATOM     87  C   UNL A   1      51.684  26.783  24.463  1.00  0.00     0.091 A 
ATOM     88  F   UNL A   1      49.695  27.930  23.826  1.00  0.00    -0.205 F 
ATOM     89  C   UNL A   1      52.423  26.101  25.439  1.00  0.00     0.022 A 
BRANCH  87  90
ATOM     90  S   UNL A   1      52.418  26.988  22.836  1.00  0.00     0.127 S 
ATOM     91  O   UNL A   1      52.883  28.371  22.881  1.00  0.00    -0.237 OA
ATOM     92  O   UNL A   1      53.480  25.981  22.837  1.00  0.00    -0.237 OA
ATOM     93  O   UNL A   1      51.332  26.697  21.908  1.00  0.00    -0.744 OA
ENDBRANCH  87  90
ENDBRANCH  59  83
BRANCH  71  94
ATOM     94  C   UNL A   1      46.709  32.567  28.516  1.00  0.00     0.023 A 
ATOM     95  C   UNL A   1      47.159  32.960  29.793  1.00  0.00     0.012 A 
ATOM     96  C   UNL A   1      46.808  33.469  27.440  1.00  0.00     0.148 A 
ATOM     97  C   UNL A   1      47.674  34.238  30.004  1.00  0.00     0.002 A 
ATOM     98  C   UNL A   1      47.363  34.728  27.648  1.00  0.00     0.091 A 
ATOM     99  F   UNL A   1      46.360  33.084  26.237  1.00  0.00    -0.205 F 
ATOM    100  C   UNL A   1      47.786  35.118  28.930  1.00  0.00     0.022 A 
BRANCH  98 101
ATOM    101  S   UNL A   1      47.628  35.897  26.310  1.00  0.00     0.127 S 
ATOM    102  O   UNL A   1      48.424  35.104  25.375  1.00  0.00    -0.237 OA
ATOM    103  O   UNL A   1      46.262  36.175  25.865  1.00  0.00    -0.237 OA
ATOM    104  O   UNL A   1      48.313  37.036  26.905  1.00  0.00    -0.744 OA
ENDBRANCH  98 101
ENDBRANCH  71  94
ENDBRANCH  45  46
ENDBRANCH  38  40
ENDBRANCH  37  38
ENDBRANCH  36  37
ENDBRANCH  35  36
ENDBRANCH   1  35
TORSDOF 21
ENDMDL
