MODEL 1
REMARK VINA RESULT:     -10.6      0.000      0.000
REMARK SMILES C[C@H](NC(=O)c1ccc(C(C)(C)C)cc1)C(=O)N[C@@H](C(=O)OCCOCCOC(=O)c1ccc(-c2c3nc(c(-c4cccc(S(=O)(=O)[O-])c4F)c4ccc([nH]4)c(-c4cccc(S(=O)(=O)[O-])c4F)c4nc(c(-c5cccc(S(=O)(=O)[O-])c5F)c5ccc2[nH]5)C=C4)C=C3)cc1)[C@H](C)O
REMARK SMILES IDX 24 1 23 2 22 3 20 4 21 5 19 6 18 7 16 8 17 9 2 11 1 12 3 13
REMARK SMILES IDX 4 14 5 16 6 17 7 18 15 19 8 20 14 21 9 22 10 23 11 24 12 25
REMARK SMILES IDX 13 26 94 27 95 28 96 29 25 31 26 32 27 33 28 34 29 35 30 36
REMARK SMILES IDX 31 37 32 38 93 39 33 40 92 41 34 42 35 43 36 44 86 45 37 46
REMARK SMILES IDX 91 47 85 48 87 49 38 50 90 51 84 52 83 53 39 55 71 56 51 57
REMARK SMILES IDX 70 58 52 59 55 60 69 61 88 62 53 63 54 64 68 66 89 67 56 68
REMARK SMILES IDX 40 69 41 70 49 71 42 72 44 73 50 74 43 75 45 76 46 77 47 78
REMARK SMILES IDX 48 79 72 80 73 81 81 82 74 83 76 84 82 85 75 86 77 87 78 88
REMARK SMILES IDX 79 89 80 90 57 91 58 92 66 93 59 94 61 95 67 96 60 97 62 98
REMARK SMILES IDX 63 99 64 100 65 101
REMARK H PARENT 18 10 3 15 96 30 87 54 55 65
REMARK Flexibility Score: inf
ROOT
ATOM      1  C   UNL A   1      33.784  30.082  27.297  1.00  0.00     0.202 C 
ENDROOT
BRANCH   1   2
ATOM      2  C   UNL A   1      33.728  28.555  27.182  1.00  0.00     0.261 C 
BRANCH   2   3
ATOM      3  O   UNL A   1      33.208  28.182  25.897  1.00  0.00    -0.462 OA
BRANCH   3   4
ATOM      4  C   UNL A   1      31.875  27.901  25.846  1.00  0.00     0.331 C 
ATOM      5  O   UNL A   1      31.221  27.425  26.765  1.00  0.00    -0.250 OA
BRANCH   4   6
ATOM      6  C   UNL A   1      31.280  28.298  24.484  1.00  0.00     0.221 C 
BRANCH   6   7
ATOM      7  N   UNL A   1      29.916  27.782  24.230  1.00  0.00    -0.339 N 
ATOM      8  C   UNL A   1      29.482  26.485  24.169  1.00  0.00     0.243 C 
ATOM      9  O   UNL A   1      28.267  26.280  24.167  1.00  0.00    -0.273 OA
ATOM     10  H   UNL A   1      29.224  28.467  24.084  1.00  0.00     0.164 HD
BRANCH   8  11
ATOM     11  C   UNL A   1      30.500  25.326  24.197  1.00  0.00     0.168 C 
ATOM     12  C   UNL A   1      30.257  24.404  22.997  1.00  0.00     0.041 C 
BRANCH  11  13
ATOM     13  N   UNL A   1      30.403  24.753  25.548  1.00  0.00    -0.341 N 
ATOM     14  C   UNL A   1      31.251  24.030  26.337  1.00  0.00     0.251 C 
ATOM     15  H   UNL A   1      29.536  24.931  25.979  1.00  0.00     0.164 HD
ATOM     16  O   UNL A   1      30.861  23.620  27.425  1.00  0.00    -0.269 OA
BRANCH  14  17
ATOM     17  C   UNL A   1      32.574  23.636  25.839  1.00  0.00     0.039 A 
ATOM     18  C   UNL A   1      33.515  24.641  25.634  1.00  0.00     0.014 A 
ATOM     19  C   UNL A   1      32.904  22.302  25.620  1.00  0.00     0.014 A 
ATOM     20  C   UNL A   1      34.829  24.297  25.318  1.00  0.00     0.005 A 
ATOM     21  C   UNL A   1      34.226  21.963  25.320  1.00  0.00     0.005 A 
ATOM     22  C   UNL A   1      35.225  22.948  25.211  1.00  0.00    -0.043 A 
BRANCH  22  23
ATOM     23  C   UNL A   1      36.702  22.599  24.972  1.00  0.00    -0.013 C 
ATOM     24  C   UNL A   1      36.991  21.212  25.574  1.00  0.00     0.016 C 
ATOM     25  C   UNL A   1      37.011  22.573  23.455  1.00  0.00     0.016 C 
ATOM     26  C   UNL A   1      37.683  23.612  25.601  1.00  0.00     0.016 C 
ENDBRANCH  22  23
ENDBRANCH  14  17
ENDBRANCH  11  13
ENDBRANCH   8  11
ENDBRANCH   6   7
BRANCH   6  27
ATOM     27  C   UNL A   1      32.249  28.004  23.297  1.00  0.00     0.145 C 
ATOM     28  C   UNL A   1      33.404  28.998  23.140  1.00  0.00     0.041 C 
BRANCH  27  29
ATOM     29  O   UNL A   1      31.597  27.911  22.029  1.00  0.00    -0.391 OA
ATOM     30  H   UNL A   1      32.239  27.645  21.353  1.00  0.00     0.211 HD
ENDBRANCH  27  29
ENDBRANCH   6  27
ENDBRANCH   4   6
ENDBRANCH   3   4
ENDBRANCH   2   3
ENDBRANCH   1   2
BRANCH   1  31
ATOM     31  O   UNL A   1      33.029  30.823  26.331  1.00  0.00    -0.374 OA
BRANCH  31  32
ATOM     32  C   UNL A   1      31.856  31.495  26.776  1.00  0.00     0.202 C 
BRANCH  32  33
ATOM     33  C   UNL A   1      31.966  32.989  27.101  1.00  0.00     0.261 C 
BRANCH  33  34
ATOM     34  O   UNL A   1      33.295  33.383  27.470  1.00  0.00    -0.460 OA
BRANCH  34  35
ATOM     35  C   UNL A   1      33.337  34.247  28.511  1.00  0.00     0.338 C 
ATOM     36  O   UNL A   1      32.488  35.085  28.803  1.00  0.00    -0.246 OA
BRANCH  35  37
ATOM     37  C   UNL A   1      34.473  33.954  29.399  1.00  0.00     0.060 A 
ATOM     38  C   UNL A   1      35.742  34.323  28.939  1.00  0.00     0.016 A 
ATOM     39  C   UNL A   1      34.325  33.243  30.593  1.00  0.00     0.016 A 
ATOM     40  C   UNL A   1      36.877  33.912  29.628  1.00  0.00     0.010 A 
ATOM     41  C   UNL A   1      35.471  32.828  31.283  1.00  0.00     0.010 A 
ATOM     42  C   UNL A   1      36.751  33.117  30.774  1.00  0.00    -0.014 A 
BRANCH  42  43
ATOM     43  C   UNL A   1      37.969  32.471  31.320  1.00  0.00     0.031 A 
ATOM     44  C   UNL A   1      38.551  32.979  32.613  1.00  0.00     0.074 A 
ATOM     45  C   UNL A   1      38.506  31.398  30.712  1.00  0.00     0.049 A 
ATOM     46  N   UNL A   1      39.540  32.498  33.320  1.00  0.00    -0.248 NA
ATOM     47  C   UNL A   1      37.934  34.185  33.189  1.00  0.00     0.031 C 
ATOM     48  C   UNL A   1      38.033  30.817  29.456  1.00  0.00     0.029 A 
ATOM     49  N   UNL A   1      39.568  30.610  31.071  1.00  0.00    -0.354 N 
ATOM     50  C   UNL A   1      39.677  33.348  34.411  1.00  0.00     0.074 A 
ATOM     51  C   UNL A   1      38.682  34.387  34.265  1.00  0.00     0.031 C 
ATOM     52  C   UNL A   1      38.811  29.767  29.143  1.00  0.00     0.029 A 
ATOM     53  C   UNL A   1      39.840  29.608  30.169  1.00  0.00     0.049 A 
ATOM     54  H   UNL A   1      40.087  30.747  31.897  1.00  0.00     0.167 HD
ATOM     55  C   UNL A   1      40.536  33.259  35.454  1.00  0.00     0.034 A 
ATOM     56  C   UNL A   1      40.808  28.671  30.174  1.00  0.00     0.034 A 
ATOM     57  C   UNL A   1      41.509  32.212  35.610  1.00  0.00     0.049 A 
ATOM     58  C   UNL A   1      41.749  28.591  31.347  1.00  0.00     0.074 A 
ATOM     59  C   UNL A   1      42.398  32.011  36.652  1.00  0.00     0.029 A 
ATOM     60  N   UNL A   1      41.727  31.192  34.697  1.00  0.00    -0.354 N 
ATOM     61  N   UNL A   1      41.779  29.326  32.433  1.00  0.00    -0.248 NA
ATOM     62  C   UNL A   1      42.761  27.526  31.317  1.00  0.00     0.031 C 
ATOM     63  C   UNL A   1      43.169  30.880  36.357  1.00  0.00     0.029 A 
ATOM     64  C   UNL A   1      42.740  30.362  35.145  1.00  0.00     0.049 A 
ATOM     65  H   UNL A   1      41.234  31.076  33.852  1.00  0.00     0.167 HD
ATOM     66  C   UNL A   1      42.784  28.787  33.231  1.00  0.00     0.074 A 
ATOM     67  C   UNL A   1      43.324  27.653  32.511  1.00  0.00     0.031 C 
ATOM     68  C   UNL A   1      43.228  29.203  34.444  1.00  0.00     0.034 A 
BRANCH  55  69
ATOM     69  C   UNL A   1      40.439  34.308  36.530  1.00  0.00     0.023 A 
ATOM     70  C   UNL A   1      40.887  35.619  36.267  1.00  0.00     0.012 A 
ATOM     71  C   UNL A   1      39.857  34.014  37.779  1.00  0.00     0.148 A 
ATOM     72  C   UNL A   1      40.784  36.613  37.239  1.00  0.00     0.002 A 
ATOM     73  C   UNL A   1      39.720  35.021  38.728  1.00  0.00     0.091 A 
ATOM     74  F   UNL A   1      39.460  32.757  38.019  1.00  0.00    -0.205 F 
ATOM     75  C   UNL A   1      40.191  36.317  38.464  1.00  0.00     0.022 A 
BRANCH  73  76
ATOM     76  S   UNL A   1      38.904  34.757  40.306  1.00  0.00     0.127 S 
ATOM     77  O   UNL A   1      37.794  33.885  39.922  1.00  0.00    -0.237 OA
ATOM     78  O   UNL A   1      39.950  34.101  41.090  1.00  0.00    -0.237 OA
ATOM     79  O   UNL A   1      38.525  36.078  40.788  1.00  0.00    -0.744 OA
ENDBRANCH  73  76
ENDBRANCH  55  69
BRANCH  56  80
ATOM     80  C   UNL A   1      40.898  27.693  29.053  1.00  0.00     0.023 A 
ATOM     81  C   UNL A   1      40.094  26.536  29.070  1.00  0.00     0.012 A 
ATOM     82  C   UNL A   1      41.760  27.916  27.962  1.00  0.00     0.148 A 
ATOM     83  C   UNL A   1      40.169  25.605  28.033  1.00  0.00     0.002 A 
ATOM     84  C   UNL A   1      41.790  27.011  26.907  1.00  0.00     0.091 A 
ATOM     85  F   UNL A   1      42.531  29.013  27.976  1.00  0.00    -0.205 F 
ATOM     86  C   UNL A   1      41.007  25.848  26.948  1.00  0.00     0.022 A 
BRANCH  84  87
ATOM     87  S   UNL A   1      42.750  27.307  25.418  1.00  0.00     0.127 S 
ATOM     88  O   UNL A   1      44.102  27.441  25.955  1.00  0.00    -0.237 OA
ATOM     89  O   UNL A   1      42.508  26.083  24.653  1.00  0.00    -0.237 OA
ATOM     90  O   UNL A   1      42.182  28.509  24.821  1.00  0.00    -0.744 OA
ENDBRANCH  84  87
ENDBRANCH  56  80
BRANCH  68  91
ATOM     91  C   UNL A   1      44.330  28.406  35.095  1.00  0.00     0.023 A 
ATOM     92  C   UNL A   1      45.673  28.654  34.751  1.00  0.00     0.012 A 
ATOM     93  C   UNL A   1      44.036  27.460  36.098  1.00  0.00     0.148 A 
ATOM     94  C   UNL A   1      46.704  27.947  35.367  1.00  0.00     0.002 A 
ATOM     95  C   UNL A   1      45.072  26.793  36.741  1.00  0.00     0.091 A 
ATOM     96  F   UNL A   1      42.752  27.222  36.398  1.00  0.00    -0.205 F 
ATOM     97  C   UNL A   1      46.406  27.026  36.369  1.00  0.00     0.022 A 
BRANCH  95  98
ATOM     98  S   UNL A   1      44.780  25.664  38.108  1.00  0.00     0.127 S 
ATOM     99  O   UNL A   1      43.987  24.617  37.466  1.00  0.00    -0.237 OA
ATOM    100  O   UNL A   1      46.137  25.260  38.478  1.00  0.00    -0.237 OA
ATOM    101  O   UNL A   1      44.088  26.444  39.125  1.00  0.00    -0.744 OA
ENDBRANCH  95  98
ENDBRANCH  68  91
ENDBRANCH  42  43
ENDBRANCH  35  37
ENDBRANCH  34  35
ENDBRANCH  33  34
ENDBRANCH  32  33
ENDBRANCH  31  32
ENDBRANCH   1  31
TORSDOF 24
ENDMDL
MODEL 2
REMARK VINA RESULT:     -10.5      1.733      7.687
REMARK SMILES C[C@H](NC(=O)c1ccc(C(C)(C)C)cc1)C(=O)N[C@@H](C(=O)OCCOCCOC(=O)c1ccc(-c2c3nc(c(-c4cccc(S(=O)(=O)[O-])c4F)c4ccc([nH]4)c(-c4cccc(S(=O)(=O)[O-])c4F)c4nc(c(-c5cccc(S(=O)(=O)[O-])c5F)c5ccc2[nH]5)C=C4)C=C3)cc1)[C@H](C)O
REMARK SMILES IDX 24 1 23 2 22 3 20 4 21 5 19 6 18 7 16 8 17 9 2 11 1 12 3 13
REMARK SMILES IDX 4 14 5 16 6 17 7 18 15 19 8 20 14 21 9 22 10 23 11 24 12 25
REMARK SMILES IDX 13 26 94 27 95 28 96 29 25 31 26 32 27 33 28 34 29 35 30 36
REMARK SMILES IDX 31 37 32 38 93 39 33 40 92 41 34 42 35 43 36 44 86 45 37 46
REMARK SMILES IDX 91 47 85 48 87 49 38 50 90 51 84 52 83 53 39 55 71 56 51 57
REMARK SMILES IDX 70 58 52 59 55 60 69 61 88 62 53 63 54 64 68 66 89 67 56 68
REMARK SMILES IDX 40 69 41 70 49 71 42 72 44 73 50 74 43 75 45 76 46 77 47 78
REMARK SMILES IDX 48 79 72 80 73 81 81 82 74 83 76 84 82 85 75 86 77 87 78 88
REMARK SMILES IDX 79 89 80 90 57 91 58 92 66 93 59 94 61 95 67 96 60 97 62 98
REMARK SMILES IDX 63 99 64 100 65 101
REMARK H PARENT 18 10 3 15 96 30 87 54 55 65
REMARK Flexibility Score: inf
ROOT
ATOM      1  C   UNL A   1      33.106  29.801  26.187  1.00  0.00     0.202 C 
ENDROOT
BRANCH   1   2
ATOM      2  C   UNL A   1      32.742  28.475  26.864  1.00  0.00     0.261 C 
BRANCH   2   3
ATOM      3  O   UNL A   1      31.415  28.082  26.483  1.00  0.00    -0.462 OA
BRANCH   3   4
ATOM      4  C   UNL A   1      31.249  26.771  26.145  1.00  0.00     0.331 C 
ATOM      5  O   UNL A   1      31.454  25.821  26.890  1.00  0.00    -0.250 OA
BRANCH   4   6
ATOM      6  C   UNL A   1      30.731  26.636  24.703  1.00  0.00     0.221 C 
BRANCH   6   7
ATOM      7  N   UNL A   1      30.728  27.896  23.925  1.00  0.00    -0.339 N 
ATOM      8  C   UNL A   1      31.659  28.364  23.036  1.00  0.00     0.243 C 
ATOM      9  O   UNL A   1      31.356  29.329  22.334  1.00  0.00    -0.273 OA
ATOM     10  H   UNL A   1      29.948  28.480  24.067  1.00  0.00     0.164 HD
BRANCH   8  11
ATOM     11  C   UNL A   1      33.007  27.631  22.872  1.00  0.00     0.168 C 
ATOM     12  C   UNL A   1      34.156  28.624  23.074  1.00  0.00     0.041 C 
BRANCH  11  13
ATOM     13  N   UNL A   1      32.913  26.926  21.584  1.00  0.00    -0.341 N 
ATOM     14  C   UNL A   1      32.940  25.612  21.216  1.00  0.00     0.251 C 
ATOM     15  H   UNL A   1      32.807  27.536  20.819  1.00  0.00     0.164 HD
ATOM     16  O   UNL A   1      32.907  25.317  20.026  1.00  0.00    -0.269 OA
BRANCH  14  17
ATOM     17  C   UNL A   1      33.135  24.562  22.223  1.00  0.00     0.039 A 
ATOM     18  C   UNL A   1      32.001  24.017  22.820  1.00  0.00     0.014 A 
ATOM     19  C   UNL A   1      34.402  24.086  22.546  1.00  0.00     0.014 A 
ATOM     20  C   UNL A   1      32.131  22.911  23.659  1.00  0.00     0.005 A 
ATOM     21  C   UNL A   1      34.524  22.968  23.374  1.00  0.00     0.005 A 
ATOM     22  C   UNL A   1      33.389  22.328  23.909  1.00  0.00    -0.043 A 
BRANCH  22  23
ATOM     23  C   UNL A   1      33.488  21.044  24.748  1.00  0.00    -0.013 C 
ATOM     24  C   UNL A   1      32.902  21.315  26.145  1.00  0.00     0.016 C 
ATOM     25  C   UNL A   1      32.695  19.898  24.073  1.00  0.00     0.016 C 
ATOM     26  C   UNL A   1      34.935  20.532  24.921  1.00  0.00     0.016 C 
ENDBRANCH  22  23
ENDBRANCH  14  17
ENDBRANCH  11  13
ENDBRANCH   8  11
ENDBRANCH   6   7
BRANCH   6  27
ATOM     27  C   UNL A   1      29.360  25.895  24.624  1.00  0.00     0.145 C 
ATOM     28  C   UNL A   1      28.252  26.655  23.887  1.00  0.00     0.041 C 
BRANCH  27  29
ATOM     29  O   UNL A   1      28.836  25.516  25.899  1.00  0.00    -0.391 OA
ATOM     30  H   UNL A   1      29.522  25.057  26.407  1.00  0.00     0.211 HD
ENDBRANCH  27  29
ENDBRANCH   6  27
ENDBRANCH   4   6
ENDBRANCH   3   4
ENDBRANCH   2   3
ENDBRANCH   1   2
BRANCH   1  31
ATOM     31  O   UNL A   1      32.034  30.730  25.986  1.00  0.00    -0.374 OA
BRANCH  31  32
ATOM     32  C   UNL A   1      31.715  31.619  27.051  1.00  0.00     0.202 C 
BRANCH  32  33
ATOM     33  C   UNL A   1      31.902  33.121  26.810  1.00  0.00     0.261 C 
BRANCH  33  34
ATOM     34  O   UNL A   1      32.471  33.801  27.937  1.00  0.00    -0.460 OA
BRANCH  34  35
ATOM     35  C   UNL A   1      33.767  34.152  27.763  1.00  0.00     0.338 C 
ATOM     36  O   UNL A   1      34.218  34.880  26.883  1.00  0.00    -0.246 OA
BRANCH  35  37
ATOM     37  C   UNL A   1      34.599  33.688  28.884  1.00  0.00     0.060 A 
ATOM     38  C   UNL A   1      35.765  34.417  29.145  1.00  0.00     0.016 A 
ATOM     39  C   UNL A   1      34.318  32.516  29.590  1.00  0.00     0.016 A 
ATOM     40  C   UNL A   1      36.696  33.935  30.058  1.00  0.00     0.010 A 
ATOM     41  C   UNL A   1      35.259  32.030  30.506  1.00  0.00     0.010 A 
ATOM     42  C   UNL A   1      36.475  32.712  30.704  1.00  0.00    -0.014 A 
BRANCH  42  43
ATOM     43  C   UNL A   1      37.599  32.097  31.450  1.00  0.00     0.031 A 
ATOM     44  C   UNL A   1      38.563  31.202  30.718  1.00  0.00     0.074 A 
ATOM     45  C   UNL A   1      37.801  32.392  32.747  1.00  0.00     0.049 A 
ATOM     46  N   UNL A   1      39.668  30.650  31.146  1.00  0.00    -0.248 NA
ATOM     47  C   UNL A   1      38.244  30.891  29.314  1.00  0.00     0.031 C 
ATOM     48  C   UNL A   1      36.936  33.242  33.563  1.00  0.00     0.029 A 
ATOM     49  N   UNL A   1      38.800  32.005  33.603  1.00  0.00    -0.354 N 
ATOM     50  C   UNL A   1      40.167  29.915  30.077  1.00  0.00     0.074 A 
ATOM     51  C   UNL A   1      39.234  30.074  28.983  1.00  0.00     0.031 C 
ATOM     52  C   UNL A   1      37.437  33.305  34.808  1.00  0.00     0.029 A 
ATOM     53  C   UNL A   1      38.651  32.494  34.879  1.00  0.00     0.049 A 
ATOM     54  H   UNL A   1      39.553  31.432  33.329  1.00  0.00     0.167 HD
ATOM     55  C   UNL A   1      41.309  29.192  30.004  1.00  0.00     0.034 A 
ATOM     56  C   UNL A   1      39.409  32.307  35.978  1.00  0.00     0.034 A 
ATOM     57  C   UNL A   1      42.247  29.054  31.085  1.00  0.00     0.049 A 
ATOM     58  C   UNL A   1      40.676  31.502  35.868  1.00  0.00     0.074 A 
ATOM     59  C   UNL A   1      43.454  28.376  31.096  1.00  0.00     0.029 A 
ATOM     60  N   UNL A   1      42.082  29.597  32.349  1.00  0.00    -0.354 N 
ATOM     61  N   UNL A   1      41.198  30.921  34.814  1.00  0.00    -0.248 NA
ATOM     62  C   UNL A   1      41.483  31.362  37.088  1.00  0.00     0.031 C 
ATOM     63  C   UNL A   1      44.009  28.492  32.376  1.00  0.00     0.029 A 
ATOM     64  C   UNL A   1      43.160  29.265  33.152  1.00  0.00     0.049 A 
ATOM     65  H   UNL A   1      41.311  30.138  32.635  1.00  0.00     0.167 HD
ATOM     66  C   UNL A   1      42.410  30.383  35.234  1.00  0.00     0.074 A 
ATOM     67  C   UNL A   1      42.554  30.724  36.634  1.00  0.00     0.031 C 
ATOM     68  C   UNL A   1      43.316  29.661  34.528  1.00  0.00     0.034 A 
BRANCH  55  69
ATOM     69  C   UNL A   1      41.627  28.521  28.694  1.00  0.00     0.023 A 
ATOM     70  C   UNL A   1      42.369  29.217  27.716  1.00  0.00     0.012 A 
ATOM     71  C   UNL A   1      41.243  27.188  28.449  1.00  0.00     0.148 A 
ATOM     72  C   UNL A   1      42.698  28.608  26.507  1.00  0.00     0.002 A 
ATOM     73  C   UNL A   1      41.611  26.573  27.258  1.00  0.00     0.091 A 
ATOM     74  F   UNL A   1      40.518  26.551  29.380  1.00  0.00    -0.205 F 
ATOM     75  C   UNL A   1      42.328  27.283  26.282  1.00  0.00     0.022 A 
BRANCH  73  76
ATOM     76  S   UNL A   1      41.247  24.849  26.907  1.00  0.00     0.127 S 
ATOM     77  O   UNL A   1      42.049  24.616  25.706  1.00  0.00    -0.237 OA
ATOM     78  O   UNL A   1      41.742  24.177  28.109  1.00  0.00    -0.237 OA
ATOM     79  O   UNL A   1      39.805  24.774  26.722  1.00  0.00    -0.744 OA
ENDBRANCH  73  76
ENDBRANCH  55  69
BRANCH  56  80
ATOM     80  C   UNL A   1      39.017  32.945  37.266  1.00  0.00     0.023 A 
ATOM     81  C   UNL A   1      39.600  34.170  37.644  1.00  0.00     0.012 A 
ATOM     82  C   UNL A   1      38.053  32.354  38.105  1.00  0.00     0.148 A 
ATOM     83  C   UNL A   1      39.251  34.780  38.849  1.00  0.00     0.002 A 
ATOM     84  C   UNL A   1      37.671  32.994  39.279  1.00  0.00     0.091 A 
ATOM     85  F   UNL A   1      37.524  31.179  37.736  1.00  0.00    -0.205 F 
ATOM     86  C   UNL A   1      38.280  34.199  39.660  1.00  0.00     0.022 A 
BRANCH  84  87
ATOM     87  S   UNL A   1      36.343  32.377  40.318  1.00  0.00     0.127 S 
ATOM     88  O   UNL A   1      35.243  32.266  39.363  1.00  0.00    -0.237 OA
ATOM     89  O   UNL A   1      36.889  31.100  40.782  1.00  0.00    -0.237 OA
ATOM     90  O   UNL A   1      36.174  33.373  41.368  1.00  0.00    -0.744 OA
ENDBRANCH  84  87
ENDBRANCH  56  80
BRANCH  68  91
ATOM     91  C   UNL A   1      44.568  29.220  35.243  1.00  0.00     0.023 A 
ATOM     92  C   UNL A   1      45.762  29.952  35.084  1.00  0.00     0.012 A 
ATOM     93  C   UNL A   1      44.543  28.120  36.124  1.00  0.00     0.148 A 
ATOM     94  C   UNL A   1      46.919  29.575  35.763  1.00  0.00     0.002 A 
ATOM     95  C   UNL A   1      45.689  27.780  36.834  1.00  0.00     0.091 A 
ATOM     96  F   UNL A   1      43.405  27.423  36.247  1.00  0.00    -0.205 F 
ATOM     97  C   UNL A   1      46.881  28.498  36.645  1.00  0.00     0.022 A 
BRANCH  95  98
ATOM     98  S   UNL A   1      45.699  26.467  38.061  1.00  0.00     0.127 S 
ATOM     99  O   UNL A   1      47.067  26.544  38.570  1.00  0.00    -0.237 OA
ATOM    100  O   UNL A   1      44.671  26.911  39.004  1.00  0.00    -0.237 OA
ATOM    101  O   UNL A   1      45.362  25.248  37.338  1.00  0.00    -0.744 OA
ENDBRANCH  95  98
ENDBRANCH  68  91
ENDBRANCH  42  43
ENDBRANCH  35  37
ENDBRANCH  34  35
ENDBRANCH  33  34
ENDBRANCH  32  33
ENDBRANCH  31  32
ENDBRANCH   1  31
TORSDOF 24
ENDMDL
MODEL 3
REMARK VINA RESULT:     -10.5      1.597      2.605
REMARK SMILES C[C@H](NC(=O)c1ccc(C(C)(C)C)cc1)C(=O)N[C@@H](C(=O)OCCOCCOC(=O)c1ccc(-c2c3nc(c(-c4cccc(S(=O)(=O)[O-])c4F)c4ccc([nH]4)c(-c4cccc(S(=O)(=O)[O-])c4F)c4nc(c(-c5cccc(S(=O)(=O)[O-])c5F)c5ccc2[nH]5)C=C4)C=C3)cc1)[C@H](C)O
REMARK SMILES IDX 24 1 23 2 22 3 20 4 21 5 19 6 18 7 16 8 17 9 2 11 1 12 3 13
REMARK SMILES IDX 4 14 5 16 6 17 7 18 15 19 8 20 14 21 9 22 10 23 11 24 12 25
REMARK SMILES IDX 13 26 94 27 95 28 96 29 25 31 26 32 27 33 28 34 29 35 30 36
REMARK SMILES IDX 31 37 32 38 93 39 33 40 92 41 34 42 35 43 36 44 86 45 37 46
REMARK SMILES IDX 91 47 85 48 87 49 38 50 90 51 84 52 83 53 39 55 71 56 51 57
REMARK SMILES IDX 70 58 52 59 55 60 69 61 88 62 53 63 54 64 68 66 89 67 56 68
REMARK SMILES IDX 40 69 41 70 49 71 42 72 44 73 50 74 43 75 45 76 46 77 47 78
REMARK SMILES IDX 48 79 72 80 73 81 81 82 74 83 76 84 82 85 75 86 77 87 78 88
REMARK SMILES IDX 79 89 80 90 57 91 58 92 66 93 59 94 61 95 67 96 60 97 62 98
REMARK SMILES IDX 63 99 64 100 65 101
REMARK H PARENT 18 10 3 15 96 30 87 54 55 65
REMARK Flexibility Score: inf
ROOT
ATOM      1  C   UNL A   1      34.451  31.610  28.118  1.00  0.00     0.202 C 
ENDROOT
BRANCH   1   2
ATOM      2  C   UNL A   1      34.143  30.382  27.254  1.00  0.00     0.261 C 
BRANCH   2   3
ATOM      3  O   UNL A   1      32.779  29.979  27.449  1.00  0.00    -0.462 OA
BRANCH   3   4
ATOM      4  C   UNL A   1      31.996  29.946  26.334  1.00  0.00     0.331 C 
ATOM      5  O   UNL A   1      31.412  30.911  25.856  1.00  0.00    -0.250 OA
BRANCH   4   6
ATOM      6  C   UNL A   1      31.968  28.535  25.721  1.00  0.00     0.221 C 
BRANCH   6   7
ATOM      7  N   UNL A   1      31.099  28.394  24.531  1.00  0.00    -0.339 N 
ATOM      8  C   UNL A   1      31.416  27.932  23.281  1.00  0.00     0.243 C 
ATOM      9  O   UNL A   1      30.494  27.688  22.502  1.00  0.00    -0.273 OA
ATOM     10  H   UNL A   1      30.163  28.671  24.654  1.00  0.00     0.164 HD
BRANCH   8  11
ATOM     11  C   UNL A   1      32.886  27.645  22.913  1.00  0.00     0.168 C 
ATOM     12  C   UNL A   1      33.681  28.955  22.925  1.00  0.00     0.041 C 
BRANCH  11  13
ATOM     13  N   UNL A   1      32.832  26.873  21.662  1.00  0.00    -0.341 N 
ATOM     14  C   UNL A   1      32.896  25.542  21.363  1.00  0.00     0.251 C 
ATOM     15  H   UNL A   1      32.726  27.440  20.865  1.00  0.00     0.164 HD
ATOM     16  O   UNL A   1      32.891  25.187  20.189  1.00  0.00    -0.269 OA
BRANCH  14  17
ATOM     17  C   UNL A   1      33.097  24.550  22.425  1.00  0.00     0.039 A 
ATOM     18  C   UNL A   1      31.983  23.841  22.869  1.00  0.00     0.014 A 
ATOM     19  C   UNL A   1      34.359  24.285  22.948  1.00  0.00     0.014 A 
ATOM     20  C   UNL A   1      32.155  22.781  23.758  1.00  0.00     0.005 A 
ATOM     21  C   UNL A   1      34.525  23.211  23.825  1.00  0.00     0.005 A 
ATOM     22  C   UNL A   1      33.436  22.407  24.211  1.00  0.00    -0.043 A 
BRANCH  22  23
ATOM     23  C   UNL A   1      33.603  21.166  25.102  1.00  0.00    -0.013 C 
ATOM     24  C   UNL A   1      32.612  20.082  24.640  1.00  0.00     0.016 C 
ATOM     25  C   UNL A   1      35.047  20.618  24.997  1.00  0.00     0.016 C 
ATOM     26  C   UNL A   1      33.350  21.446  26.600  1.00  0.00     0.016 C 
ENDBRANCH  22  23
ENDBRANCH  14  17
ENDBRANCH  11  13
ENDBRANCH   8  11
ENDBRANCH   6   7
BRANCH   6  27
ATOM     27  C   UNL A   1      31.693  27.425  26.783  1.00  0.00     0.145 C 
ATOM     28  C   UNL A   1      30.893  26.223  26.273  1.00  0.00     0.041 C 
BRANCH  27  29
ATOM     29  O   UNL A   1      31.037  27.902  27.960  1.00  0.00    -0.391 OA
ATOM     30  H   UNL A   1      30.097  28.042  27.771  1.00  0.00     0.211 HD
ENDBRANCH  27  29
ENDBRANCH   6  27
ENDBRANCH   4   6
ENDBRANCH   3   4
ENDBRANCH   2   3
ENDBRANCH   1   2
BRANCH   1  31
ATOM     31  O   UNL A   1      34.400  32.882  27.461  1.00  0.00    -0.374 OA
BRANCH  31  32
ATOM     32  C   UNL A   1      34.700  34.041  28.231  1.00  0.00     0.202 C 
BRANCH  32  33
ATOM     33  C   UNL A   1      33.531  34.933  28.667  1.00  0.00     0.261 C 
BRANCH  33  34
ATOM     34  O   UNL A   1      32.868  34.450  29.844  1.00  0.00    -0.460 OA
BRANCH  34  35
ATOM     35  C   UNL A   1      33.123  35.185  30.951  1.00  0.00     0.338 C 
ATOM     36  O   UNL A   1      32.452  36.119  31.382  1.00  0.00    -0.246 OA
BRANCH  35  37
ATOM     37  C   UNL A   1      34.243  34.620  31.719  1.00  0.00     0.060 A 
ATOM     38  C   UNL A   1      35.478  35.269  31.601  1.00  0.00     0.016 A 
ATOM     39  C   UNL A   1      34.129  33.431  32.444  1.00  0.00     0.016 A 
ATOM     40  C   UNL A   1      36.621  34.690  32.138  1.00  0.00     0.010 A 
ATOM     41  C   UNL A   1      35.283  32.848  32.982  1.00  0.00     0.010 A 
ATOM     42  C   UNL A   1      36.540  33.450  32.786  1.00  0.00    -0.014 A 
BRANCH  42  43
ATOM     43  C   UNL A   1      37.802  32.736  33.099  1.00  0.00     0.031 A 
ATOM     44  C   UNL A   1      38.559  33.100  34.349  1.00  0.00     0.074 A 
ATOM     45  C   UNL A   1      38.228  31.726  32.320  1.00  0.00     0.049 A 
ATOM     46  N   UNL A   1      39.618  32.536  34.868  1.00  0.00    -0.248 NA
ATOM     47  C   UNL A   1      38.052  34.247  35.121  1.00  0.00     0.031 C 
ATOM     48  C   UNL A   1      37.582  31.284  31.085  1.00  0.00     0.029 A 
ATOM     49  N   UNL A   1      39.307  30.891  32.455  1.00  0.00    -0.354 N 
ATOM     50  C   UNL A   1      39.917  33.266  36.012  1.00  0.00     0.074 A 
ATOM     51  C   UNL A   1      38.938  34.328  36.104  1.00  0.00     0.031 C 
ATOM     52  C   UNL A   1      38.286  30.263  30.568  1.00  0.00     0.029 A 
ATOM     53  C   UNL A   1      39.434  29.986  31.429  1.00  0.00     0.049 A 
ATOM     54  H   UNL A   1      39.931  30.936  33.215  1.00  0.00     0.167 HD
ATOM     55  C   UNL A   1      40.900  33.059  36.919  1.00  0.00     0.034 A 
ATOM     56  C   UNL A   1      40.370  29.041  31.211  1.00  0.00     0.034 A 
ATOM     57  C   UNL A   1      41.858  31.989  36.839  1.00  0.00     0.049 A 
ATOM     58  C   UNL A   1      41.452  28.829  32.237  1.00  0.00     0.074 A 
ATOM     59  C   UNL A   1      42.869  31.670  37.730  1.00  0.00     0.029 A 
ATOM     60  N   UNL A   1      41.930  31.068  35.807  1.00  0.00    -0.354 N 
ATOM     61  N   UNL A   1      41.642  29.446  33.379  1.00  0.00    -0.248 NA
ATOM     62  C   UNL A   1      42.424  27.759  31.967  1.00  0.00     0.031 C 
ATOM     63  C   UNL A   1      43.565  30.567  37.223  1.00  0.00     0.029 A 
ATOM     64  C   UNL A   1      42.971  30.183  36.032  1.00  0.00     0.049 A 
ATOM     65  H   UNL A   1      41.329  31.046  35.027  1.00  0.00     0.167 HD
ATOM     66  C   UNL A   1      42.727  28.815  33.979  1.00  0.00     0.074 A 
ATOM     67  C   UNL A   1      43.140  27.755  33.083  1.00  0.00     0.031 C 
ATOM     68  C   UNL A   1      43.334  29.097  35.159  1.00  0.00     0.034 A 
BRANCH  55  69
ATOM     69  C   UNL A   1      40.970  33.991  38.100  1.00  0.00     0.023 A 
ATOM     70  C   UNL A   1      41.769  35.151  38.024  1.00  0.00     0.012 A 
ATOM     71  C   UNL A   1      40.207  33.752  39.259  1.00  0.00     0.148 A 
ATOM     72  C   UNL A   1      41.830  36.043  39.095  1.00  0.00     0.002 A 
ATOM     73  C   UNL A   1      40.240  34.668  40.305  1.00  0.00     0.091 A 
ATOM     74  F   UNL A   1      39.472  32.633  39.321  1.00  0.00    -0.205 F 
ATOM     75  C   UNL A   1      41.058  35.806  40.230  1.00  0.00     0.022 A 
BRANCH  73  76
ATOM     76  S   UNL A   1      39.225  34.490  41.777  1.00  0.00     0.127 S 
ATOM     77  O   UNL A   1      39.842  35.461  42.680  1.00  0.00    -0.237 OA
ATOM     78  O   UNL A   1      37.900  34.872  41.287  1.00  0.00    -0.237 OA
ATOM     79  O   UNL A   1      39.343  33.096  42.179  1.00  0.00    -0.744 OA
ENDBRANCH  73  76
ENDBRANCH  55  69
BRANCH  56  80
ATOM     80  C   UNL A   1      40.289  28.183  29.995  1.00  0.00     0.023 A 
ATOM     81  C   UNL A   1      39.310  27.175  29.916  1.00  0.00     0.012 A 
ATOM     82  C   UNL A   1      41.165  28.379  28.910  1.00  0.00     0.148 A 
ATOM     83  C   UNL A   1      39.222  26.358  28.788  1.00  0.00     0.002 A 
ATOM     84  C   UNL A   1      41.038  27.596  27.768  1.00  0.00     0.091 A 
ATOM     85  F   UNL A   1      42.103  29.331  29.014  1.00  0.00    -0.205 F 
ATOM     86  C   UNL A   1      40.078  26.575  27.712  1.00  0.00     0.022 A 
BRANCH  84  87
ATOM     87  S   UNL A   1      42.018  27.889  26.292  1.00  0.00     0.127 S 
ATOM     88  O   UNL A   1      41.673  29.273  25.974  1.00  0.00    -0.237 OA
ATOM     89  O   UNL A   1      43.381  27.691  26.787  1.00  0.00    -0.237 OA
ATOM     90  O   UNL A   1      41.579  26.889  25.328  1.00  0.00    -0.744 OA
ENDBRANCH  84  87
ENDBRANCH  56  80
BRANCH  68  91
ATOM     91  C   UNL A   1      44.489  28.223  35.576  1.00  0.00     0.023 A 
ATOM     92  C   UNL A   1      45.806  28.588  35.230  1.00  0.00     0.012 A 
ATOM     93  C   UNL A   1      44.275  27.078  36.370  1.00  0.00     0.148 A 
ATOM     94  C   UNL A   1      46.887  27.806  35.635  1.00  0.00     0.002 A 
ATOM     95  C   UNL A   1      45.362  26.331  36.810  1.00  0.00     0.091 A 
ATOM     96  F   UNL A   1      43.015  26.735  36.673  1.00  0.00    -0.205 F 
ATOM     97  C   UNL A   1      46.667  26.686  36.434  1.00  0.00     0.022 A 
BRANCH  95  98
ATOM     98  S   UNL A   1      45.172  24.931  37.920  1.00  0.00     0.127 S 
ATOM     99  O   UNL A   1      44.637  25.570  39.120  1.00  0.00    -0.237 OA
ATOM    100  O   UNL A   1      44.217  24.086  37.201  1.00  0.00    -0.237 OA
ATOM    101  O   UNL A   1      46.502  24.350  38.054  1.00  0.00    -0.744 OA
ENDBRANCH  95  98
ENDBRANCH  68  91
ENDBRANCH  42  43
ENDBRANCH  35  37
ENDBRANCH  34  35
ENDBRANCH  33  34
ENDBRANCH  32  33
ENDBRANCH  31  32
ENDBRANCH   1  31
TORSDOF 24
ENDMDL
