MODEL 1
REMARK VINA RESULT:     -12.2      0.000      0.000
REMARK SMILES O=C(CCCN1C(=O)c2ccc3c4c(ccc(c24)C1=O)C(=O)NC3=O)OCCOCCOC(=O)c1ccc(-c2c3nc(c(-c4cccc(S(=O)(=O)[O-])c4F)c4ccc([nH]4)c(-c4cccc(S(=O)(=O)[O-])c4F)c4nc(c(-c5cccc(S(=O)(=O)[O-])c5F)c5ccc2[nH]5)C=C4)C=C3)cc1
REMARK SMILES IDX 29 1 28 2 27 3 26 4 2 5 1 6 3 7 4 8 5 9 6 10 19 11 7 12
REMARK SMILES IDX 20 13 17 14 9 15 8 16 16 17 18 18 10 19 15 20 13 21 11 22
REMARK SMILES IDX 14 23 12 24 21 25 24 26 23 27 22 28 25 29 30 31 31 32 32 33
REMARK SMILES IDX 33 34 34 35 35 36 36 37 97 38 37 39 96 40 38 41 39 42 40 43
REMARK SMILES IDX 90 44 41 45 95 46 89 47 91 48 42 49 94 50 88 51 87 52 43 54
REMARK SMILES IDX 75 55 55 56 74 57 56 58 59 59 73 60 92 61 57 62 58 63 72 65
REMARK SMILES IDX 93 66 60 67 44 68 45 69 53 70 46 71 48 72 54 73 47 74 49 75
REMARK SMILES IDX 50 76 51 77 52 78 76 79 77 80 85 81 78 82 80 83 86 84 79 85
REMARK SMILES IDX 81 86 82 87 83 88 84 89 61 90 62 91 70 92 63 93 65 94 71 95
REMARK SMILES IDX 64 96 66 97 67 98 68 99 69 100
REMARK H PARENT 23 30 91 53 59 64
REMARK Flexibility Score: inf
ROOT
ATOM      1  O   UNL A   1      32.349  30.652  26.700  1.00  0.00    -0.374 OA
ENDROOT
BRANCH   1   2
ATOM      2  C   UNL A   1      32.563  29.741  25.621  1.00  0.00     0.202 C 
BRANCH   2   3
ATOM      3  C   UNL A   1      31.332  28.947  25.210  1.00  0.00     0.261 C 
BRANCH   3   4
ATOM      4  O   UNL A   1      30.961  29.113  23.840  1.00  0.00    -0.463 OA
BRANCH   4   5
ATOM      5  C   UNL A   1      30.109  28.313  23.179  1.00  0.00     0.305 C 
ATOM      6  O   UNL A   1      29.833  28.579  22.007  1.00  0.00    -0.252 OA
BRANCH   5   7
ATOM      7  C   UNL A   1      29.467  27.114  23.850  1.00  0.00     0.124 C 
BRANCH   7   8
ATOM      8  C   UNL A   1      30.263  25.829  24.049  1.00  0.00     0.034 C 
BRANCH   8   9
ATOM      9  C   UNL A   1      31.693  25.698  23.480  1.00  0.00     0.130 C 
BRANCH   9  10
ATOM     10  N   UNL A   1      32.484  24.487  23.741  1.00  0.00    -0.274 N 
ATOM     11  C   UNL A   1      33.863  24.665  23.913  1.00  0.00     0.261 C 
ATOM     12  C   UNL A   1      31.903  23.234  23.561  1.00  0.00     0.261 C 
ATOM     13  O   UNL A   1      34.416  25.763  23.910  1.00  0.00    -0.269 OA
ATOM     14  C   UNL A   1      34.703  23.459  24.101  1.00  0.00     0.049 A 
ATOM     15  C   UNL A   1      32.736  22.047  23.886  1.00  0.00     0.049 A 
ATOM     16  O   UNL A   1      30.767  23.060  23.125  1.00  0.00    -0.269 OA
ATOM     17  C   UNL A   1      36.089  23.593  24.285  1.00  0.00     0.015 A 
ATOM     18  C   UNL A   1      34.102  22.200  24.134  1.00  0.00     0.009 A 
ATOM     19  C   UNL A   1      32.149  20.774  23.904  1.00  0.00     0.015 A 
ATOM     20  C   UNL A   1      36.873  22.475  24.572  1.00  0.00     0.015 A 
ATOM     21  C   UNL A   1      34.899  21.057  24.409  1.00  0.00     0.009 A 
ATOM     22  C   UNL A   1      32.926  19.648  24.175  1.00  0.00     0.015 A 
ATOM     23  C   UNL A   1      36.273  21.216  24.653  1.00  0.00     0.048 A 
ATOM     24  C   UNL A   1      34.293  19.792  24.430  1.00  0.00     0.048 A 
ATOM     25  C   UNL A   1      37.092  20.031  25.000  1.00  0.00     0.258 C 
ATOM     26  C   UNL A   1      35.119  18.592  24.704  1.00  0.00     0.258 C 
ATOM     27  N   UNL A   1      36.442  18.819  24.996  1.00  0.00    -0.288 N 
ATOM     28  O   UNL A   1      38.284  20.125  25.256  1.00  0.00    -0.269 OA
ATOM     29  O   UNL A   1      34.647  17.464  24.648  1.00  0.00    -0.269 OA
ATOM     30  H   UNL A   1      36.983  18.030  25.229  1.00  0.00     0.173 HD
ENDBRANCH   9  10
ENDBRANCH   8   9
ENDBRANCH   7   8
ENDBRANCH   5   7
ENDBRANCH   4   5
ENDBRANCH   3   4
ENDBRANCH   2   3
ENDBRANCH   1   2
BRANCH   1  31
ATOM     31  C   UNL A   1      31.390  31.677  26.401  1.00  0.00     0.202 C 
BRANCH  31  32
ATOM     32  C   UNL A   1      31.802  33.074  26.889  1.00  0.00     0.261 C 
BRANCH  32  33
ATOM     33  O   UNL A   1      32.551  33.006  28.113  1.00  0.00    -0.460 OA
BRANCH  33  34
ATOM     34  C   UNL A   1      33.602  33.859  28.170  1.00  0.00     0.338 C 
ATOM     35  O   UNL A   1      33.551  35.079  28.249  1.00  0.00    -0.246 OA
BRANCH  34  36
ATOM     36  C   UNL A   1      34.859  33.103  28.365  1.00  0.00     0.060 A 
ATOM     37  C   UNL A   1      34.723  31.760  28.734  1.00  0.00     0.016 A 
ATOM     38  C   UNL A   1      36.129  33.650  28.198  1.00  0.00     0.016 A 
ATOM     39  C   UNL A   1      35.828  30.973  29.022  1.00  0.00     0.010 A 
ATOM     40  C   UNL A   1      37.251  32.865  28.497  1.00  0.00     0.010 A 
ATOM     41  C   UNL A   1      37.098  31.546  28.968  1.00  0.00    -0.014 A 
BRANCH  41  42
ATOM     42  C   UNL A   1      38.203  30.858  29.674  1.00  0.00     0.031 A 
ATOM     43  C   UNL A   1      38.420  31.196  31.124  1.00  0.00     0.074 A 
ATOM     44  C   UNL A   1      38.944  29.907  29.078  1.00  0.00     0.049 A 
ATOM     45  N   UNL A   1      39.345  30.781  31.947  1.00  0.00    -0.248 NA
ATOM     46  C   UNL A   1      37.460  32.139  31.727  1.00  0.00     0.031 C 
ATOM     47  C   UNL A   1      38.778  29.437  27.704  1.00  0.00     0.029 A 
ATOM     48  N   UNL A   1      39.993  29.170  29.562  1.00  0.00    -0.354 N 
ATOM     49  C   UNL A   1      39.120  31.461  33.138  1.00  0.00     0.074 A 
ATOM     50  C   UNL A   1      37.972  32.315  32.934  1.00  0.00     0.031 C 
ATOM     51  C   UNL A   1      39.709  28.502  27.448  1.00  0.00     0.029 A 
ATOM     52  C   UNL A   1      40.557  28.336  28.627  1.00  0.00     0.049 A 
ATOM     53  H   UNL A   1      40.314  29.233  30.491  1.00  0.00     0.167 HD
ATOM     54  C   UNL A   1      39.802  31.378  34.304  1.00  0.00     0.034 A 
ATOM     55  C   UNL A   1      41.649  27.549  28.712  1.00  0.00     0.034 A 
ATOM     56  C   UNL A   1      40.912  30.492  34.514  1.00  0.00     0.049 A 
ATOM     57  C   UNL A   1      42.410  27.493  30.012  1.00  0.00     0.074 A 
ATOM     58  C   UNL A   1      41.654  30.300  35.664  1.00  0.00     0.029 A 
ATOM     59  N   UNL A   1      41.444  29.651  33.548  1.00  0.00    -0.354 N 
ATOM     60  N   UNL A   1      42.157  28.100  31.146  1.00  0.00    -0.248 NA
ATOM     61  C   UNL A   1      43.589  26.616  30.051  1.00  0.00     0.031 C 
ATOM     62  C   UNL A   1      42.659  29.370  35.383  1.00  0.00     0.029 A 
ATOM     63  C   UNL A   1      42.511  28.945  34.072  1.00  0.00     0.049 A 
ATOM     64  H   UNL A   1      41.110  29.569  32.624  1.00  0.00     0.167 HD
ATOM     65  C   UNL A   1      43.112  27.641  32.048  1.00  0.00     0.074 A 
ATOM     66  C   UNL A   1      43.943  26.698  31.326  1.00  0.00     0.031 C 
ATOM     67  C   UNL A   1      43.289  27.969  33.352  1.00  0.00     0.034 A 
BRANCH  54  68
ATOM     68  C   UNL A   1      39.375  32.287  35.424  1.00  0.00     0.023 A 
ATOM     69  C   UNL A   1      38.407  31.866  36.359  1.00  0.00     0.012 A 
ATOM     70  C   UNL A   1      39.948  33.568  35.554  1.00  0.00     0.148 A 
ATOM     71  C   UNL A   1      37.983  32.721  37.376  1.00  0.00     0.002 A 
ATOM     72  C   UNL A   1      39.560  34.393  36.602  1.00  0.00     0.091 A 
ATOM     73  F   UNL A   1      40.844  33.963  34.639  1.00  0.00    -0.205 F 
ATOM     74  C   UNL A   1      38.567  33.978  37.504  1.00  0.00     0.022 A 
BRANCH  72  75
ATOM     75  S   UNL A   1      40.315  35.995  36.895  1.00  0.00     0.127 S 
ATOM     76  O   UNL A   1      39.655  36.822  35.886  1.00  0.00    -0.237 OA
ATOM     77  O   UNL A   1      39.913  36.277  38.273  1.00  0.00    -0.237 OA
ATOM     78  O   UNL A   1      41.748  35.804  36.709  1.00  0.00    -0.744 OA
ENDBRANCH  72  75
ENDBRANCH  54  68
BRANCH  55  79
ATOM     79  C   UNL A   1      42.072  26.726  27.543  1.00  0.00     0.023 A 
ATOM     80  C   UNL A   1      42.809  27.324  26.502  1.00  0.00     0.012 A 
ATOM     81  C   UNL A   1      41.755  25.355  27.460  1.00  0.00     0.148 A 
ATOM     82  C   UNL A   1      43.196  26.580  25.386  1.00  0.00     0.002 A 
ATOM     83  C   UNL A   1      42.191  24.609  26.373  1.00  0.00     0.091 A 
ATOM     84  F   UNL A   1      41.040  24.810  28.453  1.00  0.00    -0.205 F 
ATOM     85  C   UNL A   1      42.896  25.221  25.325  1.00  0.00     0.022 A 
BRANCH  83  86
ATOM     86  S   UNL A   1      41.957  22.830  26.265  1.00  0.00     0.127 S 
ATOM     87  O   UNL A   1      40.501  22.724  26.213  1.00  0.00    -0.237 OA
ATOM     88  O   UNL A   1      42.643  22.515  25.012  1.00  0.00    -0.237 OA
ATOM     89  O   UNL A   1      42.587  22.276  27.455  1.00  0.00    -0.744 OA
ENDBRANCH  83  86
ENDBRANCH  55  79
BRANCH  67  90
ATOM     90  C   UNL A   1      44.374  27.252  34.114  1.00  0.00     0.023 A 
ATOM     91  C   UNL A   1      45.679  27.777  34.162  1.00  0.00     0.012 A 
ATOM     92  C   UNL A   1      44.071  26.084  34.844  1.00  0.00     0.148 A 
ATOM     93  C   UNL A   1      46.678  27.128  34.888  1.00  0.00     0.002 A 
ATOM     94  C   UNL A   1      45.057  25.475  35.611  1.00  0.00     0.091 A 
ATOM     95  F   UNL A   1      42.828  25.588  34.773  1.00  0.00    -0.205 F 
ATOM     96  C   UNL A   1      46.364  25.986  35.621  1.00  0.00     0.022 A 
BRANCH  94  97
ATOM     97  S   UNL A   1      44.711  24.065  36.668  1.00  0.00     0.127 S 
ATOM     98  O   UNL A   1      43.914  23.218  35.783  1.00  0.00    -0.237 OA
ATOM     99  O   UNL A   1      46.052  23.555  36.955  1.00  0.00    -0.237 OA
ATOM    100  O   UNL A   1      44.008  24.597  37.827  1.00  0.00    -0.744 OA
ENDBRANCH  94  97
ENDBRANCH  67  90
ENDBRANCH  41  42
ENDBRANCH  34  36
ENDBRANCH  33  34
ENDBRANCH  32  33
ENDBRANCH  31  32
ENDBRANCH   1  31
TORSDOF 20
ENDMDL
MODEL 2
REMARK VINA RESULT:     -11.0      4.650     10.243
REMARK SMILES O=C(CCCN1C(=O)c2ccc3c4c(ccc(c24)C1=O)C(=O)NC3=O)OCCOCCOC(=O)c1ccc(-c2c3nc(c(-c4cccc(S(=O)(=O)[O-])c4F)c4ccc([nH]4)c(-c4cccc(S(=O)(=O)[O-])c4F)c4nc(c(-c5cccc(S(=O)(=O)[O-])c5F)c5ccc2[nH]5)C=C4)C=C3)cc1
REMARK SMILES IDX 29 1 28 2 27 3 26 4 2 5 1 6 3 7 4 8 5 9 6 10 19 11 7 12
REMARK SMILES IDX 20 13 17 14 9 15 8 16 16 17 18 18 10 19 15 20 13 21 11 22
REMARK SMILES IDX 14 23 12 24 21 25 24 26 23 27 22 28 25 29 30 31 31 32 32 33
REMARK SMILES IDX 33 34 34 35 35 36 36 37 97 38 37 39 96 40 38 41 39 42 40 43
REMARK SMILES IDX 90 44 41 45 95 46 89 47 91 48 42 49 94 50 88 51 87 52 43 54
REMARK SMILES IDX 75 55 55 56 74 57 56 58 59 59 73 60 92 61 57 62 58 63 72 65
REMARK SMILES IDX 93 66 60 67 44 68 45 69 53 70 46 71 48 72 54 73 47 74 49 75
REMARK SMILES IDX 50 76 51 77 52 78 76 79 77 80 85 81 78 82 80 83 86 84 79 85
REMARK SMILES IDX 81 86 82 87 83 88 84 89 61 90 62 91 70 92 63 93 65 94 71 95
REMARK SMILES IDX 64 96 66 97 67 98 68 99 69 100
REMARK H PARENT 23 30 91 53 59 64
REMARK Flexibility Score: inf
ROOT
ATOM      1  O   UNL A   1      39.413  20.259  25.580  1.00  0.00    -0.374 OA
ENDROOT
BRANCH   1   2
ATOM      2  C   UNL A   1      39.203  21.569  26.109  1.00  0.00     0.202 C 
BRANCH   2   3
ATOM      3  C   UNL A   1      37.845  22.173  25.784  1.00  0.00     0.261 C 
BRANCH   3   4
ATOM      4  O   UNL A   1      36.893  21.232  25.285  1.00  0.00    -0.463 OA
BRANCH   4   5
ATOM      5  C   UNL A   1      35.582  21.247  25.577  1.00  0.00     0.305 C 
ATOM      6  O   UNL A   1      35.163  22.083  26.381  1.00  0.00    -0.252 OA
BRANCH   5   7
ATOM      7  C   UNL A   1      34.622  20.247  24.962  1.00  0.00     0.124 C 
BRANCH   7   8
ATOM      8  C   UNL A   1      33.197  20.126  25.490  1.00  0.00     0.034 C 
BRANCH   8   9
ATOM      9  C   UNL A   1      32.056  20.955  24.861  1.00  0.00     0.130 C 
BRANCH   9  10
ATOM     10  N   UNL A   1      32.196  22.411  24.713  1.00  0.00    -0.274 N 
ATOM     11  C   UNL A   1      31.610  23.201  25.711  1.00  0.00     0.261 C 
ATOM     12  C   UNL A   1      32.659  22.938  23.510  1.00  0.00     0.261 C 
ATOM     13  O   UNL A   1      31.050  22.743  26.703  1.00  0.00    -0.269 OA
ATOM     14  C   UNL A   1      31.664  24.674  25.554  1.00  0.00     0.049 A 
ATOM     15  C   UNL A   1      32.825  24.413  23.434  1.00  0.00     0.049 A 
ATOM     16  O   UNL A   1      32.904  22.262  22.513  1.00  0.00    -0.269 OA
ATOM     17  C   UNL A   1      31.096  25.503  26.536  1.00  0.00     0.015 A 
ATOM     18  C   UNL A   1      32.316  25.226  24.450  1.00  0.00     0.009 A 
ATOM     19  C   UNL A   1      33.461  24.982  22.322  1.00  0.00     0.015 A 
ATOM     20  C   UNL A   1      31.238  26.888  26.454  1.00  0.00     0.015 A 
ATOM     21  C   UNL A   1      32.447  26.636  24.355  1.00  0.00     0.009 A 
ATOM     22  C   UNL A   1      33.595  26.366  22.223  1.00  0.00     0.015 A 
ATOM     23  C   UNL A   1      31.928  27.448  25.376  1.00  0.00     0.048 A 
ATOM     24  C   UNL A   1      33.093  27.187  23.238  1.00  0.00     0.048 A 
ATOM     25  C   UNL A   1      32.119  28.916  25.306  1.00  0.00     0.258 C 
ATOM     26  C   UNL A   1      33.223  28.659  23.123  1.00  0.00     0.258 C 
ATOM     27  N   UNL A   1      32.752  29.395  24.184  1.00  0.00    -0.288 N 
ATOM     28  O   UNL A   1      31.717  29.660  26.190  1.00  0.00    -0.269 OA
ATOM     29  O   UNL A   1      33.703  29.184  22.126  1.00  0.00    -0.269 OA
ATOM     30  H   UNL A   1      32.883  30.370  24.135  1.00  0.00     0.173 HD
ENDBRANCH   9  10
ENDBRANCH   8   9
ENDBRANCH   7   8
ENDBRANCH   5   7
ENDBRANCH   4   5
ENDBRANCH   3   4
ENDBRANCH   2   3
ENDBRANCH   1   2
BRANCH   1  31
ATOM     31  C   UNL A   1      40.518  19.568  26.183  1.00  0.00     0.202 C 
BRANCH  31  32
ATOM     32  C   UNL A   1      41.139  20.313  27.375  1.00  0.00     0.261 C 
BRANCH  32  33
ATOM     33  O   UNL A   1      42.554  20.492  27.206  1.00  0.00    -0.460 OA
BRANCH  33  34
ATOM     34  C   UNL A   1      42.890  21.490  26.354  1.00  0.00     0.338 C 
ATOM     35  O   UNL A   1      43.202  21.373  25.176  1.00  0.00    -0.246 OA
BRANCH  34  36
ATOM     36  C   UNL A   1      42.603  22.804  26.972  1.00  0.00     0.060 A 
ATOM     37  C   UNL A   1      42.177  23.816  26.104  1.00  0.00     0.016 A 
ATOM     38  C   UNL A   1      42.728  23.067  28.334  1.00  0.00     0.016 A 
ATOM     39  C   UNL A   1      41.954  25.108  26.554  1.00  0.00     0.010 A 
ATOM     40  C   UNL A   1      42.515  24.373  28.796  1.00  0.00     0.010 A 
ATOM     41  C   UNL A   1      42.188  25.407  27.895  1.00  0.00    -0.014 A 
BRANCH  41  42
ATOM     42  C   UNL A   1      42.369  26.827  28.273  1.00  0.00     0.031 A 
ATOM     43  C   UNL A   1      43.756  27.402  28.175  1.00  0.00     0.074 A 
ATOM     44  C   UNL A   1      41.330  27.610  28.614  1.00  0.00     0.049 A 
ATOM     45  N   UNL A   1      44.189  28.591  28.497  1.00  0.00    -0.248 NA
ATOM     46  C   UNL A   1      44.801  26.506  27.646  1.00  0.00     0.031 C 
ATOM     47  C   UNL A   1      39.931  27.189  28.669  1.00  0.00     0.029 A 
ATOM     48  N   UNL A   1      41.300  28.928  28.989  1.00  0.00    -0.354 N 
ATOM     49  C   UNL A   1      45.561  28.563  28.274  1.00  0.00     0.074 A 
ATOM     50  C   UNL A   1      45.890  27.242  27.790  1.00  0.00     0.031 C 
ATOM     51  C   UNL A   1      39.179  28.228  29.073  1.00  0.00     0.029 A 
ATOM     52  C   UNL A   1      40.048  29.371  29.342  1.00  0.00     0.049 A 
ATOM     53  H   UNL A   1      42.100  29.503  29.004  1.00  0.00     0.167 HD
ATOM     54  C   UNL A   1      46.469  29.552  28.449  1.00  0.00     0.034 A 
ATOM     55  C   UNL A   1      39.659  30.559  29.848  1.00  0.00     0.034 A 
ATOM     56  C   UNL A   1      46.127  30.876  28.885  1.00  0.00     0.049 A 
ATOM     57  C   UNL A   1      40.692  31.637  30.060  1.00  0.00     0.074 A 
ATOM     58  C   UNL A   1      46.961  31.965  29.062  1.00  0.00     0.029 A 
ATOM     59  N   UNL A   1      44.847  31.292  29.218  1.00  0.00    -0.354 N 
ATOM     60  N   UNL A   1      41.976  31.616  29.796  1.00  0.00    -0.248 NA
ATOM     61  C   UNL A   1      40.213  32.913  30.609  1.00  0.00     0.031 C 
ATOM     62  C   UNL A   1      46.189  33.029  29.538  1.00  0.00     0.029 A 
ATOM     63  C   UNL A   1      44.868  32.617  29.609  1.00  0.00     0.049 A 
ATOM     64  H   UNL A   1      44.042  30.725  29.181  1.00  0.00     0.167 HD
ATOM     65  C   UNL A   1      42.450  32.889  30.098  1.00  0.00     0.074 A 
ATOM     66  C   UNL A   1      41.310  33.657  30.557  1.00  0.00     0.031 C 
ATOM     67  C   UNL A   1      43.711  33.379  30.007  1.00  0.00     0.034 A 
BRANCH  54  68
ATOM     68  C   UNL A   1      47.914  29.221  28.189  1.00  0.00     0.023 A 
ATOM     69  C   UNL A   1      48.491  29.478  26.928  1.00  0.00     0.012 A 
ATOM     70  C   UNL A   1      48.706  28.660  29.209  1.00  0.00     0.148 A 
ATOM     71  C   UNL A   1      49.820  29.138  26.673  1.00  0.00     0.002 A 
ATOM     72  C   UNL A   1      50.043  28.374  28.965  1.00  0.00     0.091 A 
ATOM     73  F   UNL A   1      48.133  28.395  30.391  1.00  0.00    -0.205 F 
ATOM     74  C   UNL A   1      50.597  28.597  27.694  1.00  0.00     0.022 A 
BRANCH  72  75
ATOM     75  S   UNL A   1      51.143  27.754  30.240  1.00  0.00     0.127 S 
ATOM     76  O   UNL A   1      51.309  28.934  31.088  1.00  0.00    -0.237 OA
ATOM     77  O   UNL A   1      50.348  26.681  30.837  1.00  0.00    -0.237 OA
ATOM     78  O   UNL A   1      52.346  27.306  29.551  1.00  0.00    -0.744 OA
ENDBRANCH  72  75
ENDBRANCH  54  68
BRANCH  55  79
ATOM     79  C   UNL A   1      38.222  30.806  30.160  1.00  0.00     0.023 A 
ATOM     80  C   UNL A   1      37.768  30.678  31.487  1.00  0.00     0.012 A 
ATOM     81  C   UNL A   1      37.307  31.173  29.153  1.00  0.00     0.148 A 
ATOM     82  C   UNL A   1      36.423  30.880  31.801  1.00  0.00     0.002 A 
ATOM     83  C   UNL A   1      35.982  31.426  29.482  1.00  0.00     0.091 A 
ATOM     84  F   UNL A   1      37.757  31.274  27.895  1.00  0.00    -0.205 F 
ATOM     85  C   UNL A   1      35.532  31.264  30.801  1.00  0.00     0.022 A 
BRANCH  83  86
ATOM     86  S   UNL A   1      34.790  32.040  28.286  1.00  0.00     0.127 S 
ATOM     87  O   UNL A   1      33.675  32.427  29.147  1.00  0.00    -0.237 OA
ATOM     88  O   UNL A   1      35.520  33.156  27.684  1.00  0.00    -0.237 OA
ATOM     89  O   UNL A   1      34.530  30.930  27.380  1.00  0.00    -0.744 OA
ENDBRANCH  83  86
ENDBRANCH  55  79
BRANCH  67  90
ATOM     90  C   UNL A   1      43.922  34.835  30.337  1.00  0.00     0.023 A 
ATOM     91  C   UNL A   1      44.373  35.220  31.614  1.00  0.00     0.012 A 
ATOM     92  C   UNL A   1      43.738  35.818  29.344  1.00  0.00     0.148 A 
ATOM     93  C   UNL A   1      44.593  36.564  31.912  1.00  0.00     0.002 A 
ATOM     94  C   UNL A   1      44.014  37.150  29.630  1.00  0.00     0.091 A 
ATOM     95  F   UNL A   1      43.292  35.436  28.138  1.00  0.00    -0.205 F 
ATOM     96  C   UNL A   1      44.426  37.526  30.918  1.00  0.00     0.022 A 
BRANCH  94  97
ATOM     97  S   UNL A   1      43.929  38.435  28.380  1.00  0.00     0.127 S 
ATOM     98  O   UNL A   1      44.346  39.615  29.136  1.00  0.00    -0.237 OA
ATOM     99  O   UNL A   1      44.901  37.971  27.390  1.00  0.00    -0.237 OA
ATOM    100  O   UNL A   1      42.550  38.447  27.910  1.00  0.00    -0.744 OA
ENDBRANCH  94  97
ENDBRANCH  67  90
ENDBRANCH  41  42
ENDBRANCH  34  36
ENDBRANCH  33  34
ENDBRANCH  32  33
ENDBRANCH  31  32
ENDBRANCH   1  31
TORSDOF 20
ENDMDL
MODEL 3
REMARK VINA RESULT:     -10.9      2.610      3.472
REMARK SMILES O=C(CCCN1C(=O)c2ccc3c4c(ccc(c24)C1=O)C(=O)NC3=O)OCCOCCOC(=O)c1ccc(-c2c3nc(c(-c4cccc(S(=O)(=O)[O-])c4F)c4ccc([nH]4)c(-c4cccc(S(=O)(=O)[O-])c4F)c4nc(c(-c5cccc(S(=O)(=O)[O-])c5F)c5ccc2[nH]5)C=C4)C=C3)cc1
REMARK SMILES IDX 29 1 28 2 27 3 26 4 2 5 1 6 3 7 4 8 5 9 6 10 19 11 7 12
REMARK SMILES IDX 20 13 17 14 9 15 8 16 16 17 18 18 10 19 15 20 13 21 11 22
REMARK SMILES IDX 14 23 12 24 21 25 24 26 23 27 22 28 25 29 30 31 31 32 32 33
REMARK SMILES IDX 33 34 34 35 35 36 36 37 97 38 37 39 96 40 38 41 39 42 40 43
REMARK SMILES IDX 90 44 41 45 95 46 89 47 91 48 42 49 94 50 88 51 87 52 43 54
REMARK SMILES IDX 75 55 55 56 74 57 56 58 59 59 73 60 92 61 57 62 58 63 72 65
REMARK SMILES IDX 93 66 60 67 44 68 45 69 53 70 46 71 48 72 54 73 47 74 49 75
REMARK SMILES IDX 50 76 51 77 52 78 76 79 77 80 85 81 78 82 80 83 86 84 79 85
REMARK SMILES IDX 81 86 82 87 83 88 84 89 61 90 62 91 70 92 63 93 65 94 71 95
REMARK SMILES IDX 64 96 66 97 67 98 68 99 69 100
REMARK H PARENT 23 30 91 53 59 64
REMARK Flexibility Score: inf
ROOT
ATOM      1  O   UNL A   1      32.015  31.301  26.906  1.00  0.00    -0.374 OA
ENDROOT
BRANCH   1   2
ATOM      2  C   UNL A   1      32.078  30.081  26.164  1.00  0.00     0.202 C 
BRANCH   2   3
ATOM      3  C   UNL A   1      31.185  30.043  24.934  1.00  0.00     0.261 C 
BRANCH   3   4
ATOM      4  O   UNL A   1      31.021  28.740  24.371  1.00  0.00    -0.463 OA
BRANCH   4   5
ATOM      5  C   UNL A   1      30.416  28.486  23.199  1.00  0.00     0.305 C 
ATOM      6  O   UNL A   1      29.337  29.032  22.959  1.00  0.00    -0.252 OA
BRANCH   5   7
ATOM      7  C   UNL A   1      31.019  27.532  22.187  1.00  0.00     0.124 C 
BRANCH   7   8
ATOM      8  C   UNL A   1      31.262  26.073  22.558  1.00  0.00     0.034 C 
BRANCH   8   9
ATOM      9  C   UNL A   1      31.848  25.703  23.938  1.00  0.00     0.130 C 
BRANCH   9  10
ATOM     10  N   UNL A   1      32.651  24.482  24.098  1.00  0.00    -0.274 N 
ATOM     11  C   UNL A   1      31.944  23.276  24.193  1.00  0.00     0.261 C 
ATOM     12  C   UNL A   1      34.008  24.586  24.394  1.00  0.00     0.261 C 
ATOM     13  O   UNL A   1      30.723  23.191  24.097  1.00  0.00    -0.269 OA
ATOM     14  C   UNL A   1      32.716  22.034  24.432  1.00  0.00     0.049 A 
ATOM     15  C   UNL A   1      34.779  23.320  24.496  1.00  0.00     0.049 A 
ATOM     16  O   UNL A   1      34.586  25.651  24.602  1.00  0.00    -0.269 OA
ATOM     17  C   UNL A   1      32.048  20.802  24.526  1.00  0.00     0.015 A 
ATOM     18  C   UNL A   1      34.108  22.095  24.521  1.00  0.00     0.009 A 
ATOM     19  C   UNL A   1      36.176  23.368  24.606  1.00  0.00     0.015 A 
ATOM     20  C   UNL A   1      32.773  19.616  24.640  1.00  0.00     0.015 A 
ATOM     21  C   UNL A   1      34.848  20.890  24.654  1.00  0.00     0.009 A 
ATOM     22  C   UNL A   1      36.908  22.188  24.735  1.00  0.00     0.015 A 
ATOM     23  C   UNL A   1      34.169  19.662  24.684  1.00  0.00     0.048 A 
ATOM     24  C   UNL A   1      36.246  20.957  24.755  1.00  0.00     0.048 A 
ATOM     25  C   UNL A   1      34.946  18.403  24.762  1.00  0.00     0.258 C 
ATOM     26  C   UNL A   1      37.026  19.706  24.908  1.00  0.00     0.258 C 
ATOM     27  N   UNL A   1      36.310  18.534  24.866  1.00  0.00    -0.288 N 
ATOM     28  O   UNL A   1      34.400  17.308  24.754  1.00  0.00    -0.269 OA
ATOM     29  O   UNL A   1      38.238  19.725  25.084  1.00  0.00    -0.269 OA
ATOM     30  H   UNL A   1      36.829  17.699  24.916  1.00  0.00     0.173 HD
ENDBRANCH   9  10
ENDBRANCH   8   9
ENDBRANCH   7   8
ENDBRANCH   5   7
ENDBRANCH   4   5
ENDBRANCH   3   4
ENDBRANCH   2   3
ENDBRANCH   1   2
BRANCH   1  31
ATOM     31  C   UNL A   1      33.255  31.649  27.541  1.00  0.00     0.202 C 
BRANCH  31  32
ATOM     32  C   UNL A   1      33.283  33.077  28.105  1.00  0.00     0.261 C 
BRANCH  32  33
ATOM     33  O   UNL A   1      34.587  33.424  28.599  1.00  0.00    -0.460 OA
BRANCH  33  34
ATOM     34  C   UNL A   1      34.892  32.872  29.797  1.00  0.00     0.338 C 
ATOM     35  O   UNL A   1      34.193  32.869  30.802  1.00  0.00    -0.246 OA
BRANCH  34  36
ATOM     36  C   UNL A   1      36.113  32.043  29.679  1.00  0.00     0.060 A 
ATOM     37  C   UNL A   1      36.130  30.857  30.420  1.00  0.00     0.016 A 
ATOM     38  C   UNL A   1      37.207  32.380  28.884  1.00  0.00     0.016 A 
ATOM     39  C   UNL A   1      37.249  30.039  30.451  1.00  0.00     0.010 A 
ATOM     40  C   UNL A   1      38.347  31.565  28.918  1.00  0.00     0.010 A 
ATOM     41  C   UNL A   1      38.390  30.428  29.749  1.00  0.00    -0.014 A 
BRANCH  41  42
ATOM     42  C   UNL A   1      39.682  29.807  30.120  1.00  0.00     0.031 A 
ATOM     43  C   UNL A   1      40.403  30.364  31.319  1.00  0.00     0.074 A 
ATOM     44  C   UNL A   1      40.169  28.735  29.471  1.00  0.00     0.049 A 
ATOM     45  N   UNL A   1      41.566  30.041  31.815  1.00  0.00    -0.248 NA
ATOM     46  C   UNL A   1      39.715  31.441  32.054  1.00  0.00     0.031 C 
ATOM     47  C   UNL A   1      39.524  28.058  28.347  1.00  0.00     0.029 A 
ATOM     48  N   UNL A   1      41.330  28.033  29.666  1.00  0.00    -0.354 N 
ATOM     49  C   UNL A   1      41.778  30.915  32.874  1.00  0.00     0.074 A 
ATOM     50  C   UNL A   1      40.625  31.784  32.950  1.00  0.00     0.031 C 
ATOM     51  C   UNL A   1      40.311  27.047  27.939  1.00  0.00     0.029 A 
ATOM     52  C   UNL A   1      41.527  27.030  28.748  1.00  0.00     0.049 A 
ATOM     53  H   UNL A   1      41.963  28.229  30.395  1.00  0.00     0.167 HD
ATOM     54  C   UNL A   1      42.835  30.987  33.716  1.00  0.00     0.034 A 
ATOM     55  C   UNL A   1      42.585  26.212  28.571  1.00  0.00     0.034 A 
ATOM     56  C   UNL A   1      43.955  30.091  33.664  1.00  0.00     0.049 A 
ATOM     57  C   UNL A   1      43.763  26.328  29.503  1.00  0.00     0.074 A 
ATOM     58  C   UNL A   1      45.063  30.050  34.490  1.00  0.00     0.029 A 
ATOM     59  N   UNL A   1      44.112  29.078  32.731  1.00  0.00    -0.354 N 
ATOM     60  N   UNL A   1      43.929  27.123  30.533  1.00  0.00    -0.248 NA
ATOM     61  C   UNL A   1      44.886  25.410  29.268  1.00  0.00     0.031 C 
ATOM     62  C   UNL A   1      45.909  29.036  34.031  1.00  0.00     0.029 A 
ATOM     63  C   UNL A   1      45.303  28.412  32.951  1.00  0.00     0.049 A 
ATOM     64  H   UNL A   1      43.470  28.865  32.014  1.00  0.00     0.167 HD
ATOM     65  C   UNL A   1      45.149  26.768  31.099  1.00  0.00     0.074 A 
ATOM     66  C   UNL A   1      45.675  25.679  30.300  1.00  0.00     0.031 C 
ATOM     67  C   UNL A   1      45.780  27.293  32.179  1.00  0.00     0.034 A 
BRANCH  54  68
ATOM     68  C   UNL A   1      42.830  32.087  34.744  1.00  0.00     0.023 A 
ATOM     69  C   UNL A   1      43.277  33.382  34.408  1.00  0.00     0.012 A 
ATOM     70  C   UNL A   1      42.371  31.833  36.051  1.00  0.00     0.148 A 
ATOM     71  C   UNL A   1      43.309  34.393  35.368  1.00  0.00     0.002 A 
ATOM     72  C   UNL A   1      42.354  32.859  36.987  1.00  0.00     0.091 A 
ATOM     73  F   UNL A   1      41.978  30.590  36.360  1.00  0.00    -0.205 F 
ATOM     74  C   UNL A   1      42.838  34.134  36.653  1.00  0.00     0.022 A 
BRANCH  72  75
ATOM     75  S   UNL A   1      41.689  32.643  38.640  1.00  0.00     0.127 S 
ATOM     76  O   UNL A   1      41.899  33.969  39.219  1.00  0.00    -0.237 OA
ATOM     77  O   UNL A   1      40.290  32.311  38.368  1.00  0.00    -0.237 OA
ATOM     78  O   UNL A   1      42.461  31.567  39.246  1.00  0.00    -0.744 OA
ENDBRANCH  72  75
ENDBRANCH  54  68
BRANCH  55  79
ATOM     79  C   UNL A   1      42.567  25.190  27.486  1.00  0.00     0.023 A 
ATOM     80  C   UNL A   1      43.104  25.507  26.223  1.00  0.00     0.012 A 
ATOM     81  C   UNL A   1      42.029  23.905  27.700  1.00  0.00     0.148 A 
ATOM     82  C   UNL A   1      43.078  24.576  25.184  1.00  0.00     0.002 A 
ATOM     83  C   UNL A   1      42.056  22.965  26.678  1.00  0.00     0.091 A 
ATOM     84  F   UNL A   1      41.509  23.629  28.903  1.00  0.00    -0.205 F 
ATOM     85  C   UNL A   1      42.563  23.302  25.413  1.00  0.00     0.022 A 
BRANCH  83  86
ATOM     86  S   UNL A   1      41.526  21.264  26.915  1.00  0.00     0.127 S 
ATOM     87  O   UNL A   1      40.108  21.433  27.220  1.00  0.00    -0.237 OA
ATOM     88  O   UNL A   1      41.810  20.679  25.605  1.00  0.00    -0.237 OA
ATOM     89  O   UNL A   1      42.346  20.743  28.000  1.00  0.00    -0.744 OA
ENDBRANCH  83  86
ENDBRANCH  55  79
BRANCH  67  90
ATOM     90  C   UNL A   1      47.074  26.654  32.614  1.00  0.00     0.023 A 
ATOM     91  C   UNL A   1      47.068  25.566  33.508  1.00  0.00     0.012 A 
ATOM     92  C   UNL A   1      48.298  27.098  32.073  1.00  0.00     0.148 A 
ATOM     93  C   UNL A   1      48.263  24.958  33.892  1.00  0.00     0.002 A 
ATOM     94  C   UNL A   1      49.479  26.450  32.416  1.00  0.00     0.091 A 
ATOM     95  F   UNL A   1      48.287  28.145  31.237  1.00  0.00    -0.205 F 
ATOM     96  C   UNL A   1      49.465  25.391  33.336  1.00  0.00     0.022 A 
BRANCH  94  97
ATOM     97  S   UNL A   1      51.054  26.874  31.665  1.00  0.00     0.127 S 
ATOM     98  O   UNL A   1      50.770  26.675  30.245  1.00  0.00    -0.237 OA
ATOM     99  O   UNL A   1      51.223  28.272  32.064  1.00  0.00    -0.237 OA
ATOM    100  O   UNL A   1      52.032  25.961  32.242  1.00  0.00    -0.744 OA
ENDBRANCH  94  97
ENDBRANCH  67  90
ENDBRANCH  41  42
ENDBRANCH  34  36
ENDBRANCH  33  34
ENDBRANCH  32  33
ENDBRANCH  31  32
ENDBRANCH   1  31
TORSDOF 20
ENDMDL
