MODEL 1
REMARK VINA RESULT:     -10.4      0.000      0.000
REMARK SMILES C=CCN(CC(=O)OCCOCCOC(=O)c1ccc(-c2c3nc(c(-c4cccc(S(=O)(=O)[O-])c4F)c4ccc([nH]4)c(-c4cccc(S(=O)(=O)[O-])c4F)c4nc(c(-c5cccc(S(=O)(=O)[O-])c5F)c5ccc2[nH]5)C=C4)C=C3)cc1)C(=O)NC1CCCC1
REMARK SMILES IDX 11 1 10 2 9 3 8 4 6 5 7 6 5 7 4 8 3 9 2 10 1 11 80 12 81 13
REMARK SMILES IDX 82 14 83 16 84 17 87 18 85 19 86 20 12 21 13 22 14 23 15 24
REMARK SMILES IDX 16 25 17 26 18 27 79 28 19 29 78 30 20 31 21 32 22 33 72 34
REMARK SMILES IDX 23 35 77 36 71 37 73 38 24 39 76 40 70 41 69 42 25 44 57 45
REMARK SMILES IDX 37 46 56 47 38 48 41 49 55 50 74 51 39 52 40 53 54 55 75 56
REMARK SMILES IDX 42 57 26 58 27 59 35 60 28 61 30 62 36 63 29 64 31 65 32 66
REMARK SMILES IDX 33 67 34 68 58 69 59 70 67 71 60 72 62 73 68 74 61 75 63 76
REMARK SMILES IDX 64 77 65 78 66 79 43 80 44 81 52 82 45 83 47 84 53 85 46 86
REMARK SMILES IDX 48 87 49 88 50 89 51 90
REMARK H PARENT 82 15 73 43 41 54
REMARK Flexibility Score: inf
ROOT
ATOM      1  O   UNL A   1      31.498  28.829  25.883  1.00  0.00    -0.374 OA
ENDROOT
BRANCH   1   2
ATOM      2  C   UNL A   1      31.463  27.895  24.795  1.00  0.00     0.202 C 
BRANCH   2   3
ATOM      3  C   UNL A   1      32.384  26.669  24.876  1.00  0.00     0.261 C 
BRANCH   3   4
ATOM      4  O   UNL A   1      33.552  26.798  24.023  1.00  0.00    -0.462 OA
BRANCH   4   5
ATOM      5  C   UNL A   1      33.502  26.044  22.891  1.00  0.00     0.325 C 
ATOM      6  O   UNL A   1      33.904  26.431  21.796  1.00  0.00    -0.250 OA
BRANCH   5   7
ATOM      7  C   UNL A   1      32.839  24.667  23.046  1.00  0.00     0.244 C 
BRANCH   7   8
ATOM      8  N   UNL A   1      33.626  23.438  23.130  1.00  0.00    -0.310 N 
BRANCH   8   9
ATOM      9  C   UNL A   1      32.953  22.243  22.607  1.00  0.00     0.149 C 
BRANCH   9  10
ATOM     10  C   UNL A   1      32.700  21.296  23.760  1.00  0.00    -0.013 C 
ATOM     11  C   UNL A   1      31.759  21.487  24.697  1.00  0.00     0.006 C 
ENDBRANCH   9  10
ENDBRANCH   8   9
BRANCH   8  12
ATOM     12  C   UNL A   1      34.962  23.294  23.374  1.00  0.00     0.318 C 
ATOM     13  O   UNL A   1      35.773  23.086  22.462  1.00  0.00    -0.249 OA
ATOM     14  N   UNL A   1      35.550  23.461  24.571  1.00  0.00    -0.335 N 
ATOM     15  H   UNL A   1      36.396  23.958  24.494  1.00  0.00     0.165 HD
BRANCH  14  16
ATOM     16  C   UNL A   1      35.267  23.101  25.947  1.00  0.00     0.083 C 
ATOM     17  C   UNL A   1      33.916  23.667  26.399  1.00  0.00     0.025 C 
ATOM     18  C   UNL A   1      35.152  21.628  26.313  1.00  0.00     0.025 C 
ATOM     19  C   UNL A   1      33.690  22.970  27.728  1.00  0.00     0.002 C 
ATOM     20  C   UNL A   1      34.160  21.546  27.474  1.00  0.00     0.002 C 
ENDBRANCH  14  16
ENDBRANCH   8  12
ENDBRANCH   7   8
ENDBRANCH   5   7
ENDBRANCH   4   5
ENDBRANCH   3   4
ENDBRANCH   2   3
ENDBRANCH   1   2
BRANCH   1  21
ATOM     21  C   UNL A   1      31.365  30.200  25.538  1.00  0.00     0.202 C 
BRANCH  21  22
ATOM     22  C   UNL A   1      31.891  31.248  26.529  1.00  0.00     0.261 C 
BRANCH  22  23
ATOM     23  O   UNL A   1      33.173  30.918  27.059  1.00  0.00    -0.460 OA
BRANCH  23  24
ATOM     24  C   UNL A   1      33.791  31.968  27.644  1.00  0.00     0.338 C 
ATOM     25  O   UNL A   1      33.277  33.002  28.056  1.00  0.00    -0.246 OA
BRANCH  24  26
ATOM     26  C   UNL A   1      35.183  31.610  27.927  1.00  0.00     0.060 A 
ATOM     27  C   UNL A   1      35.479  30.242  27.945  1.00  0.00     0.016 A 
ATOM     28  C   UNL A   1      36.163  32.570  28.190  1.00  0.00     0.016 A 
ATOM     29  C   UNL A   1      36.746  29.822  28.313  1.00  0.00     0.010 A 
ATOM     30  C   UNL A   1      37.438  32.145  28.565  1.00  0.00     0.010 A 
ATOM     31  C   UNL A   1      37.707  30.770  28.684  1.00  0.00    -0.014 A 
BRANCH  31  32
ATOM     32  C   UNL A   1      38.901  30.279  29.399  1.00  0.00     0.031 A 
ATOM     33  C   UNL A   1      39.114  30.720  30.818  1.00  0.00     0.074 A 
ATOM     34  C   UNL A   1      39.716  29.380  28.822  1.00  0.00     0.049 A 
ATOM     35  N   UNL A   1      40.005  30.315  31.685  1.00  0.00    -0.248 NA
ATOM     36  C   UNL A   1      38.201  31.753  31.332  1.00  0.00     0.031 C 
ATOM     37  C   UNL A   1      39.593  28.896  27.448  1.00  0.00     0.029 A 
ATOM     38  N   UNL A   1      40.805  28.721  29.321  1.00  0.00    -0.354 N 
ATOM     39  C   UNL A   1      39.775  31.062  32.833  1.00  0.00     0.074 A 
ATOM     40  C   UNL A   1      38.677  31.957  32.550  1.00  0.00     0.031 C 
ATOM     41  C   UNL A   1      40.587  28.025  27.207  1.00  0.00     0.029 A 
ATOM     42  C   UNL A   1      41.416  27.902  28.405  1.00  0.00     0.049 A 
ATOM     43  H   UNL A   1      41.121  28.824  30.249  1.00  0.00     0.167 HD
ATOM     44  C   UNL A   1      40.415  30.996  34.024  1.00  0.00     0.034 A 
ATOM     45  C   UNL A   1      42.525  27.149  28.521  1.00  0.00     0.034 A 
ATOM     46  C   UNL A   1      41.498  30.091  34.293  1.00  0.00     0.049 A 
ATOM     47  C   UNL A   1      43.213  27.074  29.857  1.00  0.00     0.074 A 
ATOM     48  C   UNL A   1      42.183  29.892  35.477  1.00  0.00     0.029 A 
ATOM     49  N   UNL A   1      42.069  29.244  33.352  1.00  0.00    -0.354 N 
ATOM     50  N   UNL A   1      42.905  27.685  30.977  1.00  0.00    -0.248 NA
ATOM     51  C   UNL A   1      44.368  26.174  29.962  1.00  0.00     0.031 C 
ATOM     52  C   UNL A   1      43.196  28.957  35.240  1.00  0.00     0.029 A 
ATOM     53  C   UNL A   1      43.113  28.537  33.921  1.00  0.00     0.049 A 
ATOM     54  H   UNL A   1      41.774  29.161  32.417  1.00  0.00     0.167 HD
ATOM     55  C   UNL A   1      43.809  27.224  31.927  1.00  0.00     0.074 A 
ATOM     56  C   UNL A   1      44.662  26.266  31.252  1.00  0.00     0.031 C 
ATOM     57  C   UNL A   1      43.930  27.566  33.235  1.00  0.00     0.034 A 
BRANCH  44  58
ATOM     58  C   UNL A   1      39.959  31.937  35.108  1.00  0.00     0.023 A 
ATOM     59  C   UNL A   1      40.408  33.275  35.123  1.00  0.00     0.012 A 
ATOM     60  C   UNL A   1      39.084  31.493  36.118  1.00  0.00     0.148 A 
ATOM     61  C   UNL A   1      40.032  34.139  36.151  1.00  0.00     0.002 A 
ATOM     62  C   UNL A   1      38.674  32.374  37.111  1.00  0.00     0.091 A 
ATOM     63  F   UNL A   1      38.692  30.211  36.107  1.00  0.00    -0.205 F 
ATOM     64  C   UNL A   1      39.158  33.692  37.139  1.00  0.00     0.022 A 
BRANCH  62  65
ATOM     65  S   UNL A   1      37.488  31.910  38.377  1.00  0.00     0.127 S 
ATOM     66  O   UNL A   1      38.258  32.138  39.600  1.00  0.00    -0.237 OA
ATOM     67  O   UNL A   1      36.405  32.868  38.151  1.00  0.00    -0.237 OA
ATOM     68  O   UNL A   1      37.136  30.524  38.106  1.00  0.00    -0.744 OA
ENDBRANCH  62  65
ENDBRANCH  44  58
BRANCH  45  69
ATOM     69  C   UNL A   1      43.015  26.389  27.339  1.00  0.00     0.023 A 
ATOM     70  C   UNL A   1      43.989  26.947  26.490  1.00  0.00     0.012 A 
ATOM     71  C   UNL A   1      42.566  25.074  27.103  1.00  0.00     0.148 A 
ATOM     72  C   UNL A   1      44.496  26.213  25.417  1.00  0.00     0.002 A 
ATOM     73  C   UNL A   1      43.117  24.328  26.070  1.00  0.00     0.091 A 
ATOM     74  F   UNL A   1      41.629  24.570  27.919  1.00  0.00    -0.205 F 
ATOM     75  C   UNL A   1      44.072  24.901  25.216  1.00  0.00     0.022 A 
BRANCH  73  76
ATOM     76  S   UNL A   1      42.738  22.589  25.830  1.00  0.00     0.127 S 
ATOM     77  O   UNL A   1      43.327  22.334  24.517  1.00  0.00    -0.237 OA
ATOM     78  O   UNL A   1      43.445  21.972  26.952  1.00  0.00    -0.237 OA
ATOM     79  O   UNL A   1      41.288  22.485  25.901  1.00  0.00    -0.744 OA
ENDBRANCH  73  76
ENDBRANCH  45  69
BRANCH  57  80
ATOM     80  C   UNL A   1      45.006  26.879  34.034  1.00  0.00     0.023 A 
ATOM     81  C   UNL A   1      46.321  27.384  34.026  1.00  0.00     0.012 A 
ATOM     82  C   UNL A   1      44.696  25.770  34.846  1.00  0.00     0.148 A 
ATOM     83  C   UNL A   1      47.320  26.771  34.781  1.00  0.00     0.002 A 
ATOM     84  C   UNL A   1      45.682  25.199  35.638  1.00  0.00     0.091 A 
ATOM     85  F   UNL A   1      43.442  25.293  34.827  1.00  0.00    -0.205 F 
ATOM     86  C   UNL A   1      46.998  25.687  35.596  1.00  0.00     0.022 A 
BRANCH  84  87
ATOM     87  S   UNL A   1      45.332  23.868  36.794  1.00  0.00     0.127 S 
ATOM     88  O   UNL A   1      44.748  22.857  35.914  1.00  0.00    -0.237 OA
ATOM     89  O   UNL A   1      46.664  23.539  37.303  1.00  0.00    -0.237 OA
ATOM     90  O   UNL A   1      44.429  24.431  37.788  1.00  0.00    -0.744 OA
ENDBRANCH  84  87
ENDBRANCH  57  80
ENDBRANCH  31  32
ENDBRANCH  24  26
ENDBRANCH  23  24
ENDBRANCH  22  23
ENDBRANCH  21  22
ENDBRANCH   1  21
TORSDOF 22
ENDMDL
MODEL 2
REMARK VINA RESULT:     -10.2      2.049      8.045
REMARK SMILES C=CCN(CC(=O)OCCOCCOC(=O)c1ccc(-c2c3nc(c(-c4cccc(S(=O)(=O)[O-])c4F)c4ccc([nH]4)c(-c4cccc(S(=O)(=O)[O-])c4F)c4nc(c(-c5cccc(S(=O)(=O)[O-])c5F)c5ccc2[nH]5)C=C4)C=C3)cc1)C(=O)NC1CCCC1
REMARK SMILES IDX 11 1 10 2 9 3 8 4 6 5 7 6 5 7 4 8 3 9 2 10 1 11 80 12 81 13
REMARK SMILES IDX 82 14 83 16 84 17 87 18 85 19 86 20 12 21 13 22 14 23 15 24
REMARK SMILES IDX 16 25 17 26 18 27 79 28 19 29 78 30 20 31 21 32 22 33 72 34
REMARK SMILES IDX 23 35 77 36 71 37 73 38 24 39 76 40 70 41 69 42 25 44 57 45
REMARK SMILES IDX 37 46 56 47 38 48 41 49 55 50 74 51 39 52 40 53 54 55 75 56
REMARK SMILES IDX 42 57 26 58 27 59 35 60 28 61 30 62 36 63 29 64 31 65 32 66
REMARK SMILES IDX 33 67 34 68 58 69 59 70 67 71 60 72 62 73 68 74 61 75 63 76
REMARK SMILES IDX 64 77 65 78 66 79 43 80 44 81 52 82 45 83 47 84 53 85 46 86
REMARK SMILES IDX 48 87 49 88 50 89 51 90
REMARK H PARENT 82 15 73 43 41 54
REMARK Flexibility Score: inf
ROOT
ATOM      1  O   UNL A   1      30.921  27.457  27.191  1.00  0.00    -0.374 OA
ENDROOT
BRANCH   1   2
ATOM      2  C   UNL A   1      31.013  26.690  25.983  1.00  0.00     0.202 C 
BRANCH   2   3
ATOM      3  C   UNL A   1      30.156  25.420  25.877  1.00  0.00     0.261 C 
BRANCH   3   4
ATOM      4  O   UNL A   1      30.628  24.359  26.750  1.00  0.00    -0.462 OA
BRANCH   4   5
ATOM      5  C   UNL A   1      30.935  23.201  26.105  1.00  0.00     0.325 C 
ATOM      6  O   UNL A   1      30.237  22.190  26.152  1.00  0.00    -0.250 OA
BRANCH   5   7
ATOM      7  C   UNL A   1      32.269  23.204  25.345  1.00  0.00     0.244 C 
BRANCH   7   8
ATOM      8  N   UNL A   1      33.475  22.596  25.903  1.00  0.00    -0.310 N 
BRANCH   8   9
ATOM      9  C   UNL A   1      34.686  23.417  25.783  1.00  0.00     0.149 C 
BRANCH   9  10
ATOM     10  C   UNL A   1      35.318  23.141  24.436  1.00  0.00    -0.013 C 
ATOM     11  C   UNL A   1      36.131  22.104  24.186  1.00  0.00     0.006 C 
ENDBRANCH   9  10
ENDBRANCH   8   9
BRANCH   8  12
ATOM     12  C   UNL A   1      33.583  21.520  26.736  1.00  0.00     0.318 C 
ATOM     13  O   UNL A   1      33.896  21.645  27.927  1.00  0.00    -0.249 OA
ATOM     14  N   UNL A   1      33.270  20.255  26.406  1.00  0.00    -0.335 N 
ATOM     15  H   UNL A   1      32.783  19.800  27.131  1.00  0.00     0.165 HD
BRANCH  14  16
ATOM     16  C   UNL A   1      33.463  19.382  25.264  1.00  0.00     0.083 C 
ATOM     17  C   UNL A   1      32.853  17.999  25.517  1.00  0.00     0.025 C 
ATOM     18  C   UNL A   1      32.854  19.775  23.926  1.00  0.00     0.025 C 
ATOM     19  C   UNL A   1      32.917  17.350  24.148  1.00  0.00     0.002 C 
ATOM     20  C   UNL A   1      32.529  18.471  23.197  1.00  0.00     0.002 C 
ENDBRANCH  14  16
ENDBRANCH   8  12
ENDBRANCH   7   8
ENDBRANCH   5   7
ENDBRANCH   4   5
ENDBRANCH   3   4
ENDBRANCH   2   3
ENDBRANCH   1   2
BRANCH   1  21
ATOM     21  C   UNL A   1      31.966  28.390  27.423  1.00  0.00     0.202 C 
BRANCH  21  22
ATOM     22  C   UNL A   1      31.808  29.807  26.854  1.00  0.00     0.261 C 
BRANCH  22  23
ATOM     23  O   UNL A   1      33.036  30.358  26.385  1.00  0.00    -0.460 OA
BRANCH  23  24
ATOM     24  C   UNL A   1      33.484  31.380  27.147  1.00  0.00     0.338 C 
ATOM     25  O   UNL A   1      32.849  32.350  27.544  1.00  0.00    -0.246 OA
BRANCH  24  26
ATOM     26  C   UNL A   1      34.828  31.061  27.636  1.00  0.00     0.060 A 
ATOM     27  C   UNL A   1      35.136  29.701  27.761  1.00  0.00     0.016 A 
ATOM     28  C   UNL A   1      35.750  32.051  27.985  1.00  0.00     0.016 A 
ATOM     29  C   UNL A   1      36.344  29.323  28.319  1.00  0.00     0.010 A 
ATOM     30  C   UNL A   1      36.966  31.667  28.553  1.00  0.00     0.010 A 
ATOM     31  C   UNL A   1      37.233  30.304  28.773  1.00  0.00    -0.014 A 
BRANCH  31  32
ATOM     32  C   UNL A   1      38.322  29.869  29.669  1.00  0.00     0.031 A 
ATOM     33  C   UNL A   1      39.348  28.914  29.134  1.00  0.00     0.074 A 
ATOM     34  C   UNL A   1      38.443  30.400  30.897  1.00  0.00     0.049 A 
ATOM     35  N   UNL A   1      40.461  28.503  29.681  1.00  0.00    -0.248 NA
ATOM     36  C   UNL A   1      39.087  28.345  27.801  1.00  0.00     0.031 C 
ATOM     37  C   UNL A   1      37.495  31.332  31.507  1.00  0.00     0.029 A 
ATOM     38  N   UNL A   1      39.411  30.227  31.848  1.00  0.00    -0.354 N 
ATOM     39  C   UNL A   1      41.018  27.611  28.774  1.00  0.00     0.074 A 
ATOM     40  C   UNL A   1      40.114  27.523  27.650  1.00  0.00     0.031 C 
ATOM     41  C   UNL A   1      37.922  31.635  32.744  1.00  0.00     0.029 A 
ATOM     42  C   UNL A   1      39.164  30.912  33.011  1.00  0.00     0.049 A 
ATOM     43  H   UNL A   1      40.209  29.666  31.710  1.00  0.00     0.167 HD
ATOM     44  C   UNL A   1      42.187  26.935  28.864  1.00  0.00     0.034 A 
ATOM     45  C   UNL A   1      39.859  30.939  34.163  1.00  0.00     0.034 A 
ATOM     46  C   UNL A   1      43.081  27.044  29.984  1.00  0.00     0.049 A 
ATOM     47  C   UNL A   1      41.165  30.197  34.239  1.00  0.00     0.074 A 
ATOM     48  C   UNL A   1      44.319  26.456  30.160  1.00  0.00     0.029 A 
ATOM     49  N   UNL A   1      42.818  27.778  31.133  1.00  0.00    -0.354 N 
ATOM     50  N   UNL A   1      41.749  29.461  33.322  1.00  0.00    -0.248 NA
ATOM     51  C   UNL A   1      41.932  30.324  35.484  1.00  0.00     0.031 C 
ATOM     52  C   UNL A   1      44.786  26.800  31.433  1.00  0.00     0.029 A 
ATOM     53  C   UNL A   1      43.861  27.641  32.032  1.00  0.00     0.049 A 
ATOM     54  H   UNL A   1      42.009  28.317  31.284  1.00  0.00     0.167 HD
ATOM     55  C   UNL A   1      42.962  29.061  33.867  1.00  0.00     0.074 A 
ATOM     56  C   UNL A   1      43.037  29.655  35.187  1.00  0.00     0.031 C 
ATOM     57  C   UNL A   1      43.925  28.267  33.330  1.00  0.00     0.034 A 
BRANCH  44  58
ATOM     58  C   UNL A   1      42.547  26.020  27.724  1.00  0.00     0.023 A 
ATOM     59  C   UNL A   1      43.326  26.497  26.648  1.00  0.00     0.012 A 
ATOM     60  C   UNL A   1      42.110  24.681  27.716  1.00  0.00     0.148 A 
ATOM     61  C   UNL A   1      43.622  25.671  25.564  1.00  0.00     0.002 A 
ATOM     62  C   UNL A   1      42.451  23.850  26.657  1.00  0.00     0.091 A 
ATOM     63  F   UNL A   1      41.345  24.253  28.731  1.00  0.00    -0.205 F 
ATOM     64  C   UNL A   1      43.192  24.346  25.572  1.00  0.00     0.022 A 
BRANCH  62  65
ATOM     65  S   UNL A   1      42.011  22.110  26.620  1.00  0.00     0.127 S 
ATOM     66  O   UNL A   1      40.603  22.169  26.227  1.00  0.00    -0.237 OA
ATOM     67  O   UNL A   1      42.909  21.587  25.590  1.00  0.00    -0.237 OA
ATOM     68  O   UNL A   1      42.269  21.604  27.960  1.00  0.00    -0.744 OA
ENDBRANCH  62  65
ENDBRANCH  44  58
BRANCH  45  69
ATOM     69  C   UNL A   1      39.333  31.728  35.310  1.00  0.00     0.023 A 
ATOM     70  C   UNL A   1      38.478  31.128  36.252  1.00  0.00     0.012 A 
ATOM     71  C   UNL A   1      39.749  33.061  35.507  1.00  0.00     0.148 A 
ATOM     72  C   UNL A   1      38.033  31.847  37.363  1.00  0.00     0.002 A 
ATOM     73  C   UNL A   1      39.351  33.750  36.644  1.00  0.00     0.091 A 
ATOM     74  F   UNL A   1      40.554  33.614  34.589  1.00  0.00    -0.205 F 
ATOM     75  C   UNL A   1      38.480  33.150  37.566  1.00  0.00     0.022 A 
BRANCH  73  76
ATOM     76  S   UNL A   1      39.993  35.375  37.059  1.00  0.00     0.127 S 
ATOM     77  O   UNL A   1      39.546  36.172  35.919  1.00  0.00    -0.237 OA
ATOM     78  O   UNL A   1      39.301  35.656  38.317  1.00  0.00    -0.237 OA
ATOM     79  O   UNL A   1      41.434  35.212  37.188  1.00  0.00    -0.744 OA
ENDBRANCH  73  76
ENDBRANCH  45  69
BRANCH  57  80
ATOM     80  C   UNL A   1      45.158  28.017  34.158  1.00  0.00     0.023 A 
ATOM     81  C   UNL A   1      46.257  28.894  34.069  1.00  0.00     0.012 A 
ATOM     82  C   UNL A   1      45.198  26.949  35.076  1.00  0.00     0.148 A 
ATOM     83  C   UNL A   1      47.394  28.686  34.849  1.00  0.00     0.002 A 
ATOM     84  C   UNL A   1      46.310  26.780  35.889  1.00  0.00     0.091 A 
ATOM     85  F   UNL A   1      44.149  26.115  35.134  1.00  0.00    -0.205 F 
ATOM     86  C   UNL A   1      47.416  27.638  35.767  1.00  0.00     0.022 A 
BRANCH  84  87
ATOM     87  S   UNL A   1      46.380  25.521  37.169  1.00  0.00     0.127 S 
ATOM     88  O   UNL A   1      46.342  24.292  36.379  1.00  0.00    -0.237 OA
ATOM     89  O   UNL A   1      47.667  25.797  37.808  1.00  0.00    -0.237 OA
ATOM     90  O   UNL A   1      45.222  25.755  38.021  1.00  0.00    -0.744 OA
ENDBRANCH  84  87
ENDBRANCH  57  80
ENDBRANCH  31  32
ENDBRANCH  24  26
ENDBRANCH  23  24
ENDBRANCH  22  23
ENDBRANCH  21  22
ENDBRANCH   1  21
TORSDOF 22
ENDMDL
MODEL 3
REMARK VINA RESULT:      -9.9      2.388      2.920
REMARK SMILES C=CCN(CC(=O)OCCOCCOC(=O)c1ccc(-c2c3nc(c(-c4cccc(S(=O)(=O)[O-])c4F)c4ccc([nH]4)c(-c4cccc(S(=O)(=O)[O-])c4F)c4nc(c(-c5cccc(S(=O)(=O)[O-])c5F)c5ccc2[nH]5)C=C4)C=C3)cc1)C(=O)NC1CCCC1
REMARK SMILES IDX 11 1 10 2 9 3 8 4 6 5 7 6 5 7 4 8 3 9 2 10 1 11 80 12 81 13
REMARK SMILES IDX 82 14 83 16 84 17 87 18 85 19 86 20 12 21 13 22 14 23 15 24
REMARK SMILES IDX 16 25 17 26 18 27 79 28 19 29 78 30 20 31 21 32 22 33 72 34
REMARK SMILES IDX 23 35 77 36 71 37 73 38 24 39 76 40 70 41 69 42 25 44 57 45
REMARK SMILES IDX 37 46 56 47 38 48 41 49 55 50 74 51 39 52 40 53 54 55 75 56
REMARK SMILES IDX 42 57 26 58 27 59 35 60 28 61 30 62 36 63 29 64 31 65 32 66
REMARK SMILES IDX 33 67 34 68 58 69 59 70 67 71 60 72 62 73 68 74 61 75 63 76
REMARK SMILES IDX 64 77 65 78 66 79 43 80 44 81 52 82 45 83 47 84 53 85 46 86
REMARK SMILES IDX 48 87 49 88 50 89 51 90
REMARK H PARENT 82 15 73 43 41 54
REMARK Flexibility Score: inf
ROOT
ATOM      1  O   UNL A   1      32.027  27.941  24.965  1.00  0.00    -0.374 OA
ENDROOT
BRANCH   1   2
ATOM      2  C   UNL A   1      31.234  26.872  25.499  1.00  0.00     0.202 C 
BRANCH   2   3
ATOM      3  C   UNL A   1      31.888  25.945  26.533  1.00  0.00     0.261 C 
BRANCH   3   4
ATOM      4  O   UNL A   1      31.246  24.644  26.595  1.00  0.00    -0.462 OA
BRANCH   4   5
ATOM      5  C   UNL A   1      32.092  23.617  26.877  1.00  0.00     0.325 C 
ATOM      6  O   UNL A   1      31.923  22.831  27.807  1.00  0.00    -0.250 OA
BRANCH   5   7
ATOM      7  C   UNL A   1      33.339  23.526  25.985  1.00  0.00     0.244 C 
BRANCH   7   8
ATOM      8  N   UNL A   1      33.666  22.312  25.239  1.00  0.00    -0.310 N 
BRANCH   8   9
ATOM      9  C   UNL A   1      32.965  22.173  23.957  1.00  0.00     0.149 C 
BRANCH   9  10
ATOM     10  C   UNL A   1      33.699  22.996  22.920  1.00  0.00    -0.013 C 
ATOM     11  C   UNL A   1      33.093  23.706  21.957  1.00  0.00     0.006 C 
ENDBRANCH   9  10
ENDBRANCH   8   9
BRANCH   8  12
ATOM     12  C   UNL A   1      34.702  21.444  25.432  1.00  0.00     0.318 C 
ATOM     13  O   UNL A   1      35.849  21.841  25.678  1.00  0.00    -0.249 OA
ATOM     14  N   UNL A   1      34.588  20.106  25.483  1.00  0.00    -0.335 N 
ATOM     15  H   UNL A   1      35.136  19.722  26.206  1.00  0.00     0.165 HD
BRANCH  14  16
ATOM     16  C   UNL A   1      33.871  19.078  24.754  1.00  0.00     0.083 C 
ATOM     17  C   UNL A   1      34.807  17.930  24.356  1.00  0.00     0.025 C 
ATOM     18  C   UNL A   1      32.725  18.351  25.441  1.00  0.00     0.025 C 
ATOM     19  C   UNL A   1      33.841  16.868  23.862  1.00  0.00     0.002 C 
ATOM     20  C   UNL A   1      32.688  16.941  24.850  1.00  0.00     0.002 C 
ENDBRANCH  14  16
ENDBRANCH   8  12
ENDBRANCH   7   8
ENDBRANCH   5   7
ENDBRANCH   4   5
ENDBRANCH   3   4
ENDBRANCH   2   3
ENDBRANCH   1   2
BRANCH   1  21
ATOM     21  C   UNL A   1      31.556  29.258  25.213  1.00  0.00     0.202 C 
BRANCH  21  22
ATOM     22  C   UNL A   1      31.994  29.948  26.513  1.00  0.00     0.261 C 
BRANCH  22  23
ATOM     23  O   UNL A   1      33.411  30.009  26.660  1.00  0.00    -0.460 OA
BRANCH  23  24
ATOM     24  C   UNL A   1      33.825  31.090  27.356  1.00  0.00     0.338 C 
ATOM     25  O   UNL A   1      33.141  32.021  27.767  1.00  0.00    -0.246 OA
BRANCH  24  26
ATOM     26  C   UNL A   1      35.220  30.897  27.758  1.00  0.00     0.060 A 
ATOM     27  C   UNL A   1      35.672  29.574  27.812  1.00  0.00     0.016 A 
ATOM     28  C   UNL A   1      36.056  31.965  28.095  1.00  0.00     0.016 A 
ATOM     29  C   UNL A   1      36.944  29.305  28.288  1.00  0.00     0.010 A 
ATOM     30  C   UNL A   1      37.335  31.692  28.581  1.00  0.00     0.010 A 
ATOM     31  C   UNL A   1      37.752  30.358  28.732  1.00  0.00    -0.014 A 
BRANCH  31  32
ATOM     32  C   UNL A   1      38.931  30.009  29.549  1.00  0.00     0.031 A 
ATOM     33  C   UNL A   1      39.000  30.524  30.958  1.00  0.00     0.074 A 
ATOM     34  C   UNL A   1      39.863  29.168  29.071  1.00  0.00     0.049 A 
ATOM     35  N   UNL A   1      39.858  30.238  31.901  1.00  0.00    -0.248 NA
ATOM     36  C   UNL A   1      37.962  31.487  31.359  1.00  0.00     0.031 C 
ATOM     37  C   UNL A   1      39.884  28.620  27.716  1.00  0.00     0.029 A 
ATOM     38  N   UNL A   1      40.968  28.633  29.674  1.00  0.00    -0.354 N 
ATOM     39  C   UNL A   1      39.479  31.005  32.996  1.00  0.00     0.074 A 
ATOM     40  C   UNL A   1      38.328  31.782  32.597  1.00  0.00     0.031 C 
ATOM     41  C   UNL A   1      40.968  27.837  27.583  1.00  0.00     0.029 A 
ATOM     42  C   UNL A   1      41.715  27.839  28.840  1.00  0.00     0.049 A 
ATOM     43  H   UNL A   1      41.205  28.802  30.615  1.00  0.00     0.167 HD
ATOM     44  C   UNL A   1      40.035  31.046  34.229  1.00  0.00     0.034 A 
ATOM     45  C   UNL A   1      42.877  27.198  29.067  1.00  0.00     0.034 A 
ATOM     46  C   UNL A   1      41.173  30.257  34.613  1.00  0.00     0.049 A 
ATOM     47  C   UNL A   1      43.469  27.241  30.448  1.00  0.00     0.074 A 
ATOM     48  C   UNL A   1      41.785  30.170  35.849  1.00  0.00     0.029 A 
ATOM     49  N   UNL A   1      41.884  29.431  33.753  1.00  0.00    -0.354 N 
ATOM     50  N   UNL A   1      43.027  27.864  31.516  1.00  0.00    -0.248 NA
ATOM     51  C   UNL A   1      44.690  26.457  30.673  1.00  0.00     0.031 C 
ATOM     52  C   UNL A   1      42.893  29.325  35.725  1.00  0.00     0.029 A 
ATOM     53  C   UNL A   1      42.944  28.847  34.425  1.00  0.00     0.049 A 
ATOM     54  H   UNL A   1      41.667  29.284  32.805  1.00  0.00     0.167 HD
ATOM     55  C   UNL A   1      43.898  27.527  32.545  1.00  0.00     0.074 A 
ATOM     56  C   UNL A   1      44.881  26.626  31.975  1.00  0.00     0.031 C 
ATOM     57  C   UNL A   1      43.892  27.930  33.841  1.00  0.00     0.034 A 
BRANCH  44  58
ATOM     58  C   UNL A   1      39.419  31.982  35.235  1.00  0.00     0.023 A 
ATOM     59  C   UNL A   1      38.291  31.580  35.982  1.00  0.00     0.012 A 
ATOM     60  C   UNL A   1      39.956  33.268  35.439  1.00  0.00     0.148 A 
ATOM     61  C   UNL A   1      37.683  32.458  36.879  1.00  0.00     0.002 A 
ATOM     62  C   UNL A   1      39.375  34.119  36.370  1.00  0.00     0.091 A 
ATOM     63  F   UNL A   1      41.008  33.646  34.698  1.00  0.00    -0.205 F 
ATOM     64  C   UNL A   1      38.229  33.723  37.080  1.00  0.00     0.022 A 
BRANCH  62  65
ATOM     65  S   UNL A   1      40.057  35.735  36.753  1.00  0.00     0.127 S 
ATOM     66  O   UNL A   1      39.671  36.507  35.572  1.00  0.00    -0.237 OA
ATOM     67  O   UNL A   1      39.338  36.091  37.976  1.00  0.00    -0.237 OA
ATOM     68  O   UNL A   1      41.488  35.533  36.931  1.00  0.00    -0.744 OA
ENDBRANCH  62  65
ENDBRANCH  44  58
BRANCH  45  69
ATOM     69  C   UNL A   1      43.517  26.441  27.957  1.00  0.00     0.023 A 
ATOM     70  C   UNL A   1      42.967  25.223  27.519  1.00  0.00     0.012 A 
ATOM     71  C   UNL A   1      44.632  26.977  27.281  1.00  0.00     0.148 A 
ATOM     72  C   UNL A   1      43.527  24.542  26.437  1.00  0.00     0.002 A 
ATOM     73  C   UNL A   1      45.148  26.325  26.170  1.00  0.00     0.091 A 
ATOM     74  F   UNL A   1      45.144  28.133  27.725  1.00  0.00    -0.205 F 
ATOM     75  C   UNL A   1      44.607  25.098  25.755  1.00  0.00     0.022 A 
BRANCH  73  76
ATOM     76  S   UNL A   1      46.439  27.040  25.147  1.00  0.00     0.127 S 
ATOM     77  O   UNL A   1      45.786  28.247  24.644  1.00  0.00    -0.237 OA
ATOM     78  O   UNL A   1      47.499  27.276  26.127  1.00  0.00    -0.237 OA
ATOM     79  O   UNL A   1      46.757  26.033  24.145  1.00  0.00    -0.744 OA
ENDBRANCH  73  76
ENDBRANCH  45  69
BRANCH  57  80
ATOM     80  C   UNL A   1      44.965  27.378  34.743  1.00  0.00     0.023 A 
ATOM     81  C   UNL A   1      46.202  28.043  34.855  1.00  0.00     0.012 A 
ATOM     82  C   UNL A   1      44.720  26.236  35.530  1.00  0.00     0.148 A 
ATOM     83  C   UNL A   1      47.193  27.555  35.706  1.00  0.00     0.002 A 
ATOM     84  C   UNL A   1      45.690  25.787  36.416  1.00  0.00     0.091 A 
ATOM     85  F   UNL A   1      43.542  25.607  35.396  1.00  0.00    -0.205 F 
ATOM     86  C   UNL A   1      46.934  26.435  36.494  1.00  0.00     0.022 A 
BRANCH  84  87
ATOM     87  S   UNL A   1      45.400  24.418  37.542  1.00  0.00     0.127 S 
ATOM     88  O   UNL A   1      45.073  23.336  36.616  1.00  0.00    -0.237 OA
ATOM     89  O   UNL A   1      46.697  24.282  38.207  1.00  0.00    -0.237 OA
ATOM     90  O   UNL A   1      44.317  24.844  38.417  1.00  0.00    -0.744 OA
ENDBRANCH  84  87
ENDBRANCH  57  80
ENDBRANCH  31  32
ENDBRANCH  24  26
ENDBRANCH  23  24
ENDBRANCH  22  23
ENDBRANCH  21  22
ENDBRANCH   1  21
TORSDOF 22
ENDMDL
