MODEL 1
REMARK VINA RESULT:     -11.1      0.000      0.000
REMARK SMILES Cc1cccc(C(=O)OCCOCCOC(=O)c2ccc(-c3c4nc(c(-c5cccc(S(=O)(=O)[O-])c5F)c5ccc([nH]5)c(-c5cccc(S(=O)(=O)[O-])c5F)c5nc(c(-c6cccc(S(=O)(=O)[O-])c6F)c6ccc3[nH]6)C=C5)C=C4)cc2)c1OC[C@@H]1C[C@H]2CC[C@@H]1C2
REMARK SMILES IDX 12 1 11 2 10 3 9 4 7 5 8 6 6 7 1 8 2 9 3 10 81 11 4 12 5 13
REMARK SMILES IDX 82 14 83 15 84 16 85 17 89 18 86 19 88 20 90 21 87 22 13 23
REMARK SMILES IDX 14 24 15 25 16 26 17 27 18 28 19 29 80 30 20 31 79 32 21 33
REMARK SMILES IDX 22 34 23 35 73 36 24 37 78 38 72 39 74 40 25 41 77 42 71 43
REMARK SMILES IDX 70 44 26 46 58 47 38 48 57 49 39 50 42 51 56 52 75 53 40 54
REMARK SMILES IDX 41 55 55 57 76 58 43 59 27 60 28 61 36 62 29 63 31 64 37 65
REMARK SMILES IDX 30 66 32 67 33 68 34 69 35 70 59 71 60 72 68 73 61 74 63 75
REMARK SMILES IDX 69 76 62 77 64 78 65 79 66 80 67 81 44 82 45 83 53 84 46 85
REMARK SMILES IDX 48 86 54 87 47 88 49 89 50 90 51 91 52 92
REMARK H PARENT 74 45 42 56
REMARK Flexibility Score: inf
ROOT
ATOM      1  O   UNL A   1      38.365  23.365  26.475  1.00  0.00    -0.374 OA
ENDROOT
BRANCH   1   2
ATOM      2  C   UNL A   1      37.520  22.621  25.618  1.00  0.00     0.202 C 
BRANCH   2   3
ATOM      3  C   UNL A   1      36.359  23.517  25.268  1.00  0.00     0.261 C 
BRANCH   3   4
ATOM      4  O   UNL A   1      35.362  23.538  26.318  1.00  0.00    -0.460 OA
BRANCH   4   5
ATOM      5  C   UNL A   1      34.351  22.631  26.306  1.00  0.00     0.342 C 
ATOM      6  O   UNL A   1      34.041  21.863  27.189  1.00  0.00    -0.246 OA
BRANCH   5   7
ATOM      7  C   UNL A   1      33.545  22.754  25.072  1.00  0.00     0.102 A 
ATOM      8  C   UNL A   1      30.607  24.670  23.603  1.00  0.00     0.048 C 
ATOM      9  C   UNL A   1      31.723  23.682  23.784  1.00  0.00    -0.008 A 
ATOM     10  C   UNL A   1      31.708  22.523  22.986  1.00  0.00     0.007 A 
ATOM     11  C   UNL A   1      32.683  23.831  24.802  1.00  0.00     0.136 A 
ATOM     12  C   UNL A   1      32.592  21.478  23.226  1.00  0.00     0.001 A 
ATOM     13  C   UNL A   1      33.501  21.590  24.271  1.00  0.00     0.019 A 
BRANCH  11  14
ATOM     14  O   UNL A   1      32.493  24.873  25.669  1.00  0.00    -0.492 OA
BRANCH  14  15
ATOM     15  C   UNL A   1      33.266  26.084  25.583  1.00  0.00     0.233 C 
BRANCH  15  16
ATOM     16  C   UNL A   1      32.812  27.379  26.271  1.00  0.00     0.030 C 
ATOM     17  C   UNL A   1      31.430  27.867  25.744  1.00  0.00     0.011 C 
ATOM     18  C   UNL A   1      33.695  28.611  25.956  1.00  0.00    -0.004 C 
ATOM     19  C   UNL A   1      31.680  29.344  25.386  1.00  0.00    -0.010 C 
ATOM     20  C   UNL A   1      33.415  29.675  27.024  1.00  0.00     0.004 C 
ATOM     21  C   UNL A   1      33.044  29.241  24.721  1.00  0.00     0.007 C 
ATOM     22  C   UNL A   1      31.999  30.144  26.662  1.00  0.00     0.004 C 
ENDBRANCH  15  16
ENDBRANCH  14  15
ENDBRANCH  11  14
ENDBRANCH   5   7
ENDBRANCH   4   5
ENDBRANCH   3   4
ENDBRANCH   2   3
ENDBRANCH   1   2
BRANCH   1  23
ATOM     23  C   UNL A   1      39.605  22.791  26.819  1.00  0.00     0.202 C 
BRANCH  23  24
ATOM     24  C   UNL A   1      39.784  21.409  26.194  1.00  0.00     0.261 C 
BRANCH  24  25
ATOM     25  O   UNL A   1      40.827  20.683  26.879  1.00  0.00    -0.460 OA
BRANCH  25  26
ATOM     26  C   UNL A   1      42.052  20.718  26.276  1.00  0.00     0.338 C 
ATOM     27  O   UNL A   1      42.477  19.831  25.554  1.00  0.00    -0.246 OA
BRANCH  26  28
ATOM     28  C   UNL A   1      42.860  21.859  26.804  1.00  0.00     0.060 A 
ATOM     29  C   UNL A   1      42.771  22.218  28.159  1.00  0.00     0.016 A 
ATOM     30  C   UNL A   1      43.437  22.743  25.896  1.00  0.00     0.016 A 
ATOM     31  C   UNL A   1      43.071  23.528  28.563  1.00  0.00     0.010 A 
ATOM     32  C   UNL A   1      43.614  24.059  26.280  1.00  0.00     0.010 A 
ATOM     33  C   UNL A   1      43.380  24.481  27.605  1.00  0.00    -0.014 A 
BRANCH  33  34
ATOM     34  C   UNL A   1      43.571  25.920  27.833  1.00  0.00     0.031 A 
ATOM     35  C   UNL A   1      42.327  26.722  27.892  1.00  0.00     0.074 A 
ATOM     36  C   UNL A   1      44.708  26.431  28.373  1.00  0.00     0.049 A 
ATOM     37  N   UNL A   1      42.277  27.953  28.256  1.00  0.00    -0.248 NA
ATOM     38  C   UNL A   1      41.011  26.188  27.525  1.00  0.00     0.031 C 
ATOM     39  C   UNL A   1      44.790  27.451  29.430  1.00  0.00     0.029 A 
ATOM     40  N   UNL A   1      46.055  26.110  28.165  1.00  0.00    -0.354 N 
ATOM     41  C   UNL A   1      40.965  28.226  28.547  1.00  0.00     0.074 A 
ATOM     42  C   UNL A   1      40.206  27.171  27.933  1.00  0.00     0.031 C 
ATOM     43  C   UNL A   1      46.068  27.819  29.617  1.00  0.00     0.029 A 
ATOM     44  C   UNL A   1      46.840  27.207  28.556  1.00  0.00     0.049 A 
ATOM     45  H   UNL A   1      46.393  25.259  27.805  1.00  0.00     0.167 HD
ATOM     46  C   UNL A   1      40.705  29.233  29.418  1.00  0.00     0.034 A 
ATOM     47  C   UNL A   1      47.675  27.831  27.678  1.00  0.00     0.034 A 
ATOM     48  C   UNL A   1      41.915  30.042  29.655  1.00  0.00     0.049 A 
ATOM     49  C   UNL A   1      47.232  29.255  27.482  1.00  0.00     0.074 A 
ATOM     50  C   UNL A   1      42.779  30.182  30.726  1.00  0.00     0.029 A 
ATOM     51  N   UNL A   1      42.558  30.625  28.559  1.00  0.00    -0.354 N 
ATOM     52  N   UNL A   1      46.090  29.694  27.931  1.00  0.00    -0.248 NA
ATOM     53  C   UNL A   1      48.007  30.312  26.844  1.00  0.00     0.031 C 
ATOM     54  C   UNL A   1      43.993  30.750  30.232  1.00  0.00     0.029 A 
ATOM     55  C   UNL A   1      43.851  31.013  28.876  1.00  0.00     0.049 A 
ATOM     56  H   UNL A   1      42.145  30.745  27.674  1.00  0.00     0.167 HD
ATOM     57  C   UNL A   1      45.911  30.997  27.611  1.00  0.00     0.074 A 
ATOM     58  C   UNL A   1      47.164  31.357  26.962  1.00  0.00     0.031 C 
ATOM     59  C   UNL A   1      44.725  31.626  27.866  1.00  0.00     0.034 A 
BRANCH  46  60
ATOM     60  C   UNL A   1      39.403  29.411  30.174  1.00  0.00     0.023 A 
ATOM     61  C   UNL A   1      39.094  28.436  31.146  1.00  0.00     0.012 A 
ATOM     62  C   UNL A   1      38.414  30.407  29.950  1.00  0.00     0.148 A 
ATOM     63  C   UNL A   1      37.893  28.454  31.866  1.00  0.00     0.002 A 
ATOM     64  C   UNL A   1      37.249  30.468  30.724  1.00  0.00     0.091 A 
ATOM     65  F   UNL A   1      38.529  31.252  28.920  1.00  0.00    -0.205 F 
ATOM     66  C   UNL A   1      36.981  29.481  31.674  1.00  0.00     0.022 A 
BRANCH  64  67
ATOM     67  S   UNL A   1      36.049  31.809  30.582  1.00  0.00     0.127 S 
ATOM     68  O   UNL A   1      35.290  31.421  29.393  1.00  0.00    -0.237 OA
ATOM     69  O   UNL A   1      35.305  31.698  31.838  1.00  0.00    -0.237 OA
ATOM     70  O   UNL A   1      36.820  33.038  30.452  1.00  0.00    -0.744 OA
ENDBRANCH  64  67
ENDBRANCH  46  60
BRANCH  47  71
ATOM     71  C   UNL A   1      48.246  26.865  26.685  1.00  0.00     0.023 A 
ATOM     72  C   UNL A   1      47.613  26.851  25.414  1.00  0.00     0.012 A 
ATOM     73  C   UNL A   1      49.597  26.477  26.766  1.00  0.00     0.148 A 
ATOM     74  C   UNL A   1      48.347  26.645  24.244  1.00  0.00     0.002 A 
ATOM     75  C   UNL A   1      50.327  26.292  25.591  1.00  0.00     0.091 A 
ATOM     76  F   UNL A   1      50.163  26.388  27.977  1.00  0.00    -0.205 F 
ATOM     77  C   UNL A   1      49.715  26.422  24.331  1.00  0.00     0.022 A 
BRANCH  75  78
ATOM     78  S   UNL A   1      52.109  26.045  25.612  1.00  0.00     0.127 S 
ATOM     79  O   UNL A   1      52.210  24.667  26.086  1.00  0.00    -0.237 OA
ATOM     80  O   UNL A   1      52.473  26.231  24.206  1.00  0.00    -0.237 OA
ATOM     81  O   UNL A   1      52.631  27.067  26.506  1.00  0.00    -0.744 OA
ENDBRANCH  75  78
ENDBRANCH  47  71
BRANCH  59  82
ATOM     82  C   UNL A   1      44.308  32.894  27.164  1.00  0.00     0.023 A 
ATOM     83  C   UNL A   1      44.169  32.949  25.763  1.00  0.00     0.012 A 
ATOM     84  C   UNL A   1      43.884  34.030  27.893  1.00  0.00     0.148 A 
ATOM     85  C   UNL A   1      43.739  34.101  25.104  1.00  0.00     0.002 A 
ATOM     86  C   UNL A   1      43.333  35.127  27.241  1.00  0.00     0.091 A 
ATOM     87  F   UNL A   1      44.021  34.063  29.226  1.00  0.00    -0.205 F 
ATOM     88  C   UNL A   1      43.303  35.185  25.845  1.00  0.00     0.022 A 
BRANCH  86  89
ATOM     89  S   UNL A   1      42.500  36.435  28.146  1.00  0.00     0.127 S 
ATOM     90  O   UNL A   1      41.476  35.688  28.873  1.00  0.00    -0.237 OA
ATOM     91  O   UNL A   1      43.579  36.965  28.982  1.00  0.00    -0.237 OA
ATOM     92  O   UNL A   1      42.017  37.366  27.135  1.00  0.00    -0.744 OA
ENDBRANCH  86  89
ENDBRANCH  59  82
ENDBRANCH  33  34
ENDBRANCH  26  28
ENDBRANCH  25  26
ENDBRANCH  24  25
ENDBRANCH  23  24
ENDBRANCH   1  23
TORSDOF 20
ENDMDL
MODEL 2
REMARK VINA RESULT:     -10.9      4.985     10.717
REMARK SMILES Cc1cccc(C(=O)OCCOCCOC(=O)c2ccc(-c3c4nc(c(-c5cccc(S(=O)(=O)[O-])c5F)c5ccc([nH]5)c(-c5cccc(S(=O)(=O)[O-])c5F)c5nc(c(-c6cccc(S(=O)(=O)[O-])c6F)c6ccc3[nH]6)C=C5)C=C4)cc2)c1OC[C@@H]1C[C@H]2CC[C@@H]1C2
REMARK SMILES IDX 12 1 11 2 10 3 9 4 7 5 8 6 6 7 1 8 2 9 3 10 81 11 4 12 5 13
REMARK SMILES IDX 82 14 83 15 84 16 85 17 89 18 86 19 88 20 90 21 87 22 13 23
REMARK SMILES IDX 14 24 15 25 16 26 17 27 18 28 19 29 80 30 20 31 79 32 21 33
REMARK SMILES IDX 22 34 23 35 73 36 24 37 78 38 72 39 74 40 25 41 77 42 71 43
REMARK SMILES IDX 70 44 26 46 58 47 38 48 57 49 39 50 42 51 56 52 75 53 40 54
REMARK SMILES IDX 41 55 55 57 76 58 43 59 27 60 28 61 36 62 29 63 31 64 37 65
REMARK SMILES IDX 30 66 32 67 33 68 34 69 35 70 59 71 60 72 68 73 61 74 63 75
REMARK SMILES IDX 69 76 62 77 64 78 65 79 66 80 67 81 44 82 45 83 53 84 46 85
REMARK SMILES IDX 48 86 54 87 47 88 49 89 50 90 51 91 52 92
REMARK H PARENT 74 45 42 56
REMARK Flexibility Score: inf
ROOT
ATOM      1  O   UNL A   1      31.845  31.086  26.852  1.00  0.00    -0.374 OA
ENDROOT
BRANCH   1   2
ATOM      2  C   UNL A   1      31.946  29.989  25.965  1.00  0.00     0.202 C 
BRANCH   2   3
ATOM      3  C   UNL A   1      31.573  28.758  26.751  1.00  0.00     0.261 C 
BRANCH   3   4
ATOM      4  O   UNL A   1      32.225  27.573  26.234  1.00  0.00    -0.460 OA
BRANCH   4   5
ATOM      5  C   UNL A   1      33.487  27.658  25.740  1.00  0.00     0.342 C 
ATOM      6  O   UNL A   1      34.408  28.306  26.184  1.00  0.00    -0.246 OA
BRANCH   5   7
ATOM      7  C   UNL A   1      33.669  26.741  24.594  1.00  0.00     0.102 A 
ATOM      8  C   UNL A   1      32.189  25.873  21.200  1.00  0.00     0.048 C 
ATOM      9  C   UNL A   1      33.027  25.841  22.446  1.00  0.00    -0.008 A 
ATOM     10  C   UNL A   1      33.675  24.633  22.768  1.00  0.00     0.007 A 
ATOM     11  C   UNL A   1      33.068  26.928  23.337  1.00  0.00     0.136 A 
ATOM     12  C   UNL A   1      34.307  24.466  23.994  1.00  0.00     0.001 A 
ATOM     13  C   UNL A   1      34.297  25.514  24.907  1.00  0.00     0.019 A 
BRANCH  11  14
ATOM     14  O   UNL A   1      32.237  27.978  23.054  1.00  0.00    -0.492 OA
BRANCH  14  15
ATOM     15  C   UNL A   1      30.824  27.797  22.854  1.00  0.00     0.233 C 
BRANCH  15  16
ATOM     16  C   UNL A   1      29.798  28.796  23.409  1.00  0.00     0.030 C 
ATOM     17  C   UNL A   1      28.333  28.330  23.158  1.00  0.00     0.011 C 
ATOM     18  C   UNL A   1      29.795  30.168  22.692  1.00  0.00    -0.004 C 
ATOM     19  C   UNL A   1      27.667  29.560  22.513  1.00  0.00    -0.010 C 
ATOM     20  C   UNL A   1      29.083  31.173  23.607  1.00  0.00     0.004 C 
ATOM     21  C   UNL A   1      28.770  30.006  21.565  1.00  0.00     0.007 C 
ATOM     22  C   UNL A   1      27.619  30.719  23.525  1.00  0.00     0.004 C 
ENDBRANCH  15  16
ENDBRANCH  14  15
ENDBRANCH  11  14
ENDBRANCH   5   7
ENDBRANCH   4   5
ENDBRANCH   3   4
ENDBRANCH   2   3
ENDBRANCH   1   2
BRANCH   1  23
ATOM     23  C   UNL A   1      33.046  31.658  27.314  1.00  0.00     0.202 C 
BRANCH  23  24
ATOM     24  C   UNL A   1      32.911  33.164  27.533  1.00  0.00     0.261 C 
BRANCH  24  25
ATOM     25  O   UNL A   1      34.156  33.711  28.020  1.00  0.00    -0.460 OA
BRANCH  25  26
ATOM     26  C   UNL A   1      34.168  34.037  29.347  1.00  0.00     0.338 C 
ATOM     27  O   UNL A   1      33.236  34.578  29.919  1.00  0.00    -0.246 OA
BRANCH  26  28
ATOM     28  C   UNL A   1      35.537  33.851  29.915  1.00  0.00     0.060 A 
ATOM     29  C   UNL A   1      36.649  33.760  29.061  1.00  0.00     0.016 A 
ATOM     30  C   UNL A   1      35.659  33.454  31.244  1.00  0.00     0.016 A 
ATOM     31  C   UNL A   1      37.808  33.090  29.481  1.00  0.00     0.010 A 
ATOM     32  C   UNL A   1      36.754  32.693  31.607  1.00  0.00     0.010 A 
ATOM     33  C   UNL A   1      37.817  32.454  30.712  1.00  0.00    -0.014 A 
BRANCH  33  34
ATOM     34  C   UNL A   1      38.879  31.587  31.240  1.00  0.00     0.031 A 
ATOM     35  C   UNL A   1      39.019  30.274  30.568  1.00  0.00     0.074 A 
ATOM     36  C   UNL A   1      39.924  32.068  31.966  1.00  0.00     0.049 A 
ATOM     37  N   UNL A   1      39.993  29.460  30.766  1.00  0.00    -0.248 NA
ATOM     38  C   UNL A   1      38.040  29.761  29.604  1.00  0.00     0.031 C 
ATOM     39  C   UNL A   1      41.341  31.712  31.796  1.00  0.00     0.029 A 
ATOM     40  N   UNL A   1      39.980  33.040  32.971  1.00  0.00    -0.354 N 
ATOM     41  C   UNL A   1      39.983  28.570  29.723  1.00  0.00     0.074 A 
ATOM     42  C   UNL A   1      38.681  28.690  29.126  1.00  0.00     0.031 C 
ATOM     43  C   UNL A   1      42.075  32.267  32.773  1.00  0.00     0.029 A 
ATOM     44  C   UNL A   1      41.145  32.833  33.727  1.00  0.00     0.049 A 
ATOM     45  H   UNL A   1      39.314  33.750  33.121  1.00  0.00     0.167 HD
ATOM     46  C   UNL A   1      41.150  27.960  29.399  1.00  0.00     0.034 A 
ATOM     47  C   UNL A   1      41.086  32.590  35.067  1.00  0.00     0.034 A 
ATOM     48  C   UNL A   1      42.158  28.168  30.455  1.00  0.00     0.049 A 
ATOM     49  C   UNL A   1      41.630  31.217  35.358  1.00  0.00     0.074 A 
ATOM     50  C   UNL A   1      43.309  28.928  30.545  1.00  0.00     0.029 A 
ATOM     51  N   UNL A   1      41.853  27.768  31.760  1.00  0.00    -0.354 N 
ATOM     52  N   UNL A   1      41.886  30.359  34.411  1.00  0.00    -0.248 NA
ATOM     53  C   UNL A   1      41.987  30.700  36.672  1.00  0.00     0.031 C 
ATOM     54  C   UNL A   1      43.623  29.078  31.931  1.00  0.00     0.029 A 
ATOM     55  C   UNL A   1      42.703  28.360  32.683  1.00  0.00     0.049 A 
ATOM     56  H   UNL A   1      41.127  27.146  31.995  1.00  0.00     0.167 HD
ATOM     57  C   UNL A   1      42.344  29.194  34.924  1.00  0.00     0.074 A 
ATOM     58  C   UNL A   1      42.431  29.468  36.351  1.00  0.00     0.031 C 
ATOM     59  C   UNL A   1      42.549  28.106  34.122  1.00  0.00     0.034 A 
BRANCH  46  60
ATOM     60  C   UNL A   1      41.440  27.296  28.067  1.00  0.00     0.023 A 
ATOM     61  C   UNL A   1      41.400  28.122  26.923  1.00  0.00     0.012 A 
ATOM     62  C   UNL A   1      41.664  25.912  27.832  1.00  0.00     0.148 A 
ATOM     63  C   UNL A   1      41.588  27.617  25.631  1.00  0.00     0.002 A 
ATOM     64  C   UNL A   1      41.929  25.422  26.548  1.00  0.00     0.091 A 
ATOM     65  F   UNL A   1      41.525  25.029  28.826  1.00  0.00    -0.205 F 
ATOM     66  C   UNL A   1      41.876  26.273  25.443  1.00  0.00     0.022 A 
BRANCH  64  67
ATOM     67  S   UNL A   1      42.378  23.702  26.230  1.00  0.00     0.127 S 
ATOM     68  O   UNL A   1      42.965  23.777  24.893  1.00  0.00    -0.237 OA
ATOM     69  O   UNL A   1      43.339  23.427  27.299  1.00  0.00    -0.237 OA
ATOM     70  O   UNL A   1      41.144  22.932  26.325  1.00  0.00    -0.744 OA
ENDBRANCH  64  67
ENDBRANCH  46  60
BRANCH  47  71
ATOM     71  C   UNL A   1      39.943  33.317  35.706  1.00  0.00     0.023 A 
ATOM     72  C   UNL A   1      38.772  32.543  35.922  1.00  0.00     0.012 A 
ATOM     73  C   UNL A   1      40.182  34.420  36.547  1.00  0.00     0.148 A 
ATOM     74  C   UNL A   1      37.972  32.742  37.050  1.00  0.00     0.002 A 
ATOM     75  C   UNL A   1      39.390  34.600  37.682  1.00  0.00     0.091 A 
ATOM     76  F   UNL A   1      41.229  35.212  36.278  1.00  0.00    -0.205 F 
ATOM     77  C   UNL A   1      38.316  33.735  37.959  1.00  0.00     0.022 A 
BRANCH  75  78
ATOM     78  S   UNL A   1      39.791  35.830  38.932  1.00  0.00     0.127 S 
ATOM     79  O   UNL A   1      39.576  37.075  38.199  1.00  0.00    -0.237 OA
ATOM     80  O   UNL A   1      38.797  35.560  39.974  1.00  0.00    -0.237 OA
ATOM     81  O   UNL A   1      41.162  35.550  39.326  1.00  0.00    -0.744 OA
ENDBRANCH  75  78
ENDBRANCH  47  71
BRANCH  59  82
ATOM     82  C   UNL A   1      42.626  26.699  34.662  1.00  0.00     0.023 A 
ATOM     83  C   UNL A   1      41.532  26.101  35.318  1.00  0.00     0.012 A 
ATOM     84  C   UNL A   1      43.739  25.869  34.387  1.00  0.00     0.148 A 
ATOM     85  C   UNL A   1      41.572  24.786  35.780  1.00  0.00     0.002 A 
ATOM     86  C   UNL A   1      43.721  24.523  34.733  1.00  0.00     0.091 A 
ATOM     87  F   UNL A   1      44.829  26.379  33.799  1.00  0.00    -0.205 F 
ATOM     88  C   UNL A   1      42.661  23.990  35.471  1.00  0.00     0.022 A 
BRANCH  86  89
ATOM     89  S   UNL A   1      44.966  23.382  34.122  1.00  0.00     0.127 S 
ATOM     90  O   UNL A   1      44.536  22.122  34.725  1.00  0.00    -0.237 OA
ATOM     91  O   UNL A   1      44.772  23.463  32.673  1.00  0.00    -0.237 OA
ATOM     92  O   UNL A   1      46.243  23.909  34.583  1.00  0.00    -0.744 OA
ENDBRANCH  86  89
ENDBRANCH  59  82
ENDBRANCH  33  34
ENDBRANCH  26  28
ENDBRANCH  25  26
ENDBRANCH  24  25
ENDBRANCH  23  24
ENDBRANCH   1  23
TORSDOF 20
ENDMDL
MODEL 3
REMARK VINA RESULT:     -10.8      4.811     10.770
REMARK SMILES Cc1cccc(C(=O)OCCOCCOC(=O)c2ccc(-c3c4nc(c(-c5cccc(S(=O)(=O)[O-])c5F)c5ccc([nH]5)c(-c5cccc(S(=O)(=O)[O-])c5F)c5nc(c(-c6cccc(S(=O)(=O)[O-])c6F)c6ccc3[nH]6)C=C5)C=C4)cc2)c1OC[C@@H]1C[C@H]2CC[C@@H]1C2
REMARK SMILES IDX 12 1 11 2 10 3 9 4 7 5 8 6 6 7 1 8 2 9 3 10 81 11 4 12 5 13
REMARK SMILES IDX 82 14 83 15 84 16 85 17 89 18 86 19 88 20 90 21 87 22 13 23
REMARK SMILES IDX 14 24 15 25 16 26 17 27 18 28 19 29 80 30 20 31 79 32 21 33
REMARK SMILES IDX 22 34 23 35 73 36 24 37 78 38 72 39 74 40 25 41 77 42 71 43
REMARK SMILES IDX 70 44 26 46 58 47 38 48 57 49 39 50 42 51 56 52 75 53 40 54
REMARK SMILES IDX 41 55 55 57 76 58 43 59 27 60 28 61 36 62 29 63 31 64 37 65
REMARK SMILES IDX 30 66 32 67 33 68 34 69 35 70 59 71 60 72 68 73 61 74 63 75
REMARK SMILES IDX 69 76 62 77 64 78 65 79 66 80 67 81 44 82 45 83 53 84 46 85
REMARK SMILES IDX 48 86 54 87 47 88 49 89 50 90 51 91 52 92
REMARK H PARENT 74 45 42 56
REMARK Flexibility Score: inf
ROOT
ATOM      1  O   UNL A   1      34.412  30.204  27.022  1.00  0.00    -0.374 OA
ENDROOT
BRANCH   1   2
ATOM      2  C   UNL A   1      34.856  28.874  27.212  1.00  0.00     0.202 C 
BRANCH   2   3
ATOM      3  C   UNL A   1      33.999  28.000  26.333  1.00  0.00     0.261 C 
BRANCH   3   4
ATOM      4  O   UNL A   1      32.630  28.469  26.280  1.00  0.00    -0.460 OA
BRANCH   4   5
ATOM      5  C   UNL A   1      31.618  27.642  26.649  1.00  0.00     0.342 C 
ATOM      6  O   UNL A   1      31.208  27.435  27.769  1.00  0.00    -0.246 OA
BRANCH   5   7
ATOM      7  C   UNL A   1      30.952  27.060  25.463  1.00  0.00     0.102 A 
ATOM      8  C   UNL A   1      30.788  23.873  23.395  1.00  0.00     0.048 C 
ATOM      9  C   UNL A   1      30.584  25.284  23.866  1.00  0.00    -0.008 A 
ATOM     10  C   UNL A   1      30.149  26.234  22.923  1.00  0.00     0.007 A 
ATOM     11  C   UNL A   1      30.937  25.685  25.168  1.00  0.00     0.136 A 
ATOM     12  C   UNL A   1      30.123  27.588  23.233  1.00  0.00     0.001 A 
ATOM     13  C   UNL A   1      30.531  28.000  24.495  1.00  0.00     0.019 A 
BRANCH  11  14
ATOM     14  O   UNL A   1      31.555  24.746  25.948  1.00  0.00    -0.492 OA
BRANCH  14  15
ATOM     15  C   UNL A   1      32.985  24.584  25.955  1.00  0.00     0.233 C 
BRANCH  15  16
ATOM     16  C   UNL A   1      33.637  23.195  25.973  1.00  0.00     0.030 C 
ATOM     17  C   UNL A   1      35.095  23.241  26.519  1.00  0.00     0.011 C 
ATOM     18  C   UNL A   1      33.870  22.583  24.570  1.00  0.00    -0.004 C 
ATOM     19  C   UNL A   1      35.907  22.491  25.447  1.00  0.00    -0.010 C 
ATOM     20  C   UNL A   1      34.088  21.075  24.746  1.00  0.00     0.004 C 
ATOM     21  C   UNL A   1      35.276  23.050  24.180  1.00  0.00     0.007 C 
ATOM     22  C   UNL A   1      35.474  21.013  25.402  1.00  0.00     0.004 C 
ENDBRANCH  15  16
ENDBRANCH  14  15
ENDBRANCH  11  14
ENDBRANCH   5   7
ENDBRANCH   4   5
ENDBRANCH   3   4
ENDBRANCH   2   3
ENDBRANCH   1   2
BRANCH   1  23
ATOM     23  C   UNL A   1      34.909  31.184  27.903  1.00  0.00     0.202 C 
BRANCH  23  24
ATOM     24  C   UNL A   1      33.823  32.173  28.324  1.00  0.00     0.261 C 
BRANCH  24  25
ATOM     25  O   UNL A   1      34.272  33.528  28.112  1.00  0.00    -0.460 OA
BRANCH  25  26
ATOM     26  C   UNL A   1      34.367  34.292  29.241  1.00  0.00     0.338 C 
ATOM     27  O   UNL A   1      33.558  35.154  29.545  1.00  0.00    -0.246 OA
BRANCH  26  28
ATOM     28  C   UNL A   1      35.690  34.081  29.903  1.00  0.00     0.060 A 
ATOM     29  C   UNL A   1      36.871  34.113  29.143  1.00  0.00     0.016 A 
ATOM     30  C   UNL A   1      35.715  33.546  31.188  1.00  0.00     0.016 A 
ATOM     31  C   UNL A   1      38.014  33.431  29.588  1.00  0.00     0.010 A 
ATOM     32  C   UNL A   1      36.801  32.779  31.561  1.00  0.00     0.010 A 
ATOM     33  C   UNL A   1      37.943  32.666  30.741  1.00  0.00    -0.014 A 
BRANCH  33  34
ATOM     34  C   UNL A   1      38.988  31.775  31.264  1.00  0.00     0.031 A 
ATOM     35  C   UNL A   1      39.140  30.487  30.548  1.00  0.00     0.074 A 
ATOM     36  C   UNL A   1      40.014  32.223  32.034  1.00  0.00     0.049 A 
ATOM     37  N   UNL A   1      40.105  29.661  30.741  1.00  0.00    -0.248 NA
ATOM     38  C   UNL A   1      38.185  30.014  29.540  1.00  0.00     0.031 C 
ATOM     39  C   UNL A   1      41.434  31.867  31.889  1.00  0.00     0.029 A 
ATOM     40  N   UNL A   1      40.047  33.157  33.076  1.00  0.00    -0.354 N 
ATOM     41  C   UNL A   1      40.118  28.811  29.665  1.00  0.00     0.074 A 
ATOM     42  C   UNL A   1      38.833  28.959  29.040  1.00  0.00     0.031 C 
ATOM     43  C   UNL A   1      42.145  32.382  32.905  1.00  0.00     0.029 A 
ATOM     44  C   UNL A   1      41.191  32.916  33.855  1.00  0.00     0.049 A 
ATOM     45  H   UNL A   1      39.381  33.864  33.235  1.00  0.00     0.167 HD
ATOM     46  C   UNL A   1      41.291  28.206  29.350  1.00  0.00     0.034 A 
ATOM     47  C   UNL A   1      41.096  32.624  35.183  1.00  0.00     0.034 A 
ATOM     48  C   UNL A   1      42.271  28.370  30.439  1.00  0.00     0.049 A 
ATOM     49  C   UNL A   1      41.627  31.239  35.436  1.00  0.00     0.074 A 
ATOM     50  C   UNL A   1      43.423  29.121  30.587  1.00  0.00     0.029 A 
ATOM     51  N   UNL A   1      41.931  27.924  31.720  1.00  0.00    -0.354 N 
ATOM     52  N   UNL A   1      41.905  30.415  34.465  1.00  0.00    -0.248 NA
ATOM     53  C   UNL A   1      41.947  30.671  36.739  1.00  0.00     0.031 C 
ATOM     54  C   UNL A   1      43.701  29.218  31.985  1.00  0.00     0.029 A 
ATOM     55  C   UNL A   1      42.758  28.477  32.686  1.00  0.00     0.049 A 
ATOM     56  H   UNL A   1      41.197  27.297  31.912  1.00  0.00     0.167 HD
ATOM     57  C   UNL A   1      42.344  29.229  34.947  1.00  0.00     0.074 A 
ATOM     58  C   UNL A   1      42.394  29.449  36.385  1.00  0.00     0.031 C 
ATOM     59  C   UNL A   1      42.566  28.171  34.110  1.00  0.00     0.034 A 
BRANCH  46  60
ATOM     60  C   UNL A   1      41.614  27.591  28.002  1.00  0.00     0.023 A 
ATOM     61  C   UNL A   1      41.577  28.453  26.885  1.00  0.00     0.012 A 
ATOM     62  C   UNL A   1      41.865  26.220  27.727  1.00  0.00     0.148 A 
ATOM     63  C   UNL A   1      41.794  27.993  25.580  1.00  0.00     0.002 A 
ATOM     64  C   UNL A   1      42.159  25.776  26.432  1.00  0.00     0.091 A 
ATOM     65  F   UNL A   1      41.727  25.303  28.689  1.00  0.00    -0.205 F 
ATOM     66  C   UNL A   1      42.109  26.661  25.354  1.00  0.00     0.022 A 
BRANCH  64  67
ATOM     67  S   UNL A   1      42.643  24.075  26.067  1.00  0.00     0.127 S 
ATOM     68  O   UNL A   1      43.664  23.819  27.082  1.00  0.00    -0.237 OA
ATOM     69  O   UNL A   1      41.392  23.343  26.269  1.00  0.00    -0.237 OA
ATOM     70  O   UNL A   1      43.121  24.072  24.690  1.00  0.00    -0.744 OA
ENDBRANCH  64  67
ENDBRANCH  46  60
BRANCH  47  71
ATOM     71  C   UNL A   1      39.939  33.333  35.818  1.00  0.00     0.023 A 
ATOM     72  C   UNL A   1      38.793  32.531  36.064  1.00  0.00     0.012 A 
ATOM     73  C   UNL A   1      40.156  34.460  36.632  1.00  0.00     0.148 A 
ATOM     74  C   UNL A   1      38.000  32.732  37.196  1.00  0.00     0.002 A 
ATOM     75  C   UNL A   1      39.371  34.643  37.771  1.00  0.00     0.091 A 
ATOM     76  F   UNL A   1      41.177  35.275  36.334  1.00  0.00    -0.205 F 
ATOM     77  C   UNL A   1      38.325  33.754  38.079  1.00  0.00     0.022 A 
BRANCH  75  78
ATOM     78  S   UNL A   1      39.750  35.911  38.989  1.00  0.00     0.127 S 
ATOM     79  O   UNL A   1      38.742  35.648  40.013  1.00  0.00    -0.237 OA
ATOM     80  O   UNL A   1      41.119  35.574  39.385  1.00  0.00    -0.237 OA
ATOM     81  O   UNL A   1      39.626  37.177  38.283  1.00  0.00    -0.744 OA
ENDBRANCH  75  78
ENDBRANCH  47  71
BRANCH  59  82
ATOM     82  C   UNL A   1      42.623  26.744  34.599  1.00  0.00     0.023 A 
ATOM     83  C   UNL A   1      41.549  26.163  35.302  1.00  0.00     0.012 A 
ATOM     84  C   UNL A   1      43.685  25.885  34.230  1.00  0.00     0.148 A 
ATOM     85  C   UNL A   1      41.568  24.832  35.718  1.00  0.00     0.002 A 
ATOM     86  C   UNL A   1      43.639  24.530  34.534  1.00  0.00     0.091 A 
ATOM     87  F   UNL A   1      44.756  26.377  33.593  1.00  0.00    -0.205 F 
ATOM     88  C   UNL A   1      42.606  24.009  35.317  1.00  0.00     0.022 A 
BRANCH  86  89
ATOM     89  S   UNL A   1      44.802  23.367  33.811  1.00  0.00     0.127 S 
ATOM     90  O   UNL A   1      44.530  23.524  32.384  1.00  0.00    -0.237 OA
ATOM     91  O   UNL A   1      46.089  23.908  34.251  1.00  0.00    -0.237 OA
ATOM     92  O   UNL A   1      44.470  22.071  34.388  1.00  0.00    -0.744 OA
ENDBRANCH  86  89
ENDBRANCH  59  82
ENDBRANCH  33  34
ENDBRANCH  26  28
ENDBRANCH  25  26
ENDBRANCH  24  25
ENDBRANCH  23  24
ENDBRANCH   1  23
TORSDOF 20
ENDMDL
