MODEL 1
REMARK VINA RESULT:     -11.8      0.000      0.000
REMARK SMILES O=C(OCCOCCOC(=O)c1ccc(N2C(=O)[C@@H]3CC=CC[C@H]3C2=O)cc1Cl)c1ccc(-c2c3nc(c(-c4cccc(S(=O)(=O)[O-])c4F)c4ccc([nH]4)c(-c4cccc(S(=O)(=O)[O-])c4F)c4nc(c(-c5cccc(S(=O)(=O)[O-])c5F)c5ccc2[nH]5)C=C4)C=C3)cc1
REMARK SMILES IDX 5 1 4 2 3 3 2 4 1 5 30 6 31 7 92 8 32 9 91 10 33 11 34 12
REMARK SMILES IDX 35 13 85 14 36 15 90 16 84 17 86 18 37 19 89 20 83 21 82 22
REMARK SMILES IDX 38 24 70 25 50 26 69 27 51 28 54 29 68 30 87 31 52 32 53 33
REMARK SMILES IDX 67 35 88 36 55 37 39 38 40 39 48 40 41 41 43 42 49 43 42 44
REMARK SMILES IDX 44 45 45 46 46 47 47 48 71 49 72 50 80 51 73 52 75 53 81 54
REMARK SMILES IDX 74 55 76 56 77 57 78 58 79 59 56 60 57 61 65 62 58 63 60 64
REMARK SMILES IDX 66 65 59 66 61 67 62 68 63 69 64 70 6 71 7 72 8 73 9 74
REMARK SMILES IDX 10 75 11 76 12 77 13 78 28 79 14 80 27 81 29 82 15 83 16 84
REMARK SMILES IDX 17 85 25 86 18 87 19 88 24 89 26 90 20 91 23 92 21 93 22 94
REMARK H PARENT 86 23 54 34
REMARK Flexibility Score: inf
ROOT
ATOM      1  C   UNL A   1      37.682  20.634  25.360  1.00  0.00     0.202 C 
ENDROOT
BRANCH   1   2
ATOM      2  C   UNL A   1      38.860  19.658  25.329  1.00  0.00     0.261 C 
BRANCH   2   3
ATOM      3  O   UNL A   1      39.541  19.662  26.590  1.00  0.00    -0.460 OA
BRANCH   3   4
ATOM      4  C   UNL A   1      40.766  20.156  26.877  1.00  0.00     0.338 C 
ATOM      5  O   UNL A   1      41.694  19.360  27.013  1.00  0.00    -0.246 OA
BRANCH   4   6
ATOM      6  C   UNL A   1      41.060  21.614  27.034  1.00  0.00     0.060 A 
ATOM      7  C   UNL A   1      40.562  22.634  26.215  1.00  0.00     0.016 A 
ATOM      8  C   UNL A   1      41.818  21.984  28.156  1.00  0.00     0.016 A 
ATOM      9  C   UNL A   1      40.818  23.970  26.469  1.00  0.00     0.010 A 
ATOM     10  C   UNL A   1      42.073  23.327  28.431  1.00  0.00     0.010 A 
ATOM     11  C   UNL A   1      41.578  24.317  27.576  1.00  0.00    -0.014 A 
BRANCH  11  12
ATOM     12  C   UNL A   1      41.950  25.724  27.737  1.00  0.00     0.031 A 
ATOM     13  C   UNL A   1      43.300  26.141  27.260  1.00  0.00     0.074 A 
ATOM     14  C   UNL A   1      41.062  26.591  28.248  1.00  0.00     0.049 A 
ATOM     15  N   UNL A   1      43.910  27.280  27.407  1.00  0.00    -0.248 NA
ATOM     16  C   UNL A   1      44.065  25.130  26.507  1.00  0.00     0.031 C 
ATOM     17  C   UNL A   1      39.688  26.261  28.632  1.00  0.00     0.029 A 
ATOM     18  N   UNL A   1      41.189  27.918  28.551  1.00  0.00    -0.354 N 
ATOM     19  C   UNL A   1      45.161  27.104  26.831  1.00  0.00     0.074 A 
ATOM     20  C   UNL A   1      45.210  25.761  26.301  1.00  0.00     0.031 C 
ATOM     21  C   UNL A   1      39.110  27.350  29.161  1.00  0.00     0.029 A 
ATOM     22  C   UNL A   1      40.095  28.424  29.212  1.00  0.00     0.049 A 
ATOM     23  H   UNL A   1      41.981  28.455  28.322  1.00  0.00     0.167 HD
ATOM     24  C   UNL A   1      46.179  27.989  26.780  1.00  0.00     0.034 A 
ATOM     25  C   UNL A   1      39.946  29.603  29.842  1.00  0.00     0.034 A 
ATOM     26  C   UNL A   1      46.082  29.311  27.330  1.00  0.00     0.049 A 
ATOM     27  C   UNL A   1      41.104  30.561  29.812  1.00  0.00     0.074 A 
ATOM     28  C   UNL A   1      47.037  30.306  27.367  1.00  0.00     0.029 A 
ATOM     29  N   UNL A   1      44.949  29.809  27.963  1.00  0.00    -0.354 N 
ATOM     30  N   UNL A   1      42.282  30.407  29.251  1.00  0.00    -0.248 NA
ATOM     31  C   UNL A   1      40.921  31.855  30.479  1.00  0.00     0.031 C 
ATOM     32  C   UNL A   1      46.492  31.395  28.055  1.00  0.00     0.029 A 
ATOM     33  C   UNL A   1      45.181  31.095  28.406  1.00  0.00     0.049 A 
ATOM     34  H   UNL A   1      44.104  29.317  28.078  1.00  0.00     0.167 HD
ATOM     35  C   UNL A   1      42.971  31.591  29.468  1.00  0.00     0.074 A 
ATOM     36  C   UNL A   1      42.073  32.458  30.209  1.00  0.00     0.031 C 
ATOM     37  C   UNL A   1      44.230  31.934  29.097  1.00  0.00     0.034 A 
BRANCH  24  38
ATOM     38  C   UNL A   1      47.470  27.509  26.175  1.00  0.00     0.023 A 
ATOM     39  C   UNL A   1      47.759  27.759  24.818  1.00  0.00     0.012 A 
ATOM     40  C   UNL A   1      48.374  26.753  26.945  1.00  0.00     0.148 A 
ATOM     41  C   UNL A   1      48.897  27.213  24.223  1.00  0.00     0.002 A 
ATOM     42  C   UNL A   1      49.529  26.252  26.358  1.00  0.00     0.091 A 
ATOM     43  F   UNL A   1      48.066  26.496  28.225  1.00  0.00    -0.205 F 
ATOM     44  C   UNL A   1      49.783  26.465  24.994  1.00  0.00     0.022 A 
BRANCH  42  45
ATOM     45  S   UNL A   1      50.758  25.330  27.287  1.00  0.00     0.127 S 
ATOM     46  O   UNL A   1      49.957  24.237  27.835  1.00  0.00    -0.237 OA
ATOM     47  O   UNL A   1      51.698  24.930  26.239  1.00  0.00    -0.237 OA
ATOM     48  O   UNL A   1      51.303  26.262  28.263  1.00  0.00    -0.744 OA
ENDBRANCH  42  45
ENDBRANCH  24  38
BRANCH  25  49
ATOM     49  C   UNL A   1      38.670  29.901  30.551  1.00  0.00     0.023 A 
ATOM     50  C   UNL A   1      38.469  29.434  31.863  1.00  0.00     0.012 A 
ATOM     51  C   UNL A   1      37.689  30.725  29.958  1.00  0.00     0.148 A 
ATOM     52  C   UNL A   1      37.311  29.771  32.567  1.00  0.00     0.002 A 
ATOM     53  C   UNL A   1      36.565  31.102  30.685  1.00  0.00     0.091 A 
ATOM     54  F   UNL A   1      37.894  31.151  28.705  1.00  0.00    -0.205 F 
ATOM     55  C   UNL A   1      36.367  30.615  31.985  1.00  0.00     0.022 A 
BRANCH  53  56
ATOM     56  S   UNL A   1      35.366  32.290  30.066  1.00  0.00     0.127 S 
ATOM     57  O   UNL A   1      34.445  32.397  31.194  1.00  0.00    -0.237 OA
ATOM     58  O   UNL A   1      36.202  33.468  29.839  1.00  0.00    -0.237 OA
ATOM     59  O   UNL A   1      34.812  31.700  28.855  1.00  0.00    -0.744 OA
ENDBRANCH  53  56
ENDBRANCH  25  49
BRANCH  37  60
ATOM     60  C   UNL A   1      44.699  33.321  29.434  1.00  0.00     0.023 A 
ATOM     61  C   UNL A   1      45.390  33.558  30.635  1.00  0.00     0.012 A 
ATOM     62  C   UNL A   1      44.581  34.347  28.476  1.00  0.00     0.148 A 
ATOM     63  C   UNL A   1      45.956  34.807  30.883  1.00  0.00     0.002 A 
ATOM     64  C   UNL A   1      45.193  35.569  28.706  1.00  0.00     0.091 A 
ATOM     65  F   UNL A   1      43.901  34.093  27.348  1.00  0.00    -0.205 F 
ATOM     66  C   UNL A   1      45.874  35.805  29.912  1.00  0.00     0.022 A 
BRANCH  64  67
ATOM     67  S   UNL A   1      45.241  36.867  27.466  1.00  0.00     0.127 S 
ATOM     68  O   UNL A   1      43.820  37.124  27.250  1.00  0.00    -0.237 OA
ATOM     69  O   UNL A   1      45.957  37.934  28.165  1.00  0.00    -0.237 OA
ATOM     70  O   UNL A   1      45.952  36.309  26.323  1.00  0.00    -0.744 OA
ENDBRANCH  64  67
ENDBRANCH  37  60
ENDBRANCH  11  12
ENDBRANCH   4   6
ENDBRANCH   3   4
ENDBRANCH   2   3
ENDBRANCH   1   2
BRANCH   1  71
ATOM     71  O   UNL A   1      36.529  20.220  24.630  1.00  0.00    -0.374 OA
BRANCH  71  72
ATOM     72  C   UNL A   1      35.259  20.621  25.162  1.00  0.00     0.202 C 
BRANCH  72  73
ATOM     73  C   UNL A   1      35.485  21.617  26.297  1.00  0.00     0.261 C 
BRANCH  73  74
ATOM     74  O   UNL A   1      34.699  22.777  25.997  1.00  0.00    -0.460 OA
BRANCH  74  75
ATOM     75  C   UNL A   1      35.396  23.828  25.494  1.00  0.00     0.339 C 
ATOM     76  O   UNL A   1      36.589  23.943  25.354  1.00  0.00    -0.246 OA
BRANCH  75  77
ATOM     77  C   UNL A   1      34.416  24.748  24.890  1.00  0.00     0.078 A 
ATOM     78  C   UNL A   1      34.066  25.890  25.640  1.00  0.00     0.019 A 
ATOM     79  C   UNL A   1      33.855  24.535  23.634  1.00  0.00     0.057 A 
ATOM     80  C   UNL A   1      33.160  26.827  25.136  1.00  0.00     0.028 A 
ATOM     81  C   UNL A   1      32.912  25.440  23.162  1.00  0.00     0.048 A 
ATOM     82  Cl  UNL A   1      34.182  23.159  22.645  1.00  0.00    -0.083 Cl
ATOM     83  C   UNL A   1      32.539  26.562  23.919  1.00  0.00     0.053 A 
BRANCH  83  84
ATOM     84  N   UNL A   1      31.400  27.269  23.518  1.00  0.00    -0.250 N 
ATOM     85  C   UNL A   1      30.079  26.929  23.760  1.00  0.00     0.238 C 
ATOM     86  C   UNL A   1      31.514  28.428  22.770  1.00  0.00     0.238 C 
ATOM     87  O   UNL A   1      29.611  25.901  24.216  1.00  0.00    -0.274 OA
ATOM     88  C   UNL A   1      29.322  28.207  23.488  1.00  0.00     0.096 C 
ATOM     89  C   UNL A   1      30.132  28.764  22.329  1.00  0.00     0.096 C 
ATOM     90  O   UNL A   1      32.519  29.025  22.420  1.00  0.00    -0.274 OA
ATOM     91  C   UNL A   1      27.849  28.202  23.140  1.00  0.00     0.041 C 
ATOM     92  C   UNL A   1      29.847  30.231  22.106  1.00  0.00     0.041 C 
ATOM     93  C   UNL A   1      27.466  29.552  22.558  1.00  0.00    -0.030 C 
ATOM     94  C   UNL A   1      28.359  30.465  22.126  1.00  0.00    -0.030 C 
ENDBRANCH  83  84
ENDBRANCH  75  77
ENDBRANCH  74  75
ENDBRANCH  73  74
ENDBRANCH  72  73
ENDBRANCH  71  72
ENDBRANCH   1  71
TORSDOF 18
ENDMDL
MODEL 2
REMARK VINA RESULT:     -11.7      1.313      1.578
REMARK SMILES O=C(OCCOCCOC(=O)c1ccc(N2C(=O)[C@@H]3CC=CC[C@H]3C2=O)cc1Cl)c1ccc(-c2c3nc(c(-c4cccc(S(=O)(=O)[O-])c4F)c4ccc([nH]4)c(-c4cccc(S(=O)(=O)[O-])c4F)c4nc(c(-c5cccc(S(=O)(=O)[O-])c5F)c5ccc2[nH]5)C=C4)C=C3)cc1
REMARK SMILES IDX 5 1 4 2 3 3 2 4 1 5 30 6 31 7 92 8 32 9 91 10 33 11 34 12
REMARK SMILES IDX 35 13 85 14 36 15 90 16 84 17 86 18 37 19 89 20 83 21 82 22
REMARK SMILES IDX 38 24 70 25 50 26 69 27 51 28 54 29 68 30 87 31 52 32 53 33
REMARK SMILES IDX 67 35 88 36 55 37 39 38 40 39 48 40 41 41 43 42 49 43 42 44
REMARK SMILES IDX 44 45 45 46 46 47 47 48 71 49 72 50 80 51 73 52 75 53 81 54
REMARK SMILES IDX 74 55 76 56 77 57 78 58 79 59 56 60 57 61 65 62 58 63 60 64
REMARK SMILES IDX 66 65 59 66 61 67 62 68 63 69 64 70 6 71 7 72 8 73 9 74
REMARK SMILES IDX 10 75 11 76 12 77 13 78 28 79 14 80 27 81 29 82 15 83 16 84
REMARK SMILES IDX 17 85 25 86 18 87 19 88 24 89 26 90 20 91 23 92 21 93 22 94
REMARK H PARENT 86 23 54 34
REMARK Flexibility Score: inf
ROOT
ATOM      1  C   UNL A   1      37.739  20.596  25.335  1.00  0.00     0.202 C 
ENDROOT
BRANCH   1   2
ATOM      2  C   UNL A   1      38.921  19.625  25.292  1.00  0.00     0.261 C 
BRANCH   2   3
ATOM      3  O   UNL A   1      39.597  19.611  26.556  1.00  0.00    -0.460 OA
BRANCH   3   4
ATOM      4  C   UNL A   1      40.815  20.110  26.858  1.00  0.00     0.338 C 
ATOM      5  O   UNL A   1      41.742  19.317  27.025  1.00  0.00    -0.246 OA
BRANCH   4   6
ATOM      6  C   UNL A   1      41.106  21.571  26.998  1.00  0.00     0.060 A 
ATOM      7  C   UNL A   1      40.690  22.568  26.109  1.00  0.00     0.016 A 
ATOM      8  C   UNL A   1      41.764  21.971  28.171  1.00  0.00     0.016 A 
ATOM      9  C   UNL A   1      40.932  23.910  26.345  1.00  0.00     0.010 A 
ATOM     10  C   UNL A   1      42.003  23.320  28.428  1.00  0.00     0.010 A 
ATOM     11  C   UNL A   1      41.593  24.286  27.504  1.00  0.00    -0.014 A 
BRANCH  11  12
ATOM     12  C   UNL A   1      41.961  25.696  27.656  1.00  0.00     0.031 A 
ATOM     13  C   UNL A   1      43.301  26.119  27.157  1.00  0.00     0.074 A 
ATOM     14  C   UNL A   1      41.076  26.560  28.179  1.00  0.00     0.049 A 
ATOM     15  N   UNL A   1      43.907  27.261  27.293  1.00  0.00    -0.248 NA
ATOM     16  C   UNL A   1      44.060  25.110  26.396  1.00  0.00     0.031 C 
ATOM     17  C   UNL A   1      39.710  26.223  28.584  1.00  0.00     0.029 A 
ATOM     18  N   UNL A   1      41.200  27.888  28.477  1.00  0.00    -0.354 N 
ATOM     19  C   UNL A   1      45.149  27.091  26.698  1.00  0.00     0.074 A 
ATOM     20  C   UNL A   1      45.197  25.746  26.171  1.00  0.00     0.031 C 
ATOM     21  C   UNL A   1      39.134  27.310  29.119  1.00  0.00     0.029 A 
ATOM     22  C   UNL A   1      40.113  28.390  29.153  1.00  0.00     0.049 A 
ATOM     23  H   UNL A   1      41.986  28.429  28.234  1.00  0.00     0.167 HD
ATOM     24  C   UNL A   1      46.162  27.981  26.630  1.00  0.00     0.034 A 
ATOM     25  C   UNL A   1      39.967  29.570  29.782  1.00  0.00     0.034 A 
ATOM     26  C   UNL A   1      46.066  29.304  27.178  1.00  0.00     0.049 A 
ATOM     27  C   UNL A   1      41.120  30.534  29.732  1.00  0.00     0.074 A 
ATOM     28  C   UNL A   1      47.016  30.304  27.198  1.00  0.00     0.029 A 
ATOM     29  N   UNL A   1      44.940  29.798  27.827  1.00  0.00    -0.354 N 
ATOM     30  N   UNL A   1      42.290  30.384  29.154  1.00  0.00    -0.248 NA
ATOM     31  C   UNL A   1      40.940  31.828  30.399  1.00  0.00     0.031 C 
ATOM     32  C   UNL A   1      46.476  31.392  27.891  1.00  0.00     0.029 A 
ATOM     33  C   UNL A   1      45.172  31.086  28.263  1.00  0.00     0.049 A 
ATOM     34  H   UNL A   1      44.099  29.301  27.956  1.00  0.00     0.167 HD
ATOM     35  C   UNL A   1      42.976  31.573  29.357  1.00  0.00     0.074 A 
ATOM     36  C   UNL A   1      42.085  32.437  30.110  1.00  0.00     0.031 C 
ATOM     37  C   UNL A   1      44.227  31.921  28.967  1.00  0.00     0.034 A 
BRANCH  24  38
ATOM     38  C   UNL A   1      47.446  27.507  26.006  1.00  0.00     0.023 A 
ATOM     39  C   UNL A   1      48.486  26.999  26.813  1.00  0.00     0.012 A 
ATOM     40  C   UNL A   1      47.644  27.624  24.618  1.00  0.00     0.148 A 
ATOM     41  C   UNL A   1      49.721  26.670  26.253  1.00  0.00     0.002 A 
ATOM     42  C   UNL A   1      48.861  27.252  24.061  1.00  0.00     0.091 A 
ATOM     43  F   UNL A   1      46.657  28.142  23.872  1.00  0.00    -0.205 F 
ATOM     44  C   UNL A   1      49.906  26.792  24.877  1.00  0.00     0.022 A 
BRANCH  42  45
ATOM     45  S   UNL A   1      49.169  27.315  22.293  1.00  0.00     0.127 S 
ATOM     46  O   UNL A   1      48.662  28.643  21.952  1.00  0.00    -0.237 OA
ATOM     47  O   UNL A   1      50.625  27.185  22.231  1.00  0.00    -0.237 OA
ATOM     48  O   UNL A   1      48.438  26.195  21.719  1.00  0.00    -0.744 OA
ENDBRANCH  42  45
ENDBRANCH  24  38
BRANCH  25  49
ATOM     49  C   UNL A   1      38.701  29.862  30.510  1.00  0.00     0.023 A 
ATOM     50  C   UNL A   1      38.532  29.417  31.834  1.00  0.00     0.012 A 
ATOM     51  C   UNL A   1      37.696  30.659  29.920  1.00  0.00     0.148 A 
ATOM     52  C   UNL A   1      37.383  29.752  32.554  1.00  0.00     0.002 A 
ATOM     53  C   UNL A   1      36.581  31.033  30.661  1.00  0.00     0.091 A 
ATOM     54  F   UNL A   1      37.871  31.064  28.655  1.00  0.00    -0.205 F 
ATOM     55  C   UNL A   1      36.415  30.569  31.974  1.00  0.00     0.022 A 
BRANCH  53  56
ATOM     56  S   UNL A   1      35.352  32.191  30.043  1.00  0.00     0.127 S 
ATOM     57  O   UNL A   1      34.448  32.303  31.184  1.00  0.00    -0.237 OA
ATOM     58  O   UNL A   1      36.165  33.379  29.782  1.00  0.00    -0.237 OA
ATOM     59  O   UNL A   1      34.788  31.572  28.852  1.00  0.00    -0.744 OA
ENDBRANCH  53  56
ENDBRANCH  25  49
BRANCH  37  60
ATOM     60  C   UNL A   1      44.693  33.312  29.293  1.00  0.00     0.023 A 
ATOM     61  C   UNL A   1      45.409  33.554  30.479  1.00  0.00     0.012 A 
ATOM     62  C   UNL A   1      44.548  34.336  28.337  1.00  0.00     0.148 A 
ATOM     63  C   UNL A   1      45.972  34.807  30.714  1.00  0.00     0.002 A 
ATOM     64  C   UNL A   1      45.156  35.563  28.554  1.00  0.00     0.091 A 
ATOM     65  F   UNL A   1      43.845  34.077  27.225  1.00  0.00    -0.205 F 
ATOM     66  C   UNL A   1      45.861  35.804  29.745  1.00  0.00     0.022 A 
BRANCH  64  67
ATOM     67  S   UNL A   1      45.168  36.860  27.313  1.00  0.00     0.127 S 
ATOM     68  O   UNL A   1      45.941  36.239  26.240  1.00  0.00    -0.237 OA
ATOM     69  O   UNL A   1      43.743  37.023  27.025  1.00  0.00    -0.237 OA
ATOM     70  O   UNL A   1      45.795  38.016  27.941  1.00  0.00    -0.744 OA
ENDBRANCH  64  67
ENDBRANCH  37  60
ENDBRANCH  11  12
ENDBRANCH   4   6
ENDBRANCH   3   4
ENDBRANCH   2   3
ENDBRANCH   1   2
BRANCH   1  71
ATOM     71  O   UNL A   1      36.579  20.174  24.620  1.00  0.00    -0.374 OA
BRANCH  71  72
ATOM     72  C   UNL A   1      35.315  20.582  25.160  1.00  0.00     0.202 C 
BRANCH  72  73
ATOM     73  C   UNL A   1      35.541  21.693  26.181  1.00  0.00     0.261 C 
BRANCH  73  74
ATOM     74  O   UNL A   1      34.748  22.811  25.765  1.00  0.00    -0.460 OA
BRANCH  74  75
ATOM     75  C   UNL A   1      35.426  23.781  25.099  1.00  0.00     0.339 C 
ATOM     76  O   UNL A   1      36.592  23.807  24.789  1.00  0.00    -0.246 OA
BRANCH  75  77
ATOM     77  C   UNL A   1      34.425  24.725  24.571  1.00  0.00     0.078 A 
ATOM     78  C   UNL A   1      34.149  25.865  25.353  1.00  0.00     0.019 A 
ATOM     79  C   UNL A   1      33.776  24.535  23.355  1.00  0.00     0.057 A 
ATOM     80  C   UNL A   1      33.230  26.824  24.921  1.00  0.00     0.028 A 
ATOM     81  C   UNL A   1      32.821  25.462  22.956  1.00  0.00     0.048 A 
ATOM     82  Cl  UNL A   1      34.007  23.162  22.334  1.00  0.00    -0.083 Cl
ATOM     83  C   UNL A   1      32.522  26.583  23.746  1.00  0.00     0.053 A 
BRANCH  83  84
ATOM     84  N   UNL A   1      31.372  27.315  23.430  1.00  0.00    -0.250 N 
ATOM     85  C   UNL A   1      30.058  26.942  23.656  1.00  0.00     0.238 C 
ATOM     86  C   UNL A   1      31.468  28.542  22.796  1.00  0.00     0.238 C 
ATOM     87  O   UNL A   1      29.604  25.872  24.018  1.00  0.00    -0.274 OA
ATOM     88  C   UNL A   1      29.288  28.234  23.518  1.00  0.00     0.096 C 
ATOM     89  C   UNL A   1      30.077  28.907  22.408  1.00  0.00     0.096 C 
ATOM     90  O   UNL A   1      32.463  29.178  22.492  1.00  0.00    -0.274 OA
ATOM     91  C   UNL A   1      27.810  28.250  23.191  1.00  0.00     0.041 C 
ATOM     92  C   UNL A   1      29.778  30.386  22.331  1.00  0.00     0.041 C 
ATOM     93  C   UNL A   1      27.409  29.646  22.747  1.00  0.00    -0.030 C 
ATOM     94  C   UNL A   1      28.288  30.604  22.393  1.00  0.00    -0.030 C 
ENDBRANCH  83  84
ENDBRANCH  75  77
ENDBRANCH  74  75
ENDBRANCH  73  74
ENDBRANCH  72  73
ENDBRANCH  71  72
ENDBRANCH   1  71
TORSDOF 18
ENDMDL
MODEL 3
REMARK VINA RESULT:     -11.3      5.212     10.909
REMARK SMILES O=C(OCCOCCOC(=O)c1ccc(N2C(=O)[C@@H]3CC=CC[C@H]3C2=O)cc1Cl)c1ccc(-c2c3nc(c(-c4cccc(S(=O)(=O)[O-])c4F)c4ccc([nH]4)c(-c4cccc(S(=O)(=O)[O-])c4F)c4nc(c(-c5cccc(S(=O)(=O)[O-])c5F)c5ccc2[nH]5)C=C4)C=C3)cc1
REMARK SMILES IDX 5 1 4 2 3 3 2 4 1 5 30 6 31 7 92 8 32 9 91 10 33 11 34 12
REMARK SMILES IDX 35 13 85 14 36 15 90 16 84 17 86 18 37 19 89 20 83 21 82 22
REMARK SMILES IDX 38 24 70 25 50 26 69 27 51 28 54 29 68 30 87 31 52 32 53 33
REMARK SMILES IDX 67 35 88 36 55 37 39 38 40 39 48 40 41 41 43 42 49 43 42 44
REMARK SMILES IDX 44 45 45 46 46 47 47 48 71 49 72 50 80 51 73 52 75 53 81 54
REMARK SMILES IDX 74 55 76 56 77 57 78 58 79 59 56 60 57 61 65 62 58 63 60 64
REMARK SMILES IDX 66 65 59 66 61 67 62 68 63 69 64 70 6 71 7 72 8 73 9 74
REMARK SMILES IDX 10 75 11 76 12 77 13 78 28 79 14 80 27 81 29 82 15 83 16 84
REMARK SMILES IDX 17 85 25 86 18 87 19 88 24 89 26 90 20 91 23 92 21 93 22 94
REMARK H PARENT 86 23 54 34
REMARK Flexibility Score: inf
ROOT
ATOM      1  C   UNL A   1      31.548  31.945  26.920  1.00  0.00     0.202 C 
ENDROOT
BRANCH   1   2
ATOM      2  C   UNL A   1      31.918  33.420  26.745  1.00  0.00     0.261 C 
BRANCH   2   3
ATOM      3  O   UNL A   1      32.433  33.951  27.972  1.00  0.00    -0.460 OA
BRANCH   3   4
ATOM      4  C   UNL A   1      33.691  34.363  28.243  1.00  0.00     0.338 C 
ATOM      5  O   UNL A   1      33.996  35.520  27.957  1.00  0.00    -0.246 OA
BRANCH   4   6
ATOM      6  C   UNL A   1      34.734  33.496  28.873  1.00  0.00     0.060 A 
ATOM      7  C   UNL A   1      34.488  32.299  29.556  1.00  0.00     0.016 A 
ATOM      8  C   UNL A   1      36.070  33.873  28.671  1.00  0.00     0.016 A 
ATOM      9  C   UNL A   1      35.513  31.510  30.048  1.00  0.00     0.010 A 
ATOM     10  C   UNL A   1      37.114  33.082  29.150  1.00  0.00     0.010 A 
ATOM     11  C   UNL A   1      36.827  31.904  29.849  1.00  0.00    -0.014 A 
BRANCH  11  12
ATOM     12  C   UNL A   1      37.883  31.127  30.503  1.00  0.00     0.031 A 
ATOM     13  C   UNL A   1      38.142  31.393  31.947  1.00  0.00     0.074 A 
ATOM     14  C   UNL A   1      38.532  30.177  29.811  1.00  0.00     0.049 A 
ATOM     15  N   UNL A   1      39.095  30.941  32.709  1.00  0.00    -0.248 NA
ATOM     16  C   UNL A   1      37.190  32.291  32.625  1.00  0.00     0.031 C 
ATOM     17  C   UNL A   1      38.245  29.799  28.427  1.00  0.00     0.029 A 
ATOM     18  N   UNL A   1      39.579  29.375  30.172  1.00  0.00    -0.354 N 
ATOM     19  C   UNL A   1      38.904  31.556  33.938  1.00  0.00     0.074 A 
ATOM     20  C   UNL A   1      37.725  32.384  33.832  1.00  0.00     0.031 C 
ATOM     21  C   UNL A   1      39.126  28.865  28.039  1.00  0.00     0.029 A 
ATOM     22  C   UNL A   1      40.072  28.634  29.124  1.00  0.00     0.049 A 
ATOM     23  H   UNL A   1      39.942  29.333  31.086  1.00  0.00     0.167 HD
ATOM     24  C   UNL A   1      39.671  31.447  35.045  1.00  0.00     0.034 A 
ATOM     25  C   UNL A   1      41.202  27.909  29.047  1.00  0.00     0.034 A 
ATOM     26  C   UNL A   1      40.839  30.615  35.095  1.00  0.00     0.049 A 
ATOM     27  C   UNL A   1      42.067  27.832  30.274  1.00  0.00     0.074 A 
ATOM     28  C   UNL A   1      41.719  30.422  36.141  1.00  0.00     0.029 A 
ATOM     29  N   UNL A   1      41.296  29.848  34.030  1.00  0.00    -0.354 N 
ATOM     30  N   UNL A   1      41.880  28.396  31.446  1.00  0.00    -0.248 NA
ATOM     31  C   UNL A   1      43.284  27.017  30.187  1.00  0.00     0.031 C 
ATOM     32  C   UNL A   1      42.730  29.565  35.694  1.00  0.00     0.029 A 
ATOM     33  C   UNL A   1      42.454  29.187  34.385  1.00  0.00     0.049 A 
ATOM     34  H   UNL A   1      40.857  29.785  33.151  1.00  0.00     0.167 HD
ATOM     35  C   UNL A   1      42.934  27.980  32.247  1.00  0.00     0.074 A 
ATOM     36  C   UNL A   1      43.756  27.111  31.424  1.00  0.00     0.031 C 
ATOM     37  C   UNL A   1      43.206  28.290  33.539  1.00  0.00     0.034 A 
BRANCH  24  38
ATOM     38  C   UNL A   1      39.290  32.298  36.225  1.00  0.00     0.023 A 
ATOM     39  C   UNL A   1      39.915  33.545  36.437  1.00  0.00     0.012 A 
ATOM     40  C   UNL A   1      38.351  31.829  37.162  1.00  0.00     0.148 A 
ATOM     41  C   UNL A   1      39.653  34.282  37.592  1.00  0.00     0.002 A 
ATOM     42  C   UNL A   1      38.060  32.590  38.287  1.00  0.00     0.091 A 
ATOM     43  F   UNL A   1      37.793  30.626  36.962  1.00  0.00    -0.205 F 
ATOM     44  C   UNL A   1      38.722  33.807  38.513  1.00  0.00     0.022 A 
BRANCH  42  45
ATOM     45  S   UNL A   1      36.831  32.088  39.496  1.00  0.00     0.127 S 
ATOM     46  O   UNL A   1      37.201  30.694  39.732  1.00  0.00    -0.237 OA
ATOM     47  O   UNL A   1      37.113  32.991  40.613  1.00  0.00    -0.237 OA
ATOM     48  O   UNL A   1      35.537  32.298  38.863  1.00  0.00    -0.744 OA
ENDBRANCH  42  45
ENDBRANCH  24  38
BRANCH  25  49
ATOM     49  C   UNL A   1      41.560  27.241  27.764  1.00  0.00     0.023 A 
ATOM     50  C   UNL A   1      42.030  28.003  26.680  1.00  0.00     0.012 A 
ATOM     51  C   UNL A   1      41.517  25.834  27.647  1.00  0.00     0.148 A 
ATOM     52  C   UNL A   1      42.443  27.381  25.500  1.00  0.00     0.002 A 
ATOM     53  C   UNL A   1      41.980  25.219  26.490  1.00  0.00     0.091 A 
ATOM     54  F   UNL A   1      41.055  25.126  28.686  1.00  0.00    -0.205 F 
ATOM     55  C   UNL A   1      42.430  25.991  25.409  1.00  0.00     0.022 A 
BRANCH  53  56
ATOM     56  S   UNL A   1      42.127  23.434  26.335  1.00  0.00     0.127 S 
ATOM     57  O   UNL A   1      42.988  23.107  27.468  1.00  0.00    -0.237 OA
ATOM     58  O   UNL A   1      40.735  23.005  26.475  1.00  0.00    -0.237 OA
ATOM     59  O   UNL A   1      42.702  23.196  25.018  1.00  0.00    -0.744 OA
ENDBRANCH  53  56
ENDBRANCH  25  49
BRANCH  37  60
ATOM     60  C   UNL A   1      44.409  27.646  34.168  1.00  0.00     0.023 A 
ATOM     61  C   UNL A   1      45.659  28.287  34.114  1.00  0.00     0.012 A 
ATOM     62  C   UNL A   1      44.249  26.481  34.942  1.00  0.00     0.148 A 
ATOM     63  C   UNL A   1      46.743  27.769  34.821  1.00  0.00     0.002 A 
ATOM     64  C   UNL A   1      45.317  26.003  35.686  1.00  0.00     0.091 A 
ATOM     65  F   UNL A   1      43.048  25.885  34.959  1.00  0.00    -0.205 F 
ATOM     66  C   UNL A   1      46.567  26.641  35.620  1.00  0.00     0.022 A 
BRANCH  64  67
ATOM     67  S   UNL A   1      45.151  24.631  36.832  1.00  0.00     0.127 S 
ATOM     68  O   UNL A   1      46.334  24.800  37.672  1.00  0.00    -0.237 OA
ATOM     69  O   UNL A   1      43.883  24.936  37.494  1.00  0.00    -0.237 OA
ATOM     70  O   UNL A   1      45.135  23.423  36.018  1.00  0.00    -0.744 OA
ENDBRANCH  64  67
ENDBRANCH  37  60
ENDBRANCH  11  12
ENDBRANCH   4   6
ENDBRANCH   3   4
ENDBRANCH   2   3
ENDBRANCH   1   2
BRANCH   1  71
ATOM     71  O   UNL A   1      32.647  31.067  27.162  1.00  0.00    -0.374 OA
BRANCH  71  72
ATOM     72  C   UNL A   1      32.500  29.720  26.694  1.00  0.00     0.202 C 
BRANCH  72  73
ATOM     73  C   UNL A   1      32.925  29.649  25.230  1.00  0.00     0.261 C 
BRANCH  73  74
ATOM     74  O   UNL A   1      33.367  28.307  24.988  1.00  0.00    -0.460 OA
BRANCH  74  75
ATOM     75  C   UNL A   1      32.746  27.674  23.960  1.00  0.00     0.339 C 
ATOM     76  O   UNL A   1      32.399  28.127  22.896  1.00  0.00    -0.246 OA
BRANCH  75  77
ATOM     77  C   UNL A   1      32.784  26.231  24.253  1.00  0.00     0.078 A 
ATOM     78  C   UNL A   1      33.972  25.545  23.927  1.00  0.00     0.019 A 
ATOM     79  C   UNL A   1      31.720  25.551  24.837  1.00  0.00     0.057 A 
ATOM     80  C   UNL A   1      34.105  24.179  24.189  1.00  0.00     0.028 A 
ATOM     81  C   UNL A   1      31.835  24.182  25.044  1.00  0.00     0.048 A 
ATOM     82  Cl  UNL A   1      30.208  26.279  25.246  1.00  0.00    -0.083 Cl
ATOM     83  C   UNL A   1      33.005  23.490  24.693  1.00  0.00     0.053 A 
BRANCH  83  84
ATOM     84  N   UNL A   1      32.952  22.092  24.668  1.00  0.00    -0.250 N 
ATOM     85  C   UNL A   1      33.105  21.232  25.742  1.00  0.00     0.238 C 
ATOM     86  C   UNL A   1      32.756  21.413  23.477  1.00  0.00     0.238 C 
ATOM     87  O   UNL A   1      33.467  21.467  26.881  1.00  0.00    -0.274 OA
ATOM     88  C   UNL A   1      32.551  19.921  25.238  1.00  0.00     0.096 C 
ATOM     89  C   UNL A   1      32.995  19.976  23.786  1.00  0.00     0.096 C 
ATOM     90  O   UNL A   1      32.545  21.858  22.361  1.00  0.00    -0.274 OA
ATOM     91  C   UNL A   1      32.948  18.597  25.855  1.00  0.00     0.041 C 
ATOM     92  C   UNL A   1      32.237  18.982  22.935  1.00  0.00     0.041 C 
ATOM     93  C   UNL A   1      32.546  17.468  24.922  1.00  0.00    -0.030 C 
ATOM     94  C   UNL A   1      32.203  17.646  23.630  1.00  0.00    -0.030 C 
ENDBRANCH  83  84
ENDBRANCH  75  77
ENDBRANCH  74  75
ENDBRANCH  73  74
ENDBRANCH  72  73
ENDBRANCH  71  72
ENDBRANCH   1  71
TORSDOF 18
ENDMDL
