MODEL 1
REMARK VINA RESULT:     -11.7      0.000      0.000
REMARK SMILES O=C(OCCOCCOC(=O)c1cccnc1C(=O)Nc1ccc([N+](=O)[O-])cc1)c1ccc(-c2c3nc(c(-c4cccc(S(=O)(=O)[O-])c4F)c4ccc([nH]4)c(-c4cccc(S(=O)(=O)[O-])c4F)c4nc(c(-c5cccc(S(=O)(=O)[O-])c5F)c5ccc2[nH]5)C=C4)C=C3)cc1
REMARK SMILES IDX 6 1 5 2 4 3 3 4 2 5 1 6 30 7 31 8 92 9 32 10 91 11 33 12
REMARK SMILES IDX 34 13 35 14 85 15 36 16 90 17 84 18 86 19 37 20 89 21 83 22
REMARK SMILES IDX 82 23 38 25 70 26 50 27 69 28 51 29 54 30 68 31 87 32 52 33
REMARK SMILES IDX 53 34 67 36 88 37 55 38 39 39 40 40 48 41 41 42 43 43 49 44
REMARK SMILES IDX 42 45 44 46 45 47 46 48 47 49 71 50 72 51 80 52 73 53 75 54
REMARK SMILES IDX 81 55 74 56 76 57 77 58 78 59 79 60 56 61 57 62 65 63 58 64
REMARK SMILES IDX 60 65 66 66 59 67 61 68 62 69 63 70 64 71 7 72 8 73 9 74
REMARK SMILES IDX 10 75 11 76 12 77 13 78 17 79 14 80 16 81 15 82 18 83 19 84
REMARK SMILES IDX 20 85 21 87 22 88 29 89 23 90 28 91 24 92 25 93 26 94 27 95
REMARK H PARENT 86 24 54 35 20 86
REMARK Flexibility Score: inf
ROOT
ATOM      1  O   UNL A   1      35.437  23.557  22.928  1.00  0.00    -0.374 OA
ENDROOT
BRANCH   1   2
ATOM      2  C   UNL A   1      36.650  22.984  23.401  1.00  0.00     0.202 C 
BRANCH   2   3
ATOM      3  C   UNL A   1      36.650  21.671  24.174  1.00  0.00     0.261 C 
BRANCH   3   4
ATOM      4  O   UNL A   1      37.283  21.576  25.477  1.00  0.00    -0.460 OA
BRANCH   4   5
ATOM      5  C   UNL A   1      38.573  21.509  25.874  1.00  0.00     0.338 C 
ATOM      6  O   UNL A   1      39.262  20.531  25.615  1.00  0.00    -0.246 OA
BRANCH   5   7
ATOM      7  C   UNL A   1      39.184  22.683  26.508  1.00  0.00     0.060 A 
ATOM      8  C   UNL A   1      38.651  23.950  26.332  1.00  0.00     0.016 A 
ATOM      9  C   UNL A   1      40.267  22.510  27.367  1.00  0.00     0.016 A 
ATOM     10  C   UNL A   1      39.386  25.056  26.701  1.00  0.00     0.010 A 
ATOM     11  C   UNL A   1      40.882  23.633  27.929  1.00  0.00     0.010 A 
ATOM     12  C   UNL A   1      40.499  24.923  27.527  1.00  0.00    -0.014 A 
BRANCH  12  13
ATOM     13  C   UNL A   1      41.275  26.138  27.884  1.00  0.00     0.031 A 
ATOM     14  C   UNL A   1      40.636  27.182  28.758  1.00  0.00     0.074 A 
ATOM     15  C   UNL A   1      42.564  26.260  27.501  1.00  0.00     0.049 A 
ATOM     16  N   UNL A   1      41.047  28.391  29.028  1.00  0.00    -0.248 NA
ATOM     17  C   UNL A   1      39.355  26.831  29.398  1.00  0.00     0.031 C 
ATOM     18  C   UNL A   1      43.311  25.283  26.702  1.00  0.00     0.029 A 
ATOM     19  N   UNL A   1      43.486  27.245  27.745  1.00  0.00    -0.354 N 
ATOM     20  C   UNL A   1      40.033  28.976  29.776  1.00  0.00     0.074 A 
ATOM     21  C   UNL A   1      38.996  27.984  29.941  1.00  0.00     0.031 C 
ATOM     22  C   UNL A   1      44.583  25.680  26.580  1.00  0.00     0.029 A 
ATOM     23  C   UNL A   1      44.705  27.012  27.147  1.00  0.00     0.049 A 
ATOM     24  H   UNL A   1      43.296  28.041  28.293  1.00  0.00     0.167 HD
ATOM     25  C   UNL A   1      39.978  30.232  30.274  1.00  0.00     0.034 A 
ATOM     26  C   UNL A   1      45.773  27.817  26.991  1.00  0.00     0.034 A 
ATOM     27  C   UNL A   1      41.054  31.175  30.143  1.00  0.00     0.049 A 
ATOM     28  C   UNL A   1      45.672  29.213  27.532  1.00  0.00     0.074 A 
ATOM     29  C   UNL A   1      41.113  32.485  30.580  1.00  0.00     0.029 A 
ATOM     30  N   UNL A   1      42.272  30.896  29.539  1.00  0.00    -0.354 N 
ATOM     31  N   UNL A   1      44.693  29.770  28.204  1.00  0.00    -0.248 NA
ATOM     32  C   UNL A   1      46.819  30.096  27.291  1.00  0.00     0.031 C 
ATOM     33  C   UNL A   1      42.360  33.005  30.220  1.00  0.00     0.029 A 
ATOM     34  C   UNL A   1      43.093  32.007  29.595  1.00  0.00     0.049 A 
ATOM     35  H   UNL A   1      42.515  30.034  29.130  1.00  0.00     0.167 HD
ATOM     36  C   UNL A   1      45.108  31.066  28.477  1.00  0.00     0.074 A 
ATOM     37  C   UNL A   1      46.449  31.192  27.938  1.00  0.00     0.031 C 
ATOM     38  C   UNL A   1      44.439  32.073  29.088  1.00  0.00     0.034 A 
BRANCH  25  39
ATOM     39  C   UNL A   1      38.713  30.658  30.972  1.00  0.00     0.023 A 
ATOM     40  C   UNL A   1      38.551  30.433  32.354  1.00  0.00     0.012 A 
ATOM     41  C   UNL A   1      37.690  31.308  30.253  1.00  0.00     0.148 A 
ATOM     42  C   UNL A   1      37.377  30.819  33.002  1.00  0.00     0.002 A 
ATOM     43  C   UNL A   1      36.545  31.732  30.915  1.00  0.00     0.091 A 
ATOM     44  F   UNL A   1      37.854  31.491  28.936  1.00  0.00    -0.205 F 
ATOM     45  C   UNL A   1      36.379  31.477  32.286  1.00  0.00     0.022 A 
BRANCH  43  46
ATOM     46  S   UNL A   1      35.231  32.647  30.099  1.00  0.00     0.127 S 
ATOM     47  O   UNL A   1      35.950  33.821  29.606  1.00  0.00    -0.237 OA
ATOM     48  O   UNL A   1      34.810  31.708  29.059  1.00  0.00    -0.237 OA
ATOM     49  O   UNL A   1      34.231  32.919  31.122  1.00  0.00    -0.744 OA
ENDBRANCH  43  46
ENDBRANCH  25  39
BRANCH  26  50
ATOM     50  C   UNL A   1      46.974  27.357  26.234  1.00  0.00     0.023 A 
ATOM     51  C   UNL A   1      47.075  27.613  24.853  1.00  0.00     0.012 A 
ATOM     52  C   UNL A   1      48.021  26.662  26.875  1.00  0.00     0.148 A 
ATOM     53  C   UNL A   1      48.171  27.151  24.121  1.00  0.00     0.002 A 
ATOM     54  C   UNL A   1      49.142  26.268  26.155  1.00  0.00     0.091 A 
ATOM     55  F   UNL A   1      47.901  26.397  28.184  1.00  0.00    -0.205 F 
ATOM     56  C   UNL A   1      49.210  26.493  24.773  1.00  0.00     0.022 A 
BRANCH  54  57
ATOM     57  S   UNL A   1      50.578  25.534  26.945  1.00  0.00     0.127 S 
ATOM     58  O   UNL A   1      51.464  25.317  25.804  1.00  0.00    -0.237 OA
ATOM     59  O   UNL A   1      51.001  26.598  27.856  1.00  0.00    -0.237 OA
ATOM     60  O   UNL A   1      50.089  24.333  27.608  1.00  0.00    -0.744 OA
ENDBRANCH  54  57
ENDBRANCH  26  50
BRANCH  38  61
ATOM     61  C   UNL A   1      45.177  33.373  29.248  1.00  0.00     0.023 A 
ATOM     62  C   UNL A   1      45.972  33.598  30.388  1.00  0.00     0.012 A 
ATOM     63  C   UNL A   1      45.107  34.354  28.242  1.00  0.00     0.148 A 
ATOM     64  C   UNL A   1      46.651  34.804  30.546  1.00  0.00     0.002 A 
ATOM     65  C   UNL A   1      45.833  35.528  28.378  1.00  0.00     0.091 A 
ATOM     66  F   UNL A   1      44.325  34.123  27.176  1.00  0.00    -0.205 F 
ATOM     67  C   UNL A   1      46.591  35.763  29.537  1.00  0.00     0.022 A 
BRANCH  65  68
ATOM     68  S   UNL A   1      45.898  36.767  27.083  1.00  0.00     0.127 S 
ATOM     69  O   UNL A   1      44.498  37.183  26.999  1.00  0.00    -0.237 OA
ATOM     70  O   UNL A   1      46.800  37.766  27.656  1.00  0.00    -0.237 OA
ATOM     71  O   UNL A   1      46.419  36.088  25.904  1.00  0.00    -0.744 OA
ENDBRANCH  65  68
ENDBRANCH  38  61
ENDBRANCH  12  13
ENDBRANCH   5   7
ENDBRANCH   4   5
ENDBRANCH   3   4
ENDBRANCH   2   3
ENDBRANCH   1   2
BRANCH   1  72
ATOM     72  C   UNL A   1      34.255  22.762  22.840  1.00  0.00     0.202 C 
BRANCH  72  73
ATOM     73  C   UNL A   1      33.324  23.445  21.862  1.00  0.00     0.261 C 
BRANCH  73  74
ATOM     74  O   UNL A   1      32.618  24.418  22.649  1.00  0.00    -0.460 OA
BRANCH  74  75
ATOM     75  C   UNL A   1      32.823  25.678  22.252  1.00  0.00     0.340 C 
ATOM     76  O   UNL A   1      33.711  26.079  21.508  1.00  0.00    -0.246 OA
BRANCH  75  77
ATOM     77  C   UNL A   1      31.984  26.582  23.025  1.00  0.00     0.091 A 
ATOM     78  C   UNL A   1      30.996  27.192  22.226  1.00  0.00     0.020 A 
ATOM     79  C   UNL A   1      32.069  26.921  24.373  1.00  0.00     0.142 A 
ATOM     80  C   UNL A   1      30.184  28.185  22.744  1.00  0.00     0.021 A 
ATOM     81  N   UNL A   1      31.239  27.899  24.874  1.00  0.00    -0.250 NA
ATOM     82  C   UNL A   1      30.360  28.521  24.065  1.00  0.00     0.112 A 
BRANCH  79  83
ATOM     83  C   UNL A   1      33.046  26.542  25.451  1.00  0.00     0.275 C 
ATOM     84  O   UNL A   1      33.889  27.411  25.735  1.00  0.00    -0.267 OA
ATOM     85  N   UNL A   1      33.071  25.452  26.301  1.00  0.00    -0.321 N 
ATOM     86  H   UNL A   1      33.481  25.679  27.167  1.00  0.00     0.170 HD
BRANCH  85  87
ATOM     87  C   UNL A   1      32.668  24.114  26.258  1.00  0.00     0.042 A 
ATOM     88  C   UNL A   1      33.652  23.148  26.539  1.00  0.00     0.033 A 
ATOM     89  C   UNL A   1      31.440  23.687  25.803  1.00  0.00     0.033 A 
ATOM     90  C   UNL A   1      33.479  21.815  26.144  1.00  0.00     0.088 A 
ATOM     91  C   UNL A   1      31.279  22.385  25.322  1.00  0.00     0.088 A 
ATOM     92  C   UNL A   1      32.323  21.465  25.446  1.00  0.00     0.269 A 
BRANCH  92  93
ATOM     93  N   UNL A   1      32.224  20.161  24.785  1.00  0.00     0.062 N 
ATOM     94  O   UNL A   1      32.182  19.157  25.504  1.00  0.00    -0.258 OA
ATOM     95  O   UNL A   1      32.243  20.149  23.543  1.00  0.00    -0.258 OA
ENDBRANCH  92  93
ENDBRANCH  85  87
ENDBRANCH  79  83
ENDBRANCH  75  77
ENDBRANCH  74  75
ENDBRANCH  73  74
ENDBRANCH  72  73
ENDBRANCH   1  72
TORSDOF 20
ENDMDL
MODEL 2
REMARK VINA RESULT:     -11.5      4.852      9.795
REMARK SMILES O=C(OCCOCCOC(=O)c1cccnc1C(=O)Nc1ccc([N+](=O)[O-])cc1)c1ccc(-c2c3nc(c(-c4cccc(S(=O)(=O)[O-])c4F)c4ccc([nH]4)c(-c4cccc(S(=O)(=O)[O-])c4F)c4nc(c(-c5cccc(S(=O)(=O)[O-])c5F)c5ccc2[nH]5)C=C4)C=C3)cc1
REMARK SMILES IDX 6 1 5 2 4 3 3 4 2 5 1 6 30 7 31 8 92 9 32 10 91 11 33 12
REMARK SMILES IDX 34 13 35 14 85 15 36 16 90 17 84 18 86 19 37 20 89 21 83 22
REMARK SMILES IDX 82 23 38 25 70 26 50 27 69 28 51 29 54 30 68 31 87 32 52 33
REMARK SMILES IDX 53 34 67 36 88 37 55 38 39 39 40 40 48 41 41 42 43 43 49 44
REMARK SMILES IDX 42 45 44 46 45 47 46 48 47 49 71 50 72 51 80 52 73 53 75 54
REMARK SMILES IDX 81 55 74 56 76 57 77 58 78 59 79 60 56 61 57 62 65 63 58 64
REMARK SMILES IDX 60 65 66 66 59 67 61 68 62 69 63 70 64 71 7 72 8 73 9 74
REMARK SMILES IDX 10 75 11 76 12 77 13 78 17 79 14 80 16 81 15 82 18 83 19 84
REMARK SMILES IDX 20 85 21 87 22 88 29 89 23 90 28 91 24 92 25 93 26 94 27 95
REMARK H PARENT 86 24 54 35 20 86
REMARK Flexibility Score: inf
ROOT
ATOM      1  O   UNL A   1      30.955  27.574  24.956  1.00  0.00    -0.374 OA
ENDROOT
BRANCH   1   2
ATOM      2  C   UNL A   1      32.001  28.234  25.660  1.00  0.00     0.202 C 
BRANCH   2   3
ATOM      3  C   UNL A   1      31.759  29.565  26.359  1.00  0.00     0.261 C 
BRANCH   3   4
ATOM      4  O   UNL A   1      32.727  30.644  26.259  1.00  0.00    -0.460 OA
BRANCH   4   5
ATOM      5  C   UNL A   1      33.296  31.461  27.171  1.00  0.00     0.338 C 
ATOM      6  O   UNL A   1      32.672  32.397  27.655  1.00  0.00    -0.246 OA
BRANCH   5   7
ATOM      7  C   UNL A   1      34.635  31.137  27.680  1.00  0.00     0.060 A 
ATOM      8  C   UNL A   1      35.021  29.824  27.890  1.00  0.00     0.016 A 
ATOM      9  C   UNL A   1      35.559  32.162  27.874  1.00  0.00     0.016 A 
ATOM     10  C   UNL A   1      36.161  29.556  28.616  1.00  0.00     0.010 A 
ATOM     11  C   UNL A   1      36.814  31.859  28.408  1.00  0.00     0.010 A 
ATOM     12  C   UNL A   1      37.092  30.561  28.867  1.00  0.00    -0.014 A 
BRANCH  12  13
ATOM     13  C   UNL A   1      38.297  30.236  29.672  1.00  0.00     0.031 A 
ATOM     14  C   UNL A   1      39.369  29.372  29.066  1.00  0.00     0.074 A 
ATOM     15  C   UNL A   1      38.467  30.781  30.896  1.00  0.00     0.049 A 
ATOM     16  N   UNL A   1      40.394  28.808  29.644  1.00  0.00    -0.248 NA
ATOM     17  C   UNL A   1      39.266  29.085  27.623  1.00  0.00     0.031 C 
ATOM     18  C   UNL A   1      37.523  31.683  31.564  1.00  0.00     0.029 A 
ATOM     19  N   UNL A   1      39.498  30.675  31.793  1.00  0.00    -0.354 N 
ATOM     20  C   UNL A   1      40.992  28.022  28.667  1.00  0.00     0.074 A 
ATOM     21  C   UNL A   1      40.234  28.198  27.451  1.00  0.00     0.031 C 
ATOM     22  C   UNL A   1      38.044  32.099  32.725  1.00  0.00     0.029 A 
ATOM     23  C   UNL A   1      39.279  31.370  32.962  1.00  0.00     0.049 A 
ATOM     24  H   UNL A   1      40.315  30.153  31.620  1.00  0.00     0.167 HD
ATOM     25  C   UNL A   1      42.077  27.222  28.784  1.00  0.00     0.034 A 
ATOM     26  C   UNL A   1      39.946  31.353  34.131  1.00  0.00     0.034 A 
ATOM     27  C   UNL A   1      42.846  27.117  29.993  1.00  0.00     0.049 A 
ATOM     28  C   UNL A   1      41.130  30.438  34.239  1.00  0.00     0.074 A 
ATOM     29  C   UNL A   1      43.950  26.325  30.248  1.00  0.00     0.029 A 
ATOM     30  N   UNL A   1      42.596  27.844  31.149  1.00  0.00    -0.354 N 
ATOM     31  N   UNL A   1      41.664  29.668  33.321  1.00  0.00    -0.248 NA
ATOM     32  C   UNL A   1      41.803  30.382  35.542  1.00  0.00     0.031 C 
ATOM     33  C   UNL A   1      44.353  26.557  31.568  1.00  0.00     0.029 A 
ATOM     34  C   UNL A   1      43.525  27.525  32.119  1.00  0.00     0.049 A 
ATOM     35  H   UNL A   1      41.862  28.491  31.260  1.00  0.00     0.167 HD
ATOM     36  C   UNL A   1      42.743  29.043  33.931  1.00  0.00     0.074 A 
ATOM     37  C   UNL A   1      42.812  29.564  35.282  1.00  0.00     0.031 C 
ATOM     38  C   UNL A   1      43.585  28.103  33.437  1.00  0.00     0.034 A 
BRANCH  25  39
ATOM     39  C   UNL A   1      42.470  26.390  27.592  1.00  0.00     0.023 A 
ATOM     40  C   UNL A   1      43.245  26.949  26.556  1.00  0.00     0.012 A 
ATOM     41  C   UNL A   1      42.087  25.036  27.515  1.00  0.00     0.148 A 
ATOM     42  C   UNL A   1      43.604  26.182  25.447  1.00  0.00     0.002 A 
ATOM     43  C   UNL A   1      42.488  24.267  26.430  1.00  0.00     0.091 A 
ATOM     44  F   UNL A   1      41.330  24.531  28.498  1.00  0.00    -0.205 F 
ATOM     45  C   UNL A   1      43.235  24.841  25.388  1.00  0.00     0.022 A 
BRANCH  43  46
ATOM     46  S   UNL A   1      42.123  22.513  26.292  1.00  0.00     0.127 S 
ATOM     47  O   UNL A   1      42.702  21.991  27.528  1.00  0.00    -0.237 OA
ATOM     48  O   UNL A   1      40.660  22.512  26.255  1.00  0.00    -0.237 OA
ATOM     49  O   UNL A   1      42.768  22.060  25.067  1.00  0.00    -0.744 OA
ENDBRANCH  43  46
ENDBRANCH  25  39
BRANCH  26  50
ATOM     50  C   UNL A   1      39.470  32.154  35.297  1.00  0.00     0.023 A 
ATOM     51  C   UNL A   1      38.583  31.581  36.228  1.00  0.00     0.012 A 
ATOM     52  C   UNL A   1      39.887  33.488  35.487  1.00  0.00     0.148 A 
ATOM     53  C   UNL A   1      38.093  32.330  37.301  1.00  0.00     0.002 A 
ATOM     54  C   UNL A   1      39.452  34.205  36.595  1.00  0.00     0.091 A 
ATOM     55  F   UNL A   1      40.707  34.035  34.577  1.00  0.00    -0.205 F 
ATOM     56  C   UNL A   1      38.538  33.635  37.492  1.00  0.00     0.022 A 
BRANCH  54  57
ATOM     57  S   UNL A   1      40.081  35.842  36.984  1.00  0.00     0.127 S 
ATOM     58  O   UNL A   1      41.511  35.582  37.132  1.00  0.00    -0.237 OA
ATOM     59  O   UNL A   1      39.717  36.600  35.786  1.00  0.00    -0.237 OA
ATOM     60  O   UNL A   1      39.381  36.253  38.192  1.00  0.00    -0.744 OA
ENDBRANCH  54  57
ENDBRANCH  26  50
BRANCH  38  61
ATOM     61  C   UNL A   1      44.678  27.628  34.353  1.00  0.00     0.023 A 
ATOM     62  C   UNL A   1      45.898  28.329  34.420  1.00  0.00     0.012 A 
ATOM     63  C   UNL A   1      44.473  26.506  35.176  1.00  0.00     0.148 A 
ATOM     64  C   UNL A   1      46.918  27.888  35.260  1.00  0.00     0.002 A 
ATOM     65  C   UNL A   1      45.470  26.109  36.055  1.00  0.00     0.091 A 
ATOM     66  F   UNL A   1      43.309  25.845  35.079  1.00  0.00    -0.205 F 
ATOM     67  C   UNL A   1      46.699  26.787  36.085  1.00  0.00     0.022 A 
BRANCH  65  68
ATOM     68  S   UNL A   1      45.234  24.771  37.226  1.00  0.00     0.127 S 
ATOM     69  O   UNL A   1      44.118  25.270  38.027  1.00  0.00    -0.237 OA
ATOM     70  O   UNL A   1      44.904  23.647  36.349  1.00  0.00    -0.237 OA
ATOM     71  O   UNL A   1      46.499  24.631  37.935  1.00  0.00    -0.744 OA
ENDBRANCH  65  68
ENDBRANCH  38  61
ENDBRANCH  12  13
ENDBRANCH   5   7
ENDBRANCH   4   5
ENDBRANCH   3   4
ENDBRANCH   2   3
ENDBRANCH   1   2
BRANCH   1  72
ATOM     72  C   UNL A   1      31.263  26.565  23.994  1.00  0.00     0.202 C 
BRANCH  72  73
ATOM     73  C   UNL A   1      32.769  26.425  23.953  1.00  0.00     0.261 C 
BRANCH  73  74
ATOM     74  O   UNL A   1      33.018  25.056  24.311  1.00  0.00    -0.460 OA
BRANCH  74  75
ATOM     75  C   UNL A   1      33.869  24.434  23.489  1.00  0.00     0.340 C 
ATOM     76  O   UNL A   1      34.092  24.710  22.315  1.00  0.00    -0.246 OA
BRANCH  75  77
ATOM     77  C   UNL A   1      34.336  23.199  24.103  1.00  0.00     0.091 A 
ATOM     78  C   UNL A   1      35.574  23.374  24.753  1.00  0.00     0.020 A 
ATOM     79  C   UNL A   1      33.752  21.936  24.088  1.00  0.00     0.142 A 
ATOM     80  C   UNL A   1      36.250  22.290  25.284  1.00  0.00     0.021 A 
ATOM     81  N   UNL A   1      34.433  20.873  24.638  1.00  0.00    -0.250 NA
ATOM     82  C   UNL A   1      35.651  21.057  25.180  1.00  0.00     0.112 A 
BRANCH  79  83
ATOM     83  C   UNL A   1      32.519  21.400  23.413  1.00  0.00     0.275 C 
ATOM     84  O   UNL A   1      31.708  22.261  23.027  1.00  0.00    -0.267 OA
ATOM     85  N   UNL A   1      32.202  20.120  22.999  1.00  0.00    -0.321 N 
ATOM     86  H   UNL A   1      31.618  20.132  22.206  1.00  0.00     0.170 HD
BRANCH  85  87
ATOM     87  C   UNL A   1      32.491  18.815  23.407  1.00  0.00     0.042 A 
ATOM     88  C   UNL A   1      32.243  18.504  24.758  1.00  0.00     0.033 A 
ATOM     89  C   UNL A   1      33.146  17.885  22.630  1.00  0.00     0.033 A 
ATOM     90  C   UNL A   1      32.848  17.394  25.359  1.00  0.00     0.088 A 
ATOM     91  C   UNL A   1      33.831  16.823  23.226  1.00  0.00     0.088 A 
ATOM     92  C   UNL A   1      33.722  16.613  24.603  1.00  0.00     0.269 A 
BRANCH  92  93
ATOM     93  N   UNL A   1      34.577  15.617  25.255  1.00  0.00     0.062 N 
ATOM     94  O   UNL A   1      35.745  15.938  25.498  1.00  0.00    -0.258 OA
ATOM     95  O   UNL A   1      34.085  14.498  25.472  1.00  0.00    -0.258 OA
ENDBRANCH  92  93
ENDBRANCH  85  87
ENDBRANCH  79  83
ENDBRANCH  75  77
ENDBRANCH  74  75
ENDBRANCH  73  74
ENDBRANCH  72  73
ENDBRANCH   1  72
TORSDOF 20
ENDMDL
MODEL 3
REMARK VINA RESULT:     -11.4      1.514      8.310
REMARK SMILES O=C(OCCOCCOC(=O)c1cccnc1C(=O)Nc1ccc([N+](=O)[O-])cc1)c1ccc(-c2c3nc(c(-c4cccc(S(=O)(=O)[O-])c4F)c4ccc([nH]4)c(-c4cccc(S(=O)(=O)[O-])c4F)c4nc(c(-c5cccc(S(=O)(=O)[O-])c5F)c5ccc2[nH]5)C=C4)C=C3)cc1
REMARK SMILES IDX 6 1 5 2 4 3 3 4 2 5 1 6 30 7 31 8 92 9 32 10 91 11 33 12
REMARK SMILES IDX 34 13 35 14 85 15 36 16 90 17 84 18 86 19 37 20 89 21 83 22
REMARK SMILES IDX 82 23 38 25 70 26 50 27 69 28 51 29 54 30 68 31 87 32 52 33
REMARK SMILES IDX 53 34 67 36 88 37 55 38 39 39 40 40 48 41 41 42 43 43 49 44
REMARK SMILES IDX 42 45 44 46 45 47 46 48 47 49 71 50 72 51 80 52 73 53 75 54
REMARK SMILES IDX 81 55 74 56 76 57 77 58 78 59 79 60 56 61 57 62 65 63 58 64
REMARK SMILES IDX 60 65 66 66 59 67 61 68 62 69 63 70 64 71 7 72 8 73 9 74
REMARK SMILES IDX 10 75 11 76 12 77 13 78 17 79 14 80 16 81 15 82 18 83 19 84
REMARK SMILES IDX 20 85 21 87 22 88 29 89 23 90 28 91 24 92 25 93 26 94 27 95
REMARK H PARENT 86 24 54 35 20 86
REMARK Flexibility Score: inf
ROOT
ATOM      1  O   UNL A   1      37.265  21.347  25.431  1.00  0.00    -0.374 OA
ENDROOT
BRANCH   1   2
ATOM      2  C   UNL A   1      37.447  20.029  24.926  1.00  0.00     0.202 C 
BRANCH   2   3
ATOM      3  C   UNL A   1      38.606  19.161  25.398  1.00  0.00     0.261 C 
BRANCH   3   4
ATOM      4  O   UNL A   1      39.935  19.723  25.565  1.00  0.00    -0.460 OA
BRANCH   4   5
ATOM      5  C   UNL A   1      40.686  20.012  26.650  1.00  0.00     0.338 C 
ATOM      6  O   UNL A   1      41.285  19.132  27.254  1.00  0.00    -0.246 OA
BRANCH   5   7
ATOM      7  C   UNL A   1      40.886  21.418  27.023  1.00  0.00     0.060 A 
ATOM      8  C   UNL A   1      40.185  22.432  26.392  1.00  0.00     0.016 A 
ATOM      9  C   UNL A   1      41.732  21.729  28.085  1.00  0.00     0.016 A 
ATOM     10  C   UNL A   1      40.581  23.741  26.559  1.00  0.00     0.010 A 
ATOM     11  C   UNL A   1      41.964  23.070  28.405  1.00  0.00     0.010 A 
ATOM     12  C   UNL A   1      41.457  24.090  27.583  1.00  0.00    -0.014 A 
BRANCH  12  13
ATOM     13  C   UNL A   1      41.875  25.509  27.716  1.00  0.00     0.031 A 
ATOM     14  C   UNL A   1      43.181  25.945  27.112  1.00  0.00     0.074 A 
ATOM     15  C   UNL A   1      41.052  26.410  28.293  1.00  0.00     0.049 A 
ATOM     16  N   UNL A   1      43.827  27.068  27.274  1.00  0.00    -0.248 NA
ATOM     17  C   UNL A   1      43.866  24.987  26.225  1.00  0.00     0.031 C 
ATOM     18  C   UNL A   1      39.732  26.117  28.861  1.00  0.00     0.029 A 
ATOM     19  N   UNL A   1      41.189  27.762  28.484  1.00  0.00    -0.354 N 
ATOM     20  C   UNL A   1      45.032  26.910  26.600  1.00  0.00     0.074 A 
ATOM     21  C   UNL A   1      45.021  25.595  26.004  1.00  0.00     0.031 C 
ATOM     22  C   UNL A   1      39.156  27.254  29.272  1.00  0.00     0.029 A 
ATOM     23  C   UNL A   1      40.124  28.330  29.149  1.00  0.00     0.049 A 
ATOM     24  H   UNL A   1      41.970  28.276  28.176  1.00  0.00     0.167 HD
ATOM     25  C   UNL A   1      46.054  27.790  26.496  1.00  0.00     0.034 A 
ATOM     26  C   UNL A   1      39.979  29.556  29.685  1.00  0.00     0.034 A 
ATOM     27  C   UNL A   1      46.007  29.115  27.049  1.00  0.00     0.049 A 
ATOM     28  C   UNL A   1      41.139  30.501  29.575  1.00  0.00     0.074 A 
ATOM     29  C   UNL A   1      46.985  30.092  27.035  1.00  0.00     0.029 A 
ATOM     30  N   UNL A   1      44.909  29.653  27.706  1.00  0.00    -0.354 N 
ATOM     31  N   UNL A   1      42.290  30.329  28.970  1.00  0.00    -0.248 NA
ATOM     32  C   UNL A   1      40.987  31.808  30.225  1.00  0.00     0.031 C 
ATOM     33  C   UNL A   1      46.484  31.214  27.704  1.00  0.00     0.029 A 
ATOM     34  C   UNL A   1      45.181  30.950  28.098  1.00  0.00     0.049 A 
ATOM     35  H   UNL A   1      44.062  29.179  27.871  1.00  0.00     0.167 HD
ATOM     36  C   UNL A   1      42.997  31.508  29.155  1.00  0.00     0.074 A 
ATOM     37  C   UNL A   1      42.123  32.403  29.888  1.00  0.00     0.031 C 
ATOM     38  C   UNL A   1      44.262  31.821  28.785  1.00  0.00     0.034 A 
BRANCH  25  39
ATOM     39  C   UNL A   1      47.303  27.337  25.787  1.00  0.00     0.023 A 
ATOM     40  C   UNL A   1      47.458  27.558  24.403  1.00  0.00     0.012 A 
ATOM     41  C   UNL A   1      48.339  26.710  26.507  1.00  0.00     0.148 A 
ATOM     42  C   UNL A   1      48.611  27.132  23.742  1.00  0.00     0.002 A 
ATOM     43  C   UNL A   1      49.504  26.332  25.850  1.00  0.00     0.091 A 
ATOM     44  F   UNL A   1      48.162  26.487  27.816  1.00  0.00    -0.205 F 
ATOM     45  C   UNL A   1      49.637  26.529  24.466  1.00  0.00     0.022 A 
BRANCH  43  46
ATOM     46  S   UNL A   1      50.911  25.609  26.702  1.00  0.00     0.127 S 
ATOM     47  O   UNL A   1      50.299  24.454  27.358  1.00  0.00    -0.237 OA
ATOM     48  O   UNL A   1      51.801  25.279  25.589  1.00  0.00    -0.237 OA
ATOM     49  O   UNL A   1      51.411  26.638  27.604  1.00  0.00    -0.744 OA
ENDBRANCH  43  46
ENDBRANCH  25  39
BRANCH  26  50
ATOM     50  C   UNL A   1      38.740  29.924  30.430  1.00  0.00     0.023 A 
ATOM     51  C   UNL A   1      38.556  29.477  31.752  1.00  0.00     0.012 A 
ATOM     52  C   UNL A   1      37.735  30.715  29.834  1.00  0.00     0.148 A 
ATOM     53  C   UNL A   1      37.382  29.775  32.449  1.00  0.00     0.002 A 
ATOM     54  C   UNL A   1      36.602  31.068  30.557  1.00  0.00     0.091 A 
ATOM     55  F   UNL A   1      37.906  31.110  28.564  1.00  0.00    -0.205 F 
ATOM     56  C   UNL A   1      36.413  30.581  31.858  1.00  0.00     0.022 A 
BRANCH  54  57
ATOM     57  S   UNL A   1      35.373  32.210  29.915  1.00  0.00     0.127 S 
ATOM     58  O   UNL A   1      36.193  33.376  29.593  1.00  0.00    -0.237 OA
ATOM     59  O   UNL A   1      34.859  31.482  28.754  1.00  0.00    -0.237 OA
ATOM     60  O   UNL A   1      34.408  32.389  30.989  1.00  0.00    -0.744 OA
ENDBRANCH  54  57
ENDBRANCH  26  50
BRANCH  38  61
ATOM     61  C   UNL A   1      44.742  33.205  29.123  1.00  0.00     0.023 A 
ATOM     62  C   UNL A   1      45.326  33.463  30.378  1.00  0.00     0.012 A 
ATOM     63  C   UNL A   1      44.646  34.238  28.173  1.00  0.00     0.148 A 
ATOM     64  C   UNL A   1      45.765  34.745  30.701  1.00  0.00     0.002 A 
ATOM     65  C   UNL A   1      45.139  35.498  28.479  1.00  0.00     0.091 A 
ATOM     66  F   UNL A   1      44.067  33.971  26.993  1.00  0.00    -0.205 F 
ATOM     67  C   UNL A   1      45.682  35.758  29.748  1.00  0.00     0.022 A 
BRANCH  65  68
ATOM     68  S   UNL A   1      45.171  36.829  27.277  1.00  0.00     0.127 S 
ATOM     69  O   UNL A   1      46.023  36.266  26.231  1.00  0.00    -0.237 OA
ATOM     70  O   UNL A   1      43.759  36.952  26.916  1.00  0.00    -0.237 OA
ATOM     71  O   UNL A   1      45.718  37.985  27.974  1.00  0.00    -0.744 OA
ENDBRANCH  65  68
ENDBRANCH  38  61
ENDBRANCH  12  13
ENDBRANCH   5   7
ENDBRANCH   4   5
ENDBRANCH   3   4
ENDBRANCH   2   3
ENDBRANCH   1   2
BRANCH   1  72
ATOM     72  C   UNL A   1      37.188  22.454  24.534  1.00  0.00     0.202 C 
BRANCH  72  73
ATOM     73  C   UNL A   1      36.818  23.673  25.350  1.00  0.00     0.261 C 
BRANCH  73  74
ATOM     74  O   UNL A   1      35.475  23.987  24.949  1.00  0.00    -0.460 OA
BRANCH  74  75
ATOM     75  C   UNL A   1      34.541  23.465  25.750  1.00  0.00     0.340 C 
ATOM     76  O   UNL A   1      34.689  23.098  26.911  1.00  0.00    -0.246 OA
BRANCH  75  77
ATOM     77  C   UNL A   1      33.348  23.149  24.978  1.00  0.00     0.091 A 
ATOM     78  C   UNL A   1      33.666  22.536  23.750  1.00  0.00     0.020 A 
ATOM     79  C   UNL A   1      32.013  23.404  25.281  1.00  0.00     0.142 A 
ATOM     80  C   UNL A   1      32.681  22.279  22.813  1.00  0.00     0.021 A 
ATOM     81  N   UNL A   1      31.045  23.124  24.342  1.00  0.00    -0.250 NA
ATOM     82  C   UNL A   1      31.390  22.613  23.145  1.00  0.00     0.112 A 
BRANCH  79  83
ATOM     83  C   UNL A   1      31.355  24.117  26.430  1.00  0.00     0.275 C 
ATOM     84  O   UNL A   1      31.174  23.427  27.450  1.00  0.00    -0.267 OA
ATOM     85  N   UNL A   1      31.062  25.455  26.612  1.00  0.00    -0.321 N 
ATOM     86  H   UNL A   1      31.100  25.707  27.562  1.00  0.00     0.170 HD
BRANCH  85  87
ATOM     87  C   UNL A   1      30.728  26.545  25.802  1.00  0.00     0.042 A 
ATOM     88  C   UNL A   1      29.755  26.322  24.810  1.00  0.00     0.033 A 
ATOM     89  C   UNL A   1      31.397  27.749  25.806  1.00  0.00     0.033 A 
ATOM     90  C   UNL A   1      29.636  27.190  23.717  1.00  0.00     0.088 A 
ATOM     91  C   UNL A   1      31.359  28.582  24.684  1.00  0.00     0.088 A 
ATOM     92  C   UNL A   1      30.515  28.269  23.616  1.00  0.00     0.269 A 
BRANCH  92  93
ATOM     93  N   UNL A   1      30.605  29.036  22.370  1.00  0.00     0.062 N 
ATOM     94  O   UNL A   1      29.564  29.202  21.725  1.00  0.00    -0.258 OA
ATOM     95  O   UNL A   1      31.731  29.422  22.020  1.00  0.00    -0.258 OA
ENDBRANCH  92  93
ENDBRANCH  85  87
ENDBRANCH  79  83
ENDBRANCH  75  77
ENDBRANCH  74  75
ENDBRANCH  73  74
ENDBRANCH  72  73
ENDBRANCH   1  72
TORSDOF 20
ENDMDL
