MODEL 1
REMARK VINA RESULT:     -11.7      0.000      0.000
REMARK SMILES [NH3+][C@]1(C(=O)OCCOCCOC(=O)c2ccc(-c3c4nc(c(-c5cccc(S(=O)(=O)[O-])c5F)c5ccc([nH]5)c(-c5cccc(S(=O)(=O)[O-])c5F)c5nc(c(-c6cccc(S(=O)(=O)[O-])c6F)c6ccc3[nH]6)C=C5)C=C4)cc2)CCC[C@@H](Oc2ccc3c(c2)CCC3)C1
REMARK SMILES IDX 9 1 8 2 7 3 6 4 5 5 3 6 4 7 2 8 77 9 91 10 78 11 80 12 79 13
REMARK SMILES IDX 1 14 81 18 82 19 83 20 87 21 84 22 86 23 85 24 88 25 90 26
REMARK SMILES IDX 89 27 10 28 11 29 12 30 13 31 14 32 15 33 76 34 16 35 75 36
REMARK SMILES IDX 17 37 18 38 19 39 69 40 20 41 74 42 68 43 70 44 21 45 73 46
REMARK SMILES IDX 67 47 66 48 22 50 54 51 34 52 53 53 35 54 38 55 52 56 71 57
REMARK SMILES IDX 36 58 37 59 51 61 72 62 39 63 23 64 24 65 32 66 25 67 27 68
REMARK SMILES IDX 33 69 26 70 28 71 29 72 30 73 31 74 55 75 56 76 64 77 57 78
REMARK SMILES IDX 59 79 65 80 58 81 60 82 61 83 62 84 63 85 40 86 41 87 49 88
REMARK SMILES IDX 42 89 44 90 50 91 43 92 45 93 46 94 47 95 48 96
REMARK H PARENT 1 15 1 16 1 17 70 49 38 60
REMARK Flexibility Score: inf
ROOT
ATOM      1  C   UNL A   1      32.016  29.808  25.281  1.00  0.00     0.202 C 
ENDROOT
BRANCH   1   2
ATOM      2  O   UNL A   1      31.095  28.781  24.909  1.00  0.00    -0.374 OA
BRANCH   2   3
ATOM      3  C   UNL A   1      31.134  27.582  25.715  1.00  0.00     0.202 C 
BRANCH   3   4
ATOM      4  C   UNL A   1      30.262  26.368  25.301  1.00  0.00     0.261 C 
BRANCH   4   5
ATOM      5  O   UNL A   1      30.893  25.139  25.748  1.00  0.00    -0.459 OA
BRANCH   5   6
ATOM      6  C   UNL A   1      30.814  23.966  25.032  1.00  0.00     0.368 C 
ATOM      7  O   UNL A   1      30.552  23.902  23.839  1.00  0.00    -0.245 OA
BRANCH   6   8
ATOM      8  C   UNL A   1      31.251  22.711  25.972  1.00  0.00     0.196 C 
ATOM      9  C   UNL A   1      31.734  21.435  25.181  1.00  0.00     0.081 C 
ATOM     10  C   UNL A   1      32.292  23.180  27.040  1.00  0.00     0.126 C 
ATOM     11  C   UNL A   1      33.029  20.689  25.599  1.00  0.00     0.011 C 
ATOM     12  C   UNL A   1      33.751  22.674  26.909  1.00  0.00     0.180 C 
ATOM     13  C   UNL A   1      33.725  21.165  26.858  1.00  0.00     0.046 C 
BRANCH   8  14
ATOM     14  N   UNL A   1      29.980  22.272  26.614  1.00  0.00    -0.343 N 
ATOM     15  H   UNL A   1      30.173  21.507  27.260  1.00  0.00     0.345 HD
ATOM     16  H   UNL A   1      29.329  21.955  25.896  1.00  0.00     0.345 HD
ATOM     17  H   UNL A   1      29.570  23.054  27.125  1.00  0.00     0.345 HD
ENDBRANCH   8  14
BRANCH  12  18
ATOM     18  O   UNL A   1      34.764  23.224  26.034  1.00  0.00    -0.490 OA
BRANCH  18  19
ATOM     19  C   UNL A   1      34.593  24.216  25.108  1.00  0.00     0.120 A 
ATOM     20  C   UNL A   1      34.518  25.550  25.509  1.00  0.00     0.047 A 
ATOM     21  C   UNL A   1      34.173  23.937  23.826  1.00  0.00     0.050 A 
ATOM     22  C   UNL A   1      33.991  26.542  24.641  1.00  0.00     0.008 A 
ATOM     23  C   UNL A   1      33.685  24.877  22.951  1.00  0.00    -0.041 A 
ATOM     24  C   UNL A   1      33.538  26.180  23.378  1.00  0.00    -0.045 A 
ATOM     25  C   UNL A   1      33.145  24.663  21.572  1.00  0.00     0.036 C 
ATOM     26  C   UNL A   1      32.789  26.952  22.332  1.00  0.00     0.036 C 
ATOM     27  C   UNL A   1      32.140  25.809  21.519  1.00  0.00     0.010 C 
ENDBRANCH  18  19
ENDBRANCH  12  18
ENDBRANCH   6   8
ENDBRANCH   5   6
ENDBRANCH   4   5
ENDBRANCH   3   4
ENDBRANCH   2   3
ENDBRANCH   1   2
BRANCH   1  28
ATOM     28  C   UNL A   1      31.800  30.647  26.555  1.00  0.00     0.261 C 
BRANCH  28  29
ATOM     29  O   UNL A   1      32.885  30.503  27.458  1.00  0.00    -0.460 OA
BRANCH  29  30
ATOM     30  C   UNL A   1      33.595  31.651  27.556  1.00  0.00     0.338 C 
ATOM     31  O   UNL A   1      33.174  32.785  27.623  1.00  0.00    -0.246 OA
BRANCH  30  32
ATOM     32  C   UNL A   1      34.962  31.260  27.908  1.00  0.00     0.060 A 
ATOM     33  C   UNL A   1      35.207  29.884  27.937  1.00  0.00     0.016 A 
ATOM     34  C   UNL A   1      35.978  32.199  28.115  1.00  0.00     0.016 A 
ATOM     35  C   UNL A   1      36.467  29.432  28.274  1.00  0.00     0.010 A 
ATOM     36  C   UNL A   1      37.244  31.743  28.457  1.00  0.00     0.010 A 
ATOM     37  C   UNL A   1      37.460  30.362  28.599  1.00  0.00    -0.014 A 
BRANCH  37  38
ATOM     38  C   UNL A   1      38.621  29.862  29.346  1.00  0.00     0.031 A 
ATOM     39  C   UNL A   1      38.730  30.256  30.789  1.00  0.00     0.074 A 
ATOM     40  C   UNL A   1      39.474  29.003  28.769  1.00  0.00     0.049 A 
ATOM     41  N   UNL A   1      39.617  29.899  31.675  1.00  0.00    -0.248 NA
ATOM     42  C   UNL A   1      37.692  31.167  31.309  1.00  0.00     0.031 C 
ATOM     43  C   UNL A   1      39.399  28.544  27.382  1.00  0.00     0.029 A 
ATOM     44  N   UNL A   1      40.570  28.369  29.283  1.00  0.00    -0.354 N 
ATOM     45  C   UNL A   1      39.263  30.561  32.843  1.00  0.00     0.074 A 
ATOM     46  C   UNL A   1      38.086  31.347  32.559  1.00  0.00     0.031 C 
ATOM     47  C   UNL A   1      40.429  27.713  27.147  1.00  0.00     0.029 A 
ATOM     48  C   UNL A   1      41.243  27.615  28.356  1.00  0.00     0.049 A 
ATOM     49  H   UNL A   1      40.848  28.447  30.224  1.00  0.00     0.167 HD
ATOM     50  C   UNL A   1      39.868  30.506  34.050  1.00  0.00     0.034 A 
ATOM     51  C   UNL A   1      42.406  26.950  28.477  1.00  0.00     0.034 A 
ATOM     52  C   UNL A   1      41.032  29.706  34.306  1.00  0.00     0.049 A 
ATOM     53  C   UNL A   1      43.085  26.944  29.820  1.00  0.00     0.074 A 
ATOM     54  C   UNL A   1      41.718  29.542  35.493  1.00  0.00     0.029 A 
ATOM     55  N   UNL A   1      41.694  28.954  33.347  1.00  0.00    -0.354 N 
ATOM     56  N   UNL A   1      42.694  27.495  30.945  1.00  0.00    -0.248 NA
ATOM     57  C   UNL A   1      44.347  26.203  29.919  1.00  0.00     0.031 C 
ATOM     58  C   UNL A   1      42.826  28.727  35.239  1.00  0.00     0.029 A 
ATOM     59  C   UNL A   1      42.801  28.344  33.907  1.00  0.00     0.049 A 
ATOM     60  H   UNL A   1      41.416  28.866  32.406  1.00  0.00     0.167 HD
ATOM     61  C   UNL A   1      43.649  27.150  31.893  1.00  0.00     0.074 A 
ATOM     62  C   UNL A   1      44.621  26.316  31.212  1.00  0.00     0.031 C 
ATOM     63  C   UNL A   1      43.729  27.496  33.202  1.00  0.00     0.034 A 
BRANCH  50  64
ATOM     64  C   UNL A   1      39.295  31.340  35.162  1.00  0.00     0.023 A 
ATOM     65  C   UNL A   1      38.344  30.792  36.047  1.00  0.00     0.012 A 
ATOM     66  C   UNL A   1      39.731  32.665  35.351  1.00  0.00     0.148 A 
ATOM     67  C   UNL A   1      37.820  31.558  37.088  1.00  0.00     0.002 A 
ATOM     68  C   UNL A   1      39.241  33.407  36.417  1.00  0.00     0.091 A 
ATOM     69  F   UNL A   1      40.610  33.178  34.477  1.00  0.00    -0.205 F 
ATOM     70  C   UNL A   1      38.276  32.860  37.279  1.00  0.00     0.022 A 
BRANCH  68  71
ATOM     71  S   UNL A   1      39.822  35.063  36.791  1.00  0.00     0.127 S 
ATOM     72  O   UNL A   1      39.359  35.811  35.623  1.00  0.00    -0.237 OA
ATOM     73  O   UNL A   1      39.106  35.363  38.031  1.00  0.00    -0.237 OA
ATOM     74  O   UNL A   1      41.268  34.963  36.932  1.00  0.00    -0.744 OA
ENDBRANCH  68  71
ENDBRANCH  50  64
BRANCH  51  75
ATOM     75  C   UNL A   1      42.990  26.255  27.298  1.00  0.00     0.023 A 
ATOM     76  C   UNL A   1      43.922  26.916  26.478  1.00  0.00     0.012 A 
ATOM     77  C   UNL A   1      42.640  24.923  27.007  1.00  0.00     0.148 A 
ATOM     78  C   UNL A   1      44.476  26.270  25.371  1.00  0.00     0.002 A 
ATOM     79  C   UNL A   1      43.237  24.266  25.940  1.00  0.00     0.091 A 
ATOM     80  F   UNL A   1      41.738  24.317  27.793  1.00  0.00    -0.205 F 
ATOM     81  C   UNL A   1      44.142  24.943  25.109  1.00  0.00     0.022 A 
BRANCH  79  82
ATOM     82  S   UNL A   1      42.963  22.521  25.613  1.00  0.00     0.127 S 
ATOM     83  O   UNL A   1      43.431  22.399  24.234  1.00  0.00    -0.237 OA
ATOM     84  O   UNL A   1      43.823  21.889  26.614  1.00  0.00    -0.237 OA
ATOM     85  O   UNL A   1      41.539  22.300  25.821  1.00  0.00    -0.744 OA
ENDBRANCH  79  82
ENDBRANCH  51  75
BRANCH  63  86
ATOM     86  C   UNL A   1      44.894  26.956  33.985  1.00  0.00     0.023 A 
ATOM     87  C   UNL A   1      46.062  27.731  34.132  1.00  0.00     0.012 A 
ATOM     88  C   UNL A   1      44.801  25.711  34.636  1.00  0.00     0.148 A 
ATOM     89  C   UNL A   1      47.135  27.255  34.882  1.00  0.00     0.002 A 
ATOM     90  C   UNL A   1      45.851  25.269  35.428  1.00  0.00     0.091 A 
ATOM     91  F   UNL A   1      43.684  24.986  34.473  1.00  0.00    -0.205 F 
ATOM     92  C   UNL A   1      47.025  26.032  35.539  1.00  0.00     0.022 A 
BRANCH  90  93
ATOM     93  S   UNL A   1      45.760  23.759  36.395  1.00  0.00     0.127 S 
ATOM     94  O   UNL A   1      45.137  22.836  35.448  1.00  0.00    -0.237 OA
ATOM     95  O   UNL A   1      47.170  23.487  36.676  1.00  0.00    -0.237 OA
ATOM     96  O   UNL A   1      44.960  24.079  37.569  1.00  0.00    -0.744 OA
ENDBRANCH  90  93
ENDBRANCH  63  86
ENDBRANCH  37  38
ENDBRANCH  30  32
ENDBRANCH  29  30
ENDBRANCH  28  29
ENDBRANCH   1  28
TORSDOF 20
ENDMDL
MODEL 2
REMARK VINA RESULT:     -11.6      1.601      2.724
REMARK SMILES [NH3+][C@]1(C(=O)OCCOCCOC(=O)c2ccc(-c3c4nc(c(-c5cccc(S(=O)(=O)[O-])c5F)c5ccc([nH]5)c(-c5cccc(S(=O)(=O)[O-])c5F)c5nc(c(-c6cccc(S(=O)(=O)[O-])c6F)c6ccc3[nH]6)C=C5)C=C4)cc2)CCC[C@@H](Oc2ccc3c(c2)CCC3)C1
REMARK SMILES IDX 9 1 8 2 7 3 6 4 5 5 3 6 4 7 2 8 77 9 91 10 78 11 80 12 79 13
REMARK SMILES IDX 1 14 81 18 82 19 83 20 87 21 84 22 86 23 85 24 88 25 90 26
REMARK SMILES IDX 89 27 10 28 11 29 12 30 13 31 14 32 15 33 76 34 16 35 75 36
REMARK SMILES IDX 17 37 18 38 19 39 69 40 20 41 74 42 68 43 70 44 21 45 73 46
REMARK SMILES IDX 67 47 66 48 22 50 54 51 34 52 53 53 35 54 38 55 52 56 71 57
REMARK SMILES IDX 36 58 37 59 51 61 72 62 39 63 23 64 24 65 32 66 25 67 27 68
REMARK SMILES IDX 33 69 26 70 28 71 29 72 30 73 31 74 55 75 56 76 64 77 57 78
REMARK SMILES IDX 59 79 65 80 58 81 60 82 61 83 62 84 63 85 40 86 41 87 49 88
REMARK SMILES IDX 42 89 44 90 50 91 43 92 45 93 46 94 47 95 48 96
REMARK H PARENT 1 15 1 16 1 17 70 49 38 60
REMARK Flexibility Score: inf
ROOT
ATOM      1  C   UNL A   1      32.111  30.048  25.384  1.00  0.00     0.202 C 
ENDROOT
BRANCH   1   2
ATOM      2  O   UNL A   1      31.037  29.202  24.971  1.00  0.00    -0.374 OA
BRANCH   2   3
ATOM      3  C   UNL A   1      31.252  28.471  23.743  1.00  0.00     0.202 C 
BRANCH   3   4
ATOM      4  C   UNL A   1      30.102  27.597  23.176  1.00  0.00     0.261 C 
BRANCH   4   5
ATOM      5  O   UNL A   1      29.724  26.594  24.155  1.00  0.00    -0.459 OA
BRANCH   5   6
ATOM      6  C   UNL A   1      30.298  25.344  24.189  1.00  0.00     0.368 C 
ATOM      7  O   UNL A   1      30.289  24.554  23.256  1.00  0.00    -0.245 OA
BRANCH   6   8
ATOM      8  C   UNL A   1      31.097  25.138  25.593  1.00  0.00     0.196 C 
ATOM      9  C   UNL A   1      30.668  23.860  26.411  1.00  0.00     0.081 C 
ATOM     10  C   UNL A   1      32.639  25.198  25.344  1.00  0.00     0.126 C 
ATOM     11  C   UNL A   1      31.740  22.911  27.014  1.00  0.00     0.011 C 
ATOM     12  C   UNL A   1      33.456  23.891  25.507  1.00  0.00     0.180 C 
ATOM     13  C   UNL A   1      33.188  23.335  26.886  1.00  0.00     0.046 C 
BRANCH   8  14
ATOM     14  N   UNL A   1      30.643  26.274  26.444  1.00  0.00    -0.343 N 
ATOM     15  H   UNL A   1      31.402  26.559  27.063  1.00  0.00     0.345 HD
ATOM     16  H   UNL A   1      29.841  25.982  27.001  1.00  0.00     0.345 HD
ATOM     17  H   UNL A   1      30.377  27.059  25.849  1.00  0.00     0.345 HD
ENDBRANCH   8  14
BRANCH  12  18
ATOM     18  O   UNL A   1      33.583  22.841  24.519  1.00  0.00    -0.490 OA
BRANCH  18  19
ATOM     19  C   UNL A   1      33.862  21.523  24.759  1.00  0.00     0.120 A 
ATOM     20  C   UNL A   1      35.169  21.118  25.032  1.00  0.00     0.047 A 
ATOM     21  C   UNL A   1      32.968  20.528  24.431  1.00  0.00     0.050 A 
ATOM     22  C   UNL A   1      35.544  19.753  24.927  1.00  0.00     0.008 A 
ATOM     23  C   UNL A   1      33.291  19.195  24.349  1.00  0.00    -0.041 A 
ATOM     24  C   UNL A   1      34.600  18.809  24.542  1.00  0.00    -0.045 A 
ATOM     25  C   UNL A   1      32.413  18.057  23.938  1.00  0.00     0.036 C 
ATOM     26  C   UNL A   1      34.735  17.358  24.182  1.00  0.00     0.036 C 
ATOM     27  C   UNL A   1      33.466  17.138  23.328  1.00  0.00     0.010 C 
ENDBRANCH  18  19
ENDBRANCH  12  18
ENDBRANCH   6   8
ENDBRANCH   5   6
ENDBRANCH   4   5
ENDBRANCH   3   4
ENDBRANCH   2   3
ENDBRANCH   1   2
BRANCH   1  28
ATOM     28  C   UNL A   1      31.919  31.090  26.502  1.00  0.00     0.261 C 
BRANCH  28  29
ATOM     29  O   UNL A   1      32.892  30.937  27.523  1.00  0.00    -0.460 OA
BRANCH  29  30
ATOM     30  C   UNL A   1      33.636  32.060  27.662  1.00  0.00     0.338 C 
ATOM     31  O   UNL A   1      33.249  33.203  27.764  1.00  0.00    -0.246 OA
BRANCH  30  32
ATOM     32  C   UNL A   1      34.990  31.616  28.004  1.00  0.00     0.060 A 
ATOM     33  C   UNL A   1      35.165  30.232  28.097  1.00  0.00     0.016 A 
ATOM     34  C   UNL A   1      36.056  32.510  28.143  1.00  0.00     0.016 A 
ATOM     35  C   UNL A   1      36.408  29.733  28.430  1.00  0.00     0.010 A 
ATOM     36  C   UNL A   1      37.305  32.007  28.481  1.00  0.00     0.010 A 
ATOM     37  C   UNL A   1      37.454  30.625  28.688  1.00  0.00    -0.014 A 
BRANCH  37  38
ATOM     38  C   UNL A   1      38.605  30.103  29.434  1.00  0.00     0.031 A 
ATOM     39  C   UNL A   1      38.787  30.588  30.842  1.00  0.00     0.074 A 
ATOM     40  C   UNL A   1      39.382  29.152  28.897  1.00  0.00     0.049 A 
ATOM     41  N   UNL A   1      39.679  30.237  31.726  1.00  0.00    -0.248 NA
ATOM     42  C   UNL A   1      37.827  31.600  31.325  1.00  0.00     0.031 C 
ATOM     43  C   UNL A   1      39.232  28.603  27.549  1.00  0.00     0.029 A 
ATOM     44  N   UNL A   1      40.452  28.485  29.422  1.00  0.00    -0.354 N 
ATOM     45  C   UNL A   1      39.407  31.000  32.853  1.00  0.00     0.074 A 
ATOM     46  C   UNL A   1      38.274  31.840  32.547  1.00  0.00     0.031 C 
ATOM     47  C   UNL A   1      40.198  27.692  27.344  1.00  0.00     0.029 A 
ATOM     48  C   UNL A   1      41.044  27.625  28.533  1.00  0.00     0.049 A 
ATOM     49  H   UNL A   1      40.765  28.609  30.347  1.00  0.00     0.167 HD
ATOM     50  C   UNL A   1      40.047  30.989  34.043  1.00  0.00     0.034 A 
ATOM     51  C   UNL A   1      42.166  26.895  28.668  1.00  0.00     0.034 A 
ATOM     52  C   UNL A   1      41.166  30.134  34.321  1.00  0.00     0.049 A 
ATOM     53  C   UNL A   1      42.888  26.937  29.987  1.00  0.00     0.074 A 
ATOM     54  C   UNL A   1      41.879  30.008  35.497  1.00  0.00     0.029 A 
ATOM     55  N   UNL A   1      41.746  29.275  33.400  1.00  0.00    -0.354 N 
ATOM     56  N   UNL A   1      42.571  27.590  31.080  1.00  0.00    -0.248 NA
ATOM     57  C   UNL A   1      44.103  26.124  30.103  1.00  0.00     0.031 C 
ATOM     58  C   UNL A   1      42.924  29.106  35.270  1.00  0.00     0.029 A 
ATOM     59  C   UNL A   1      42.831  28.634  33.970  1.00  0.00     0.049 A 
ATOM     60  H   UNL A   1      41.432  29.141  32.476  1.00  0.00     0.167 HD
ATOM     61  C   UNL A   1      43.532  27.250  32.023  1.00  0.00     0.074 A 
ATOM     62  C   UNL A   1      44.426  26.308  31.376  1.00  0.00     0.031 C 
ATOM     63  C   UNL A   1      43.678  27.680  33.301  1.00  0.00     0.034 A 
BRANCH  50  64
ATOM     64  C   UNL A   1      39.565  31.934  35.108  1.00  0.00     0.023 A 
ATOM     65  C   UNL A   1      39.820  33.316  35.003  1.00  0.00     0.012 A 
ATOM     66  C   UNL A   1      38.823  31.449  36.202  1.00  0.00     0.148 A 
ATOM     67  C   UNL A   1      39.363  34.198  35.983  1.00  0.00     0.002 A 
ATOM     68  C   UNL A   1      38.331  32.337  37.149  1.00  0.00     0.091 A 
ATOM     69  F   UNL A   1      38.622  30.127  36.301  1.00  0.00    -0.205 F 
ATOM     70  C   UNL A   1      38.610  33.711  37.048  1.00  0.00     0.022 A 
BRANCH  68  71
ATOM     71  S   UNL A   1      37.289  31.817  38.514  1.00  0.00     0.127 S 
ATOM     72  O   UNL A   1      38.164  32.052  39.661  1.00  0.00    -0.237 OA
ATOM     73  O   UNL A   1      36.161  32.743  38.407  1.00  0.00    -0.237 OA
ATOM     74  O   UNL A   1      36.957  30.422  38.261  1.00  0.00    -0.744 OA
ENDBRANCH  68  71
ENDBRANCH  50  64
BRANCH  51  75
ATOM     75  C   UNL A   1      42.665  26.083  27.525  1.00  0.00     0.023 A 
ATOM     76  C   UNL A   1      43.585  26.634  26.615  1.00  0.00     0.012 A 
ATOM     77  C   UNL A   1      42.246  24.749  27.359  1.00  0.00     0.148 A 
ATOM     78  C   UNL A   1      44.059  25.877  25.541  1.00  0.00     0.002 A 
ATOM     79  C   UNL A   1      42.765  23.983  26.323  1.00  0.00     0.091 A 
ATOM     80  F   UNL A   1      41.356  24.249  28.229  1.00  0.00    -0.205 F 
ATOM     81  C   UNL A   1      43.658  24.550  25.403  1.00  0.00     0.022 A 
BRANCH  79  82
ATOM     82  S   UNL A   1      42.403  22.232  26.151  1.00  0.00     0.127 S 
ATOM     83  O   UNL A   1      42.816  21.712  27.452  1.00  0.00    -0.237 OA
ATOM     84  O   UNL A   1      40.957  22.245  25.922  1.00  0.00    -0.237 OA
ATOM     85  O   UNL A   1      43.186  21.779  25.010  1.00  0.00    -0.744 OA
ENDBRANCH  79  82
ENDBRANCH  51  75
BRANCH  63  86
ATOM     86  C   UNL A   1      44.832  27.120  34.087  1.00  0.00     0.023 A 
ATOM     87  C   UNL A   1      46.048  27.830  34.152  1.00  0.00     0.012 A 
ATOM     88  C   UNL A   1      44.684  25.926  34.819  1.00  0.00     0.148 A 
ATOM     89  C   UNL A   1      47.113  27.338  34.904  1.00  0.00     0.002 A 
ATOM     90  C   UNL A   1      45.730  25.472  35.611  1.00  0.00     0.091 A 
ATOM     91  F   UNL A   1      43.522  25.262  34.733  1.00  0.00    -0.205 F 
ATOM     92  C   UNL A   1      46.950  26.167  35.641  1.00  0.00     0.022 A 
BRANCH  90  93
ATOM     93  S   UNL A   1      45.579  24.035  36.675  1.00  0.00     0.127 S 
ATOM     94  O   UNL A   1      44.686  23.179  35.895  1.00  0.00    -0.237 OA
ATOM     95  O   UNL A   1      46.961  23.563  36.756  1.00  0.00    -0.237 OA
ATOM     96  O   UNL A   1      45.031  24.521  37.935  1.00  0.00    -0.744 OA
ENDBRANCH  90  93
ENDBRANCH  63  86
ENDBRANCH  37  38
ENDBRANCH  30  32
ENDBRANCH  29  30
ENDBRANCH  28  29
ENDBRANCH   1  28
TORSDOF 20
ENDMDL
MODEL 3
REMARK VINA RESULT:     -11.5      1.595      8.192
REMARK SMILES [NH3+][C@]1(C(=O)OCCOCCOC(=O)c2ccc(-c3c4nc(c(-c5cccc(S(=O)(=O)[O-])c5F)c5ccc([nH]5)c(-c5cccc(S(=O)(=O)[O-])c5F)c5nc(c(-c6cccc(S(=O)(=O)[O-])c6F)c6ccc3[nH]6)C=C5)C=C4)cc2)CCC[C@@H](Oc2ccc3c(c2)CCC3)C1
REMARK SMILES IDX 9 1 8 2 7 3 6 4 5 5 3 6 4 7 2 8 77 9 91 10 78 11 80 12 79 13
REMARK SMILES IDX 1 14 81 18 82 19 83 20 87 21 84 22 86 23 85 24 88 25 90 26
REMARK SMILES IDX 89 27 10 28 11 29 12 30 13 31 14 32 15 33 76 34 16 35 75 36
REMARK SMILES IDX 17 37 18 38 19 39 69 40 20 41 74 42 68 43 70 44 21 45 73 46
REMARK SMILES IDX 67 47 66 48 22 50 54 51 34 52 53 53 35 54 38 55 52 56 71 57
REMARK SMILES IDX 36 58 37 59 51 61 72 62 39 63 23 64 24 65 32 66 25 67 27 68
REMARK SMILES IDX 33 69 26 70 28 71 29 72 30 73 31 74 55 75 56 76 64 77 57 78
REMARK SMILES IDX 59 79 65 80 58 81 60 82 61 83 62 84 63 85 40 86 41 87 49 88
REMARK SMILES IDX 42 89 44 90 50 91 43 92 45 93 46 94 47 95 48 96
REMARK H PARENT 1 15 1 16 1 17 70 49 38 60
REMARK Flexibility Score: inf
ROOT
ATOM      1  C   UNL A   1      31.601  30.071  25.408  1.00  0.00     0.202 C 
ENDROOT
BRANCH   1   2
ATOM      2  O   UNL A   1      30.514  29.958  24.488  1.00  0.00    -0.374 OA
BRANCH   2   3
ATOM      3  C   UNL A   1      30.249  28.627  23.992  1.00  0.00     0.202 C 
BRANCH   3   4
ATOM      4  C   UNL A   1      29.887  28.439  22.495  1.00  0.00     0.261 C 
BRANCH   4   5
ATOM      5  O   UNL A   1      30.658  27.341  21.940  1.00  0.00    -0.459 OA
BRANCH   5   6
ATOM      6  C   UNL A   1      30.998  26.231  22.680  1.00  0.00     0.368 C 
ATOM      7  O   UNL A   1      30.190  25.489  23.221  1.00  0.00    -0.245 OA
BRANCH   6   8
ATOM      8  C   UNL A   1      32.606  25.986  22.607  1.00  0.00     0.196 C 
ATOM      9  C   UNL A   1      33.362  26.186  23.977  1.00  0.00     0.081 C 
ATOM     10  C   UNL A   1      32.906  24.597  21.956  1.00  0.00     0.126 C 
ATOM     11  C   UNL A   1      34.405  25.142  24.462  1.00  0.00     0.011 C 
ATOM     12  C   UNL A   1      33.491  23.479  22.857  1.00  0.00     0.180 C 
ATOM     13  C   UNL A   1      34.743  24.010  23.514  1.00  0.00     0.046 C 
BRANCH   8  14
ATOM     14  N   UNL A   1      33.109  27.101  21.757  1.00  0.00    -0.343 N 
ATOM     15  H   UNL A   1      32.418  27.319  21.039  1.00  0.00     0.345 HD
ATOM     16  H   UNL A   1      33.984  26.822  21.313  1.00  0.00     0.345 HD
ATOM     17  H   UNL A   1      33.269  27.925  22.337  1.00  0.00     0.345 HD
ENDBRANCH   8  14
BRANCH  12  18
ATOM     18  O   UNL A   1      32.736  22.626  23.749  1.00  0.00    -0.490 OA
BRANCH  18  19
ATOM     19  C   UNL A   1      33.097  21.383  24.190  1.00  0.00     0.120 A 
ATOM     20  C   UNL A   1      34.266  21.209  24.931  1.00  0.00     0.047 A 
ATOM     21  C   UNL A   1      32.527  20.242  23.668  1.00  0.00     0.050 A 
ATOM     22  C   UNL A   1      34.843  19.922  25.088  1.00  0.00     0.008 A 
ATOM     23  C   UNL A   1      33.044  18.979  23.826  1.00  0.00    -0.041 A 
ATOM     24  C   UNL A   1      34.241  18.821  24.491  1.00  0.00    -0.045 A 
ATOM     25  C   UNL A   1      32.539  17.696  23.245  1.00  0.00     0.036 C 
ATOM     26  C   UNL A   1      34.699  17.401  24.335  1.00  0.00     0.036 C 
ATOM     27  C   UNL A   1      33.860  16.943  23.121  1.00  0.00     0.010 C 
ENDBRANCH  18  19
ENDBRANCH  12  18
ENDBRANCH   6   8
ENDBRANCH   5   6
ENDBRANCH   4   5
ENDBRANCH   3   4
ENDBRANCH   2   3
ENDBRANCH   1   2
BRANCH   1  28
ATOM     28  C   UNL A   1      31.706  31.268  26.372  1.00  0.00     0.261 C 
BRANCH  28  29
ATOM     29  O   UNL A   1      32.716  31.059  27.346  1.00  0.00    -0.460 OA
BRANCH  29  30
ATOM     30  C   UNL A   1      33.466  32.173  27.521  1.00  0.00     0.338 C 
ATOM     31  O   UNL A   1      33.093  33.325  27.551  1.00  0.00    -0.246 OA
BRANCH  30  32
ATOM     32  C   UNL A   1      34.772  31.718  28.003  1.00  0.00     0.060 A 
ATOM     33  C   UNL A   1      34.870  30.351  28.281  1.00  0.00     0.016 A 
ATOM     34  C   UNL A   1      35.874  32.574  28.096  1.00  0.00     0.016 A 
ATOM     35  C   UNL A   1      36.063  29.845  28.754  1.00  0.00     0.010 A 
ATOM     36  C   UNL A   1      37.073  32.065  28.575  1.00  0.00     0.010 A 
ATOM     37  C   UNL A   1      37.138  30.716  28.964  1.00  0.00    -0.014 A 
BRANCH  37  38
ATOM     38  C   UNL A   1      38.215  30.245  29.843  1.00  0.00     0.031 A 
ATOM     39  C   UNL A   1      39.186  29.257  29.269  1.00  0.00     0.074 A 
ATOM     40  C   UNL A   1      38.366  30.774  31.065  1.00  0.00     0.049 A 
ATOM     41  N   UNL A   1      40.252  28.739  29.813  1.00  0.00    -0.248 NA
ATOM     42  C   UNL A   1      38.930  28.797  27.890  1.00  0.00     0.031 C 
ATOM     43  C   UNL A   1      37.483  31.772  31.668  1.00  0.00     0.029 A 
ATOM     44  N   UNL A   1      39.318  30.538  32.017  1.00  0.00    -0.354 N 
ATOM     45  C   UNL A   1      40.774  27.875  28.859  1.00  0.00     0.074 A 
ATOM     46  C   UNL A   1      39.910  27.929  27.703  1.00  0.00     0.031 C 
ATOM     47  C   UNL A   1      37.925  32.048  32.906  1.00  0.00     0.029 A 
ATOM     48  C   UNL A   1      39.097  31.222  33.185  1.00  0.00     0.049 A 
ATOM     49  H   UNL A   1      40.086  29.938  31.877  1.00  0.00     0.167 HD
ATOM     50  C   UNL A   1      41.886  27.112  28.943  1.00  0.00     0.034 A 
ATOM     51  C   UNL A   1      39.758  31.153  34.355  1.00  0.00     0.034 A 
ATOM     52  C   UNL A   1      42.731  27.087  30.102  1.00  0.00     0.049 A 
ATOM     53  C   UNL A   1      40.964  30.258  34.438  1.00  0.00     0.074 A 
ATOM     54  C   UNL A   1      43.902  26.380  30.298  1.00  0.00     0.029 A 
ATOM     55  N   UNL A   1      42.481  27.788  31.272  1.00  0.00    -0.354 N 
ATOM     56  N   UNL A   1      41.506  29.515  33.501  1.00  0.00    -0.248 NA
ATOM     57  C   UNL A   1      41.666  30.211  35.725  1.00  0.00     0.031 C 
ATOM     58  C   UNL A   1      44.332  26.616  31.607  1.00  0.00     0.029 A 
ATOM     59  C   UNL A   1      43.458  27.509  32.209  1.00  0.00     0.049 A 
ATOM     60  H   UNL A   1      41.719  28.396  31.415  1.00  0.00     0.167 HD
ATOM     61  C   UNL A   1      42.627  28.930  34.076  1.00  0.00     0.074 A 
ATOM     62  C   UNL A   1      42.699  29.431  35.436  1.00  0.00     0.031 C 
ATOM     63  C   UNL A   1      43.512  28.051  33.543  1.00  0.00     0.034 A 
BRANCH  50  64
ATOM     64  C   UNL A   1      42.230  26.240  27.768  1.00  0.00     0.023 A 
ATOM     65  C   UNL A   1      43.028  26.739  26.719  1.00  0.00     0.012 A 
ATOM     66  C   UNL A   1      41.787  24.904  27.723  1.00  0.00     0.148 A 
ATOM     67  C   UNL A   1      43.361  25.929  25.633  1.00  0.00     0.002 A 
ATOM     68  C   UNL A   1      42.161  24.089  26.663  1.00  0.00     0.091 A 
ATOM     69  F   UNL A   1      41.000  24.459  28.714  1.00  0.00    -0.205 F 
ATOM     70  C   UNL A   1      42.937  24.603  25.611  1.00  0.00     0.022 A 
BRANCH  68  71
ATOM     71  S   UNL A   1      41.729  22.349  26.581  1.00  0.00     0.127 S 
ATOM     72  O   UNL A   1      42.291  21.845  27.833  1.00  0.00    -0.237 OA
ATOM     73  O   UNL A   1      40.267  22.400  26.546  1.00  0.00    -0.237 OA
ATOM     74  O   UNL A   1      42.350  21.834  25.369  1.00  0.00    -0.744 OA
ENDBRANCH  68  71
ENDBRANCH  50  64
BRANCH  51  75
ATOM     75  C   UNL A   1      39.283  31.941  35.523  1.00  0.00     0.023 A 
ATOM     76  C   UNL A   1      38.379  31.373  36.440  1.00  0.00     0.012 A 
ATOM     77  C   UNL A   1      39.753  33.251  35.741  1.00  0.00     0.148 A 
ATOM     78  C   UNL A   1      37.931  32.107  37.540  1.00  0.00     0.002 A 
ATOM     79  C   UNL A   1      39.349  33.954  36.868  1.00  0.00     0.091 A 
ATOM     80  F   UNL A   1      40.602  33.778  34.847  1.00  0.00    -0.205 F 
ATOM     81  C   UNL A   1      38.424  33.391  37.760  1.00  0.00     0.022 A 
BRANCH  79  82
ATOM     82  S   UNL A   1      40.036  35.558  37.295  1.00  0.00     0.127 S 
ATOM     83  O   UNL A   1      39.401  35.821  38.584  1.00  0.00    -0.237 OA
ATOM     84  O   UNL A   1      41.468  35.264  37.360  1.00  0.00    -0.237 OA
ATOM     85  O   UNL A   1      39.656  36.450  36.208  1.00  0.00    -0.744 OA
ENDBRANCH  79  82
ENDBRANCH  51  75
BRANCH  63  86
ATOM     86  C   UNL A   1      44.642  27.593  34.424  1.00  0.00     0.023 A 
ATOM     87  C   UNL A   1      45.846  28.324  34.458  1.00  0.00     0.012 A 
ATOM     88  C   UNL A   1      44.480  26.480  35.271  1.00  0.00     0.148 A 
ATOM     89  C   UNL A   1      46.888  27.929  35.294  1.00  0.00     0.002 A 
ATOM     90  C   UNL A   1      45.500  26.126  36.143  1.00  0.00     0.091 A 
ATOM     91  F   UNL A   1      43.330  25.793  35.213  1.00  0.00    -0.205 F 
ATOM     92  C   UNL A   1      46.710  26.839  36.144  1.00  0.00     0.022 A 
BRANCH  90  93
ATOM     93  S   UNL A   1      45.326  24.805  37.345  1.00  0.00     0.127 S 
ATOM     94  O   UNL A   1      44.135  25.227  38.080  1.00  0.00    -0.237 OA
ATOM     95  O   UNL A   1      45.134  23.633  36.492  1.00  0.00    -0.237 OA
ATOM     96  O   UNL A   1      46.562  24.797  38.117  1.00  0.00    -0.744 OA
ENDBRANCH  90  93
ENDBRANCH  63  86
ENDBRANCH  37  38
ENDBRANCH  30  32
ENDBRANCH  29  30
ENDBRANCH  28  29
ENDBRANCH   1  28
TORSDOF 20
ENDMDL
