MODEL 1
REMARK VINA RESULT:     -10.8      0.000      0.000
REMARK SMILES NS(=O)(=O)c1ccc(-n2nc(C(=O)OCCOCCOC(=O)c3ccc(-c4c5nc(c(-c6cccc(S(=O)(=O)[O-])c6F)c6ccc([nH]6)c(-c6cccc(S(=O)(=O)[O-])c6F)c6nc(c(-c7cccc(S(=O)(=O)[O-])c7F)c7ccc4[nH]7)C=C6)C=C5)cc3)cc2-c2ccc(Cl)s2)cc1
REMARK SMILES IDX 17 1 16 2 15 3 14 4 12 5 13 6 11 7 9 8 10 9 87 10 86 11 8 12
REMARK SMILES IDX 5 13 6 14 95 15 7 16 94 17 2 18 3 19 4 20 1 21 88 24 89 25
REMARK SMILES IDX 93 26 90 27 91 28 92 29 18 30 19 31 20 32 21 33 22 34 23 35
REMARK SMILES IDX 24 36 85 37 25 38 84 39 26 40 27 41 28 42 78 43 29 44 83 45
REMARK SMILES IDX 77 46 79 47 30 48 82 49 76 50 75 51 31 53 63 54 43 55 62 56
REMARK SMILES IDX 44 57 47 58 61 59 80 60 45 61 46 62 60 64 81 65 48 66 32 67
REMARK SMILES IDX 33 68 41 69 34 70 36 71 42 72 35 73 37 74 38 75 39 76 40 77
REMARK SMILES IDX 64 78 65 79 73 80 66 81 68 82 74 83 67 84 69 85 70 86 71 87
REMARK SMILES IDX 72 88 49 89 50 90 58 91 51 92 53 93 59 94 52 95 54 96 55 97
REMARK SMILES IDX 56 98 57 99
REMARK H PARENT 1 22 1 23 79 52 47 63
REMARK Flexibility Score: inf
ROOT
ATOM      1  O   UNL A   1      33.200  34.407  29.951  1.00  0.00    -0.374 OA
ENDROOT
BRANCH   1   2
ATOM      2  C   UNL A   1      33.541  34.664  28.591  1.00  0.00     0.202 C 
BRANCH   2   3
ATOM      3  C   UNL A   1      34.250  33.551  27.814  1.00  0.00     0.261 C 
BRANCH   3   4
ATOM      4  O   UNL A   1      33.560  32.295  27.897  1.00  0.00    -0.458 OA
BRANCH   4   5
ATOM      5  C   UNL A   1      34.319  31.192  27.613  1.00  0.00     0.358 C 
ATOM      6  O   UNL A   1      35.455  31.003  28.031  1.00  0.00    -0.244 OA
BRANCH   5   7
ATOM      7  C   UNL A   1      33.570  30.212  26.814  1.00  0.00     0.171 A 
ATOM      8  N   UNL A   1      33.146  28.422  25.719  1.00  0.00    -0.231 N 
ATOM      9  N   UNL A   1      34.044  28.975  26.568  1.00  0.00    -0.160 NA
ATOM     10  C   UNL A   1      32.078  29.265  25.465  1.00  0.00     0.085 A 
ATOM     11  C   UNL A   1      32.291  30.387  26.237  1.00  0.00     0.068 A 
BRANCH   8  12
ATOM     12  C   UNL A   1      33.456  27.200  25.079  1.00  0.00     0.065 A 
ATOM     13  C   UNL A   1      33.850  24.782  23.780  1.00  0.00     0.082 A 
ATOM     14  C   UNL A   1      33.861  25.971  23.043  1.00  0.00     0.024 A 
ATOM     15  C   UNL A   1      33.668  24.797  25.169  1.00  0.00     0.024 A 
ATOM     16  C   UNL A   1      33.649  27.185  23.693  1.00  0.00     0.030 A 
ATOM     17  C   UNL A   1      33.498  26.018  25.830  1.00  0.00     0.030 A 
BRANCH  13  18
ATOM     18  S   UNL A   1      34.048  23.247  22.926  1.00  0.00     0.238 S 
ATOM     19  O   UNL A   1      33.262  22.228  23.575  1.00  0.00    -0.207 OA
ATOM     20  O   UNL A   1      35.447  23.063  22.601  1.00  0.00    -0.207 OA
BRANCH  18  21
ATOM     21  N   UNL A   1      33.267  23.532  21.466  1.00  0.00    -0.225 NA
ATOM     22  H   UNL A   1      32.307  23.828  21.646  1.00  0.00     0.137 HD
ATOM     23  H   UNL A   1      33.261  22.676  20.911  1.00  0.00     0.137 HD
ENDBRANCH  18  21
ENDBRANCH  13  18
ENDBRANCH   8  12
BRANCH  10  24
ATOM     24  C   UNL A   1      30.986  29.011  24.572  1.00  0.00     0.054 A 
ATOM     25  C   UNL A   1      30.461  27.766  24.279  1.00  0.00     0.024 A 
ATOM     26  S   UNL A   1      30.183  30.250  23.702  1.00  0.00    -0.122 S 
ATOM     27  C   UNL A   1      29.360  27.841  23.378  1.00  0.00     0.033 A 
ATOM     28  C   UNL A   1      29.115  29.137  23.008  1.00  0.00     0.094 A 
ATOM     29  Cl  UNL A   1      27.870  29.679  21.959  1.00  0.00    -0.072 Cl
ENDBRANCH  10  24
ENDBRANCH   5   7
ENDBRANCH   4   5
ENDBRANCH   3   4
ENDBRANCH   2   3
ENDBRANCH   1   2
BRANCH   1  30
ATOM     30  C   UNL A   1      34.229  34.371  30.934  1.00  0.00     0.202 C 
BRANCH  30  31
ATOM     31  C   UNL A   1      34.760  33.024  31.395  1.00  0.00     0.261 C 
BRANCH  31  32
ATOM     32  O   UNL A   1      36.032  32.705  30.849  1.00  0.00    -0.460 OA
BRANCH  32  33
ATOM     33  C   UNL A   1      36.988  32.553  31.795  1.00  0.00     0.338 C 
ATOM     34  O   UNL A   1      37.034  33.104  32.883  1.00  0.00    -0.246 OA
BRANCH  33  35
ATOM     35  C   UNL A   1      38.086  31.761  31.239  1.00  0.00     0.060 A 
ATOM     36  C   UNL A   1      37.901  30.378  31.188  1.00  0.00     0.016 A 
ATOM     37  C   UNL A   1      39.342  32.351  31.025  1.00  0.00     0.016 A 
ATOM     38  C   UNL A   1      39.014  29.573  31.082  1.00  0.00     0.010 A 
ATOM     39  C   UNL A   1      40.453  31.545  30.934  1.00  0.00     0.010 A 
ATOM     40  C   UNL A   1      40.283  30.167  31.028  1.00  0.00    -0.014 A 
BRANCH  40  41
ATOM     41  C   UNL A   1      41.426  29.302  30.798  1.00  0.00     0.031 A 
ATOM     42  C   UNL A   1      42.059  28.959  32.093  1.00  0.00     0.074 A 
ATOM     43  C   UNL A   1      41.776  28.828  29.584  1.00  0.00     0.049 A 
ATOM     44  N   UNL A   1      43.146  29.467  32.574  1.00  0.00    -0.248 NA
ATOM     45  C   UNL A   1      41.271  28.206  33.087  1.00  0.00     0.031 C 
ATOM     46  C   UNL A   1      41.024  28.966  28.332  1.00  0.00     0.029 A 
ATOM     47  N   UNL A   1      42.814  28.018  29.222  1.00  0.00    -0.354 N 
ATOM     48  C   UNL A   1      43.337  28.801  33.778  1.00  0.00     0.074 A 
ATOM     49  C   UNL A   1      42.049  28.302  34.168  1.00  0.00     0.031 C 
ATOM     50  C   UNL A   1      41.483  28.066  27.432  1.00  0.00     0.029 A 
ATOM     51  C   UNL A   1      42.632  27.377  27.993  1.00  0.00     0.049 A 
ATOM     52  H   UNL A   1      43.618  27.897  29.777  1.00  0.00     0.167 HD
ATOM     53  C   UNL A   1      44.582  28.346  34.088  1.00  0.00     0.034 A 
ATOM     54  C   UNL A   1      43.335  26.318  27.509  1.00  0.00     0.034 A 
ATOM     55  C   UNL A   1      45.575  29.024  33.286  1.00  0.00     0.049 A 
ATOM     56  C   UNL A   1      44.615  26.281  28.242  1.00  0.00     0.074 A 
ATOM     57  C   UNL A   1      45.983  30.325  33.083  1.00  0.00     0.029 A 
ATOM     58  N   UNL A   1      45.981  28.299  32.197  1.00  0.00    -0.354 N 
ATOM     59  N   UNL A   1      45.546  27.179  28.096  1.00  0.00    -0.248 NA
ATOM     60  C   UNL A   1      44.712  25.459  29.436  1.00  0.00     0.031 C 
ATOM     61  C   UNL A   1      46.392  30.390  31.716  1.00  0.00     0.029 A 
ATOM     62  C   UNL A   1      46.303  29.116  31.157  1.00  0.00     0.049 A 
ATOM     63  H   UNL A   1      46.033  27.316  32.171  1.00  0.00     0.167 HD
ATOM     64  C   UNL A   1      46.006  27.380  29.387  1.00  0.00     0.074 A 
ATOM     65  C   UNL A   1      45.601  26.182  30.121  1.00  0.00     0.031 C 
ATOM     66  C   UNL A   1      46.361  28.634  29.794  1.00  0.00     0.034 A 
BRANCH  53  67
ATOM     67  C   UNL A   1      44.861  26.948  34.634  1.00  0.00     0.023 A 
ATOM     68  C   UNL A   1      45.846  26.850  35.644  1.00  0.00     0.012 A 
ATOM     69  C   UNL A   1      44.473  25.734  34.016  1.00  0.00     0.148 A 
ATOM     70  C   UNL A   1      46.448  25.628  35.972  1.00  0.00     0.002 A 
ATOM     71  C   UNL A   1      45.012  24.513  34.401  1.00  0.00     0.091 A 
ATOM     72  F   UNL A   1      43.676  25.740  32.950  1.00  0.00    -0.205 F 
ATOM     73  C   UNL A   1      46.026  24.456  35.356  1.00  0.00     0.022 A 
BRANCH  71  74
ATOM     74  S   UNL A   1      44.473  22.966  33.654  1.00  0.00     0.127 S 
ATOM     75  O   UNL A   1      44.519  23.298  32.233  1.00  0.00    -0.237 OA
ATOM     76  O   UNL A   1      45.511  22.044  34.114  1.00  0.00    -0.237 OA
ATOM     77  O   UNL A   1      43.149  22.698  34.201  1.00  0.00    -0.744 OA
ENDBRANCH  71  74
ENDBRANCH  53  67
BRANCH  54  78
ATOM     78  C   UNL A   1      42.945  25.181  26.632  1.00  0.00     0.023 A 
ATOM     79  C   UNL A   1      43.810  24.769  25.592  1.00  0.00     0.012 A 
ATOM     80  C   UNL A   1      41.908  24.305  27.012  1.00  0.00     0.148 A 
ATOM     81  C   UNL A   1      43.681  23.507  24.994  1.00  0.00     0.002 A 
ATOM     82  C   UNL A   1      41.784  23.051  26.415  1.00  0.00     0.091 A 
ATOM     83  F   UNL A   1      41.104  24.660  28.021  1.00  0.00    -0.205 F 
ATOM     84  C   UNL A   1      42.677  22.643  25.417  1.00  0.00     0.022 A 
BRANCH  82  85
ATOM     85  S   UNL A   1      40.542  21.863  26.941  1.00  0.00     0.127 S 
ATOM     86  O   UNL A   1      40.869  21.694  28.359  1.00  0.00    -0.237 OA
ATOM     87  O   UNL A   1      39.301  22.588  26.682  1.00  0.00    -0.237 OA
ATOM     88  O   UNL A   1      40.760  20.673  26.129  1.00  0.00    -0.744 OA
ENDBRANCH  82  85
ENDBRANCH  54  78
BRANCH  66  89
ATOM     89  C   UNL A   1      46.711  29.636  28.730  1.00  0.00     0.023 A 
ATOM     90  C   UNL A   1      47.995  29.775  28.165  1.00  0.00     0.012 A 
ATOM     91  C   UNL A   1      45.655  30.411  28.224  1.00  0.00     0.148 A 
ATOM     92  C   UNL A   1      48.220  30.693  27.134  1.00  0.00     0.002 A 
ATOM     93  C   UNL A   1      45.871  31.283  27.169  1.00  0.00     0.091 A 
ATOM     94  F   UNL A   1      44.443  30.272  28.784  1.00  0.00    -0.205 F 
ATOM     95  C   UNL A   1      47.155  31.439  26.627  1.00  0.00     0.022 A 
BRANCH  93  96
ATOM     96  S   UNL A   1      44.509  32.177  26.424  1.00  0.00     0.127 S 
ATOM     97  O   UNL A   1      45.136  32.753  25.237  1.00  0.00    -0.237 OA
ATOM     98  O   UNL A   1      43.544  31.111  26.153  1.00  0.00    -0.237 OA
ATOM     99  O   UNL A   1      44.064  33.136  27.428  1.00  0.00    -0.744 OA
ENDBRANCH  93  96
ENDBRANCH  66  89
ENDBRANCH  40  41
ENDBRANCH  33  35
ENDBRANCH  32  33
ENDBRANCH  31  32
ENDBRANCH  30  31
ENDBRANCH   1  30
TORSDOF 21
ENDMDL
MODEL 2
REMARK VINA RESULT:     -10.5      2.300      2.837
REMARK SMILES NS(=O)(=O)c1ccc(-n2nc(C(=O)OCCOCCOC(=O)c3ccc(-c4c5nc(c(-c6cccc(S(=O)(=O)[O-])c6F)c6ccc([nH]6)c(-c6cccc(S(=O)(=O)[O-])c6F)c6nc(c(-c7cccc(S(=O)(=O)[O-])c7F)c7ccc4[nH]7)C=C6)C=C5)cc3)cc2-c2ccc(Cl)s2)cc1
REMARK SMILES IDX 17 1 16 2 15 3 14 4 12 5 13 6 11 7 9 8 10 9 87 10 86 11 8 12
REMARK SMILES IDX 5 13 6 14 95 15 7 16 94 17 2 18 3 19 4 20 1 21 88 24 89 25
REMARK SMILES IDX 93 26 90 27 91 28 92 29 18 30 19 31 20 32 21 33 22 34 23 35
REMARK SMILES IDX 24 36 85 37 25 38 84 39 26 40 27 41 28 42 78 43 29 44 83 45
REMARK SMILES IDX 77 46 79 47 30 48 82 49 76 50 75 51 31 53 63 54 43 55 62 56
REMARK SMILES IDX 44 57 47 58 61 59 80 60 45 61 46 62 60 64 81 65 48 66 32 67
REMARK SMILES IDX 33 68 41 69 34 70 36 71 42 72 35 73 37 74 38 75 39 76 40 77
REMARK SMILES IDX 64 78 65 79 73 80 66 81 68 82 74 83 67 84 69 85 70 86 71 87
REMARK SMILES IDX 72 88 49 89 50 90 58 91 51 92 53 93 59 94 52 95 54 96 55 97
REMARK SMILES IDX 56 98 57 99
REMARK H PARENT 1 22 1 23 79 52 47 63
REMARK Flexibility Score: inf
ROOT
ATOM      1  O   UNL A   1      32.742  34.200  28.241  1.00  0.00    -0.374 OA
ENDROOT
BRANCH   1   2
ATOM      2  C   UNL A   1      33.169  33.219  27.298  1.00  0.00     0.202 C 
BRANCH   2   3
ATOM      3  C   UNL A   1      32.198  32.080  26.971  1.00  0.00     0.261 C 
BRANCH   3   4
ATOM      4  O   UNL A   1      32.587  30.835  27.569  1.00  0.00    -0.458 OA
BRANCH   4   5
ATOM      5  C   UNL A   1      33.692  30.242  27.019  1.00  0.00     0.358 C 
ATOM      6  O   UNL A   1      34.844  30.619  27.196  1.00  0.00    -0.244 OA
BRANCH   5   7
ATOM      7  C   UNL A   1      33.334  29.039  26.255  1.00  0.00     0.171 A 
ATOM      8  N   UNL A   1      33.204  26.970  25.718  1.00  0.00    -0.231 N 
ATOM      9  N   UNL A   1      33.545  27.797  26.734  1.00  0.00    -0.160 NA
ATOM     10  C   UNL A   1      32.725  27.663  24.619  1.00  0.00     0.085 A 
ATOM     11  C   UNL A   1      32.716  28.992  24.985  1.00  0.00     0.068 A 
BRANCH   8  12
ATOM     12  C   UNL A   1      33.518  25.595  25.805  1.00  0.00     0.065 A 
ATOM     13  C   UNL A   1      34.080  22.880  25.765  1.00  0.00     0.082 A 
ATOM     14  C   UNL A   1      35.073  23.795  25.403  1.00  0.00     0.024 A 
ATOM     15  C   UNL A   1      32.812  23.316  26.172  1.00  0.00     0.024 A 
ATOM     16  C   UNL A   1      34.787  25.158  25.409  1.00  0.00     0.030 A 
ATOM     17  C   UNL A   1      32.536  24.687  26.221  1.00  0.00     0.030 A 
BRANCH  13  18
ATOM     18  S   UNL A   1      34.439  21.151  25.681  1.00  0.00     0.238 S 
ATOM     19  O   UNL A   1      35.840  20.935  25.940  1.00  0.00    -0.207 OA
ATOM     20  O   UNL A   1      33.762  20.583  24.534  1.00  0.00    -0.207 OA
BRANCH  18  21
ATOM     21  N   UNL A   1      33.650  20.542  27.033  1.00  0.00    -0.225 NA
ATOM     22  H   UNL A   1      33.493  21.296  27.703  1.00  0.00     0.137 HD
ATOM     23  H   UNL A   1      34.224  19.817  27.464  1.00  0.00     0.137 HD
ENDBRANCH  18  21
ENDBRANCH  13  18
ENDBRANCH   8  12
BRANCH  10  24
ATOM     24  C   UNL A   1      32.331  27.098  23.362  1.00  0.00     0.054 A 
ATOM     25  C   UNL A   1      31.029  26.890  22.948  1.00  0.00     0.024 A 
ATOM     26  S   UNL A   1      33.456  26.566  22.183  1.00  0.00    -0.122 S 
ATOM     27  C   UNL A   1      30.959  26.340  21.636  1.00  0.00     0.033 A 
ATOM     28  C   UNL A   1      32.212  26.133  21.121  1.00  0.00     0.094 A 
ATOM     29  Cl  UNL A   1      32.587  25.511  19.567  1.00  0.00    -0.072 Cl
ENDBRANCH  10  24
ENDBRANCH   5   7
ENDBRANCH   4   5
ENDBRANCH   3   4
ENDBRANCH   2   3
ENDBRANCH   1   2
BRANCH   1  30
ATOM     30  C   UNL A   1      33.509  34.415  29.421  1.00  0.00     0.202 C 
BRANCH  30  31
ATOM     31  C   UNL A   1      34.902  33.817  29.513  1.00  0.00     0.261 C 
BRANCH  31  32
ATOM     32  O   UNL A   1      34.898  32.414  29.736  1.00  0.00    -0.460 OA
BRANCH  32  33
ATOM     33  C   UNL A   1      35.084  32.087  31.036  1.00  0.00     0.338 C 
ATOM     34  O   UNL A   1      34.429  32.478  31.989  1.00  0.00    -0.246 OA
BRANCH  33  35
ATOM     35  C   UNL A   1      36.329  31.330  31.163  1.00  0.00     0.060 A 
ATOM     36  C   UNL A   1      37.503  32.068  31.322  1.00  0.00     0.016 A 
ATOM     37  C   UNL A   1      36.350  29.956  30.873  1.00  0.00     0.016 A 
ATOM     38  C   UNL A   1      38.703  31.460  31.028  1.00  0.00     0.010 A 
ATOM     39  C   UNL A   1      37.548  29.355  30.566  1.00  0.00     0.010 A 
ATOM     40  C   UNL A   1      38.704  30.130  30.584  1.00  0.00    -0.014 A 
BRANCH  40  41
ATOM     41  C   UNL A   1      39.988  29.480  30.395  1.00  0.00     0.031 A 
ATOM     42  C   UNL A   1      40.660  29.316  31.705  1.00  0.00     0.074 A 
ATOM     43  C   UNL A   1      40.431  29.025  29.205  1.00  0.00     0.049 A 
ATOM     44  N   UNL A   1      41.630  30.035  32.165  1.00  0.00    -0.248 NA
ATOM     45  C   UNL A   1      40.012  28.476  32.730  1.00  0.00     0.031 C 
ATOM     46  C   UNL A   1      39.680  28.969  27.946  1.00  0.00     0.029 A 
ATOM     47  N   UNL A   1      41.603  28.405  28.881  1.00  0.00    -0.354 N 
ATOM     48  C   UNL A   1      41.927  29.468  33.399  1.00  0.00     0.074 A 
ATOM     49  C   UNL A   1      40.749  28.759  33.808  1.00  0.00     0.031 C 
ATOM     50  C   UNL A   1      40.305  28.130  27.088  1.00  0.00     0.029 A 
ATOM     51  C   UNL A   1      41.555  27.689  27.682  1.00  0.00     0.049 A 
ATOM     52  H   UNL A   1      42.410  28.458  29.443  1.00  0.00     0.167 HD
ATOM     53  C   UNL A   1      43.231  29.264  33.732  1.00  0.00     0.034 A 
ATOM     54  C   UNL A   1      42.445  26.756  27.247  1.00  0.00     0.034 A 
ATOM     55  C   UNL A   1      44.092  30.076  32.902  1.00  0.00     0.049 A 
ATOM     56  C   UNL A   1      43.702  26.987  27.984  1.00  0.00     0.074 A 
ATOM     57  C   UNL A   1      44.257  31.420  32.643  1.00  0.00     0.029 A 
ATOM     58  N   UNL A   1      44.634  29.391  31.848  1.00  0.00    -0.354 N 
ATOM     59  N   UNL A   1      44.455  28.033  27.800  1.00  0.00    -0.248 NA
ATOM     60  C   UNL A   1      43.936  26.249  29.214  1.00  0.00     0.031 C 
ATOM     61  C   UNL A   1      44.661  31.500  31.275  1.00  0.00     0.029 A 
ATOM     62  C   UNL A   1      44.812  30.207  30.773  1.00  0.00     0.049 A 
ATOM     63  H   UNL A   1      44.866  28.434  31.866  1.00  0.00     0.167 HD
ATOM     64  C   UNL A   1      44.857  28.371  29.081  1.00  0.00     0.074 A 
ATOM     65  C   UNL A   1      44.671  27.152  29.867  1.00  0.00     0.031 C 
ATOM     66  C   UNL A   1      44.971  29.685  29.433  1.00  0.00     0.034 A 
BRANCH  53  67
ATOM     67  C   UNL A   1      43.756  27.966  34.340  1.00  0.00     0.023 A 
ATOM     68  C   UNL A   1      43.559  26.788  33.582  1.00  0.00     0.012 A 
ATOM     69  C   UNL A   1      44.120  27.784  35.697  1.00  0.00     0.148 A 
ATOM     70  C   UNL A   1      43.660  25.514  34.157  1.00  0.00     0.002 A 
ATOM     71  C   UNL A   1      44.299  26.519  36.243  1.00  0.00     0.091 A 
ATOM     72  F   UNL A   1      44.169  28.821  36.531  1.00  0.00    -0.205 F 
ATOM     73  C   UNL A   1      44.038  25.378  35.486  1.00  0.00     0.022 A 
BRANCH  71  74
ATOM     74  S   UNL A   1      44.820  26.294  37.952  1.00  0.00     0.127 S 
ATOM     75  O   UNL A   1      43.585  26.590  38.673  1.00  0.00    -0.237 OA
ATOM     76  O   UNL A   1      45.221  24.888  37.950  1.00  0.00    -0.237 OA
ATOM     77  O   UNL A   1      45.918  27.230  38.162  1.00  0.00    -0.744 OA
ENDBRANCH  71  74
ENDBRANCH  53  67
BRANCH  54  78
ATOM     78  C   UNL A   1      42.279  25.530  26.421  1.00  0.00     0.023 A 
ATOM     79  C   UNL A   1      43.205  25.249  25.390  1.00  0.00     0.012 A 
ATOM     80  C   UNL A   1      41.431  24.488  26.846  1.00  0.00     0.148 A 
ATOM     81  C   UNL A   1      43.319  23.962  24.844  1.00  0.00     0.002 A 
ATOM     82  C   UNL A   1      41.548  23.210  26.303  1.00  0.00     0.091 A 
ATOM     83  F   UNL A   1      40.575  24.724  27.848  1.00  0.00    -0.205 F 
ATOM     84  C   UNL A   1      42.501  22.939  25.313  1.00  0.00     0.022 A 
BRANCH  82  85
ATOM     85  S   UNL A   1      40.559  21.828  26.889  1.00  0.00     0.127 S 
ATOM     86  O   UNL A   1      39.238  22.153  26.347  1.00  0.00    -0.237 OA
ATOM     87  O   UNL A   1      41.220  20.693  26.252  1.00  0.00    -0.237 OA
ATOM     88  O   UNL A   1      40.638  21.870  28.343  1.00  0.00    -0.744 OA
ENDBRANCH  82  85
ENDBRANCH  54  78
BRANCH  66  89
ATOM     89  C   UNL A   1      45.143  30.688  28.326  1.00  0.00     0.023 A 
ATOM     90  C   UNL A   1      44.076  31.270  27.613  1.00  0.00     0.012 A 
ATOM     91  C   UNL A   1      46.454  31.119  28.066  1.00  0.00     0.148 A 
ATOM     92  C   UNL A   1      44.322  32.243  26.638  1.00  0.00     0.002 A 
ATOM     93  C   UNL A   1      46.690  32.118  27.135  1.00  0.00     0.091 A 
ATOM     94  F   UNL A   1      47.456  30.543  28.748  1.00  0.00    -0.205 F 
ATOM     95  C   UNL A   1      45.628  32.676  26.408  1.00  0.00     0.022 A 
BRANCH  93  96
ATOM     96  S   UNL A   1      48.339  32.773  26.889  1.00  0.00     0.127 S 
ATOM     97  O   UNL A   1      48.118  33.768  25.843  1.00  0.00    -0.237 OA
ATOM     98  O   UNL A   1      48.657  33.327  28.206  1.00  0.00    -0.237 OA
ATOM     99  O   UNL A   1      49.168  31.634  26.512  1.00  0.00    -0.744 OA
ENDBRANCH  93  96
ENDBRANCH  66  89
ENDBRANCH  40  41
ENDBRANCH  33  35
ENDBRANCH  32  33
ENDBRANCH  31  32
ENDBRANCH  30  31
ENDBRANCH   1  30
TORSDOF 21
ENDMDL
MODEL 3
REMARK VINA RESULT:     -10.3      6.248     12.177
REMARK SMILES NS(=O)(=O)c1ccc(-n2nc(C(=O)OCCOCCOC(=O)c3ccc(-c4c5nc(c(-c6cccc(S(=O)(=O)[O-])c6F)c6ccc([nH]6)c(-c6cccc(S(=O)(=O)[O-])c6F)c6nc(c(-c7cccc(S(=O)(=O)[O-])c7F)c7ccc4[nH]7)C=C6)C=C5)cc3)cc2-c2ccc(Cl)s2)cc1
REMARK SMILES IDX 17 1 16 2 15 3 14 4 12 5 13 6 11 7 9 8 10 9 87 10 86 11 8 12
REMARK SMILES IDX 5 13 6 14 95 15 7 16 94 17 2 18 3 19 4 20 1 21 88 24 89 25
REMARK SMILES IDX 93 26 90 27 91 28 92 29 18 30 19 31 20 32 21 33 22 34 23 35
REMARK SMILES IDX 24 36 85 37 25 38 84 39 26 40 27 41 28 42 78 43 29 44 83 45
REMARK SMILES IDX 77 46 79 47 30 48 82 49 76 50 75 51 31 53 63 54 43 55 62 56
REMARK SMILES IDX 44 57 47 58 61 59 80 60 45 61 46 62 60 64 81 65 48 66 32 67
REMARK SMILES IDX 33 68 41 69 34 70 36 71 42 72 35 73 37 74 38 75 39 76 40 77
REMARK SMILES IDX 64 78 65 79 73 80 66 81 68 82 74 83 67 84 69 85 70 86 71 87
REMARK SMILES IDX 72 88 49 89 50 90 58 91 51 92 53 93 59 94 52 95 54 96 55 97
REMARK SMILES IDX 56 98 57 99
REMARK H PARENT 1 22 1 23 79 52 47 63
REMARK Flexibility Score: inf
ROOT
ATOM      1  O   UNL A   1      34.601  35.997  33.595  1.00  0.00    -0.374 OA
ENDROOT
BRANCH   1   2
ATOM      2  C   UNL A   1      35.651  35.100  33.238  1.00  0.00     0.202 C 
BRANCH   2   3
ATOM      3  C   UNL A   1      35.980  33.968  34.215  1.00  0.00     0.261 C 
BRANCH   3   4
ATOM      4  O   UNL A   1      37.293  34.092  34.781  1.00  0.00    -0.458 OA
BRANCH   4   5
ATOM      5  C   UNL A   1      37.619  33.144  35.713  1.00  0.00     0.358 C 
ATOM      6  O   UNL A   1      37.462  31.938  35.564  1.00  0.00    -0.244 OA
BRANCH   5   7
ATOM      7  C   UNL A   1      38.265  33.744  36.889  1.00  0.00     0.171 A 
ATOM      8  N   UNL A   1      38.888  34.002  38.922  1.00  0.00    -0.231 N 
ATOM      9  N   UNL A   1      38.340  33.102  38.072  1.00  0.00    -0.160 NA
ATOM     10  C   UNL A   1      39.217  35.187  38.287  1.00  0.00     0.085 A 
ATOM     11  C   UNL A   1      38.906  35.002  36.956  1.00  0.00     0.068 A 
BRANCH   8  12
ATOM     12  C   UNL A   1      38.902  33.730  40.308  1.00  0.00     0.065 A 
ATOM     13  C   UNL A   1      38.830  33.007  42.984  1.00  0.00     0.082 A 
ATOM     14  C   UNL A   1      39.898  32.587  42.185  1.00  0.00     0.024 A 
ATOM     15  C   UNL A   1      37.809  33.809  42.458  1.00  0.00     0.024 A 
ATOM     16  C   UNL A   1      39.928  32.938  40.838  1.00  0.00     0.030 A 
ATOM     17  C   UNL A   1      37.859  34.200  41.116  1.00  0.00     0.030 A 
BRANCH  13  18
ATOM     18  S   UNL A   1      38.772  32.490  44.674  1.00  0.00     0.238 S 
ATOM     19  O   UNL A   1      37.507  32.865  45.252  1.00  0.00    -0.207 OA
ATOM     20  O   UNL A   1      40.039  32.797  45.306  1.00  0.00    -0.207 OA
BRANCH  18  21
ATOM     21  N   UNL A   1      38.712  30.816  44.547  1.00  0.00    -0.225 NA
ATOM     22  H   UNL A   1      37.740  30.508  44.577  1.00  0.00     0.137 HD
ATOM     23  H   UNL A   1      39.225  30.398  45.323  1.00  0.00     0.137 HD
ENDBRANCH  18  21
ENDBRANCH  13  18
ENDBRANCH   8  12
BRANCH  10  24
ATOM     24  C   UNL A   1      39.760  36.361  38.904  1.00  0.00     0.054 A 
ATOM     25  C   UNL A   1      39.023  37.395  39.451  1.00  0.00     0.024 A 
ATOM     26  S   UNL A   1      41.444  36.662  39.023  1.00  0.00    -0.122 S 
ATOM     27  C   UNL A   1      39.848  38.409  40.017  1.00  0.00     0.033 A 
ATOM     28  C   UNL A   1      41.176  38.111  39.852  1.00  0.00     0.094 A 
ATOM     29  Cl  UNL A   1      42.505  39.046  40.401  1.00  0.00    -0.072 Cl
ENDBRANCH  10  24
ENDBRANCH   5   7
ENDBRANCH   4   5
ENDBRANCH   3   4
ENDBRANCH   2   3
ENDBRANCH   1   2
BRANCH   1  30
ATOM     30  C   UNL A   1      33.977  36.781  32.584  1.00  0.00     0.202 C 
BRANCH  30  31
ATOM     31  C   UNL A   1      32.754  36.227  31.872  1.00  0.00     0.261 C 
BRANCH  31  32
ATOM     32  O   UNL A   1      32.953  34.923  31.346  1.00  0.00    -0.460 OA
BRANCH  32  33
ATOM     33  C   UNL A   1      33.207  34.924  30.017  1.00  0.00     0.338 C 
ATOM     34  O   UNL A   1      32.504  35.400  29.139  1.00  0.00    -0.246 OA
BRANCH  33  35
ATOM     35  C   UNL A   1      34.378  34.088  29.755  1.00  0.00     0.060 A 
ATOM     36  C   UNL A   1      34.654  33.081  30.682  1.00  0.00     0.016 A 
ATOM     37  C   UNL A   1      35.305  34.464  28.770  1.00  0.00     0.016 A 
ATOM     38  C   UNL A   1      35.929  32.561  30.723  1.00  0.00     0.010 A 
ATOM     39  C   UNL A   1      36.582  33.954  28.822  1.00  0.00     0.010 A 
ATOM     40  C   UNL A   1      36.897  33.056  29.837  1.00  0.00    -0.014 A 
BRANCH  40  41
ATOM     41  C   UNL A   1      38.196  32.409  29.823  1.00  0.00     0.031 A 
ATOM     42  C   UNL A   1      38.042  30.993  29.415  1.00  0.00     0.074 A 
ATOM     43  C   UNL A   1      39.358  33.052  30.062  1.00  0.00     0.049 A 
ATOM     44  N   UNL A   1      38.069  29.963  30.194  1.00  0.00    -0.248 NA
ATOM     45  C   UNL A   1      37.512  30.700  28.070  1.00  0.00     0.031 C 
ATOM     46  C   UNL A   1      39.548  34.496  30.235  1.00  0.00     0.029 A 
ATOM     47  N   UNL A   1      40.637  32.576  30.085  1.00  0.00    -0.354 N 
ATOM     48  C   UNL A   1      37.916  28.877  29.340  1.00  0.00     0.074 A 
ATOM     49  C   UNL A   1      37.288  29.386  28.155  1.00  0.00     0.031 C 
ATOM     50  C   UNL A   1      40.859  34.796  30.084  1.00  0.00     0.029 A 
ATOM     51  C   UNL A   1      41.614  33.565  29.929  1.00  0.00     0.049 A 
ATOM     52  H   UNL A   1      40.853  31.623  30.202  1.00  0.00     0.167 HD
ATOM     53  C   UNL A   1      38.719  27.791  29.506  1.00  0.00     0.034 A 
ATOM     54  C   UNL A   1      42.928  33.380  29.629  1.00  0.00     0.034 A 
ATOM     55  C   UNL A   1      39.303  27.800  30.829  1.00  0.00     0.049 A 
ATOM     56  C   UNL A   1      43.258  31.988  29.991  1.00  0.00     0.074 A 
ATOM     57  C   UNL A   1      38.843  27.793  32.129  1.00  0.00     0.029 A 
ATOM     58  N   UNL A   1      40.581  28.291  30.856  1.00  0.00    -0.354 N 
ATOM     59  N   UNL A   1      43.306  31.563  31.220  1.00  0.00    -0.248 NA
ATOM     60  C   UNL A   1      43.155  30.958  28.969  1.00  0.00     0.031 C 
ATOM     61  C   UNL A   1      39.790  28.558  32.875  1.00  0.00     0.029 A 
ATOM     62  C   UNL A   1      40.836  28.930  32.030  1.00  0.00     0.049 A 
ATOM     63  H   UNL A   1      41.230  28.195  30.121  1.00  0.00     0.167 HD
ATOM     64  C   UNL A   1      42.723  30.309  31.150  1.00  0.00     0.074 A 
ATOM     65  C   UNL A   1      42.826  29.923  29.744  1.00  0.00     0.031 C 
ATOM     66  C   UNL A   1      41.922  29.875  32.168  1.00  0.00     0.034 A 
BRANCH  53  67
ATOM     67  C   UNL A   1      39.433  27.082  28.359  1.00  0.00     0.023 A 
ATOM     68  C   UNL A   1      39.317  25.673  28.318  1.00  0.00     0.012 A 
ATOM     69  C   UNL A   1      40.440  27.652  27.542  1.00  0.00     0.148 A 
ATOM     70  C   UNL A   1      40.189  24.882  27.557  1.00  0.00     0.002 A 
ATOM     71  C   UNL A   1      41.249  26.870  26.726  1.00  0.00     0.091 A 
ATOM     72  F   UNL A   1      40.735  28.947  27.632  1.00  0.00    -0.205 F 
ATOM     73  C   UNL A   1      41.151  25.480  26.755  1.00  0.00     0.022 A 
BRANCH  71  74
ATOM     74  S   UNL A   1      42.488  27.604  25.645  1.00  0.00     0.127 S 
ATOM     75  O   UNL A   1      43.571  27.877  26.586  1.00  0.00    -0.237 OA
ATOM     76  O   UNL A   1      42.738  26.512  24.706  1.00  0.00    -0.237 OA
ATOM     77  O   UNL A   1      41.856  28.775  25.049  1.00  0.00    -0.744 OA
ENDBRANCH  71  74
ENDBRANCH  53  67
BRANCH  54  78
ATOM     78  C   UNL A   1      43.896  34.199  28.853  1.00  0.00     0.023 A 
ATOM     79  C   UNL A   1      44.137  33.897  27.492  1.00  0.00     0.012 A 
ATOM     80  C   UNL A   1      44.326  35.452  29.334  1.00  0.00     0.148 A 
ATOM     81  C   UNL A   1      44.731  34.832  26.632  1.00  0.00     0.002 A 
ATOM     82  C   UNL A   1      44.914  36.379  28.476  1.00  0.00     0.091 A 
ATOM     83  F   UNL A   1      44.072  35.772  30.609  1.00  0.00    -0.205 F 
ATOM     84  C   UNL A   1      45.105  36.079  27.121  1.00  0.00     0.022 A 
BRANCH  82  85
ATOM     85  S   UNL A   1      45.380  38.026  29.024  1.00  0.00     0.127 S 
ATOM     86  O   UNL A   1      45.434  38.761  27.758  1.00  0.00    -0.237 OA
ATOM     87  O   UNL A   1      44.262  38.383  29.892  1.00  0.00    -0.237 OA
ATOM     88  O   UNL A   1      46.670  37.877  29.686  1.00  0.00    -0.744 OA
ENDBRANCH  82  85
ENDBRANCH  54  78
BRANCH  66  89
ATOM     89  C   UNL A   1      42.092  30.529  33.511  1.00  0.00     0.023 A 
ATOM     90  C   UNL A   1      41.410  31.694  33.917  1.00  0.00     0.012 A 
ATOM     91  C   UNL A   1      42.920  29.867  34.432  1.00  0.00     0.148 A 
ATOM     92  C   UNL A   1      41.580  32.201  35.210  1.00  0.00     0.002 A 
ATOM     93  C   UNL A   1      43.047  30.345  35.727  1.00  0.00     0.091 A 
ATOM     94  F   UNL A   1      43.569  28.766  34.023  1.00  0.00    -0.205 F 
ATOM     95  C   UNL A   1      42.390  31.520  36.119  1.00  0.00     0.022 A 
BRANCH  93  96
ATOM     96  S   UNL A   1      43.992  29.439  36.951  1.00  0.00     0.127 S 
ATOM     97  O   UNL A   1      43.253  28.182  37.037  1.00  0.00    -0.237 OA
ATOM     98  O   UNL A   1      45.308  29.336  36.319  1.00  0.00    -0.237 OA
ATOM     99  O   UNL A   1      43.977  30.262  38.154  1.00  0.00    -0.744 OA
ENDBRANCH  93  96
ENDBRANCH  66  89
ENDBRANCH  40  41
ENDBRANCH  33  35
ENDBRANCH  32  33
ENDBRANCH  31  32
ENDBRANCH  30  31
ENDBRANCH   1  30
TORSDOF 21
ENDMDL
