MODEL 1
REMARK VINA RESULT:     -11.3      0.000      0.000
REMARK SMILES O=C(CC1C[NH+]([C@@H]2CCO[C@]3(CCOC3)C2)C1)OCCOCCOC(=O)c1ccc(-c2c3nc(c(-c4cccc(S(=O)(=O)[O-])c4F)c4ccc([nH]4)c(-c4cccc(S(=O)(=O)[O-])c4F)c4nc(c(-c5cccc(S(=O)(=O)[O-])c5F)c5ccc2[nH]5)C=C4)C=C3)cc1
REMARK SMILES IDX 22 1 21 2 20 3 19 4 18 5 2 6 1 7 3 8 4 9 5 10 17 11 6 12
REMARK SMILES IDX 7 14 8 15 16 16 9 17 11 18 10 19 12 20 15 21 13 22 14 23
REMARK SMILES IDX 23 24 24 25 25 26 26 27 27 28 28 29 89 30 29 31 88 32 30 33
REMARK SMILES IDX 31 34 32 35 82 36 33 37 87 38 81 39 83 40 34 41 86 42 80 43
REMARK SMILES IDX 79 44 35 46 67 47 47 48 66 49 48 50 51 51 65 52 84 53 49 54
REMARK SMILES IDX 50 55 64 57 85 58 52 59 36 60 37 61 45 62 38 63 40 64 46 65
REMARK SMILES IDX 39 66 41 67 42 68 43 69 44 70 68 71 69 72 77 73 70 74 72 75
REMARK SMILES IDX 78 76 71 77 73 78 74 79 75 80 76 81 53 82 54 83 62 84 55 85
REMARK SMILES IDX 57 86 63 87 56 88 58 89 59 90 60 91 61 92
REMARK H PARENT 6 13 83 45 51 56
REMARK Flexibility Score: inf
ROOT
ATOM      1  C   UNL A   1      36.290  20.508  25.014  1.00  0.00     0.202 C 
ENDROOT
BRANCH   1   2
ATOM      2  O   UNL A   1      36.138  21.916  25.170  1.00  0.00    -0.374 OA
BRANCH   2   3
ATOM      3  C   UNL A   1      35.278  22.383  26.194  1.00  0.00     0.202 C 
BRANCH   3   4
ATOM      4  C   UNL A   1      34.259  21.414  26.793  1.00  0.00     0.261 C 
BRANCH   4   5
ATOM      5  O   UNL A   1      32.988  21.206  26.140  1.00  0.00    -0.463 OA
BRANCH   5   6
ATOM      6  C   UNL A   1      32.598  20.628  24.994  1.00  0.00     0.306 C 
ATOM      7  O   UNL A   1      32.135  19.487  25.043  1.00  0.00    -0.252 OA
BRANCH   6   8
ATOM      8  C   UNL A   1      32.739  21.301  23.649  1.00  0.00     0.138 C 
BRANCH   8   9
ATOM      9  C   UNL A   1      32.973  22.796  23.643  1.00  0.00     0.110 C 
ATOM     10  C   UNL A   1      32.707  23.728  22.426  1.00  0.00     0.272 C 
ATOM     11  C   UNL A   1      31.826  23.566  24.292  1.00  0.00     0.272 C 
ATOM     12  N   UNL A   1      31.952  24.642  23.322  1.00  0.00    -0.331 N 
ATOM     13  H   UNL A   1      31.124  25.130  22.981  1.00  0.00     0.348 HD
BRANCH  12  14
ATOM     14  C   UNL A   1      32.661  25.859  23.774  1.00  0.00     0.189 C 
ATOM     15  C   UNL A   1      33.039  26.066  25.242  1.00  0.00     0.093 C 
ATOM     16  C   UNL A   1      32.022  27.185  23.276  1.00  0.00     0.103 C 
ATOM     17  C   UNL A   1      31.888  26.568  26.084  1.00  0.00     0.167 C 
ATOM     18  C   UNL A   1      30.905  27.779  24.170  1.00  0.00     0.099 C 
ATOM     19  O   UNL A   1      31.186  27.679  25.568  1.00  0.00    -0.372 OA
ATOM     20  C   UNL A   1      29.497  27.320  23.742  1.00  0.00     0.066 C 
ATOM     21  C   UNL A   1      30.742  29.291  23.935  1.00  0.00     0.195 C 
ATOM     22  C   UNL A   1      28.884  28.464  22.949  1.00  0.00     0.163 C 
ATOM     23  O   UNL A   1      29.918  29.431  22.781  1.00  0.00    -0.378 OA
ENDBRANCH  12  14
ENDBRANCH   8   9
ENDBRANCH   6   8
ENDBRANCH   5   6
ENDBRANCH   4   5
ENDBRANCH   3   4
ENDBRANCH   2   3
ENDBRANCH   1   2
BRANCH   1  24
ATOM     24  C   UNL A   1      37.712  19.959  25.012  1.00  0.00     0.261 C 
BRANCH  24  25
ATOM     25  O   UNL A   1      38.690  21.003  25.136  1.00  0.00    -0.460 OA
BRANCH  25  26
ATOM     26  C   UNL A   1      39.653  20.768  26.053  1.00  0.00     0.338 C 
ATOM     27  O   UNL A   1      40.288  19.724  26.201  1.00  0.00    -0.246 OA
BRANCH  26  28
ATOM     28  C   UNL A   1      39.987  22.000  26.782  1.00  0.00     0.060 A 
ATOM     29  C   UNL A   1      39.329  23.174  26.396  1.00  0.00     0.016 A 
ATOM     30  C   UNL A   1      40.991  22.032  27.755  1.00  0.00     0.016 A 
ATOM     31  C   UNL A   1      39.733  24.397  26.917  1.00  0.00     0.010 A 
ATOM     32  C   UNL A   1      41.394  23.263  28.279  1.00  0.00     0.010 A 
ATOM     33  C   UNL A   1      40.802  24.453  27.820  1.00  0.00    -0.014 A 
BRANCH  33  34
ATOM     34  C   UNL A   1      41.391  25.773  28.142  1.00  0.00     0.031 A 
ATOM     35  C   UNL A   1      42.809  26.063  27.727  1.00  0.00     0.074 A 
ATOM     36  C   UNL A   1      40.647  26.718  28.743  1.00  0.00     0.049 A 
ATOM     37  N   UNL A   1      43.498  27.166  27.851  1.00  0.00    -0.248 NA
ATOM     38  C   UNL A   1      43.549  24.962  27.085  1.00  0.00     0.031 C 
ATOM     39  C   UNL A   1      39.268  26.543  29.197  1.00  0.00     0.029 A 
ATOM     40  N   UNL A   1      40.955  28.009  29.083  1.00  0.00    -0.354 N 
ATOM     41  C   UNL A   1      44.752  26.892  27.316  1.00  0.00     0.074 A 
ATOM     42  C   UNL A   1      44.740  25.510  26.892  1.00  0.00     0.031 C 
ATOM     43  C   UNL A   1      38.855  27.681  29.781  1.00  0.00     0.029 A 
ATOM     44  C   UNL A   1      39.943  28.656  29.750  1.00  0.00     0.049 A 
ATOM     45  H   UNL A   1      41.817  28.434  28.870  1.00  0.00     0.167 HD
ATOM     46  C   UNL A   1      45.810  27.725  27.167  1.00  0.00     0.034 A 
ATOM     47  C   UNL A   1      39.907  29.890  30.287  1.00  0.00     0.034 A 
ATOM     48  C   UNL A   1      45.811  29.102  27.583  1.00  0.00     0.049 A 
ATOM     49  C   UNL A   1      41.097  30.796  30.113  1.00  0.00     0.074 A 
ATOM     50  C   UNL A   1      46.821  30.039  27.457  1.00  0.00     0.029 A 
ATOM     51  N   UNL A   1      44.753  29.737  28.215  1.00  0.00    -0.354 N 
ATOM     52  N   UNL A   1      42.235  30.557  29.503  1.00  0.00    -0.248 NA
ATOM     53  C   UNL A   1      40.983  32.154  30.660  1.00  0.00     0.031 C 
ATOM     54  C   UNL A   1      46.380  31.236  28.033  1.00  0.00     0.029 A 
ATOM     55  C   UNL A   1      45.084  31.053  28.488  1.00  0.00     0.049 A 
ATOM     56  H   UNL A   1      43.891  29.314  28.435  1.00  0.00     0.167 HD
ATOM     57  C   UNL A   1      42.960  31.741  29.570  1.00  0.00     0.074 A 
ATOM     58  C   UNL A   1      42.116  32.706  30.248  1.00  0.00     0.031 C 
ATOM     59  C   UNL A   1      44.216  32.007  29.131  1.00  0.00     0.034 A 
BRANCH  46  60
ATOM     60  C   UNL A   1      47.041  27.176  26.493  1.00  0.00     0.023 A 
ATOM     61  C   UNL A   1      47.230  27.390  25.112  1.00  0.00     0.012 A 
ATOM     62  C   UNL A   1      48.035  26.500  27.228  1.00  0.00     0.148 A 
ATOM     63  C   UNL A   1      48.372  26.914  24.466  1.00  0.00     0.002 A 
ATOM     64  C   UNL A   1      49.190  26.066  26.586  1.00  0.00     0.091 A 
ATOM     65  F   UNL A   1      47.828  26.286  28.534  1.00  0.00    -0.205 F 
ATOM     66  C   UNL A   1      49.355  26.262  25.205  1.00  0.00     0.022 A 
BRANCH  64  67
ATOM     67  S   UNL A   1      50.551  25.282  27.459  1.00  0.00     0.127 S 
ATOM     68  O   UNL A   1      49.880  24.145  28.089  1.00  0.00    -0.237 OA
ATOM     69  O   UNL A   1      51.453  24.927  26.363  1.00  0.00    -0.237 OA
ATOM     70  O   UNL A   1      51.071  26.284  28.377  1.00  0.00    -0.744 OA
ENDBRANCH  64  67
ENDBRANCH  46  60
BRANCH  47  71
ATOM     71  C   UNL A   1      38.691  30.349  31.016  1.00  0.00     0.023 A 
ATOM     72  C   UNL A   1      38.564  30.112  32.398  1.00  0.00     0.012 A 
ATOM     73  C   UNL A   1      37.665  31.039  30.340  1.00  0.00     0.148 A 
ATOM     74  C   UNL A   1      37.421  30.522  33.086  1.00  0.00     0.002 A 
ATOM     75  C   UNL A   1      36.558  31.497  31.043  1.00  0.00     0.091 A 
ATOM     76  F   UNL A   1      37.796  31.238  29.021  1.00  0.00    -0.205 F 
ATOM     77  C   UNL A   1      36.424  31.224  32.412  1.00  0.00     0.022 A 
BRANCH  75  78
ATOM     78  S   UNL A   1      35.298  32.522  30.276  1.00  0.00     0.127 S 
ATOM     79  O   UNL A   1      34.361  32.719  31.379  1.00  0.00    -0.237 OA
ATOM     80  O   UNL A   1      36.064  33.710  29.895  1.00  0.00    -0.237 OA
ATOM     81  O   UNL A   1      34.800  31.746  29.148  1.00  0.00    -0.744 OA
ENDBRANCH  75  78
ENDBRANCH  47  71
BRANCH  59  82
ATOM     82  C   UNL A   1      44.742  33.401  29.352  1.00  0.00     0.023 A 
ATOM     83  C   UNL A   1      45.410  33.716  30.552  1.00  0.00     0.012 A 
ATOM     84  C   UNL A   1      44.608  34.389  28.357  1.00  0.00     0.148 A 
ATOM     85  C   UNL A   1      45.890  35.005  30.780  1.00  0.00     0.002 A 
ATOM     86  C   UNL A   1      45.136  35.658  28.570  1.00  0.00     0.091 A 
ATOM     87  F   UNL A   1      43.955  34.078  27.227  1.00  0.00    -0.205 F 
ATOM     88  C   UNL A   1      45.762  35.972  29.786  1.00  0.00     0.022 A 
BRANCH  86  89
ATOM     89  S   UNL A   1      45.100  36.934  27.306  1.00  0.00     0.127 S 
ATOM     90  O   UNL A   1      43.667  37.186  27.177  1.00  0.00    -0.237 OA
ATOM     91  O   UNL A   1      45.856  38.017  27.936  1.00  0.00    -0.237 OA
ATOM     92  O   UNL A   1      45.744  36.353  26.136  1.00  0.00    -0.744 OA
ENDBRANCH  86  89
ENDBRANCH  59  82
ENDBRANCH  33  34
ENDBRANCH  26  28
ENDBRANCH  25  26
ENDBRANCH  24  25
ENDBRANCH   1  24
TORSDOF 19
ENDMDL
MODEL 2
REMARK VINA RESULT:     -11.1      1.624      2.100
REMARK SMILES O=C(CC1C[NH+]([C@@H]2CCO[C@]3(CCOC3)C2)C1)OCCOCCOC(=O)c1ccc(-c2c3nc(c(-c4cccc(S(=O)(=O)[O-])c4F)c4ccc([nH]4)c(-c4cccc(S(=O)(=O)[O-])c4F)c4nc(c(-c5cccc(S(=O)(=O)[O-])c5F)c5ccc2[nH]5)C=C4)C=C3)cc1
REMARK SMILES IDX 22 1 21 2 20 3 19 4 18 5 2 6 1 7 3 8 4 9 5 10 17 11 6 12
REMARK SMILES IDX 7 14 8 15 16 16 9 17 11 18 10 19 12 20 15 21 13 22 14 23
REMARK SMILES IDX 23 24 24 25 25 26 26 27 27 28 28 29 89 30 29 31 88 32 30 33
REMARK SMILES IDX 31 34 32 35 82 36 33 37 87 38 81 39 83 40 34 41 86 42 80 43
REMARK SMILES IDX 79 44 35 46 67 47 47 48 66 49 48 50 51 51 65 52 84 53 49 54
REMARK SMILES IDX 50 55 64 57 85 58 52 59 36 60 37 61 45 62 38 63 40 64 46 65
REMARK SMILES IDX 39 66 41 67 42 68 43 69 44 70 68 71 69 72 77 73 70 74 72 75
REMARK SMILES IDX 78 76 71 77 73 78 74 79 75 80 76 81 53 82 54 83 62 84 55 85
REMARK SMILES IDX 57 86 63 87 56 88 58 89 59 90 60 91 61 92
REMARK H PARENT 6 13 83 45 51 56
REMARK Flexibility Score: inf
ROOT
ATOM      1  C   UNL A   1      36.421  20.631  25.013  1.00  0.00     0.202 C 
ENDROOT
BRANCH   1   2
ATOM      2  O   UNL A   1      36.339  22.052  24.947  1.00  0.00    -0.374 OA
BRANCH   2   3
ATOM      3  C   UNL A   1      35.224  22.683  25.550  1.00  0.00     0.202 C 
BRANCH   3   4
ATOM      4  C   UNL A   1      34.238  21.826  26.344  1.00  0.00     0.261 C 
BRANCH   4   5
ATOM      5  O   UNL A   1      32.869  21.701  25.903  1.00  0.00    -0.463 OA
BRANCH   5   6
ATOM      6  C   UNL A   1      32.262  21.109  24.864  1.00  0.00     0.306 C 
ATOM      7  O   UNL A   1      31.893  19.940  24.991  1.00  0.00    -0.252 OA
BRANCH   6   8
ATOM      8  C   UNL A   1      32.047  21.802  23.539  1.00  0.00     0.138 C 
BRANCH   8   9
ATOM      9  C   UNL A   1      31.598  23.246  23.576  1.00  0.00     0.110 C 
ATOM     10  C   UNL A   1      31.314  24.053  24.876  1.00  0.00     0.272 C 
ATOM     11  C   UNL A   1      32.761  24.221  23.405  1.00  0.00     0.272 C 
ATOM     12  N   UNL A   1      32.167  25.150  24.353  1.00  0.00    -0.331 N 
ATOM     13  H   UNL A   1      32.757  25.690  24.985  1.00  0.00     0.348 HD
BRANCH  12  14
ATOM     14  C   UNL A   1      31.463  26.318  23.779  1.00  0.00     0.189 C 
ATOM     15  C   UNL A   1      31.916  26.959  22.466  1.00  0.00     0.093 C 
ATOM     16  C   UNL A   1      31.224  27.472  24.792  1.00  0.00     0.103 C 
ATOM     17  C   UNL A   1      33.087  27.900  22.640  1.00  0.00     0.167 C 
ATOM     18  C   UNL A   1      32.366  28.511  24.921  1.00  0.00     0.099 C 
ATOM     19  O   UNL A   1      32.958  28.860  23.668  1.00  0.00    -0.372 OA
ATOM     20  C   UNL A   1      33.358  28.164  26.049  1.00  0.00     0.066 C 
ATOM     21  C   UNL A   1      31.846  29.852  25.468  1.00  0.00     0.195 C 
ATOM     22  C   UNL A   1      32.997  29.043  27.237  1.00  0.00     0.163 C 
ATOM     23  O   UNL A   1      31.789  29.712  26.884  1.00  0.00    -0.378 OA
ENDBRANCH  12  14
ENDBRANCH   8   9
ENDBRANCH   6   8
ENDBRANCH   5   6
ENDBRANCH   4   5
ENDBRANCH   3   4
ENDBRANCH   2   3
ENDBRANCH   1   2
BRANCH   1  24
ATOM     24  C   UNL A   1      37.816  20.017  25.057  1.00  0.00     0.261 C 
BRANCH  24  25
ATOM     25  O   UNL A   1      38.841  21.020  25.138  1.00  0.00    -0.460 OA
BRANCH  25  26
ATOM     26  C   UNL A   1      39.751  20.819  26.115  1.00  0.00     0.338 C 
ATOM     27  O   UNL A   1      40.374  19.780  26.336  1.00  0.00    -0.246 OA
BRANCH  26  28
ATOM     28  C   UNL A   1      40.048  22.077  26.815  1.00  0.00     0.060 A 
ATOM     29  C   UNL A   1      39.390  23.229  26.371  1.00  0.00     0.016 A 
ATOM     30  C   UNL A   1      41.021  22.151  27.816  1.00  0.00     0.016 A 
ATOM     31  C   UNL A   1      39.763  24.473  26.866  1.00  0.00     0.010 A 
ATOM     32  C   UNL A   1      41.393  23.402  28.315  1.00  0.00     0.010 A 
ATOM     33  C   UNL A   1      40.803  24.570  27.800  1.00  0.00    -0.014 A 
BRANCH  33  34
ATOM     34  C   UNL A   1      41.367  25.906  28.099  1.00  0.00     0.031 A 
ATOM     35  C   UNL A   1      42.759  26.235  27.629  1.00  0.00     0.074 A 
ATOM     36  C   UNL A   1      40.620  26.831  28.727  1.00  0.00     0.049 A 
ATOM     37  N   UNL A   1      43.421  27.358  27.727  1.00  0.00    -0.248 NA
ATOM     38  C   UNL A   1      43.504  25.154  26.960  1.00  0.00     0.031 C 
ATOM     39  C   UNL A   1      39.265  26.619  29.233  1.00  0.00     0.029 A 
ATOM     40  N   UNL A   1      40.904  28.131  29.054  1.00  0.00    -0.354 N 
ATOM     41  C   UNL A   1      44.661  27.118  27.144  1.00  0.00     0.074 A 
ATOM     42  C   UNL A   1      44.672  25.735  26.722  1.00  0.00     0.031 C 
ATOM     43  C   UNL A   1      38.843  27.745  29.832  1.00  0.00     0.029 A 
ATOM     44  C   UNL A   1      39.901  28.750  29.760  1.00  0.00     0.049 A 
ATOM     45  H   UNL A   1      41.746  28.579  28.808  1.00  0.00     0.167 HD
ATOM     46  C   UNL A   1      45.689  27.980  26.955  1.00  0.00     0.034 A 
ATOM     47  C   UNL A   1      39.851  29.984  30.297  1.00  0.00     0.034 A 
ATOM     48  C   UNL A   1      45.667  29.357  27.370  1.00  0.00     0.049 A 
ATOM     49  C   UNL A   1      41.008  30.922  30.077  1.00  0.00     0.074 A 
ATOM     50  C   UNL A   1      46.645  30.322  27.205  1.00  0.00     0.029 A 
ATOM     51  N   UNL A   1      44.617  29.963  28.041  1.00  0.00    -0.354 N 
ATOM     52  N   UNL A   1      42.127  30.714  29.424  1.00  0.00    -0.248 NA
ATOM     53  C   UNL A   1      40.877  32.278  30.627  1.00  0.00     0.031 C 
ATOM     54  C   UNL A   1      46.193  31.507  27.797  1.00  0.00     0.029 A 
ATOM     55  C   UNL A   1      44.920  31.288  28.301  1.00  0.00     0.049 A 
ATOM     56  H   UNL A   1      43.776  29.517  28.294  1.00  0.00     0.167 HD
ATOM     57  C   UNL A   1      42.821  31.918  29.463  1.00  0.00     0.074 A 
ATOM     58  C   UNL A   1      41.978  32.860  30.172  1.00  0.00     0.031 C 
ATOM     59  C   UNL A   1      44.052  32.218  28.976  1.00  0.00     0.034 A 
BRANCH  46  60
ATOM     60  C   UNL A   1      46.908  27.465  26.234  1.00  0.00     0.023 A 
ATOM     61  C   UNL A   1      47.816  26.627  26.915  1.00  0.00     0.012 A 
ATOM     62  C   UNL A   1      47.130  27.761  24.875  1.00  0.00     0.148 A 
ATOM     63  C   UNL A   1      48.940  26.117  26.266  1.00  0.00     0.002 A 
ATOM     64  C   UNL A   1      48.230  27.214  24.222  1.00  0.00     0.091 A 
ATOM     65  F   UNL A   1      46.270  28.576  24.250  1.00  0.00    -0.205 F 
ATOM     66  C   UNL A   1      49.141  26.402  24.918  1.00  0.00     0.022 A 
BRANCH  64  67
ATOM     67  S   UNL A   1      48.541  27.457  22.469  1.00  0.00     0.127 S 
ATOM     68  O   UNL A   1      47.369  28.234  22.067  1.00  0.00    -0.237 OA
ATOM     69  O   UNL A   1      49.796  28.208  22.482  1.00  0.00    -0.237 OA
ATOM     70  O   UNL A   1      48.632  26.125  21.888  1.00  0.00    -0.744 OA
ENDBRANCH  64  67
ENDBRANCH  46  60
BRANCH  47  71
ATOM     71  C   UNL A   1      38.651  30.410  31.072  1.00  0.00     0.023 A 
ATOM     72  C   UNL A   1      38.556  30.116  32.445  1.00  0.00     0.012 A 
ATOM     73  C   UNL A   1      37.609  31.124  30.448  1.00  0.00     0.148 A 
ATOM     74  C   UNL A   1      37.428  30.495  33.176  1.00  0.00     0.002 A 
ATOM     75  C   UNL A   1      36.518  31.550  31.194  1.00  0.00     0.091 A 
ATOM     76  F   UNL A   1      37.710  31.378  29.136  1.00  0.00    -0.205 F 
ATOM     77  C   UNL A   1      36.416  31.222  32.554  1.00  0.00     0.022 A 
BRANCH  75  78
ATOM     78  S   UNL A   1      35.239  32.603  30.499  1.00  0.00     0.127 S 
ATOM     79  O   UNL A   1      35.993  33.807  30.163  1.00  0.00    -0.237 OA
ATOM     80  O   UNL A   1      34.790  31.815  29.350  1.00  0.00    -0.237 OA
ATOM     81  O   UNL A   1      34.241  32.748  31.550  1.00  0.00    -0.744 OA
ENDBRANCH  75  78
ENDBRANCH  47  71
BRANCH  59  82
ATOM     82  C   UNL A   1      44.546  33.627  29.176  1.00  0.00     0.023 A 
ATOM     83  C   UNL A   1      45.408  33.921  30.252  1.00  0.00     0.012 A 
ATOM     84  C   UNL A   1      44.190  34.651  28.277  1.00  0.00     0.148 A 
ATOM     85  C   UNL A   1      45.863  35.222  30.462  1.00  0.00     0.002 A 
ATOM     86  C   UNL A   1      44.690  35.936  28.462  1.00  0.00     0.091 A 
ATOM     87  F   UNL A   1      43.357  34.359  27.268  1.00  0.00    -0.205 F 
ATOM     88  C   UNL A   1      45.513  36.226  29.562  1.00  0.00     0.022 A 
BRANCH  86  89
ATOM     89  S   UNL A   1      44.369  37.266  27.298  1.00  0.00     0.127 S 
ATOM     90  O   UNL A   1      44.176  38.404  28.194  1.00  0.00    -0.237 OA
ATOM     91  O   UNL A   1      45.607  37.305  26.520  1.00  0.00    -0.237 OA
ATOM     92  O   UNL A   1      43.195  36.856  26.540  1.00  0.00    -0.744 OA
ENDBRANCH  86  89
ENDBRANCH  59  82
ENDBRANCH  33  34
ENDBRANCH  26  28
ENDBRANCH  25  26
ENDBRANCH  24  25
ENDBRANCH   1  24
TORSDOF 19
ENDMDL
MODEL 3
REMARK VINA RESULT:     -11.0      4.652     10.457
REMARK SMILES O=C(CC1C[NH+]([C@@H]2CCO[C@]3(CCOC3)C2)C1)OCCOCCOC(=O)c1ccc(-c2c3nc(c(-c4cccc(S(=O)(=O)[O-])c4F)c4ccc([nH]4)c(-c4cccc(S(=O)(=O)[O-])c4F)c4nc(c(-c5cccc(S(=O)(=O)[O-])c5F)c5ccc2[nH]5)C=C4)C=C3)cc1
REMARK SMILES IDX 22 1 21 2 20 3 19 4 18 5 2 6 1 7 3 8 4 9 5 10 17 11 6 12
REMARK SMILES IDX 7 14 8 15 16 16 9 17 11 18 10 19 12 20 15 21 13 22 14 23
REMARK SMILES IDX 23 24 24 25 25 26 26 27 27 28 28 29 89 30 29 31 88 32 30 33
REMARK SMILES IDX 31 34 32 35 82 36 33 37 87 38 81 39 83 40 34 41 86 42 80 43
REMARK SMILES IDX 79 44 35 46 67 47 47 48 66 49 48 50 51 51 65 52 84 53 49 54
REMARK SMILES IDX 50 55 64 57 85 58 52 59 36 60 37 61 45 62 38 63 40 64 46 65
REMARK SMILES IDX 39 66 41 67 42 68 43 69 44 70 68 71 69 72 77 73 70 74 72 75
REMARK SMILES IDX 78 76 71 77 73 78 74 79 75 80 76 81 53 82 54 83 62 84 55 85
REMARK SMILES IDX 57 86 63 87 56 88 58 89 59 90 60 91 61 92
REMARK H PARENT 6 13 83 45 51 56
REMARK Flexibility Score: inf
ROOT
ATOM      1  C   UNL A   1      31.763  30.395  25.333  1.00  0.00     0.202 C 
ENDROOT
BRANCH   1   2
ATOM      2  O   UNL A   1      30.650  29.652  24.845  1.00  0.00    -0.374 OA
BRANCH   2   3
ATOM      3  C   UNL A   1      30.226  29.885  23.514  1.00  0.00     0.202 C 
BRANCH   3   4
ATOM      4  C   UNL A   1      30.868  29.073  22.389  1.00  0.00     0.261 C 
BRANCH   4   5
ATOM      5  O   UNL A   1      31.477  27.796  22.676  1.00  0.00    -0.463 OA
BRANCH   5   6
ATOM      6  C   UNL A   1      32.601  27.177  22.286  1.00  0.00     0.306 C 
ATOM      7  O   UNL A   1      33.641  27.837  22.229  1.00  0.00    -0.252 OA
BRANCH   6   8
ATOM      8  C   UNL A   1      32.637  25.723  21.881  1.00  0.00     0.138 C 
BRANCH   8   9
ATOM      9  C   UNL A   1      32.658  24.694  22.990  1.00  0.00     0.110 C 
ATOM     10  C   UNL A   1      31.636  23.530  23.139  1.00  0.00     0.272 C 
ATOM     11  C   UNL A   1      33.665  23.576  22.725  1.00  0.00     0.272 C 
ATOM     12  N   UNL A   1      32.771  22.587  23.308  1.00  0.00    -0.331 N 
ATOM     13  H   UNL A   1      32.721  21.645  22.920  1.00  0.00     0.348 HD
BRANCH  12  14
ATOM     14  C   UNL A   1      33.073  22.158  24.690  1.00  0.00     0.189 C 
ATOM     15  C   UNL A   1      34.498  22.199  25.248  1.00  0.00     0.093 C 
ATOM     16  C   UNL A   1      32.476  20.774  25.068  1.00  0.00     0.103 C 
ATOM     17  C   UNL A   1      35.334  21.013  24.824  1.00  0.00     0.167 C 
ATOM     18  C   UNL A   1      33.353  19.541  24.736  1.00  0.00     0.099 C 
ATOM     19  O   UNL A   1      34.741  19.744  25.009  1.00  0.00    -0.372 OA
ATOM     20  C   UNL A   1      33.030  18.939  23.354  1.00  0.00     0.066 C 
ATOM     21  C   UNL A   1      32.979  18.333  25.613  1.00  0.00     0.195 C 
ATOM     22  C   UNL A   1      32.155  17.719  23.600  1.00  0.00     0.163 C 
ATOM     23  O   UNL A   1      31.852  17.721  24.993  1.00  0.00    -0.378 OA
ENDBRANCH  12  14
ENDBRANCH   8   9
ENDBRANCH   6   8
ENDBRANCH   5   6
ENDBRANCH   4   5
ENDBRANCH   3   4
ENDBRANCH   2   3
ENDBRANCH   1   2
BRANCH   1  24
ATOM     24  C   UNL A   1      31.488  31.421  26.427  1.00  0.00     0.261 C 
BRANCH  24  25
ATOM     25  O   UNL A   1      32.422  31.311  27.512  1.00  0.00    -0.460 OA
BRANCH  25  26
ATOM     26  C   UNL A   1      33.281  32.347  27.625  1.00  0.00     0.338 C 
ATOM     27  O   UNL A   1      32.991  33.543  27.631  1.00  0.00    -0.246 OA
BRANCH  26  28
ATOM     28  C   UNL A   1      34.640  31.867  27.911  1.00  0.00     0.060 A 
ATOM     29  C   UNL A   1      34.813  30.487  28.071  1.00  0.00     0.016 A 
ATOM     30  C   UNL A   1      35.705  32.748  28.117  1.00  0.00     0.016 A 
ATOM     31  C   UNL A   1      36.029  29.990  28.523  1.00  0.00     0.010 A 
ATOM     32  C   UNL A   1      36.929  32.246  28.569  1.00  0.00     0.010 A 
ATOM     33  C   UNL A   1      37.076  30.872  28.826  1.00  0.00    -0.014 A 
BRANCH  33  34
ATOM     34  C   UNL A   1      38.251  30.354  29.562  1.00  0.00     0.031 A 
ATOM     35  C   UNL A   1      38.471  30.786  30.987  1.00  0.00     0.074 A 
ATOM     36  C   UNL A   1      39.073  29.462  28.983  1.00  0.00     0.049 A 
ATOM     37  N   UNL A   1      39.393  30.410  31.833  1.00  0.00    -0.248 NA
ATOM     38  C   UNL A   1      37.524  31.775  31.532  1.00  0.00     0.031 C 
ATOM     39  C   UNL A   1      38.961  28.981  27.607  1.00  0.00     0.029 A 
ATOM     40  N   UNL A   1      40.173  28.812  29.480  1.00  0.00    -0.354 N 
ATOM     41  C   UNL A   1      39.147  31.120  33.003  1.00  0.00     0.074 A 
ATOM     42  C   UNL A   1      38.007  31.973  32.750  1.00  0.00     0.031 C 
ATOM     43  C   UNL A   1      39.970  28.128  27.360  1.00  0.00     0.029 A 
ATOM     44  C   UNL A   1      40.801  28.013  28.556  1.00  0.00     0.049 A 
ATOM     45  H   UNL A   1      40.482  28.907  30.410  1.00  0.00     0.167 HD
ATOM     46  C   UNL A   1      39.797  31.050  34.189  1.00  0.00     0.034 A 
ATOM     47  C   UNL A   1      41.929  27.285  28.662  1.00  0.00     0.034 A 
ATOM     48  C   UNL A   1      40.925  30.192  34.436  1.00  0.00     0.049 A 
ATOM     49  C   UNL A   1      42.636  27.226  29.990  1.00  0.00     0.074 A 
ATOM     50  C   UNL A   1      41.642  30.026  35.608  1.00  0.00     0.029 A 
ATOM     51  N   UNL A   1      41.508  29.363  33.490  1.00  0.00    -0.354 N 
ATOM     52  N   UNL A   1      42.324  27.817  31.119  1.00  0.00    -0.248 NA
ATOM     53  C   UNL A   1      43.824  26.366  30.072  1.00  0.00     0.031 C 
ATOM     54  C   UNL A   1      42.672  29.111  35.364  1.00  0.00     0.029 A 
ATOM     55  C   UNL A   1      42.576  28.683  34.049  1.00  0.00     0.049 A 
ATOM     56  H   UNL A   1      41.205  29.269  32.558  1.00  0.00     0.167 HD
ATOM     57  C   UNL A   1      43.259  27.380  32.050  1.00  0.00     0.074 A 
ATOM     58  C   UNL A   1      44.126  26.446  31.360  1.00  0.00     0.031 C 
ATOM     59  C   UNL A   1      43.405  27.730  33.353  1.00  0.00     0.034 A 
BRANCH  46  60
ATOM     60  C   UNL A   1      39.277  31.898  35.322  1.00  0.00     0.023 A 
ATOM     61  C   UNL A   1      38.320  31.362  36.208  1.00  0.00     0.012 A 
ATOM     62  C   UNL A   1      39.770  33.198  35.544  1.00  0.00     0.148 A 
ATOM     63  C   UNL A   1      37.839  32.116  37.279  1.00  0.00     0.002 A 
ATOM     64  C   UNL A   1      39.319  33.928  36.639  1.00  0.00     0.091 A 
ATOM     65  F   UNL A   1      40.663  33.699  34.680  1.00  0.00    -0.205 F 
ATOM     66  C   UNL A   1      38.346  33.393  37.499  1.00  0.00     0.022 A 
BRANCH  64  67
ATOM     67  S   UNL A   1      39.960  35.553  37.056  1.00  0.00     0.127 S 
ATOM     68  O   UNL A   1      39.224  35.854  38.284  1.00  0.00    -0.237 OA
ATOM     69  O   UNL A   1      41.384  35.279  37.252  1.00  0.00    -0.237 OA
ATOM     70  O   UNL A   1      39.654  36.411  35.921  1.00  0.00    -0.744 OA
ENDBRANCH  64  67
ENDBRANCH  46  60
BRANCH  47  71
ATOM     71  C   UNL A   1      42.442  26.532  27.483  1.00  0.00     0.023 A 
ATOM     72  C   UNL A   1      43.282  27.168  26.550  1.00  0.00     0.012 A 
ATOM     73  C   UNL A   1      42.109  25.176  27.295  1.00  0.00     0.148 A 
ATOM     74  C   UNL A   1      43.753  26.476  25.432  1.00  0.00     0.002 A 
ATOM     75  C   UNL A   1      42.630  24.477  26.214  1.00  0.00     0.091 A 
ATOM     76  F   UNL A   1      41.292  24.594  28.185  1.00  0.00    -0.205 F 
ATOM     77  C   UNL A   1      43.437  25.129  25.271  1.00  0.00     0.022 A 
BRANCH  75  78
ATOM     78  S   UNL A   1      42.378  22.711  26.008  1.00  0.00     0.127 S 
ATOM     79  O   UNL A   1      40.923  22.607  26.064  1.00  0.00    -0.237 OA
ATOM     80  O   UNL A   1      42.964  22.473  24.688  1.00  0.00    -0.237 OA
ATOM     81  O   UNL A   1      43.104  22.084  27.105  1.00  0.00    -0.744 OA
ENDBRANCH  75  78
ENDBRANCH  47  71
BRANCH  59  82
ATOM     82  C   UNL A   1      44.529  27.084  34.119  1.00  0.00     0.023 A 
ATOM     83  C   UNL A   1      45.765  27.751  34.246  1.00  0.00     0.012 A 
ATOM     84  C   UNL A   1      44.352  25.834  34.744  1.00  0.00     0.148 A 
ATOM     85  C   UNL A   1      46.822  27.161  34.938  1.00  0.00     0.002 A 
ATOM     86  C   UNL A   1      45.394  25.275  35.476  1.00  0.00     0.091 A 
ATOM     87  F   UNL A   1      43.177  25.204  34.599  1.00  0.00    -0.205 F 
ATOM     88  C   UNL A   1      46.633  25.929  35.561  1.00  0.00     0.022 A 
BRANCH  86  89
ATOM     89  S   UNL A   1      45.208  23.740  36.389  1.00  0.00     0.127 S 
ATOM     90  O   UNL A   1      46.559  23.187  36.321  1.00  0.00    -0.237 OA
ATOM     91  O   UNL A   1      44.808  24.212  37.715  1.00  0.00    -0.237 OA
ATOM     92  O   UNL A   1      44.182  22.981  35.687  1.00  0.00    -0.744 OA
ENDBRANCH  86  89
ENDBRANCH  59  82
ENDBRANCH  33  34
ENDBRANCH  26  28
ENDBRANCH  25  26
ENDBRANCH  24  25
ENDBRANCH   1  24
TORSDOF 19
ENDMDL
