MODEL 1
REMARK VINA RESULT:      -9.4      0.000      0.000
REMARK SMILES Cc1cc(C)cc(N2C(=O)NC(=O)/C(=C\c3ccc(OCC(=O)OCCOCCOC(=O)c4ccc(-c5c6nc(c(-c7cccc(S(=O)(=O)[O-])c7F)c7ccc([nH]7)c(-c7cccc(S(=O)(=O)[O-])c7F)c7nc(c(-c8cccc(S(=O)(=O)[O-])c8F)c8ccc5[nH]8)C=C7)C=C6)cc4)c(Br)c3)C2=O)c1
REMARK SMILES IDX 26 1 25 2 24 3 22 4 23 5 21 6 20 7 19 8 16 9 17 10 98 11
REMARK SMILES IDX 18 12 96 13 97 14 15 15 8 16 9 17 99 18 10 19 11 20 14 21
REMARK SMILES IDX 100 22 12 23 13 25 7 26 1 27 2 28 3 29 101 30 4 31 5 32 6 33
REMARK SMILES IDX 27 34 28 35 29 36 30 37 31 38 32 39 33 40 34 41 95 42 35 43
REMARK SMILES IDX 94 44 36 45 37 46 38 47 88 48 39 49 93 50 87 51 89 52 40 53
REMARK SMILES IDX 92 54 86 55 85 56 41 58 73 59 53 60 72 61 54 62 57 63 71 64
REMARK SMILES IDX 90 65 55 66 56 67 70 69 91 70 58 71 42 72 43 73 51 74 44 75
REMARK SMILES IDX 46 76 52 77 45 78 47 79 48 80 49 81 50 82 74 83 75 84 83 85
REMARK SMILES IDX 76 86 78 87 84 88 77 89 79 90 80 91 81 92 82 93 59 94 60 95
REMARK SMILES IDX 68 96 61 97 63 98 69 99 62 100 64 101 65 102 66 103 67 104
REMARK H PARENT 11 24 89 57 57 68
REMARK Flexibility Score: inf
ROOT
ATOM      1  C   UNL A   1      34.096  33.110  33.038  1.00  0.00     0.202 C 
ENDROOT
BRANCH   1   2
ATOM      2  C   UNL A   1      34.754  32.474  31.807  1.00  0.00     0.261 C 
BRANCH   2   3
ATOM      3  O   UNL A   1      34.374  33.098  30.563  1.00  0.00    -0.461 OA
BRANCH   3   4
ATOM      4  C   UNL A   1      35.393  33.612  29.816  1.00  0.00     0.344 C 
ATOM      5  O   UNL A   1      35.249  34.304  28.813  1.00  0.00    -0.248 OA
BRANCH   4   6
ATOM      6  C   UNL A   1      36.769  33.153  30.307  1.00  0.00     0.352 C 
BRANCH   6   7
ATOM      7  O   UNL A   1      37.720  32.603  29.429  1.00  0.00    -0.481 OA
BRANCH   7   8
ATOM      8  C   UNL A   1      37.884  31.273  29.188  1.00  0.00     0.134 A 
ATOM      9  C   UNL A   1      38.790  28.602  28.874  1.00  0.00    -0.023 A 
ATOM     10  C   UNL A   1      39.526  29.504  29.635  1.00  0.00     0.012 A 
ATOM     11  C   UNL A   1      37.571  29.016  28.327  1.00  0.00     0.027 A 
ATOM     12  C   UNL A   1      39.071  30.815  29.789  1.00  0.00     0.048 A 
ATOM     13  C   UNL A   1      37.107  30.343  28.487  1.00  0.00     0.060 A 
ATOM     14  Br  UNL A   1      35.417  30.682  27.693  1.00  0.00    -0.047 Br
BRANCH   9  15
ATOM     15  C   UNL A   1      39.341  27.269  28.603  1.00  0.00     0.027 C 
ATOM     16  N   UNL A   1      41.500  25.156  26.519  1.00  0.00    -0.228 N 
ATOM     17  C   UNL A   1      42.010  26.081  25.613  1.00  0.00     0.335 C 
ATOM     18  C   UNL A   1      40.556  25.469  27.502  1.00  0.00     0.272 C 
ATOM     19  O   UNL A   1      42.817  25.844  24.714  1.00  0.00    -0.247 OA
ATOM     20  N   UNL A   1      41.550  27.360  25.709  1.00  0.00    -0.273 N 
ATOM     21  C   UNL A   1      40.167  26.912  27.598  1.00  0.00     0.106 C 
ATOM     22  O   UNL A   1      40.088  24.657  28.301  1.00  0.00    -0.268 OA
ATOM     23  C   UNL A   1      40.695  27.885  26.625  1.00  0.00     0.264 C 
ATOM     24  H   UNL A   1      41.882  27.987  25.025  1.00  0.00     0.175 HD
ATOM     25  O   UNL A   1      40.442  29.082  26.610  1.00  0.00    -0.269 OA
BRANCH  16  26
ATOM     26  C   UNL A   1      41.979  23.803  26.424  1.00  0.00     0.054 A 
ATOM     27  C   UNL A   1      45.316  21.999  25.983  1.00  0.00     0.044 C 
ATOM     28  C   UNL A   1      43.846  22.251  26.130  1.00  0.00    -0.049 A 
ATOM     29  C   UNL A   1      42.944  21.182  26.119  1.00  0.00     0.007 A 
ATOM     30  C   UNL A   1      43.351  23.555  26.259  1.00  0.00     0.030 A 
ATOM     31  C   UNL A   1      41.569  21.403  26.269  1.00  0.00    -0.049 A 
ATOM     32  C   UNL A   1      40.623  20.239  26.205  1.00  0.00     0.044 C 
ATOM     33  C   UNL A   1      41.097  22.712  26.454  1.00  0.00     0.030 A 
ENDBRANCH  16  26
ENDBRANCH   9  15
ENDBRANCH   7   8
ENDBRANCH   6   7
ENDBRANCH   4   6
ENDBRANCH   3   4
ENDBRANCH   2   3
ENDBRANCH   1   2
BRANCH   1  34
ATOM     34  O   UNL A   1      34.401  34.481  33.299  1.00  0.00    -0.374 OA
BRANCH  34  35
ATOM     35  C   UNL A   1      35.703  34.769  33.797  1.00  0.00     0.202 C 
BRANCH  35  36
ATOM     36  C   UNL A   1      36.055  34.191  35.170  1.00  0.00     0.261 C 
BRANCH  36  37
ATOM     37  O   UNL A   1      37.463  34.122  35.412  1.00  0.00    -0.460 OA
BRANCH  37  38
ATOM     38  C   UNL A   1      37.848  33.020  36.092  1.00  0.00     0.338 C 
ATOM     39  O   UNL A   1      37.401  32.606  37.155  1.00  0.00    -0.246 OA
BRANCH  38  40
ATOM     40  C   UNL A   1      38.809  32.249  35.294  1.00  0.00     0.060 A 
ATOM     41  C   UNL A   1      40.163  32.398  35.611  1.00  0.00     0.016 A 
ATOM     42  C   UNL A   1      38.402  31.476  34.205  1.00  0.00     0.016 A 
ATOM     43  C   UNL A   1      41.128  31.822  34.797  1.00  0.00     0.010 A 
ATOM     44  C   UNL A   1      39.375  30.899  33.386  1.00  0.00     0.010 A 
ATOM     45  C   UNL A   1      40.738  31.108  33.655  1.00  0.00    -0.014 A 
BRANCH  45  46
ATOM     46  C   UNL A   1      41.772  30.715  32.673  1.00  0.00     0.031 A 
ATOM     47  C   UNL A   1      42.175  31.699  31.611  1.00  0.00     0.074 A 
ATOM     48  C   UNL A   1      42.361  29.510  32.759  1.00  0.00     0.049 A 
ATOM     49  N   UNL A   1      43.093  31.588  30.688  1.00  0.00    -0.248 NA
ATOM     50  C   UNL A   1      41.448  32.979  31.584  1.00  0.00     0.031 C 
ATOM     51  C   UNL A   1      42.039  28.485  33.751  1.00  0.00     0.029 A 
ATOM     52  N   UNL A   1      43.349  28.944  31.996  1.00  0.00    -0.354 N 
ATOM     53  C   UNL A   1      43.042  32.771  29.959  1.00  0.00     0.074 A 
ATOM     54  C   UNL A   1      41.988  33.578  30.533  1.00  0.00     0.031 C 
ATOM     55  C   UNL A   1      42.807  27.406  33.526  1.00  0.00     0.029 A 
ATOM     56  C   UNL A   1      43.662  27.659  32.370  1.00  0.00     0.049 A 
ATOM     57  H   UNL A   1      43.790  29.412  31.250  1.00  0.00     0.167 HD
ATOM     58  C   UNL A   1      43.817  33.157  28.919  1.00  0.00     0.034 A 
ATOM     59  C   UNL A   1      44.539  26.790  31.831  1.00  0.00     0.034 A 
ATOM     60  C   UNL A   1      44.872  32.350  28.370  1.00  0.00     0.049 A 
ATOM     61  C   UNL A   1      45.380  27.239  30.666  1.00  0.00     0.074 A 
ATOM     62  C   UNL A   1      45.751  32.660  27.347  1.00  0.00     0.029 A 
ATOM     63  N   UNL A   1      45.184  31.067  28.793  1.00  0.00    -0.354 N 
ATOM     64  N   UNL A   1      45.407  28.408  30.069  1.00  0.00    -0.248 NA
ATOM     65  C   UNL A   1      46.335  26.265  30.121  1.00  0.00     0.031 C 
ATOM     66  C   UNL A   1      46.578  31.551  27.135  1.00  0.00     0.029 A 
ATOM     67  C   UNL A   1      46.233  30.562  28.044  1.00  0.00     0.049 A 
ATOM     68  H   UNL A   1      44.727  30.586  29.520  1.00  0.00     0.167 HD
ATOM     69  C   UNL A   1      46.405  28.321  29.104  1.00  0.00     0.074 A 
ATOM     70  C   UNL A   1      46.970  26.991  29.211  1.00  0.00     0.031 C 
ATOM     71  C   UNL A   1      46.809  29.251  28.203  1.00  0.00     0.034 A 
BRANCH  58  72
ATOM     72  C   UNL A   1      43.565  34.520  28.329  1.00  0.00     0.023 A 
ATOM     73  C   UNL A   1      42.537  34.689  27.378  1.00  0.00     0.012 A 
ATOM     74  C   UNL A   1      44.320  35.637  28.735  1.00  0.00     0.148 A 
ATOM     75  C   UNL A   1      42.286  35.941  26.817  1.00  0.00     0.002 A 
ATOM     76  C   UNL A   1      44.037  36.889  28.201  1.00  0.00     0.091 A 
ATOM     77  F   UNL A   1      45.310  35.452  29.619  1.00  0.00    -0.205 F 
ATOM     78  C   UNL A   1      43.029  37.042  27.234  1.00  0.00     0.022 A 
BRANCH  76  79
ATOM     79  S   UNL A   1      44.892  38.380  28.726  1.00  0.00     0.127 S 
ATOM     80  O   UNL A   1      46.189  38.222  28.070  1.00  0.00    -0.237 OA
ATOM     81  O   UNL A   1      44.048  39.435  28.165  1.00  0.00    -0.237 OA
ATOM     82  O   UNL A   1      44.917  38.335  30.182  1.00  0.00    -0.744 OA
ENDBRANCH  76  79
ENDBRANCH  58  72
BRANCH  59  83
ATOM     83  C   UNL A   1      44.701  25.433  32.425  1.00  0.00     0.023 A 
ATOM     84  C   UNL A   1      44.021  24.339  31.855  1.00  0.00     0.012 A 
ATOM     85  C   UNL A   1      45.549  25.214  33.529  1.00  0.00     0.148 A 
ATOM     86  C   UNL A   1      44.164  23.057  32.388  1.00  0.00     0.002 A 
ATOM     87  C   UNL A   1      45.728  23.927  34.021  1.00  0.00     0.091 A 
ATOM     88  F   UNL A   1      46.174  26.271  34.068  1.00  0.00    -0.205 F 
ATOM     89  C   UNL A   1      45.025  22.849  33.462  1.00  0.00     0.022 A 
BRANCH  87  90
ATOM     90  S   UNL A   1      46.917  23.550  35.314  1.00  0.00     0.127 S 
ATOM     91  O   UNL A   1      48.125  24.194  34.806  1.00  0.00    -0.237 OA
ATOM     92  O   UNL A   1      46.314  24.199  36.479  1.00  0.00    -0.237 OA
ATOM     93  O   UNL A   1      46.959  22.096  35.395  1.00  0.00    -0.744 OA
ENDBRANCH  87  90
ENDBRANCH  59  83
BRANCH  71  94
ATOM     94  C   UNL A   1      47.936  28.876  27.278  1.00  0.00     0.023 A 
ATOM     95  C   UNL A   1      49.271  29.027  27.703  1.00  0.00     0.012 A 
ATOM     96  C   UNL A   1      47.670  28.298  26.020  1.00  0.00     0.148 A 
ATOM     97  C   UNL A   1      50.325  28.640  26.877  1.00  0.00     0.002 A 
ATOM     98  C   UNL A   1      48.725  27.869  25.224  1.00  0.00     0.091 A 
ATOM     99  F   UNL A   1      46.394  28.180  25.628  1.00  0.00    -0.205 F 
ATOM    100  C   UNL A   1      50.052  28.050  25.645  1.00  0.00     0.022 A 
BRANCH  98 101
ATOM    101  S   UNL A   1      48.464  27.010  23.668  1.00  0.00     0.127 S 
ATOM    102  O   UNL A   1      47.591  27.942  22.956  1.00  0.00    -0.237 OA
ATOM    103  O   UNL A   1      49.824  26.917  23.133  1.00  0.00    -0.237 OA
ATOM    104  O   UNL A   1      47.864  25.729  24.013  1.00  0.00    -0.744 OA
ENDBRANCH  98 101
ENDBRANCH  71  94
ENDBRANCH  45  46
ENDBRANCH  38  40
ENDBRANCH  37  38
ENDBRANCH  36  37
ENDBRANCH  35  36
ENDBRANCH  34  35
ENDBRANCH   1  34
TORSDOF 21
ENDMDL
MODEL 2
REMARK VINA RESULT:      -8.9      6.808     14.273
REMARK SMILES Cc1cc(C)cc(N2C(=O)NC(=O)/C(=C\c3ccc(OCC(=O)OCCOCCOC(=O)c4ccc(-c5c6nc(c(-c7cccc(S(=O)(=O)[O-])c7F)c7ccc([nH]7)c(-c7cccc(S(=O)(=O)[O-])c7F)c7nc(c(-c8cccc(S(=O)(=O)[O-])c8F)c8ccc5[nH]8)C=C7)C=C6)cc4)c(Br)c3)C2=O)c1
REMARK SMILES IDX 26 1 25 2 24 3 22 4 23 5 21 6 20 7 19 8 16 9 17 10 98 11
REMARK SMILES IDX 18 12 96 13 97 14 15 15 8 16 9 17 99 18 10 19 11 20 14 21
REMARK SMILES IDX 100 22 12 23 13 25 7 26 1 27 2 28 3 29 101 30 4 31 5 32 6 33
REMARK SMILES IDX 27 34 28 35 29 36 30 37 31 38 32 39 33 40 34 41 95 42 35 43
REMARK SMILES IDX 94 44 36 45 37 46 38 47 88 48 39 49 93 50 87 51 89 52 40 53
REMARK SMILES IDX 92 54 86 55 85 56 41 58 73 59 53 60 72 61 54 62 57 63 71 64
REMARK SMILES IDX 90 65 55 66 56 67 70 69 91 70 58 71 42 72 43 73 51 74 44 75
REMARK SMILES IDX 46 76 52 77 45 78 47 79 48 80 49 81 50 82 74 83 75 84 83 85
REMARK SMILES IDX 76 86 78 87 84 88 77 89 79 90 80 91 81 92 82 93 59 94 60 95
REMARK SMILES IDX 68 96 61 97 63 98 69 99 62 100 64 101 65 102 66 103 67 104
REMARK H PARENT 11 24 89 57 57 68
REMARK Flexibility Score: inf
ROOT
ATOM      1  C   UNL A   1      51.089  22.728  34.280  1.00  0.00     0.202 C 
ENDROOT
BRANCH   1   2
ATOM      2  C   UNL A   1      52.613  22.562  34.305  1.00  0.00     0.261 C 
BRANCH   2   3
ATOM      3  O   UNL A   1      53.120  22.074  35.565  1.00  0.00    -0.461 OA
BRANCH   3   4
ATOM      4  C   UNL A   1      53.280  20.723  35.662  1.00  0.00     0.344 C 
ATOM      5  O   UNL A   1      54.260  20.102  35.262  1.00  0.00    -0.248 OA
BRANCH   4   6
ATOM      6  C   UNL A   1      52.049  20.026  36.245  1.00  0.00     0.352 C 
BRANCH   6   7
ATOM      7  O   UNL A   1      51.184  20.680  37.141  1.00  0.00    -0.481 OA
BRANCH   7   8
ATOM      8  C   UNL A   1      50.180  20.081  37.837  1.00  0.00     0.134 A 
ATOM      9  C   UNL A   1      48.537  18.607  39.622  1.00  0.00    -0.023 A 
ATOM     10  C   UNL A   1      49.867  18.860  39.943  1.00  0.00     0.012 A 
ATOM     11  C   UNL A   1      48.013  19.147  38.442  1.00  0.00     0.027 A 
ATOM     12  C   UNL A   1      50.667  19.590  39.063  1.00  0.00     0.048 A 
ATOM     13  C   UNL A   1      48.822  19.891  37.553  1.00  0.00     0.060 A 
ATOM     14  Br  UNL A   1      47.903  20.558  36.032  1.00  0.00    -0.047 Br
BRANCH   9  15
ATOM     15  C   UNL A   1      47.742  17.724  40.484  1.00  0.00     0.027 C 
ATOM     16  N   UNL A   1      44.958  17.362  42.847  1.00  0.00    -0.228 N 
ATOM     17  C   UNL A   1      44.462  18.660  42.899  1.00  0.00     0.335 C 
ATOM     18  C   UNL A   1      46.088  16.990  42.113  1.00  0.00     0.272 C 
ATOM     19  O   UNL A   1      43.490  19.039  43.554  1.00  0.00    -0.247 OA
ATOM     20  N   UNL A   1      45.131  19.608  42.184  1.00  0.00    -0.273 N 
ATOM     21  C   UNL A   1      46.716  18.070  41.287  1.00  0.00     0.106 C 
ATOM     22  O   UNL A   1      46.545  15.847  42.068  1.00  0.00    -0.268 OA
ATOM     23  C   UNL A   1      46.198  19.449  41.360  1.00  0.00     0.264 C 
ATOM     24  H   UNL A   1      44.797  20.531  42.278  1.00  0.00     0.175 HD
ATOM     25  O   UNL A   1      46.635  20.404  40.731  1.00  0.00    -0.269 OA
BRANCH  16  26
ATOM     26  C   UNL A   1      44.259  16.355  43.600  1.00  0.00     0.054 A 
ATOM     27  C   UNL A   1      41.509  13.772  43.011  1.00  0.00     0.044 C 
ATOM     28  C   UNL A   1      42.545  14.613  43.692  1.00  0.00    -0.049 A 
ATOM     29  C   UNL A   1      42.790  14.457  45.060  1.00  0.00     0.007 A 
ATOM     30  C   UNL A   1      43.267  15.578  42.979  1.00  0.00     0.030 A 
ATOM     31  C   UNL A   1      43.765  15.228  45.706  1.00  0.00    -0.049 A 
ATOM     32  C   UNL A   1      43.970  15.070  47.185  1.00  0.00     0.044 C 
ATOM     33  C   UNL A   1      44.518  16.150  44.963  1.00  0.00     0.030 A 
ENDBRANCH  16  26
ENDBRANCH   9  15
ENDBRANCH   7   8
ENDBRANCH   6   7
ENDBRANCH   4   6
ENDBRANCH   3   4
ENDBRANCH   2   3
ENDBRANCH   1   2
BRANCH   1  34
ATOM     34  O   UNL A   1      50.570  23.996  34.684  1.00  0.00    -0.374 OA
BRANCH  34  35
ATOM     35  C   UNL A   1      49.158  24.099  34.827  1.00  0.00     0.202 C 
BRANCH  35  36
ATOM     36  C   UNL A   1      48.630  24.381  36.236  1.00  0.00     0.261 C 
BRANCH  36  37
ATOM     37  O   UNL A   1      48.379  25.768  36.480  1.00  0.00    -0.460 OA
BRANCH  37  38
ATOM     38  C   UNL A   1      47.170  26.017  37.030  1.00  0.00     0.338 C 
ATOM     39  O   UNL A   1      46.891  26.072  38.222  1.00  0.00    -0.246 OA
BRANCH  38  40
ATOM     40  C   UNL A   1      46.210  26.384  35.984  1.00  0.00     0.060 A 
ATOM     41  C   UNL A   1      46.478  27.547  35.254  1.00  0.00     0.016 A 
ATOM     42  C   UNL A   1      45.031  25.662  35.786  1.00  0.00     0.016 A 
ATOM     43  C   UNL A   1      45.532  28.032  34.361  1.00  0.00     0.010 A 
ATOM     44  C   UNL A   1      44.080  26.154  34.889  1.00  0.00     0.010 A 
ATOM     45  C   UNL A   1      44.310  27.362  34.209  1.00  0.00    -0.014 A 
BRANCH  45  46
ATOM     46  C   UNL A   1      43.226  28.019  33.448  1.00  0.00     0.031 A 
ATOM     47  C   UNL A   1      43.030  27.656  32.003  1.00  0.00     0.074 A 
ATOM     48  C   UNL A   1      42.411  28.897  34.057  1.00  0.00     0.049 A 
ATOM     49  N   UNL A   1      42.114  28.064  31.165  1.00  0.00    -0.248 NA
ATOM     50  C   UNL A   1      43.995  26.707  31.422  1.00  0.00     0.031 C 
ATOM     51  C   UNL A   1      42.520  29.317  35.453  1.00  0.00     0.029 A 
ATOM     52  N   UNL A   1      41.336  29.599  33.575  1.00  0.00    -0.354 N 
ATOM     53  C   UNL A   1      42.402  27.440  29.956  1.00  0.00     0.074 A 
ATOM     54  C   UNL A   1      43.589  26.641  30.163  1.00  0.00     0.031 C 
ATOM     55  C   UNL A   1      41.555  30.217  35.713  1.00  0.00     0.029 A 
ATOM     56  C   UNL A   1      40.775  30.445  34.501  1.00  0.00     0.049 A 
ATOM     57  H   UNL A   1      41.001  29.505  32.654  1.00  0.00     0.167 HD
ATOM     58  C   UNL A   1      41.724  27.510  28.788  1.00  0.00     0.034 A 
ATOM     59  C   UNL A   1      39.748  31.308  34.375  1.00  0.00     0.034 A 
ATOM     60  C   UNL A   1      40.534  28.295  28.602  1.00  0.00     0.049 A 
ATOM     61  C   UNL A   1      39.018  31.377  33.059  1.00  0.00     0.074 A 
ATOM     62  C   UNL A   1      39.740  28.405  27.475  1.00  0.00     0.029 A 
ATOM     63  N   UNL A   1      39.974  29.116  29.570  1.00  0.00    -0.354 N 
ATOM     64  N   UNL A   1      39.225  30.684  31.963  1.00  0.00    -0.248 NA
ATOM     65  C   UNL A   1      37.894  32.318  32.971  1.00  0.00     0.031 C 
ATOM     66  C   UNL A   1      38.713  29.313  27.754  1.00  0.00     0.029 A 
ATOM     67  C   UNL A   1      38.851  29.747  29.063  1.00  0.00     0.049 A 
ATOM     68  H   UNL A   1      40.323  29.231  30.483  1.00  0.00     0.167 HD
ATOM     69  C   UNL A   1      38.236  31.080  31.069  1.00  0.00     0.074 A 
ATOM     70  C   UNL A   1      37.420  32.057  31.760  1.00  0.00     0.031 C 
ATOM     71  C   UNL A   1      38.027  30.681  29.789  1.00  0.00     0.034 A 
BRANCH  58  72
ATOM     72  C   UNL A   1      42.242  26.697  27.630  1.00  0.00     0.023 A 
ATOM     73  C   UNL A   1      43.096  27.298  26.682  1.00  0.00     0.012 A 
ATOM     74  C   UNL A   1      41.914  25.334  27.497  1.00  0.00     0.148 A 
ATOM     75  C   UNL A   1      43.587  26.566  25.601  1.00  0.00     0.002 A 
ATOM     76  C   UNL A   1      42.440  24.600  26.440  1.00  0.00     0.091 A 
ATOM     77  F   UNL A   1      41.080  24.786  28.393  1.00  0.00    -0.205 F 
ATOM     78  C   UNL A   1      43.267  25.215  25.485  1.00  0.00     0.022 A 
BRANCH  76  79
ATOM     79  S   UNL A   1      42.143  22.839  26.243  1.00  0.00     0.127 S 
ATOM     80  O   UNL A   1      42.844  22.560  24.990  1.00  0.00    -0.237 OA
ATOM     81  O   UNL A   1      42.782  22.282  27.436  1.00  0.00    -0.237 OA
ATOM     82  O   UNL A   1      40.696  22.680  26.200  1.00  0.00    -0.744 OA
ENDBRANCH  76  79
ENDBRANCH  58  72
BRANCH  59  83
ATOM     83  C   UNL A   1      39.319  32.129  35.541  1.00  0.00     0.023 A 
ATOM     84  C   UNL A   1      39.680  33.489  35.605  1.00  0.00     0.012 A 
ATOM     85  C   UNL A   1      38.528  31.580  36.570  1.00  0.00     0.148 A 
ATOM     86  C   UNL A   1      39.283  34.280  36.683  1.00  0.00     0.002 A 
ATOM     87  C   UNL A   1      38.091  32.388  37.613  1.00  0.00     0.091 A 
ATOM     88  F   UNL A   1      38.209  30.280  36.501  1.00  0.00    -0.205 F 
ATOM     89  C   UNL A   1      38.479  33.734  37.680  1.00  0.00     0.022 A 
BRANCH  87  90
ATOM     90  S   UNL A   1      36.947  31.801  38.869  1.00  0.00     0.127 S 
ATOM     91  O   UNL A   1      37.656  32.139  40.100  1.00  0.00    -0.237 OA
ATOM     92  O   UNL A   1      35.759  32.611  38.599  1.00  0.00    -0.237 OA
ATOM     93  O   UNL A   1      36.773  30.379  38.606  1.00  0.00    -0.744 OA
ENDBRANCH  87  90
ENDBRANCH  59  83
BRANCH  71  94
ATOM     94  C   UNL A   1      36.855  31.280  29.058  1.00  0.00     0.023 A 
ATOM     95  C   UNL A   1      36.849  32.655  28.754  1.00  0.00     0.012 A 
ATOM     96  C   UNL A   1      35.800  30.464  28.603  1.00  0.00     0.148 A 
ATOM     97  C   UNL A   1      35.793  33.216  28.036  1.00  0.00     0.002 A 
ATOM     98  C   UNL A   1      34.778  31.021  27.845  1.00  0.00     0.091 A 
ATOM     99  F   UNL A   1      35.817  29.161  28.919  1.00  0.00    -0.205 F 
ATOM    100  C   UNL A   1      34.766  32.398  27.572  1.00  0.00     0.022 A 
BRANCH  98 101
ATOM    101  S   UNL A   1      33.468  30.027  27.123  1.00  0.00     0.127 S 
ATOM    102  O   UNL A   1      33.990  29.774  25.781  1.00  0.00    -0.237 OA
ATOM    103  O   UNL A   1      33.447  28.855  28.001  1.00  0.00    -0.237 OA
ATOM    104  O   UNL A   1      32.265  30.845  27.182  1.00  0.00    -0.744 OA
ENDBRANCH  98 101
ENDBRANCH  71  94
ENDBRANCH  45  46
ENDBRANCH  38  40
ENDBRANCH  37  38
ENDBRANCH  36  37
ENDBRANCH  35  36
ENDBRANCH  34  35
ENDBRANCH   1  34
TORSDOF 21
ENDMDL
MODEL 3
REMARK VINA RESULT:      -8.5      1.690      2.123
REMARK SMILES Cc1cc(C)cc(N2C(=O)NC(=O)/C(=C\c3ccc(OCC(=O)OCCOCCOC(=O)c4ccc(-c5c6nc(c(-c7cccc(S(=O)(=O)[O-])c7F)c7ccc([nH]7)c(-c7cccc(S(=O)(=O)[O-])c7F)c7nc(c(-c8cccc(S(=O)(=O)[O-])c8F)c8ccc5[nH]8)C=C7)C=C6)cc4)c(Br)c3)C2=O)c1
REMARK SMILES IDX 26 1 25 2 24 3 22 4 23 5 21 6 20 7 19 8 16 9 17 10 98 11
REMARK SMILES IDX 18 12 96 13 97 14 15 15 8 16 9 17 99 18 10 19 11 20 14 21
REMARK SMILES IDX 100 22 12 23 13 25 7 26 1 27 2 28 3 29 101 30 4 31 5 32 6 33
REMARK SMILES IDX 27 34 28 35 29 36 30 37 31 38 32 39 33 40 34 41 95 42 35 43
REMARK SMILES IDX 94 44 36 45 37 46 38 47 88 48 39 49 93 50 87 51 89 52 40 53
REMARK SMILES IDX 92 54 86 55 85 56 41 58 73 59 53 60 72 61 54 62 57 63 71 64
REMARK SMILES IDX 90 65 55 66 56 67 70 69 91 70 58 71 42 72 43 73 51 74 44 75
REMARK SMILES IDX 46 76 52 77 45 78 47 79 48 80 49 81 50 82 74 83 75 84 83 85
REMARK SMILES IDX 76 86 78 87 84 88 77 89 79 90 80 91 81 92 82 93 59 94 60 95
REMARK SMILES IDX 68 96 61 97 63 98 69 99 62 100 64 101 65 102 66 103 67 104
REMARK H PARENT 11 24 89 57 57 68
REMARK Flexibility Score: inf
ROOT
ATOM      1  C   UNL A   1      34.401  33.145  32.941  1.00  0.00     0.202 C 
ENDROOT
BRANCH   1   2
ATOM      2  C   UNL A   1      34.877  33.263  31.489  1.00  0.00     0.261 C 
BRANCH   2   3
ATOM      3  O   UNL A   1      33.811  33.522  30.551  1.00  0.00    -0.461 OA
BRANCH   3   4
ATOM      4  C   UNL A   1      34.171  34.161  29.400  1.00  0.00     0.344 C 
ATOM      5  O   UNL A   1      33.387  34.556  28.543  1.00  0.00    -0.248 OA
BRANCH   4   6
ATOM      6  C   UNL A   1      35.688  34.256  29.231  1.00  0.00     0.352 C 
BRANCH   6   7
ATOM      7  O   UNL A   1      36.379  33.466  28.295  1.00  0.00    -0.481 OA
BRANCH   7   8
ATOM      8  C   UNL A   1      36.646  32.139  28.438  1.00  0.00     0.134 A 
ATOM      9  C   UNL A   1      37.771  29.560  28.811  1.00  0.00    -0.023 A 
ATOM     10  C   UNL A   1      38.492  30.695  29.167  1.00  0.00     0.012 A 
ATOM     11  C   UNL A   1      36.465  29.712  28.332  1.00  0.00     0.027 A 
ATOM     12  C   UNL A   1      37.930  31.959  28.985  1.00  0.00     0.048 A 
ATOM     13  C   UNL A   1      35.894  30.993  28.153  1.00  0.00     0.060 A 
ATOM     14  Br  UNL A   1      34.102  30.969  27.526  1.00  0.00    -0.047 Br
BRANCH   9  15
ATOM     15  C   UNL A   1      38.418  28.244  28.875  1.00  0.00     0.027 C 
ATOM     16  N   UNL A   1      40.831  25.886  27.432  1.00  0.00    -0.228 N 
ATOM     17  C   UNL A   1      41.342  26.622  26.368  1.00  0.00     0.335 C 
ATOM     18  C   UNL A   1      39.809  26.339  28.271  1.00  0.00     0.272 C 
ATOM     19  O   UNL A   1      42.219  26.252  25.586  1.00  0.00    -0.247 OA
ATOM     20  N   UNL A   1      40.801  27.853  26.149  1.00  0.00    -0.273 N 
ATOM     21  C   UNL A   1      39.327  27.734  28.019  1.00  0.00     0.106 C 
ATOM     22  O   UNL A   1      39.340  25.693  29.209  1.00  0.00    -0.268 OA
ATOM     23  C   UNL A   1      39.858  28.504  26.879  1.00  0.00     0.264 C 
ATOM     24  H   UNL A   1      41.138  28.336  25.359  1.00  0.00     0.175 HD
ATOM     25  O   UNL A   1      39.535  29.646  26.582  1.00  0.00    -0.269 OA
BRANCH  16  26
ATOM     26  C   UNL A   1      41.396  24.584  27.669  1.00  0.00     0.054 A 
ATOM     27  C   UNL A   1      40.590  20.948  26.825  1.00  0.00     0.044 C 
ATOM     28  C   UNL A   1      41.264  22.157  27.399  1.00  0.00    -0.049 A 
ATOM     29  C   UNL A   1      42.401  22.015  28.201  1.00  0.00     0.007 A 
ATOM     30  C   UNL A   1      40.759  23.441  27.159  1.00  0.00     0.030 A 
ATOM     31  C   UNL A   1      43.047  23.138  28.733  1.00  0.00    -0.049 A 
ATOM     32  C   UNL A   1      44.237  22.950  29.630  1.00  0.00     0.044 C 
ATOM     33  C   UNL A   1      42.560  24.420  28.435  1.00  0.00     0.030 A 
ENDBRANCH  16  26
ENDBRANCH   9  15
ENDBRANCH   7   8
ENDBRANCH   6   7
ENDBRANCH   4   6
ENDBRANCH   3   4
ENDBRANCH   2   3
ENDBRANCH   1   2
BRANCH   1  34
ATOM     34  O   UNL A   1      34.422  34.338  33.727  1.00  0.00    -0.374 OA
BRANCH  34  35
ATOM     35  C   UNL A   1      35.638  34.646  34.400  1.00  0.00     0.202 C 
BRANCH  35  36
ATOM     36  C   UNL A   1      35.976  33.800  35.630  1.00  0.00     0.261 C 
BRANCH  36  37
ATOM     37  O   UNL A   1      37.368  33.803  35.956  1.00  0.00    -0.460 OA
BRANCH  37  38
ATOM     38  C   UNL A   1      37.759  32.744  36.696  1.00  0.00     0.338 C 
ATOM     39  O   UNL A   1      37.311  32.386  37.779  1.00  0.00    -0.246 OA
BRANCH  38  40
ATOM     40  C   UNL A   1      38.729  31.938  35.945  1.00  0.00     0.060 A 
ATOM     41  C   UNL A   1      40.079  32.092  36.280  1.00  0.00     0.016 A 
ATOM     42  C   UNL A   1      38.336  31.126  34.880  1.00  0.00     0.016 A 
ATOM     43  C   UNL A   1      41.054  31.479  35.505  1.00  0.00     0.010 A 
ATOM     44  C   UNL A   1      39.320  30.513  34.100  1.00  0.00     0.010 A 
ATOM     45  C   UNL A   1      40.679  30.724  34.384  1.00  0.00    -0.014 A 
BRANCH  45  46
ATOM     46  C   UNL A   1      41.727  30.288  33.436  1.00  0.00     0.031 A 
ATOM     47  C   UNL A   1      42.180  31.242  32.366  1.00  0.00     0.074 A 
ATOM     48  C   UNL A   1      42.285  29.072  33.560  1.00  0.00     0.049 A 
ATOM     49  N   UNL A   1      43.117  31.093  31.469  1.00  0.00    -0.248 NA
ATOM     50  C   UNL A   1      41.484  32.539  32.298  1.00  0.00     0.031 C 
ATOM     51  C   UNL A   1      41.913  28.074  34.561  1.00  0.00     0.029 A 
ATOM     52  N   UNL A   1      43.277  28.468  32.831  1.00  0.00    -0.354 N 
ATOM     53  C   UNL A   1      43.112  32.262  30.717  1.00  0.00     0.074 A 
ATOM     54  C   UNL A   1      42.065  33.104  31.250  1.00  0.00     0.031 C 
ATOM     55  C   UNL A   1      42.661  26.973  34.376  1.00  0.00     0.029 A 
ATOM     56  C   UNL A   1      43.550  27.184  33.237  1.00  0.00     0.049 A 
ATOM     57  H   UNL A   1      43.747  28.912  32.089  1.00  0.00     0.167 HD
ATOM     58  C   UNL A   1      43.921  32.609  29.690  1.00  0.00     0.034 A 
ATOM     59  C   UNL A   1      44.418  26.284  32.737  1.00  0.00     0.034 A 
ATOM     60  C   UNL A   1      44.971  31.768  29.182  1.00  0.00     0.049 A 
ATOM     61  C   UNL A   1      45.299  26.691  31.585  1.00  0.00     0.074 A 
ATOM     62  C   UNL A   1      45.882  32.037  28.176  1.00  0.00     0.029 A 
ATOM     63  N   UNL A   1      45.241  30.486  29.637  1.00  0.00    -0.354 N 
ATOM     64  N   UNL A   1      45.369  27.847  30.968  1.00  0.00    -0.248 NA
ATOM     65  C   UNL A   1      46.244  25.684  31.083  1.00  0.00     0.031 C 
ATOM     66  C   UNL A   1      46.687  30.906  28.006  1.00  0.00     0.029 A 
ATOM     67  C   UNL A   1      46.296  29.943  28.924  1.00  0.00     0.049 A 
ATOM     68  H   UNL A   1      44.755  30.030  30.362  1.00  0.00     0.167 HD
ATOM     69  C   UNL A   1      46.388  27.719  30.030  1.00  0.00     0.074 A 
ATOM     70  C   UNL A   1      46.918  26.379  30.175  1.00  0.00     0.031 C 
ATOM     71  C   UNL A   1      46.837  28.622  29.122  1.00  0.00     0.034 A 
BRANCH  58  72
ATOM     72  C   UNL A   1      43.717  33.967  29.069  1.00  0.00     0.023 A 
ATOM     73  C   UNL A   1      42.980  34.082  27.872  1.00  0.00     0.012 A 
ATOM     74  C   UNL A   1      44.223  35.129  29.682  1.00  0.00     0.148 A 
ATOM     75  C   UNL A   1      42.780  35.327  27.276  1.00  0.00     0.002 A 
ATOM     76  C   UNL A   1      43.984  36.371  29.104  1.00  0.00     0.091 A 
ATOM     77  F   UNL A   1      44.944  34.998  30.805  1.00  0.00    -0.205 F 
ATOM     78  C   UNL A   1      43.272  36.472  27.897  1.00  0.00     0.022 A 
BRANCH  76  79
ATOM     79  S   UNL A   1      44.518  37.909  29.864  1.00  0.00     0.127 S 
ATOM     80  O   UNL A   1      45.957  37.687  30.000  1.00  0.00    -0.237 OA
ATOM     81  O   UNL A   1      44.147  38.899  28.852  1.00  0.00    -0.237 OA
ATOM     82  O   UNL A   1      43.779  38.015  31.115  1.00  0.00    -0.744 OA
ENDBRANCH  76  79
ENDBRANCH  58  72
BRANCH  59  83
ATOM     83  C   UNL A   1      44.533  24.936  33.360  1.00  0.00     0.023 A 
ATOM     84  C   UNL A   1      43.699  23.891  32.915  1.00  0.00     0.012 A 
ATOM     85  C   UNL A   1      45.484  24.673  34.365  1.00  0.00     0.148 A 
ATOM     86  C   UNL A   1      43.794  22.618  33.476  1.00  0.00     0.002 A 
ATOM     87  C   UNL A   1      45.610  23.389  34.882  1.00  0.00     0.091 A 
ATOM     88  F   UNL A   1      46.257  25.684  34.787  1.00  0.00    -0.205 F 
ATOM     89  C   UNL A   1      44.756  22.363  34.451  1.00  0.00     0.022 A 
BRANCH  87  90
ATOM     90  S   UNL A   1      46.908  22.943  36.043  1.00  0.00     0.127 S 
ATOM     91  O   UNL A   1      46.523  23.706  37.228  1.00  0.00    -0.237 OA
ATOM     92  O   UNL A   1      46.728  21.495  36.157  1.00  0.00    -0.237 OA
ATOM     93  O   UNL A   1      48.155  23.343  35.408  1.00  0.00    -0.744 OA
ENDBRANCH  87  90
ENDBRANCH  59  83
BRANCH  71  94
ATOM     94  C   UNL A   1      47.977  28.202  28.232  1.00  0.00     0.023 A 
ATOM     95  C   UNL A   1      47.707  27.656  26.962  1.00  0.00     0.012 A 
ATOM     96  C   UNL A   1      49.312  28.426  28.622  1.00  0.00     0.148 A 
ATOM     97  C   UNL A   1      48.752  27.307  26.106  1.00  0.00     0.002 A 
ATOM     98  C   UNL A   1      50.345  28.122  27.744  1.00  0.00     0.091 A 
ATOM     99  F   UNL A   1      49.546  28.930  29.842  1.00  0.00    -0.205 F 
ATOM    100  C   UNL A   1      50.068  27.552  26.492  1.00  0.00     0.022 A 
BRANCH  98 101
ATOM    101  S   UNL A   1      52.062  28.495  28.118  1.00  0.00     0.127 S 
ATOM    102  O   UNL A   1      52.456  27.329  28.906  1.00  0.00    -0.237 OA
ATOM    103  O   UNL A   1      52.663  28.561  26.784  1.00  0.00    -0.237 OA
ATOM    104  O   UNL A   1      52.050  29.761  28.836  1.00  0.00    -0.744 OA
ENDBRANCH  98 101
ENDBRANCH  71  94
ENDBRANCH  45  46
ENDBRANCH  38  40
ENDBRANCH  37  38
ENDBRANCH  36  37
ENDBRANCH  35  36
ENDBRANCH  34  35
ENDBRANCH   1  34
TORSDOF 21
ENDMDL
