MODEL 1
REMARK VINA RESULT:     -11.9      0.000      0.000
REMARK SMILES CC[C@]1(C(=O)OCCOCCOC(=O)c2ccc(-c3c4nc(c(-c5cccc(S(=O)(=O)[O-])c5F)c5ccc([nH]5)c(-c5cccc(S(=O)(=O)[O-])c5F)c5nc(c(-c6cccc(S(=O)(=O)[O-])c6F)c6ccc3[nH]6)C=C5)C=C4)cc2)CCCN(C(=O)c2csc(C)c2-c2ccccc2)C1
REMARK SMILES IDX 9 1 8 2 7 3 6 4 4 5 5 6 3 7 78 8 96 9 79 10 81 11 80 12 2 13
REMARK SMILES IDX 1 14 82 15 83 16 84 17 85 18 89 19 86 20 87 21 88 22 90 23
REMARK SMILES IDX 91 24 95 25 92 26 94 27 93 28 10 29 11 30 12 31 13 32 14 33
REMARK SMILES IDX 15 34 16 35 77 36 17 37 76 38 18 39 19 40 20 41 70 42 21 43
REMARK SMILES IDX 75 44 69 45 71 46 22 47 74 48 68 49 67 50 23 52 55 53 35 54
REMARK SMILES IDX 54 55 36 56 39 57 53 58 72 59 37 60 38 61 52 63 73 64 40 65
REMARK SMILES IDX 24 66 25 67 33 68 26 69 28 70 34 71 27 72 29 73 30 74 31 75
REMARK SMILES IDX 32 76 56 77 57 78 65 79 58 80 60 81 66 82 59 83 61 84 62 85
REMARK SMILES IDX 63 86 64 87 41 88 42 89 50 90 43 91 45 92 51 93 44 94 46 95
REMARK SMILES IDX 47 96 48 97 49 98
REMARK H PARENT 71 51 39 62
REMARK Flexibility Score: inf
ROOT
ATOM      1  O   UNL A   1      29.972  31.041  24.281  1.00  0.00    -0.374 OA
ENDROOT
BRANCH   1   2
ATOM      2  C   UNL A   1      29.923  29.700  23.798  1.00  0.00     0.202 C 
BRANCH   2   3
ATOM      3  C   UNL A   1      30.255  29.461  22.323  1.00  0.00     0.261 C 
BRANCH   3   4
ATOM      4  O   UNL A   1      30.807  28.156  22.096  1.00  0.00    -0.463 OA
BRANCH   4   5
ATOM      5  C   UNL A   1      31.996  27.925  22.712  1.00  0.00     0.313 C 
ATOM      6  O   UNL A   1      32.957  28.685  22.661  1.00  0.00    -0.252 OA
BRANCH   5   7
ATOM      7  C   UNL A   1      32.030  26.591  23.455  1.00  0.00     0.085 C 
ATOM      8  C   UNL A   1      31.026  26.436  24.630  1.00  0.00     0.022 C 
ATOM      9  C   UNL A   1      31.620  25.566  22.382  1.00  0.00     0.138 C 
ATOM     10  C   UNL A   1      30.969  24.992  25.159  1.00  0.00     0.023 C 
ATOM     11  N   UNL A   1      31.673  24.210  22.914  1.00  0.00    -0.337 N 
ATOM     12  C   UNL A   1      30.777  23.954  24.045  1.00  0.00     0.120 C 
BRANCH   7  13
ATOM     13  C   UNL A   1      33.497  26.349  23.930  1.00  0.00     0.017 C 
ATOM     14  C   UNL A   1      33.856  26.939  25.292  1.00  0.00     0.005 C 
ENDBRANCH   7  13
BRANCH  11  15
ATOM     15  C   UNL A   1      32.632  23.349  22.380  1.00  0.00     0.255 C 
ATOM     16  O   UNL A   1      33.431  23.718  21.521  1.00  0.00    -0.269 OA
BRANCH  15  17
ATOM     17  C   UNL A   1      32.702  21.984  22.885  1.00  0.00     0.058 A 
ATOM     18  C   UNL A   1      31.901  20.960  22.418  1.00  0.00     0.079 A 
ATOM     19  C   UNL A   1      33.685  21.499  23.826  1.00  0.00     0.008 A 
ATOM     20  S   UNL A   1      32.279  19.460  23.130  1.00  0.00    -0.148 S 
ATOM     21  C   UNL A   1      33.555  20.138  24.055  1.00  0.00     0.010 A 
ATOM     22  C   UNL A   1      34.337  19.232  24.948  1.00  0.00     0.057 C 
BRANCH  19  23
ATOM     23  C   UNL A   1      34.694  22.309  24.505  1.00  0.00    -0.016 A 
ATOM     24  C   UNL A   1      35.961  22.501  23.941  1.00  0.00     0.009 A 
ATOM     25  C   UNL A   1      34.386  22.925  25.723  1.00  0.00     0.009 A 
ATOM     26  C   UNL A   1      36.911  23.287  24.597  1.00  0.00     0.001 A 
ATOM     27  C   UNL A   1      35.331  23.728  26.368  1.00  0.00     0.001 A 
ATOM     28  C   UNL A   1      36.595  23.903  25.808  1.00  0.00     0.000 A 
ENDBRANCH  19  23
ENDBRANCH  15  17
ENDBRANCH  11  15
ENDBRANCH   5   7
ENDBRANCH   4   5
ENDBRANCH   3   4
ENDBRANCH   2   3
ENDBRANCH   1   2
BRANCH   1  29
ATOM     29  C   UNL A   1      30.685  31.286  25.491  1.00  0.00     0.202 C 
BRANCH  29  30
ATOM     30  C   UNL A   1      31.918  30.423  25.788  1.00  0.00     0.261 C 
BRANCH  30  31
ATOM     31  O   UNL A   1      32.404  30.603  27.129  1.00  0.00    -0.460 OA
BRANCH  31  32
ATOM     32  C   UNL A   1      33.101  31.746  27.329  1.00  0.00     0.338 C 
ATOM     33  O   UNL A   1      32.656  32.889  27.350  1.00  0.00    -0.246 OA
BRANCH  32  34
ATOM     34  C   UNL A   1      34.479  31.425  27.732  1.00  0.00     0.060 A 
ATOM     35  C   UNL A   1      34.785  30.084  28.011  1.00  0.00     0.016 A 
ATOM     36  C   UNL A   1      35.437  32.425  27.900  1.00  0.00     0.016 A 
ATOM     37  C   UNL A   1      36.038  29.743  28.512  1.00  0.00     0.010 A 
ATOM     38  C   UNL A   1      36.686  32.084  28.417  1.00  0.00     0.010 A 
ATOM     39  C   UNL A   1      36.975  30.751  28.763  1.00  0.00    -0.014 A 
BRANCH  39  40
ATOM     40  C   UNL A   1      38.184  30.460  29.564  1.00  0.00     0.031 A 
ATOM     41  C   UNL A   1      39.179  29.478  29.011  1.00  0.00     0.074 A 
ATOM     42  C   UNL A   1      38.364  31.015  30.775  1.00  0.00     0.049 A 
ATOM     43  N   UNL A   1      40.221  28.941  29.585  1.00  0.00    -0.248 NA
ATOM     44  C   UNL A   1      38.960  29.034  27.622  1.00  0.00     0.031 C 
ATOM     45  C   UNL A   1      37.476  31.997  31.393  1.00  0.00     0.029 A 
ATOM     46  N   UNL A   1      39.335  30.793  31.717  1.00  0.00    -0.354 N 
ATOM     47  C   UNL A   1      40.754  28.062  28.651  1.00  0.00     0.074 A 
ATOM     48  C   UNL A   1      39.924  28.139  27.470  1.00  0.00     0.031 C 
ATOM     49  C   UNL A   1      37.917  32.259  32.635  1.00  0.00     0.029 A 
ATOM     50  C   UNL A   1      39.093  31.435  32.908  1.00  0.00     0.049 A 
ATOM     51  H   UNL A   1      40.128  30.231  31.555  1.00  0.00     0.167 HD
ATOM     52  C   UNL A   1      41.840  27.264  28.768  1.00  0.00     0.034 A 
ATOM     53  C   UNL A   1      39.727  31.332  34.094  1.00  0.00     0.034 A 
ATOM     54  C   UNL A   1      42.667  27.213  29.941  1.00  0.00     0.049 A 
ATOM     55  C   UNL A   1      40.920  30.419  34.208  1.00  0.00     0.074 A 
ATOM     56  C   UNL A   1      43.813  26.469  30.152  1.00  0.00     0.029 A 
ATOM     57  N   UNL A   1      42.432  27.930  31.103  1.00  0.00    -0.354 N 
ATOM     58  N   UNL A   1      41.468  29.658  33.291  1.00  0.00    -0.248 NA
ATOM     59  C   UNL A   1      41.602  30.368  35.510  1.00  0.00     0.031 C 
ATOM     60  C   UNL A   1      44.258  26.717  31.454  1.00  0.00     0.029 A 
ATOM     61  C   UNL A   1      43.407  27.643  32.040  1.00  0.00     0.049 A 
ATOM     62  H   UNL A   1      41.681  28.552  31.242  1.00  0.00     0.167 HD
ATOM     63  C   UNL A   1      42.584  29.080  33.888  1.00  0.00     0.074 A 
ATOM     64  C   UNL A   1      42.635  29.579  35.246  1.00  0.00     0.031 C 
ATOM     65  C   UNL A   1      43.481  28.211  33.361  1.00  0.00     0.034 A 
BRANCH  52  66
ATOM     66  C   UNL A   1      42.200  26.392  27.597  1.00  0.00     0.023 A 
ATOM     67  C   UNL A   1      43.005  26.907  26.561  1.00  0.00     0.012 A 
ATOM     68  C   UNL A   1      41.785  25.047  27.548  1.00  0.00     0.148 A 
ATOM     69  C   UNL A   1      43.367  26.105  25.478  1.00  0.00     0.002 A 
ATOM     70  C   UNL A   1      42.186  24.242  26.487  1.00  0.00     0.091 A 
ATOM     71  F   UNL A   1      40.998  24.584  28.529  1.00  0.00    -0.205 F 
ATOM     72  C   UNL A   1      42.967  24.772  25.448  1.00  0.00     0.022 A 
BRANCH  70  73
ATOM     73  S   UNL A   1      41.786  22.493  26.398  1.00  0.00     0.127 S 
ATOM     74  O   UNL A   1      40.330  22.530  26.271  1.00  0.00    -0.237 OA
ATOM     75  O   UNL A   1      42.493  22.077  25.186  1.00  0.00    -0.237 OA
ATOM     76  O   UNL A   1      42.292  21.901  27.629  1.00  0.00    -0.744 OA
ENDBRANCH  70  73
ENDBRANCH  52  66
BRANCH  53  77
ATOM     77  C   UNL A   1      39.257  32.130  35.261  1.00  0.00     0.023 A 
ATOM     78  C   UNL A   1      39.470  33.522  35.280  1.00  0.00     0.012 A 
ATOM     79  C   UNL A   1      38.578  31.524  36.336  1.00  0.00     0.148 A 
ATOM     80  C   UNL A   1      39.042  34.291  36.363  1.00  0.00     0.002 A 
ATOM     81  C   UNL A   1      38.105  32.304  37.385  1.00  0.00     0.091 A 
ATOM     82  F   UNL A   1      38.399  30.196  36.306  1.00  0.00    -0.205 F 
ATOM     83  C   UNL A   1      38.351  33.685  37.409  1.00  0.00     0.022 A 
BRANCH  81  84
ATOM     84  S   UNL A   1      37.096  31.627  38.708  1.00  0.00     0.127 S 
ATOM     85  O   UNL A   1      35.907  32.473  38.640  1.00  0.00    -0.237 OA
ATOM     86  O   UNL A   1      36.900  30.247  38.262  1.00  0.00    -0.237 OA
ATOM     87  O   UNL A   1      37.897  31.757  39.918  1.00  0.00    -0.744 OA
ENDBRANCH  81  84
ENDBRANCH  53  77
BRANCH  65  88
ATOM     88  C   UNL A   1      44.645  27.788  34.216  1.00  0.00     0.023 A 
ATOM     89  C   UNL A   1      45.808  28.579  34.270  1.00  0.00     0.012 A 
ATOM     90  C   UNL A   1      44.526  26.667  35.064  1.00  0.00     0.148 A 
ATOM     91  C   UNL A   1      46.843  28.252  35.146  1.00  0.00     0.002 A 
ATOM     92  C   UNL A   1      45.539  26.377  35.968  1.00  0.00     0.091 A 
ATOM     93  F   UNL A   1      43.415  25.920  34.982  1.00  0.00    -0.205 F 
ATOM     94  C   UNL A   1      46.702  27.163  36.004  1.00  0.00     0.022 A 
BRANCH  92  95
ATOM     95  S   UNL A   1      45.399  25.060  37.182  1.00  0.00     0.127 S 
ATOM     96  O   UNL A   1      44.222  25.480  37.942  1.00  0.00    -0.237 OA
ATOM     97  O   UNL A   1      45.192  23.883  36.338  1.00  0.00    -0.237 OA
ATOM     98  O   UNL A   1      46.651  25.061  37.925  1.00  0.00    -0.744 OA
ENDBRANCH  92  95
ENDBRANCH  65  88
ENDBRANCH  39  40
ENDBRANCH  32  34
ENDBRANCH  31  32
ENDBRANCH  30  31
ENDBRANCH  29  30
ENDBRANCH   1  29
TORSDOF 21
ENDMDL
MODEL 2
REMARK VINA RESULT:     -11.2      5.225      8.353
REMARK SMILES CC[C@]1(C(=O)OCCOCCOC(=O)c2ccc(-c3c4nc(c(-c5cccc(S(=O)(=O)[O-])c5F)c5ccc([nH]5)c(-c5cccc(S(=O)(=O)[O-])c5F)c5nc(c(-c6cccc(S(=O)(=O)[O-])c6F)c6ccc3[nH]6)C=C5)C=C4)cc2)CCCN(C(=O)c2csc(C)c2-c2ccccc2)C1
REMARK SMILES IDX 9 1 8 2 7 3 6 4 4 5 5 6 3 7 78 8 96 9 79 10 81 11 80 12 2 13
REMARK SMILES IDX 1 14 82 15 83 16 84 17 85 18 89 19 86 20 87 21 88 22 90 23
REMARK SMILES IDX 91 24 95 25 92 26 94 27 93 28 10 29 11 30 12 31 13 32 14 33
REMARK SMILES IDX 15 34 16 35 77 36 17 37 76 38 18 39 19 40 20 41 70 42 21 43
REMARK SMILES IDX 75 44 69 45 71 46 22 47 74 48 68 49 67 50 23 52 55 53 35 54
REMARK SMILES IDX 54 55 36 56 39 57 53 58 72 59 37 60 38 61 52 63 73 64 40 65
REMARK SMILES IDX 24 66 25 67 33 68 26 69 28 70 34 71 27 72 29 73 30 74 31 75
REMARK SMILES IDX 32 76 56 77 57 78 65 79 58 80 60 81 66 82 59 83 61 84 62 85
REMARK SMILES IDX 63 86 64 87 41 88 42 89 50 90 43 91 45 92 51 93 44 94 46 95
REMARK SMILES IDX 47 96 48 97 49 98
REMARK H PARENT 71 51 39 62
REMARK Flexibility Score: inf
ROOT
ATOM      1  O   UNL A   1      37.347  20.396  24.589  1.00  0.00    -0.374 OA
ENDROOT
BRANCH   1   2
ATOM      2  C   UNL A   1      36.211  21.257  24.551  1.00  0.00     0.202 C 
BRANCH   2   3
ATOM      3  C   UNL A   1      35.538  21.606  25.880  1.00  0.00     0.261 C 
BRANCH   3   4
ATOM      4  O   UNL A   1      35.055  22.958  25.904  1.00  0.00    -0.463 OA
BRANCH   4   5
ATOM      5  C   UNL A   1      33.727  23.084  26.161  1.00  0.00     0.313 C 
ATOM      6  O   UNL A   1      33.166  22.599  27.138  1.00  0.00    -0.252 OA
BRANCH   5   7
ATOM      7  C   UNL A   1      32.986  23.871  25.082  1.00  0.00     0.085 C 
ATOM      8  C   UNL A   1      32.954  23.230  23.668  1.00  0.00     0.022 C 
ATOM      9  C   UNL A   1      31.533  23.902  25.588  1.00  0.00     0.138 C 
ATOM     10  C   UNL A   1      31.996  23.967  22.717  1.00  0.00     0.023 C 
ATOM     11  N   UNL A   1      30.692  24.691  24.696  1.00  0.00    -0.337 N 
ATOM     12  C   UNL A   1      30.603  24.188  23.323  1.00  0.00     0.120 C 
BRANCH   7  13
ATOM     13  C   UNL A   1      33.596  25.306  25.037  1.00  0.00     0.017 C 
ATOM     14  C   UNL A   1      33.536  26.090  26.347  1.00  0.00     0.005 C 
ENDBRANCH   7  13
BRANCH  11  15
ATOM     15  C   UNL A   1      30.162  25.880  25.200  1.00  0.00     0.255 C 
ATOM     16  O   UNL A   1      30.279  26.194  26.383  1.00  0.00    -0.269 OA
BRANCH  15  17
ATOM     17  C   UNL A   1      29.481  26.784  24.282  1.00  0.00     0.058 A 
ATOM     18  C   UNL A   1      28.109  26.813  24.125  1.00  0.00     0.079 A 
ATOM     19  C   UNL A   1      30.121  27.836  23.528  1.00  0.00     0.008 A 
ATOM     20  S   UNL A   1      27.600  28.037  23.055  1.00  0.00    -0.148 S 
ATOM     21  C   UNL A   1      29.207  28.586  22.806  1.00  0.00     0.010 A 
ATOM     22  C   UNL A   1      29.421  29.748  21.892  1.00  0.00     0.057 C 
BRANCH  19  23
ATOM     23  C   UNL A   1      31.558  28.099  23.475  1.00  0.00    -0.016 A 
ATOM     24  C   UNL A   1      32.350  27.558  22.454  1.00  0.00     0.009 A 
ATOM     25  C   UNL A   1      32.151  28.924  24.437  1.00  0.00     0.009 A 
ATOM     26  C   UNL A   1      33.720  27.827  22.410  1.00  0.00     0.001 A 
ATOM     27  C   UNL A   1      33.518  29.208  24.380  1.00  0.00     0.001 A 
ATOM     28  C   UNL A   1      34.302  28.654  23.370  1.00  0.00     0.000 A 
ENDBRANCH  19  23
ENDBRANCH  15  17
ENDBRANCH  11  15
ENDBRANCH   5   7
ENDBRANCH   4   5
ENDBRANCH   3   4
ENDBRANCH   2   3
ENDBRANCH   1   2
BRANCH   1  29
ATOM     29  C   UNL A   1      38.272  20.562  25.661  1.00  0.00     0.202 C 
BRANCH  29  30
ATOM     30  C   UNL A   1      39.447  19.581  25.759  1.00  0.00     0.261 C 
BRANCH  30  31
ATOM     31  O   UNL A   1      40.236  19.784  26.942  1.00  0.00    -0.460 OA
BRANCH  31  32
ATOM     32  C   UNL A   1      41.446  20.349  26.726  1.00  0.00     0.338 C 
ATOM     33  O   UNL A   1      42.415  19.833  26.177  1.00  0.00    -0.246 OA
BRANCH  32  34
ATOM     34  C   UNL A   1      41.396  21.779  27.064  1.00  0.00     0.060 A 
ATOM     35  C   UNL A   1      41.008  22.678  26.058  1.00  0.00     0.016 A 
ATOM     36  C   UNL A   1      41.785  22.240  28.322  1.00  0.00     0.016 A 
ATOM     37  C   UNL A   1      41.060  24.049  26.289  1.00  0.00     0.010 A 
ATOM     38  C   UNL A   1      41.852  23.616  28.546  1.00  0.00     0.010 A 
ATOM     39  C   UNL A   1      41.530  24.522  27.518  1.00  0.00    -0.014 A 
BRANCH  39  40
ATOM     40  C   UNL A   1      41.877  25.951  27.683  1.00  0.00     0.031 A 
ATOM     41  C   UNL A   1      43.229  26.408  27.213  1.00  0.00     0.074 A 
ATOM     42  C   UNL A   1      41.032  26.805  28.284  1.00  0.00     0.049 A 
ATOM     43  N   UNL A   1      43.824  27.557  27.390  1.00  0.00    -0.248 NA
ATOM     44  C   UNL A   1      44.023  25.430  26.446  1.00  0.00     0.031 C 
ATOM     45  C   UNL A   1      39.688  26.472  28.754  1.00  0.00     0.029 A 
ATOM     46  N   UNL A   1      41.201  28.118  28.640  1.00  0.00    -0.354 N 
ATOM     47  C   UNL A   1      45.076  27.427  26.803  1.00  0.00     0.074 A 
ATOM     48  C   UNL A   1      45.156  26.090  26.259  1.00  0.00     0.031 C 
ATOM     49  C   UNL A   1      39.171  27.541  29.382  1.00  0.00     0.029 A 
ATOM     50  C   UNL A   1      40.162  28.616  29.390  1.00  0.00     0.049 A 
ATOM     51  H   UNL A   1      41.989  28.651  28.384  1.00  0.00     0.167 HD
ATOM     52  C   UNL A   1      46.068  28.343  26.722  1.00  0.00     0.034 A 
ATOM     53  C   UNL A   1      40.047  29.791  30.041  1.00  0.00     0.034 A 
ATOM     54  C   UNL A   1      45.967  29.675  27.250  1.00  0.00     0.049 A 
ATOM     55  C   UNL A   1      41.175  30.787  29.957  1.00  0.00     0.074 A 
ATOM     56  C   UNL A   1      46.898  30.695  27.189  1.00  0.00     0.029 A 
ATOM     57  N   UNL A   1      44.871  30.168  27.941  1.00  0.00    -0.354 N 
ATOM     58  N   UNL A   1      42.319  30.687  29.325  1.00  0.00    -0.248 NA
ATOM     59  C   UNL A   1      40.988  32.070  30.653  1.00  0.00     0.031 C 
ATOM     60  C   UNL A   1      46.374  31.800  27.868  1.00  0.00     0.029 A 
ATOM     61  C   UNL A   1      45.103  31.477  28.319  1.00  0.00     0.049 A 
ATOM     62  H   UNL A   1      44.050  29.660  28.134  1.00  0.00     0.167 HD
ATOM     63  C   UNL A   1      42.964  31.906  29.502  1.00  0.00     0.074 A 
ATOM     64  C   UNL A   1      42.083  32.731  30.302  1.00  0.00     0.031 C 
ATOM     65  C   UNL A   1      44.178  32.304  29.050  1.00  0.00     0.034 A 
BRANCH  52  66
ATOM     66  C   UNL A   1      47.342  27.939  26.033  1.00  0.00     0.023 A 
ATOM     67  C   UNL A   1      48.424  27.445  26.790  1.00  0.00     0.012 A 
ATOM     68  C   UNL A   1      47.451  28.002  24.630  1.00  0.00     0.148 A 
ATOM     69  C   UNL A   1      49.605  27.047  26.164  1.00  0.00     0.002 A 
ATOM     70  C   UNL A   1      48.616  27.561  24.010  1.00  0.00     0.091 A 
ATOM     71  F   UNL A   1      46.423  28.500  23.930  1.00  0.00    -0.205 F 
ATOM     72  C   UNL A   1      49.696  27.094  24.776  1.00  0.00     0.022 A 
BRANCH  70  73
ATOM     73  S   UNL A   1      48.799  27.512  22.224  1.00  0.00     0.127 S 
ATOM     74  O   UNL A   1      50.062  28.224  22.037  1.00  0.00    -0.237 OA
ATOM     75  O   UNL A   1      48.866  26.074  21.961  1.00  0.00    -0.237 OA
ATOM     76  O   UNL A   1      47.621  28.174  21.680  1.00  0.00    -0.744 OA
ENDBRANCH  70  73
ENDBRANCH  52  66
BRANCH  53  77
ATOM     77  C   UNL A   1      38.809  30.096  30.812  1.00  0.00     0.023 A 
ATOM     78  C   UNL A   1      38.656  29.579  32.112  1.00  0.00     0.012 A 
ATOM     79  C   UNL A   1      37.797  30.917  30.276  1.00  0.00     0.148 A 
ATOM     80  C   UNL A   1      37.504  29.848  32.854  1.00  0.00     0.002 A 
ATOM     81  C   UNL A   1      36.677  31.225  31.040  1.00  0.00     0.091 A 
ATOM     82  F   UNL A   1      37.953  31.386  29.030  1.00  0.00    -0.205 F 
ATOM     83  C   UNL A   1      36.522  30.678  32.323  1.00  0.00     0.022 A 
BRANCH  81  84
ATOM     84  S   UNL A   1      35.425  32.388  30.487  1.00  0.00     0.127 S 
ATOM     85  O   UNL A   1      34.918  31.733  29.285  1.00  0.00    -0.237 OA
ATOM     86  O   UNL A   1      34.501  32.399  31.622  1.00  0.00    -0.237 OA
ATOM     87  O   UNL A   1      36.126  33.648  30.275  1.00  0.00    -0.744 OA
ENDBRANCH  81  84
ENDBRANCH  53  77
BRANCH  65  88
ATOM     88  C   UNL A   1      44.613  33.717  29.335  1.00  0.00     0.023 A 
ATOM     89  C   UNL A   1      45.202  34.040  30.572  1.00  0.00     0.012 A 
ATOM     90  C   UNL A   1      44.551  34.691  28.318  1.00  0.00     0.148 A 
ATOM     91  C   UNL A   1      45.710  35.319  30.798  1.00  0.00     0.002 A 
ATOM     92  C   UNL A   1      45.104  35.947  28.533  1.00  0.00     0.091 A 
ATOM     93  F   UNL A   1      43.971  34.363  27.154  1.00  0.00    -0.205 F 
ATOM     94  C   UNL A   1      45.675  36.266  29.776  1.00  0.00     0.022 A 
BRANCH  92  95
ATOM     95  S   UNL A   1      45.198  37.192  27.242  1.00  0.00     0.127 S 
ATOM     96  O   UNL A   1      43.783  37.446  26.970  1.00  0.00    -0.237 OA
ATOM     97  O   UNL A   1      45.895  38.286  27.919  1.00  0.00    -0.237 OA
ATOM     98  O   UNL A   1      45.941  36.585  26.147  1.00  0.00    -0.744 OA
ENDBRANCH  92  95
ENDBRANCH  65  88
ENDBRANCH  39  40
ENDBRANCH  32  34
ENDBRANCH  31  32
ENDBRANCH  30  31
ENDBRANCH  29  30
ENDBRANCH   1  29
TORSDOF 21
ENDMDL
MODEL 3
REMARK VINA RESULT:     -11.0      1.658      2.339
REMARK SMILES CC[C@]1(C(=O)OCCOCCOC(=O)c2ccc(-c3c4nc(c(-c5cccc(S(=O)(=O)[O-])c5F)c5ccc([nH]5)c(-c5cccc(S(=O)(=O)[O-])c5F)c5nc(c(-c6cccc(S(=O)(=O)[O-])c6F)c6ccc3[nH]6)C=C5)C=C4)cc2)CCCN(C(=O)c2csc(C)c2-c2ccccc2)C1
REMARK SMILES IDX 9 1 8 2 7 3 6 4 4 5 5 6 3 7 78 8 96 9 79 10 81 11 80 12 2 13
REMARK SMILES IDX 1 14 82 15 83 16 84 17 85 18 89 19 86 20 87 21 88 22 90 23
REMARK SMILES IDX 91 24 95 25 92 26 94 27 93 28 10 29 11 30 12 31 13 32 14 33
REMARK SMILES IDX 15 34 16 35 77 36 17 37 76 38 18 39 19 40 20 41 70 42 21 43
REMARK SMILES IDX 75 44 69 45 71 46 22 47 74 48 68 49 67 50 23 52 55 53 35 54
REMARK SMILES IDX 54 55 36 56 39 57 53 58 72 59 37 60 38 61 52 63 73 64 40 65
REMARK SMILES IDX 24 66 25 67 33 68 26 69 28 70 34 71 27 72 29 73 30 74 31 75
REMARK SMILES IDX 32 76 56 77 57 78 65 79 58 80 60 81 66 82 59 83 61 84 62 85
REMARK SMILES IDX 63 86 64 87 41 88 42 89 50 90 43 91 45 92 51 93 44 94 46 95
REMARK SMILES IDX 47 96 48 97 49 98
REMARK H PARENT 71 51 39 62
REMARK Flexibility Score: inf
ROOT
ATOM      1  O   UNL A   1      30.365  30.506  24.426  1.00  0.00    -0.374 OA
ENDROOT
BRANCH   1   2
ATOM      2  C   UNL A   1      30.731  29.208  23.961  1.00  0.00     0.202 C 
BRANCH   2   3
ATOM      3  C   UNL A   1      29.663  28.384  23.239  1.00  0.00     0.261 C 
BRANCH   3   4
ATOM      4  O   UNL A   1      29.768  26.983  23.535  1.00  0.00    -0.463 OA
BRANCH   4   5
ATOM      5  C   UNL A   1      30.788  26.343  22.907  1.00  0.00     0.313 C 
ATOM      6  O   UNL A   1      31.049  26.466  21.715  1.00  0.00    -0.252 OA
BRANCH   5   7
ATOM      7  C   UNL A   1      31.568  25.415  23.838  1.00  0.00     0.085 C 
ATOM      8  C   UNL A   1      31.270  25.559  25.355  1.00  0.00     0.022 C 
ATOM      9  C   UNL A   1      31.101  24.009  23.424  1.00  0.00     0.138 C 
ATOM     10  C   UNL A   1      31.918  24.436  26.183  1.00  0.00     0.023 C 
ATOM     11  N   UNL A   1      31.815  22.985  24.176  1.00  0.00    -0.337 N 
ATOM     12  C   UNL A   1      31.622  23.036  25.628  1.00  0.00     0.120 C 
BRANCH   7  13
ATOM     13  C   UNL A   1      33.087  25.612  23.539  1.00  0.00     0.017 C 
ATOM     14  C   UNL A   1      33.693  26.925  24.031  1.00  0.00     0.005 C 
ENDBRANCH   7  13
BRANCH  11  15
ATOM     15  C   UNL A   1      32.679  22.151  23.465  1.00  0.00     0.255 C 
ATOM     16  O   UNL A   1      32.287  21.455  22.531  1.00  0.00    -0.269 OA
BRANCH  15  17
ATOM     17  C   UNL A   1      34.090  22.139  23.825  1.00  0.00     0.058 A 
ATOM     18  C   UNL A   1      34.914  23.242  23.705  1.00  0.00     0.079 A 
ATOM     19  C   UNL A   1      34.773  21.038  24.465  1.00  0.00     0.008 A 
ATOM     20  S   UNL A   1      36.485  22.951  24.294  1.00  0.00    -0.148 S 
ATOM     21  C   UNL A   1      36.091  21.348  24.762  1.00  0.00     0.010 A 
ATOM     22  C   UNL A   1      37.154  20.519  25.404  1.00  0.00     0.057 C 
BRANCH  19  23
ATOM     23  C   UNL A   1      34.197  19.726  24.755  1.00  0.00    -0.016 A 
ATOM     24  C   UNL A   1      33.053  19.605  25.552  1.00  0.00     0.009 A 
ATOM     25  C   UNL A   1      34.778  18.576  24.210  1.00  0.00     0.009 A 
ATOM     26  C   UNL A   1      32.508  18.344  25.812  1.00  0.00     0.001 A 
ATOM     27  C   UNL A   1      34.220  17.319  24.454  1.00  0.00     0.001 A 
ATOM     28  C   UNL A   1      33.089  17.203  25.260  1.00  0.00     0.000 A 
ENDBRANCH  19  23
ENDBRANCH  15  17
ENDBRANCH  11  15
ENDBRANCH   5   7
ENDBRANCH   4   5
ENDBRANCH   3   4
ENDBRANCH   2   3
ENDBRANCH   1   2
BRANCH   1  29
ATOM     29  C   UNL A   1      30.951  30.966  25.642  1.00  0.00     0.202 C 
BRANCH  29  30
ATOM     30  C   UNL A   1      32.308  30.382  26.055  1.00  0.00     0.261 C 
BRANCH  30  31
ATOM     31  O   UNL A   1      32.676  30.742  27.397  1.00  0.00    -0.460 OA
BRANCH  31  32
ATOM     32  C   UNL A   1      33.431  31.860  27.496  1.00  0.00     0.338 C 
ATOM     33  O   UNL A   1      33.043  33.023  27.437  1.00  0.00    -0.246 OA
BRANCH  32  34
ATOM     34  C   UNL A   1      34.801  31.502  27.896  1.00  0.00     0.060 A 
ATOM     35  C   UNL A   1      35.046  30.174  28.277  1.00  0.00     0.016 A 
ATOM     36  C   UNL A   1      35.810  32.463  27.963  1.00  0.00     0.016 A 
ATOM     37  C   UNL A   1      36.292  29.810  28.779  1.00  0.00     0.010 A 
ATOM     38  C   UNL A   1      37.054  32.100  28.482  1.00  0.00     0.010 A 
ATOM     39  C   UNL A   1      37.284  30.786  28.929  1.00  0.00    -0.014 A 
BRANCH  39  40
ATOM     40  C   UNL A   1      38.496  30.498  29.727  1.00  0.00     0.031 A 
ATOM     41  C   UNL A   1      39.484  29.507  29.179  1.00  0.00     0.074 A 
ATOM     42  C   UNL A   1      38.685  31.065  30.931  1.00  0.00     0.049 A 
ATOM     43  N   UNL A   1      40.527  28.972  29.754  1.00  0.00    -0.248 NA
ATOM     44  C   UNL A   1      39.256  29.049  27.796  1.00  0.00     0.031 C 
ATOM     45  C   UNL A   1      37.804  32.057  31.543  1.00  0.00     0.029 A 
ATOM     46  N   UNL A   1      39.659  30.849  31.870  1.00  0.00    -0.354 N 
ATOM     47  C   UNL A   1      41.052  28.080  28.826  1.00  0.00     0.074 A 
ATOM     48  C   UNL A   1      40.216  28.149  27.648  1.00  0.00     0.031 C 
ATOM     49  C   UNL A   1      38.252  32.330  32.781  1.00  0.00     0.029 A 
ATOM     50  C   UNL A   1      39.426  31.504  33.056  1.00  0.00     0.049 A 
ATOM     51  H   UNL A   1      40.449  30.282  31.711  1.00  0.00     0.167 HD
ATOM     52  C   UNL A   1      42.135  27.279  28.946  1.00  0.00     0.034 A 
ATOM     53  C   UNL A   1      40.065  31.411  34.239  1.00  0.00     0.034 A 
ATOM     54  C   UNL A   1      42.968  27.237  30.115  1.00  0.00     0.049 A 
ATOM     55  C   UNL A   1      41.256  30.494  34.357  1.00  0.00     0.074 A 
ATOM     56  C   UNL A   1      44.112  26.490  30.328  1.00  0.00     0.029 A 
ATOM     57  N   UNL A   1      42.742  27.967  31.271  1.00  0.00    -0.354 N 
ATOM     58  N   UNL A   1      41.796  29.721  33.446  1.00  0.00    -0.248 NA
ATOM     59  C   UNL A   1      41.944  30.454  35.657  1.00  0.00     0.031 C 
ATOM     60  C   UNL A   1      44.564  26.751  31.625  1.00  0.00     0.029 A 
ATOM     61  C   UNL A   1      43.720  27.686  32.205  1.00  0.00     0.049 A 
ATOM     62  H   UNL A   1      41.994  28.593  31.407  1.00  0.00     0.167 HD
ATOM     63  C   UNL A   1      42.912  29.145  34.043  1.00  0.00     0.074 A 
ATOM     64  C   UNL A   1      42.972  29.658  35.395  1.00  0.00     0.031 C 
ATOM     65  C   UNL A   1      43.803  28.267  33.521  1.00  0.00     0.034 A 
BRANCH  52  66
ATOM     66  C   UNL A   1      42.486  26.394  27.782  1.00  0.00     0.023 A 
ATOM     67  C   UNL A   1      43.372  26.859  26.790  1.00  0.00     0.012 A 
ATOM     68  C   UNL A   1      41.979  25.083  27.698  1.00  0.00     0.148 A 
ATOM     69  C   UNL A   1      43.725  26.043  25.715  1.00  0.00     0.002 A 
ATOM     70  C   UNL A   1      42.370  24.260  26.647  1.00  0.00     0.091 A 
ATOM     71  F   UNL A   1      41.117  24.669  28.637  1.00  0.00    -0.205 F 
ATOM     72  C   UNL A   1      43.234  24.742  25.650  1.00  0.00     0.022 A 
BRANCH  70  73
ATOM     73  S   UNL A   1      41.851  22.545  26.519  1.00  0.00     0.127 S 
ATOM     74  O   UNL A   1      40.396  22.680  26.478  1.00  0.00    -0.237 OA
ATOM     75  O   UNL A   1      42.461  22.132  25.254  1.00  0.00    -0.237 OA
ATOM     76  O   UNL A   1      42.385  21.874  27.697  1.00  0.00    -0.744 OA
ENDBRANCH  70  73
ENDBRANCH  52  66
BRANCH  53  77
ATOM     77  C   UNL A   1      39.604  32.223  35.400  1.00  0.00     0.023 A 
ATOM     78  C   UNL A   1      38.747  31.643  36.355  1.00  0.00     0.012 A 
ATOM     79  C   UNL A   1      40.030  33.554  35.578  1.00  0.00     0.148 A 
ATOM     80  C   UNL A   1      38.298  32.384  37.450  1.00  0.00     0.002 A 
ATOM     81  C   UNL A   1      39.624  34.268  36.699  1.00  0.00     0.091 A 
ATOM     82  F   UNL A   1      40.833  34.092  34.649  1.00  0.00    -0.205 F 
ATOM     83  C   UNL A   1      38.744  33.690  37.627  1.00  0.00     0.022 A 
BRANCH  81  84
ATOM     84  S   UNL A   1      40.251  35.909  37.074  1.00  0.00     0.127 S 
ATOM     85  O   UNL A   1      39.781  36.679  35.925  1.00  0.00    -0.237 OA
ATOM     86  O   UNL A   1      39.575  36.209  38.337  1.00  0.00    -0.237 OA
ATOM     87  O   UNL A   1      41.696  35.761  37.189  1.00  0.00    -0.744 OA
ENDBRANCH  81  84
ENDBRANCH  53  77
BRANCH  65  88
ATOM     88  C   UNL A   1      44.970  27.848  34.374  1.00  0.00     0.023 A 
ATOM     89  C   UNL A   1      46.179  28.566  34.321  1.00  0.00     0.012 A 
ATOM     90  C   UNL A   1      44.814  26.816  35.322  1.00  0.00     0.148 A 
ATOM     91  C   UNL A   1      47.223  28.253  35.191  1.00  0.00     0.002 A 
ATOM     92  C   UNL A   1      45.839  26.543  36.218  1.00  0.00     0.091 A 
ATOM     93  F   UNL A   1      43.658  26.136  35.342  1.00  0.00    -0.205 F 
ATOM     94  C   UNL A   1      47.049  27.254  36.146  1.00  0.00     0.022 A 
BRANCH  92  95
ATOM     95  S   UNL A   1      45.665  25.349  37.548  1.00  0.00     0.127 S 
ATOM     96  O   UNL A   1      44.576  25.934  38.331  1.00  0.00    -0.237 OA
ATOM     97  O   UNL A   1      45.309  24.129  36.824  1.00  0.00    -0.237 OA
ATOM     98  O   UNL A   1      46.956  25.301  38.220  1.00  0.00    -0.744 OA
ENDBRANCH  92  95
ENDBRANCH  65  88
ENDBRANCH  39  40
ENDBRANCH  32  34
ENDBRANCH  31  32
ENDBRANCH  30  31
ENDBRANCH  29  30
ENDBRANCH   1  29
TORSDOF 21
ENDMDL
