MODEL 1
REMARK VINA RESULT:     -11.0      0.000      0.000
REMARK SMILES COCc1nc2ccccc2n1CC(=O)OCCOCCOC(=O)c1ccc(-c2c3nc(c(-c4cccc(S(=O)(=O)[O-])c4F)c4ccc([nH]4)c(-c4cccc(S(=O)(=O)[O-])c4F)c4nc(c(-c5cccc(S(=O)(=O)[O-])c5F)c5ccc2[nH]5)C=C4)C=C3)cc1
REMARK SMILES IDX 19 1 18 2 17 3 16 4 14 5 15 6 13 7 12 8 4 9 5 10 6 11 11 12
REMARK SMILES IDX 7 13 10 14 8 15 9 16 3 17 2 18 1 19 20 20 21 21 22 22 23 23
REMARK SMILES IDX 24 24 25 25 26 26 87 27 27 28 86 29 28 30 29 31 30 32 80 33
REMARK SMILES IDX 31 34 85 35 79 36 81 37 32 38 84 39 78 40 77 41 33 43 65 44
REMARK SMILES IDX 45 45 64 46 46 47 49 48 63 49 82 50 47 51 48 52 62 54 83 55
REMARK SMILES IDX 50 56 34 57 35 58 43 59 36 60 38 61 44 62 37 63 39 64 40 65
REMARK SMILES IDX 41 66 42 67 66 68 67 69 75 70 68 71 70 72 76 73 69 74 71 75
REMARK SMILES IDX 72 76 73 77 74 78 51 79 52 80 60 81 53 82 55 83 61 84 54 85
REMARK SMILES IDX 56 86 57 87 58 88 59 89
REMARK H PARENT 81 42 49 53
REMARK Flexibility Score: inf
ROOT
ATOM      1  O   UNL A   1      35.157  23.350  22.976  1.00  0.00    -0.374 OA
ENDROOT
BRANCH   1   2
ATOM      2  C   UNL A   1      33.927  23.399  22.261  1.00  0.00     0.202 C 
BRANCH   2   3
ATOM      3  C   UNL A   1      32.598  23.356  23.026  1.00  0.00     0.261 C 
BRANCH   3   4
ATOM      4  O   UNL A   1      31.770  24.525  22.853  1.00  0.00    -0.462 OA
BRANCH   4   5
ATOM      5  C   UNL A   1      31.860  25.444  23.853  1.00  0.00     0.326 C 
ATOM      6  O   UNL A   1      31.495  25.250  25.009  1.00  0.00    -0.250 OA
BRANCH   5   7
ATOM      7  C   UNL A   1      32.311  26.808  23.406  1.00  0.00     0.246 C 
BRANCH   7   8
ATOM      8  N   UNL A   1      31.802  27.985  24.102  1.00  0.00    -0.315 N 
ATOM      9  C   UNL A   1      30.913  28.946  23.633  1.00  0.00     0.136 A 
ATOM     10  N   UNL A   1      30.802  29.936  24.504  1.00  0.00    -0.231 NA
ATOM     11  C   UNL A   1      31.775  29.733  25.438  1.00  0.00     0.089 A 
ATOM     12  C   UNL A   1      32.437  28.533  25.209  1.00  0.00     0.069 A 
ATOM     13  C   UNL A   1      32.196  30.579  26.474  1.00  0.00     0.030 A 
ATOM     14  C   UNL A   1      33.540  28.136  25.979  1.00  0.00     0.028 A 
ATOM     15  C   UNL A   1      33.318  30.215  27.226  1.00  0.00     0.002 A 
ATOM     16  C   UNL A   1      33.979  29.013  26.978  1.00  0.00     0.002 A 
BRANCH   9  17
ATOM     17  C   UNL A   1      30.248  29.013  22.292  1.00  0.00     0.235 C 
BRANCH  17  18
ATOM     18  O   UNL A   1      29.577  30.252  22.138  1.00  0.00    -0.377 OA
ATOM     19  C   UNL A   1      28.211  30.110  21.786  1.00  0.00     0.195 C 
ENDBRANCH  17  18
ENDBRANCH   9  17
ENDBRANCH   7   8
ENDBRANCH   5   7
ENDBRANCH   4   5
ENDBRANCH   3   4
ENDBRANCH   2   3
ENDBRANCH   1   2
BRANCH   1  20
ATOM     20  C   UNL A   1      35.090  22.927  24.334  1.00  0.00     0.202 C 
BRANCH  20  21
ATOM     21  C   UNL A   1      35.576  21.513  24.690  1.00  0.00     0.261 C 
BRANCH  21  22
ATOM     22  O   UNL A   1      36.588  21.561  25.699  1.00  0.00    -0.460 OA
BRANCH  22  23
ATOM     23  C   UNL A   1      37.734  20.885  25.372  1.00  0.00     0.338 C 
ATOM     24  O   UNL A   1      37.848  19.940  24.650  1.00  0.00    -0.246 OA
BRANCH  23  25
ATOM     25  C   UNL A   1      38.812  21.828  25.748  1.00  0.00     0.060 A 
ATOM     26  C   UNL A   1      40.005  21.356  26.303  1.00  0.00     0.016 A 
ATOM     27  C   UNL A   1      38.421  23.170  25.881  1.00  0.00     0.016 A 
ATOM     28  C   UNL A   1      40.754  22.216  27.092  1.00  0.00     0.010 A 
ATOM     29  C   UNL A   1      39.165  24.021  26.687  1.00  0.00     0.010 A 
ATOM     30  C   UNL A   1      40.305  23.528  27.328  1.00  0.00    -0.014 A 
BRANCH  30  31
ATOM     31  C   UNL A   1      41.172  24.403  28.115  1.00  0.00     0.031 A 
ATOM     32  C   UNL A   1      40.641  25.785  28.206  1.00  0.00     0.074 A 
ATOM     33  C   UNL A   1      42.263  24.034  28.816  1.00  0.00     0.049 A 
ATOM     34  N   UNL A   1      41.152  26.872  27.728  1.00  0.00    -0.248 NA
ATOM     35  C   UNL A   1      39.297  25.941  28.783  1.00  0.00     0.031 C 
ATOM     36  C   UNL A   1      42.696  22.672  29.130  1.00  0.00     0.029 A 
ATOM     37  N   UNL A   1      43.150  24.810  29.512  1.00  0.00    -0.354 N 
ATOM     38  C   UNL A   1      40.280  27.881  28.127  1.00  0.00     0.074 A 
ATOM     39  C   UNL A   1      39.083  27.244  28.611  1.00  0.00     0.031 C 
ATOM     40  C   UNL A   1      43.616  22.712  30.119  1.00  0.00     0.029 A 
ATOM     41  C   UNL A   1      43.913  24.096  30.433  1.00  0.00     0.049 A 
ATOM     42  H   UNL A   1      43.240  25.781  29.376  1.00  0.00     0.167 HD
ATOM     43  C   UNL A   1      40.683  29.169  28.282  1.00  0.00     0.034 A 
ATOM     44  C   UNL A   1      44.652  24.615  31.443  1.00  0.00     0.034 A 
ATOM     45  C   UNL A   1      41.987  29.414  27.744  1.00  0.00     0.049 A 
ATOM     46  C   UNL A   1      44.978  26.016  31.096  1.00  0.00     0.074 A 
ATOM     47  C   UNL A   1      42.539  29.697  26.516  1.00  0.00     0.029 A 
ATOM     48  N   UNL A   1      43.002  29.043  28.582  1.00  0.00    -0.354 N 
ATOM     49  N   UNL A   1      45.725  26.357  30.083  1.00  0.00    -0.248 NA
ATOM     50  C   UNL A   1      44.265  27.109  31.748  1.00  0.00     0.031 C 
ATOM     51  C   UNL A   1      43.914  29.326  26.602  1.00  0.00     0.029 A 
ATOM     52  C   UNL A   1      44.158  28.830  27.880  1.00  0.00     0.049 A 
ATOM     53  H   UNL A   1      42.915  28.944  29.558  1.00  0.00     0.167 HD
ATOM     54  C   UNL A   1      45.250  27.602  29.724  1.00  0.00     0.074 A 
ATOM     55  C   UNL A   1      44.506  28.088  30.875  1.00  0.00     0.031 C 
ATOM     56  C   UNL A   1      45.199  27.985  28.420  1.00  0.00     0.034 A 
BRANCH  43  57
ATOM     57  C   UNL A   1      40.075  30.103  29.289  1.00  0.00     0.023 A 
ATOM     58  C   UNL A   1      40.652  30.190  30.569  1.00  0.00     0.012 A 
ATOM     59  C   UNL A   1      38.813  30.711  29.098  1.00  0.00     0.148 A 
ATOM     60  C   UNL A   1      40.013  30.881  31.605  1.00  0.00     0.002 A 
ATOM     61  C   UNL A   1      38.225  31.469  30.102  1.00  0.00     0.091 A 
ATOM     62  F   UNL A   1      38.117  30.450  27.984  1.00  0.00    -0.205 F 
ATOM     63  C   UNL A   1      38.813  31.542  31.366  1.00  0.00     0.022 A 
BRANCH  61  64
ATOM     64  S   UNL A   1      36.713  32.390  29.808  1.00  0.00     0.127 S 
ATOM     65  O   UNL A   1      36.629  33.211  31.011  1.00  0.00    -0.237 OA
ATOM     66  O   UNL A   1      37.037  33.117  28.580  1.00  0.00    -0.237 OA
ATOM     67  O   UNL A   1      35.681  31.375  29.640  1.00  0.00    -0.744 OA
ENDBRANCH  61  64
ENDBRANCH  43  57
BRANCH  44  68
ATOM     68  C   UNL A   1      44.891  24.092  32.814  1.00  0.00     0.023 A 
ATOM     69  C   UNL A   1      43.935  23.223  33.385  1.00  0.00     0.012 A 
ATOM     70  C   UNL A   1      46.162  24.167  33.423  1.00  0.00     0.148 A 
ATOM     71  C   UNL A   1      44.262  22.395  34.464  1.00  0.00     0.002 A 
ATOM     72  C   UNL A   1      46.477  23.352  34.507  1.00  0.00     0.091 A 
ATOM     73  F   UNL A   1      47.100  24.955  32.883  1.00  0.00    -0.205 F 
ATOM     74  C   UNL A   1      45.537  22.447  35.016  1.00  0.00     0.022 A 
BRANCH  72  75
ATOM     75  S   UNL A   1      48.110  23.372  35.257  1.00  0.00     0.127 S 
ATOM     76  O   UNL A   1      47.985  22.353  36.301  1.00  0.00    -0.237 OA
ATOM     77  O   UNL A   1      48.962  22.996  34.134  1.00  0.00    -0.237 OA
ATOM     78  O   UNL A   1      48.284  24.726  35.769  1.00  0.00    -0.744 OA
ENDBRANCH  72  75
ENDBRANCH  44  68
BRANCH  56  79
ATOM     79  C   UNL A   1      46.127  27.314  27.458  1.00  0.00     0.023 A 
ATOM     80  C   UNL A   1      47.486  27.665  27.347  1.00  0.00     0.012 A 
ATOM     81  C   UNL A   1      45.633  26.217  26.734  1.00  0.00     0.148 A 
ATOM     82  C   UNL A   1      48.339  26.930  26.520  1.00  0.00     0.002 A 
ATOM     83  C   UNL A   1      46.492  25.467  25.945  1.00  0.00     0.091 A 
ATOM     84  F   UNL A   1      44.334  25.911  26.859  1.00  0.00    -0.205 F 
ATOM     85  C   UNL A   1      47.845  25.823  25.829  1.00  0.00     0.022 A 
BRANCH  83  86
ATOM     86  S   UNL A   1      45.951  23.972  25.115  1.00  0.00     0.127 S 
ATOM     87  O   UNL A   1      46.186  22.951  26.135  1.00  0.00    -0.237 OA
ATOM     88  O   UNL A   1      44.540  24.262  24.851  1.00  0.00    -0.237 OA
ATOM     89  O   UNL A   1      46.772  23.852  23.917  1.00  0.00    -0.744 OA
ENDBRANCH  83  86
ENDBRANCH  56  79
ENDBRANCH  30  31
ENDBRANCH  23  25
ENDBRANCH  22  23
ENDBRANCH  21  22
ENDBRANCH  20  21
ENDBRANCH   1  20
TORSDOF 20
ENDMDL
MODEL 2
REMARK VINA RESULT:     -10.8      1.136      2.075
REMARK SMILES COCc1nc2ccccc2n1CC(=O)OCCOCCOC(=O)c1ccc(-c2c3nc(c(-c4cccc(S(=O)(=O)[O-])c4F)c4ccc([nH]4)c(-c4cccc(S(=O)(=O)[O-])c4F)c4nc(c(-c5cccc(S(=O)(=O)[O-])c5F)c5ccc2[nH]5)C=C4)C=C3)cc1
REMARK SMILES IDX 19 1 18 2 17 3 16 4 14 5 15 6 13 7 12 8 4 9 5 10 6 11 11 12
REMARK SMILES IDX 7 13 10 14 8 15 9 16 3 17 2 18 1 19 20 20 21 21 22 22 23 23
REMARK SMILES IDX 24 24 25 25 26 26 87 27 27 28 86 29 28 30 29 31 30 32 80 33
REMARK SMILES IDX 31 34 85 35 79 36 81 37 32 38 84 39 78 40 77 41 33 43 65 44
REMARK SMILES IDX 45 45 64 46 46 47 49 48 63 49 82 50 47 51 48 52 62 54 83 55
REMARK SMILES IDX 50 56 34 57 35 58 43 59 36 60 38 61 44 62 37 63 39 64 40 65
REMARK SMILES IDX 41 66 42 67 66 68 67 69 75 70 68 71 70 72 76 73 69 74 71 75
REMARK SMILES IDX 72 76 73 77 74 78 51 79 52 80 60 81 53 82 55 83 61 84 54 85
REMARK SMILES IDX 56 86 57 87 58 88 59 89
REMARK H PARENT 81 42 49 53
REMARK Flexibility Score: inf
ROOT
ATOM      1  O   UNL A   1      33.939  22.583  23.329  1.00  0.00    -0.374 OA
ENDROOT
BRANCH   1   2
ATOM      2  C   UNL A   1      32.596  22.244  23.656  1.00  0.00     0.202 C 
BRANCH   2   3
ATOM      3  C   UNL A   1      31.918  22.895  24.868  1.00  0.00     0.261 C 
BRANCH   3   4
ATOM      4  O   UNL A   1      31.125  24.060  24.555  1.00  0.00    -0.462 OA
BRANCH   4   5
ATOM      5  C   UNL A   1      30.919  24.910  25.597  1.00  0.00     0.326 C 
ATOM      6  O   UNL A   1      31.294  24.703  26.748  1.00  0.00    -0.250 OA
BRANCH   5   7
ATOM      7  C   UNL A   1      30.044  26.091  25.274  1.00  0.00     0.246 C 
BRANCH   7   8
ATOM      8  N   UNL A   1      30.484  27.040  24.258  1.00  0.00    -0.315 N 
ATOM      9  C   UNL A   1      31.746  27.601  24.092  1.00  0.00     0.136 A 
ATOM     10  N   UNL A   1      31.720  28.525  23.146  1.00  0.00    -0.231 NA
ATOM     11  C   UNL A   1      30.405  28.723  22.843  1.00  0.00     0.089 A 
ATOM     12  C   UNL A   1      29.598  27.827  23.533  1.00  0.00     0.069 A 
ATOM     13  C   UNL A   1      29.823  29.709  22.032  1.00  0.00     0.030 A 
ATOM     14  C   UNL A   1      28.199  27.881  23.462  1.00  0.00     0.028 A 
ATOM     15  C   UNL A   1      28.428  29.800  21.981  1.00  0.00     0.002 A 
ATOM     16  C   UNL A   1      27.632  28.901  22.689  1.00  0.00     0.002 A 
BRANCH   9  17
ATOM     17  C   UNL A   1      32.977  27.369  24.915  1.00  0.00     0.235 C 
BRANCH  17  18
ATOM     18  O   UNL A   1      33.622  26.174  24.509  1.00  0.00    -0.377 OA
ATOM     19  C   UNL A   1      33.745  26.053  23.103  1.00  0.00     0.195 C 
ENDBRANCH  17  18
ENDBRANCH   9  17
ENDBRANCH   7   8
ENDBRANCH   5   7
ENDBRANCH   4   5
ENDBRANCH   3   4
ENDBRANCH   2   3
ENDBRANCH   1   2
BRANCH   1  20
ATOM     20  C   UNL A   1      34.857  22.670  24.414  1.00  0.00     0.202 C 
BRANCH  20  21
ATOM     21  C   UNL A   1      35.447  21.372  24.986  1.00  0.00     0.261 C 
BRANCH  21  22
ATOM     22  O   UNL A   1      36.572  21.649  25.824  1.00  0.00    -0.460 OA
BRANCH  22  23
ATOM     23  C   UNL A   1      37.712  20.977  25.468  1.00  0.00     0.338 C 
ATOM     24  O   UNL A   1      37.813  20.043  24.731  1.00  0.00    -0.246 OA
BRANCH  23  25
ATOM     25  C   UNL A   1      38.797  21.917  25.838  1.00  0.00     0.060 A 
ATOM     26  C   UNL A   1      39.997  21.437  26.370  1.00  0.00     0.016 A 
ATOM     27  C   UNL A   1      38.408  23.257  25.990  1.00  0.00     0.016 A 
ATOM     28  C   UNL A   1      40.758  22.289  27.157  1.00  0.00     0.010 A 
ATOM     29  C   UNL A   1      39.165  24.100  26.793  1.00  0.00     0.010 A 
ATOM     30  C   UNL A   1      40.313  23.599  27.412  1.00  0.00    -0.014 A 
BRANCH  30  31
ATOM     31  C   UNL A   1      41.192  24.466  28.195  1.00  0.00     0.031 A 
ATOM     32  C   UNL A   1      40.666  25.849  28.304  1.00  0.00     0.074 A 
ATOM     33  C   UNL A   1      42.291  24.088  28.880  1.00  0.00     0.049 A 
ATOM     34  N   UNL A   1      41.173  26.938  27.829  1.00  0.00    -0.248 NA
ATOM     35  C   UNL A   1      39.330  26.003  28.900  1.00  0.00     0.031 C 
ATOM     36  C   UNL A   1      42.725  22.724  29.177  1.00  0.00     0.029 A 
ATOM     37  N   UNL A   1      43.190  24.857  29.570  1.00  0.00    -0.354 N 
ATOM     38  C   UNL A   1      40.308  27.946  28.247  1.00  0.00     0.074 A 
ATOM     39  C   UNL A   1      39.117  27.307  28.741  1.00  0.00     0.031 C 
ATOM     40  C   UNL A   1      43.657  22.753  30.154  1.00  0.00     0.029 A 
ATOM     41  C   UNL A   1      43.962  24.134  30.476  1.00  0.00     0.049 A 
ATOM     42  H   UNL A   1      43.280  25.829  29.441  1.00  0.00     0.167 HD
ATOM     43  C   UNL A   1      40.717  29.231  28.407  1.00  0.00     0.034 A 
ATOM     44  C   UNL A   1      44.715  24.643  31.480  1.00  0.00     0.034 A 
ATOM     45  C   UNL A   1      42.014  29.478  27.855  1.00  0.00     0.049 A 
ATOM     46  C   UNL A   1      45.040  26.046  31.140  1.00  0.00     0.074 A 
ATOM     47  C   UNL A   1      42.551  29.770  26.622  1.00  0.00     0.029 A 
ATOM     48  N   UNL A   1      43.039  29.098  28.676  1.00  0.00    -0.354 N 
ATOM     49  N   UNL A   1      45.774  26.393  30.120  1.00  0.00    -0.248 NA
ATOM     50  C   UNL A   1      44.338  27.135  31.810  1.00  0.00     0.031 C 
ATOM     51  C   UNL A   1      43.926  29.395  26.688  1.00  0.00     0.029 A 
ATOM     52  C   UNL A   1      44.186  28.888  27.958  1.00  0.00     0.049 A 
ATOM     53  H   UNL A   1      42.964  28.991  29.652  1.00  0.00     0.167 HD
ATOM     54  C   UNL A   1      45.298  27.643  29.778  1.00  0.00     0.074 A 
ATOM     55  C   UNL A   1      44.570  28.121  30.942  1.00  0.00     0.031 C 
ATOM     56  C   UNL A   1      45.231  28.036  28.478  1.00  0.00     0.034 A 
BRANCH  43  57
ATOM     57  C   UNL A   1      40.124  30.159  29.429  1.00  0.00     0.023 A 
ATOM     58  C   UNL A   1      40.696  30.208  30.713  1.00  0.00     0.012 A 
ATOM     59  C   UNL A   1      38.876  30.797  29.245  1.00  0.00     0.148 A 
ATOM     60  C   UNL A   1      40.068  30.893  31.760  1.00  0.00     0.002 A 
ATOM     61  C   UNL A   1      38.299  31.547  30.261  1.00  0.00     0.091 A 
ATOM     62  F   UNL A   1      38.180  30.573  28.123  1.00  0.00    -0.205 F 
ATOM     63  C   UNL A   1      38.883  31.583  31.529  1.00  0.00     0.022 A 
BRANCH  61  64
ATOM     64  S   UNL A   1      36.808  32.506  29.978  1.00  0.00     0.127 S 
ATOM     65  O   UNL A   1      37.197  33.325  28.835  1.00  0.00    -0.237 OA
ATOM     66  O   UNL A   1      35.827  31.459  29.688  1.00  0.00    -0.237 OA
ATOM     67  O   UNL A   1      36.570  33.210  31.232  1.00  0.00    -0.744 OA
ENDBRANCH  61  64
ENDBRANCH  43  57
BRANCH  44  68
ATOM     68  C   UNL A   1      44.971  24.108  32.843  1.00  0.00     0.023 A 
ATOM     69  C   UNL A   1      44.047  23.195  33.399  1.00  0.00     0.012 A 
ATOM     70  C   UNL A   1      46.236  24.221  33.457  1.00  0.00     0.148 A 
ATOM     71  C   UNL A   1      44.402  22.363  34.466  1.00  0.00     0.002 A 
ATOM     72  C   UNL A   1      46.579  23.402  34.529  1.00  0.00     0.091 A 
ATOM     73  F   UNL A   1      47.146  25.052  32.931  1.00  0.00    -0.205 F 
ATOM     74  C   UNL A   1      45.673  22.455  35.022  1.00  0.00     0.022 A 
BRANCH  72  75
ATOM     75  S   UNL A   1      48.209  23.472  35.284  1.00  0.00     0.127 S 
ATOM     76  O   UNL A   1      49.082  23.094  34.172  1.00  0.00    -0.237 OA
ATOM     77  O   UNL A   1      48.297  24.873  35.682  1.00  0.00    -0.237 OA
ATOM     78  O   UNL A   1      48.175  22.498  36.369  1.00  0.00    -0.744 OA
ENDBRANCH  72  75
ENDBRANCH  44  68
BRANCH  56  79
ATOM     79  C   UNL A   1      46.146  27.371  27.498  1.00  0.00     0.023 A 
ATOM     80  C   UNL A   1      47.502  27.723  27.370  1.00  0.00     0.012 A 
ATOM     81  C   UNL A   1      45.641  26.279  26.775  1.00  0.00     0.148 A 
ATOM     82  C   UNL A   1      48.344  26.993  26.527  1.00  0.00     0.002 A 
ATOM     83  C   UNL A   1      46.488  25.533  25.969  1.00  0.00     0.091 A 
ATOM     84  F   UNL A   1      44.343  25.972  26.917  1.00  0.00    -0.205 F 
ATOM     85  C   UNL A   1      47.840  25.890  25.836  1.00  0.00     0.022 A 
BRANCH  83  86
ATOM     86  S   UNL A   1      45.935  24.043  25.138  1.00  0.00     0.127 S 
ATOM     87  O   UNL A   1      46.133  23.025  26.168  1.00  0.00    -0.237 OA
ATOM     88  O   UNL A   1      44.535  24.357  24.847  1.00  0.00    -0.237 OA
ATOM     89  O   UNL A   1      46.775  23.902  23.955  1.00  0.00    -0.744 OA
ENDBRANCH  83  86
ENDBRANCH  56  79
ENDBRANCH  30  31
ENDBRANCH  23  25
ENDBRANCH  22  23
ENDBRANCH  21  22
ENDBRANCH  20  21
ENDBRANCH   1  20
TORSDOF 20
ENDMDL
MODEL 3
REMARK VINA RESULT:     -10.8      4.579      9.639
REMARK SMILES COCc1nc2ccccc2n1CC(=O)OCCOCCOC(=O)c1ccc(-c2c3nc(c(-c4cccc(S(=O)(=O)[O-])c4F)c4ccc([nH]4)c(-c4cccc(S(=O)(=O)[O-])c4F)c4nc(c(-c5cccc(S(=O)(=O)[O-])c5F)c5ccc2[nH]5)C=C4)C=C3)cc1
REMARK SMILES IDX 19 1 18 2 17 3 16 4 14 5 15 6 13 7 12 8 4 9 5 10 6 11 11 12
REMARK SMILES IDX 7 13 10 14 8 15 9 16 3 17 2 18 1 19 20 20 21 21 22 22 23 23
REMARK SMILES IDX 24 24 25 25 26 26 87 27 27 28 86 29 28 30 29 31 30 32 80 33
REMARK SMILES IDX 31 34 85 35 79 36 81 37 32 38 84 39 78 40 77 41 33 43 65 44
REMARK SMILES IDX 45 45 64 46 46 47 49 48 63 49 82 50 47 51 48 52 62 54 83 55
REMARK SMILES IDX 50 56 34 57 35 58 43 59 36 60 38 61 44 62 37 63 39 64 40 65
REMARK SMILES IDX 41 66 42 67 66 68 67 69 75 70 68 71 70 72 76 73 69 74 71 75
REMARK SMILES IDX 72 76 73 77 74 78 51 79 52 80 60 81 53 82 55 83 61 84 54 85
REMARK SMILES IDX 56 86 57 87 58 88 59 89
REMARK H PARENT 81 42 49 53
REMARK Flexibility Score: inf
ROOT
ATOM      1  O   UNL A   1      32.509  30.461  27.067  1.00  0.00    -0.374 OA
ENDROOT
BRANCH   1   2
ATOM      2  C   UNL A   1      33.155  29.652  26.091  1.00  0.00     0.202 C 
BRANCH   2   3
ATOM      3  C   UNL A   1      32.338  28.640  25.277  1.00  0.00     0.261 C 
BRANCH   3   4
ATOM      4  O   UNL A   1      31.755  27.576  26.058  1.00  0.00    -0.462 OA
BRANCH   4   5
ATOM      5  C   UNL A   1      32.162  26.323  25.715  1.00  0.00     0.326 C 
ATOM      6  O   UNL A   1      31.456  25.320  25.782  1.00  0.00    -0.250 OA
BRANCH   5   7
ATOM      7  C   UNL A   1      33.624  26.214  25.379  1.00  0.00     0.246 C 
BRANCH   7   8
ATOM      8  N   UNL A   1      34.082  25.090  24.569  1.00  0.00    -0.315 N 
ATOM      9  C   UNL A   1      33.887  24.873  23.209  1.00  0.00     0.136 A 
ATOM     10  N   UNL A   1      34.330  23.675  22.865  1.00  0.00    -0.231 NA
ATOM     11  C   UNL A   1      34.615  23.025  24.030  1.00  0.00     0.089 A 
ATOM     12  C   UNL A   1      34.452  23.871  25.120  1.00  0.00     0.069 A 
ATOM     13  C   UNL A   1      34.952  21.679  24.231  1.00  0.00     0.030 A 
ATOM     14  C   UNL A   1      34.600  23.418  26.439  1.00  0.00     0.028 A 
ATOM     15  C   UNL A   1      35.065  21.202  25.542  1.00  0.00     0.002 A 
ATOM     16  C   UNL A   1      34.888  22.061  26.626  1.00  0.00     0.002 A 
BRANCH   9  17
ATOM     17  C   UNL A   1      33.157  25.741  22.229  1.00  0.00     0.235 C 
BRANCH  17  18
ATOM     18  O   UNL A   1      34.035  26.712  21.684  1.00  0.00    -0.377 OA
ATOM     19  C   UNL A   1      33.694  28.040  22.041  1.00  0.00     0.195 C 
ENDBRANCH  17  18
ENDBRANCH   9  17
ENDBRANCH   7   8
ENDBRANCH   5   7
ENDBRANCH   4   5
ENDBRANCH   3   4
ENDBRANCH   2   3
ENDBRANCH   1   2
BRANCH   1  20
ATOM     20  C   UNL A   1      31.902  31.662  26.600  1.00  0.00     0.202 C 
BRANCH  20  21
ATOM     21  C   UNL A   1      31.499  32.731  27.628  1.00  0.00     0.261 C 
BRANCH  21  22
ATOM     22  O   UNL A   1      32.270  33.923  27.453  1.00  0.00    -0.460 OA
BRANCH  22  23
ATOM     23  C   UNL A   1      32.915  34.341  28.587  1.00  0.00     0.338 C 
ATOM     24  O   UNL A   1      32.466  34.972  29.496  1.00  0.00    -0.246 OA
BRANCH  23  25
ATOM     25  C   UNL A   1      34.124  33.485  28.633  1.00  0.00     0.060 A 
ATOM     26  C   UNL A   1      34.382  32.686  29.750  1.00  0.00     0.016 A 
ATOM     27  C   UNL A   1      35.134  33.818  27.717  1.00  0.00     0.016 A 
ATOM     28  C   UNL A   1      35.693  32.311  30.006  1.00  0.00     0.010 A 
ATOM     29  C   UNL A   1      36.447  33.454  27.988  1.00  0.00     0.010 A 
ATOM     30  C   UNL A   1      36.728  32.742  29.157  1.00  0.00    -0.014 A 
BRANCH  30  31
ATOM     31  C   UNL A   1      38.078  32.259  29.445  1.00  0.00     0.031 A 
ATOM     32  C   UNL A   1      38.248  30.827  29.100  1.00  0.00     0.074 A 
ATOM     33  C   UNL A   1      39.128  33.003  29.848  1.00  0.00     0.049 A 
ATOM     34  N   UNL A   1      38.477  29.833  29.894  1.00  0.00    -0.248 NA
ATOM     35  C   UNL A   1      37.986  30.448  27.703  1.00  0.00     0.031 C 
ATOM     36  C   UNL A   1      39.222  34.463  29.873  1.00  0.00     0.029 A 
ATOM     37  N   UNL A   1      40.390  32.604  30.200  1.00  0.00    -0.354 N 
ATOM     38  C   UNL A   1      38.587  28.726  29.057  1.00  0.00     0.074 A 
ATOM     39  C   UNL A   1      38.108  29.124  27.759  1.00  0.00     0.031 C 
ATOM     40  C   UNL A   1      40.517  34.825  30.005  1.00  0.00     0.029 A 
ATOM     41  C   UNL A   1      41.327  33.634  30.178  1.00  0.00     0.049 A 
ATOM     42  H   UNL A   1      40.614  31.677  30.443  1.00  0.00     0.167 HD
ATOM     43  C   UNL A   1      39.305  27.626  29.401  1.00  0.00     0.034 A 
ATOM     44  C   UNL A   1      42.674  33.499  30.197  1.00  0.00     0.034 A 
ATOM     45  C   UNL A   1      39.690  27.619  30.780  1.00  0.00     0.049 A 
ATOM     46  C   UNL A   1      42.991  32.183  30.796  1.00  0.00     0.074 A 
ATOM     47  C   UNL A   1      39.129  27.270  31.986  1.00  0.00     0.029 A 
ATOM     48  N   UNL A   1      40.803  28.370  31.040  1.00  0.00    -0.354 N 
ATOM     49  N   UNL A   1      42.723  31.864  32.031  1.00  0.00    -0.248 NA
ATOM     50  C   UNL A   1      43.411  31.080  29.939  1.00  0.00     0.031 C 
ATOM     51  C   UNL A   1      39.861  27.978  32.986  1.00  0.00     0.029 A 
ATOM     52  C   UNL A   1      40.846  28.735  32.358  1.00  0.00     0.049 A 
ATOM     53  H   UNL A   1      41.483  28.614  30.370  1.00  0.00     0.167 HD
ATOM     54  C   UNL A   1      42.537  30.498  31.989  1.00  0.00     0.074 A 
ATOM     55  C   UNL A   1      43.151  30.053  30.749  1.00  0.00     0.031 C 
ATOM     56  C   UNL A   1      41.607  29.891  32.774  1.00  0.00     0.034 A 
BRANCH  43  57
ATOM     57  C   UNL A   1      40.014  26.762  28.397  1.00  0.00     0.023 A 
ATOM     58  C   UNL A   1      39.772  25.376  28.405  1.00  0.00     0.012 A 
ATOM     59  C   UNL A   1      41.091  27.233  27.612  1.00  0.00     0.148 A 
ATOM     60  C   UNL A   1      40.551  24.501  27.637  1.00  0.00     0.002 A 
ATOM     61  C   UNL A   1      41.804  26.375  26.786  1.00  0.00     0.091 A 
ATOM     62  F   UNL A   1      41.512  28.496  27.761  1.00  0.00    -0.205 F 
ATOM     63  C   UNL A   1      41.549  25.002  26.808  1.00  0.00     0.022 A 
BRANCH  61  64
ATOM     64  S   UNL A   1      43.051  26.995  25.655  1.00  0.00     0.127 S 
ATOM     65  O   UNL A   1      44.020  27.579  26.576  1.00  0.00    -0.237 OA
ATOM     66  O   UNL A   1      43.489  25.768  24.987  1.00  0.00    -0.237 OA
ATOM     67  O   UNL A   1      42.341  27.923  24.784  1.00  0.00    -0.744 OA
ENDBRANCH  61  64
ENDBRANCH  43  57
BRANCH  44  68
ATOM     68  C   UNL A   1      43.721  34.297  29.507  1.00  0.00     0.023 A 
ATOM     69  C   UNL A   1      44.575  35.112  30.283  1.00  0.00     0.012 A 
ATOM     70  C   UNL A   1      44.098  34.028  28.174  1.00  0.00     0.148 A 
ATOM     71  C   UNL A   1      45.800  35.564  29.780  1.00  0.00     0.002 A 
ATOM     72  C   UNL A   1      45.311  34.493  27.673  1.00  0.00     0.091 A 
ATOM     73  F   UNL A   1      43.327  33.228  27.426  1.00  0.00    -0.205 F 
ATOM     74  C   UNL A   1      46.176  35.242  28.480  1.00  0.00     0.022 A 
BRANCH  72  75
ATOM     75  S   UNL A   1      45.852  34.104  26.004  1.00  0.00     0.127 S 
ATOM     76  O   UNL A   1      46.007  32.650  26.059  1.00  0.00    -0.237 OA
ATOM     77  O   UNL A   1      44.723  34.569  25.205  1.00  0.00    -0.237 OA
ATOM     78  O   UNL A   1      47.105  34.827  25.825  1.00  0.00    -0.744 OA
ENDBRANCH  72  75
ENDBRANCH  44  68
BRANCH  56  79
ATOM     79  C   UNL A   1      41.188  30.591  34.029  1.00  0.00     0.023 A 
ATOM     80  C   UNL A   1      41.979  30.596  35.193  1.00  0.00     0.012 A 
ATOM     81  C   UNL A   1      40.016  31.364  33.984  1.00  0.00     0.148 A 
ATOM     82  C   UNL A   1      41.602  31.363  36.299  1.00  0.00     0.002 A 
ATOM     83  C   UNL A   1      39.666  32.152  35.069  1.00  0.00     0.091 A 
ATOM     84  F   UNL A   1      39.283  31.334  32.861  1.00  0.00    -0.205 F 
ATOM     85  C   UNL A   1      40.453  32.150  36.232  1.00  0.00     0.022 A 
BRANCH  83  86
ATOM     86  S   UNL A   1      38.264  33.269  35.014  1.00  0.00     0.127 S 
ATOM     87  O   UNL A   1      37.133  32.343  35.030  1.00  0.00    -0.237 OA
ATOM     88  O   UNL A   1      38.441  34.043  36.243  1.00  0.00    -0.237 OA
ATOM     89  O   UNL A   1      38.411  34.047  33.790  1.00  0.00    -0.744 OA
ENDBRANCH  83  86
ENDBRANCH  56  79
ENDBRANCH  30  31
ENDBRANCH  23  25
ENDBRANCH  22  23
ENDBRANCH  21  22
ENDBRANCH  20  21
ENDBRANCH   1  20
TORSDOF 20
ENDMDL
