MODEL 1
REMARK VINA RESULT:     -11.9      0.000      0.000
REMARK SMILES C[C@@H]1CCC[C@@]1(C(=O)OCCOCCOC(=O)c1ccc(-c2c3nc(c(-c4cccc(S(=O)(=O)[O-])c4F)c4ccc([nH]4)c(-c4cccc(S(=O)(=O)[O-])c4F)c4nc(c(-c5cccc(S(=O)(=O)[O-])c5F)c5ccc2[nH]5)C=C4)C=C3)cc1)c1ccc(Cl)cc1Cl
REMARK SMILES IDX 13 1 12 2 11 3 10 4 9 5 7 6 8 7 6 8 1 9 2 10 3 11 4 12 5 13
REMARK SMILES IDX 81 14 82 15 87 16 83 17 86 18 88 19 84 20 85 21 14 22 15 23
REMARK SMILES IDX 16 24 17 25 18 26 19 27 80 28 20 29 79 30 21 31 22 32 23 33
REMARK SMILES IDX 73 34 24 35 78 36 72 37 74 38 25 39 77 40 71 41 70 42 26 44
REMARK SMILES IDX 58 45 38 46 57 47 39 48 42 49 56 50 75 51 40 52 41 53 55 55
REMARK SMILES IDX 76 56 43 57 27 58 28 59 36 60 29 61 31 62 37 63 30 64 32 65
REMARK SMILES IDX 33 66 34 67 35 68 59 69 60 70 68 71 61 72 63 73 69 74 62 75
REMARK SMILES IDX 64 76 65 77 66 78 67 79 44 80 45 81 53 82 46 83 48 84 54 85
REMARK SMILES IDX 47 86 49 87 50 88 51 89 52 90
REMARK H PARENT 74 43 42 54
REMARK Flexibility Score: inf
ROOT
ATOM      1  C   UNL A   1      32.009  29.308  25.363  1.00  0.00     0.202 C 
ENDROOT
BRANCH   1   2
ATOM      2  O   UNL A   1      33.212  29.156  24.612  1.00  0.00    -0.374 OA
BRANCH   2   3
ATOM      3  C   UNL A   1      33.075  29.045  23.196  1.00  0.00     0.202 C 
BRANCH   3   4
ATOM      4  C   UNL A   1      33.412  27.687  22.575  1.00  0.00     0.261 C 
BRANCH   4   5
ATOM      5  O   UNL A   1      33.839  26.633  23.478  1.00  0.00    -0.463 OA
BRANCH   5   6
ATOM      6  C   UNL A   1      33.436  25.370  23.143  1.00  0.00     0.316 C 
ATOM      7  O   UNL A   1      33.624  24.882  22.029  1.00  0.00    -0.251 OA
BRANCH   6   8
ATOM      8  C   UNL A   1      32.647  24.598  24.247  1.00  0.00     0.097 C 
ATOM      9  C   UNL A   1      30.444  25.855  23.500  1.00  0.00     0.009 C 
ATOM     10  C   UNL A   1      31.073  24.666  24.218  1.00  0.00     0.008 C 
ATOM     11  C   UNL A   1      30.613  24.739  25.689  1.00  0.00     0.005 C 
ATOM     12  C   UNL A   1      31.721  25.446  26.446  1.00  0.00     0.002 C 
ATOM     13  C   UNL A   1      32.952  25.435  25.545  1.00  0.00     0.024 C 
BRANCH   8  14
ATOM     14  C   UNL A   1      33.135  23.103  24.416  1.00  0.00    -0.012 A 
ATOM     15  C   UNL A   1      32.269  22.056  24.007  1.00  0.00     0.008 A 
ATOM     16  C   UNL A   1      34.393  22.669  24.907  1.00  0.00     0.046 A 
ATOM     17  C   UNL A   1      32.626  20.703  24.034  1.00  0.00     0.021 A 
ATOM     18  C   UNL A   1      34.743  21.305  24.952  1.00  0.00     0.041 A 
ATOM     19  Cl  UNL A   1      35.644  23.670  25.530  1.00  0.00    -0.084 Cl
ATOM     20  C   UNL A   1      33.869  20.330  24.508  1.00  0.00     0.042 A 
ATOM     21  Cl  UNL A   1      34.311  18.672  24.566  1.00  0.00    -0.084 Cl
ENDBRANCH   8  14
ENDBRANCH   6   8
ENDBRANCH   5   6
ENDBRANCH   4   5
ENDBRANCH   3   4
ENDBRANCH   2   3
ENDBRANCH   1   2
BRANCH   1  22
ATOM     22  C   UNL A   1      31.894  30.624  26.140  1.00  0.00     0.261 C 
BRANCH  22  23
ATOM     23  O   UNL A   1      32.687  30.554  27.334  1.00  0.00    -0.460 OA
BRANCH  23  24
ATOM     24  C   UNL A   1      33.447  31.632  27.602  1.00  0.00     0.338 C 
ATOM     25  O   UNL A   1      33.074  32.784  27.710  1.00  0.00    -0.246 OA
BRANCH  24  26
ATOM     26  C   UNL A   1      34.841  31.178  27.773  1.00  0.00     0.060 A 
ATOM     27  C   UNL A   1      35.123  29.805  27.806  1.00  0.00     0.016 A 
ATOM     28  C   UNL A   1      35.847  32.114  28.024  1.00  0.00     0.016 A 
ATOM     29  C   UNL A   1      36.392  29.369  28.195  1.00  0.00     0.010 A 
ATOM     30  C   UNL A   1      37.125  31.673  28.380  1.00  0.00     0.010 A 
ATOM     31  C   UNL A   1      37.384  30.300  28.541  1.00  0.00    -0.014 A 
BRANCH  31  32
ATOM     32  C   UNL A   1      38.597  29.847  29.277  1.00  0.00     0.031 A 
ATOM     33  C   UNL A   1      38.868  30.419  30.649  1.00  0.00     0.074 A 
ATOM     34  C   UNL A   1      39.440  28.931  28.765  1.00  0.00     0.049 A 
ATOM     35  N   UNL A   1      39.824  30.129  31.494  1.00  0.00    -0.248 NA
ATOM     36  C   UNL A   1      37.941  31.460  31.129  1.00  0.00     0.031 C 
ATOM     37  C   UNL A   1      39.323  28.314  27.447  1.00  0.00     0.029 A 
ATOM     38  N   UNL A   1      40.575  28.373  29.301  1.00  0.00    -0.354 N 
ATOM     39  C   UNL A   1      39.624  30.957  32.591  1.00  0.00     0.074 A 
ATOM     40  C   UNL A   1      38.477  31.785  32.296  1.00  0.00     0.031 C 
ATOM     41  C   UNL A   1      40.354  27.467  27.270  1.00  0.00     0.029 A 
ATOM     42  C   UNL A   1      41.204  27.484  28.462  1.00  0.00     0.049 A 
ATOM     43  H   UNL A   1      40.909  28.589  30.201  1.00  0.00     0.167 HD
ATOM     44  C   UNL A   1      40.308  31.009  33.760  1.00  0.00     0.034 A 
ATOM     45  C   UNL A   1      42.329  26.760  28.635  1.00  0.00     0.034 A 
ATOM     46  C   UNL A   1      41.425  30.168  34.088  1.00  0.00     0.049 A 
ATOM     47  C   UNL A   1      43.064  26.821  29.952  1.00  0.00     0.074 A 
ATOM     48  C   UNL A   1      42.146  30.117  35.268  1.00  0.00     0.029 A 
ATOM     49  N   UNL A   1      41.985  29.232  33.236  1.00  0.00    -0.354 N 
ATOM     50  N   UNL A   1      42.767  27.499  31.035  1.00  0.00    -0.248 NA
ATOM     51  C   UNL A   1      44.265  25.982  30.085  1.00  0.00     0.031 C 
ATOM     52  C   UNL A   1      43.146  29.150  35.129  1.00  0.00     0.029 A 
ATOM     53  C   UNL A   1      43.042  28.595  33.864  1.00  0.00     0.049 A 
ATOM     54  H   UNL A   1      41.677  29.045  32.320  1.00  0.00     0.167 HD
ATOM     55  C   UNL A   1      43.715  27.133  31.986  1.00  0.00     0.074 A 
ATOM     56  C   UNL A   1      44.587  26.164  31.359  1.00  0.00     0.031 C 
ATOM     57  C   UNL A   1      43.860  27.575  33.261  1.00  0.00     0.034 A 
BRANCH  44  58
ATOM     58  C   UNL A   1      39.818  31.973  34.805  1.00  0.00     0.023 A 
ATOM     59  C   UNL A   1      40.057  33.351  34.632  1.00  0.00     0.012 A 
ATOM     60  C   UNL A   1      39.083  31.531  35.920  1.00  0.00     0.148 A 
ATOM     61  C   UNL A   1      39.592  34.274  35.567  1.00  0.00     0.002 A 
ATOM     62  C   UNL A   1      38.591  32.460  36.829  1.00  0.00     0.091 A 
ATOM     63  F   UNL A   1      38.892  30.213  36.082  1.00  0.00    -0.205 F 
ATOM     64  C   UNL A   1      38.850  33.831  36.659  1.00  0.00     0.022 A 
BRANCH  62  65
ATOM     65  S   UNL A   1      37.566  31.984  38.226  1.00  0.00     0.127 S 
ATOM     66  O   UNL A   1      36.443  32.910  38.099  1.00  0.00    -0.237 OA
ATOM     67  O   UNL A   1      37.244  30.590  37.919  1.00  0.00    -0.237 OA
ATOM     68  O   UNL A   1      38.401  32.161  39.405  1.00  0.00    -0.744 OA
ENDBRANCH  62  65
ENDBRANCH  44  58
BRANCH  45  69
ATOM     69  C   UNL A   1      42.796  25.841  27.559  1.00  0.00     0.023 A 
ATOM     70  C   UNL A   1      43.784  26.280  26.656  1.00  0.00     0.012 A 
ATOM     71  C   UNL A   1      42.275  24.540  27.429  1.00  0.00     0.148 A 
ATOM     72  C   UNL A   1      44.225  25.449  25.625  1.00  0.00     0.002 A 
ATOM     73  C   UNL A   1      42.755  23.701  26.431  1.00  0.00     0.091 A 
ATOM     74  F   UNL A   1      41.317  24.150  28.282  1.00  0.00    -0.205 F 
ATOM     75  C   UNL A   1      43.719  24.157  25.519  1.00  0.00     0.022 A 
BRANCH  73  76
ATOM     76  S   UNL A   1      42.244  21.983  26.299  1.00  0.00     0.127 S 
ATOM     77  O   UNL A   1      40.819  22.116  26.010  1.00  0.00    -0.237 OA
ATOM     78  O   UNL A   1      43.058  21.505  25.182  1.00  0.00    -0.237 OA
ATOM     79  O   UNL A   1      42.581  21.381  27.583  1.00  0.00    -0.744 OA
ENDBRANCH  73  76
ENDBRANCH  45  69
BRANCH  57  80
ATOM     80  C   UNL A   1      44.975  26.994  34.090  1.00  0.00     0.023 A 
ATOM     81  C   UNL A   1      46.246  27.600  34.070  1.00  0.00     0.012 A 
ATOM     82  C   UNL A   1      44.745  25.902  34.950  1.00  0.00     0.148 A 
ATOM     83  C   UNL A   1      47.279  27.111  34.871  1.00  0.00     0.002 A 
ATOM     84  C   UNL A   1      45.768  25.445  35.775  1.00  0.00     0.091 A 
ATOM     85  F   UNL A   1      43.536  25.321  34.943  1.00  0.00    -0.205 F 
ATOM     86  C   UNL A   1      47.037  26.042  35.730  1.00  0.00     0.022 A 
BRANCH  84  87
ATOM     87  S   UNL A   1      45.500  24.131  36.972  1.00  0.00     0.127 S 
ATOM     88  O   UNL A   1      45.073  23.026  36.115  1.00  0.00    -0.237 OA
ATOM     89  O   UNL A   1      46.829  23.961  37.565  1.00  0.00    -0.237 OA
ATOM     90  O   UNL A   1      44.496  24.644  37.895  1.00  0.00    -0.744 OA
ENDBRANCH  84  87
ENDBRANCH  57  80
ENDBRANCH  31  32
ENDBRANCH  24  26
ENDBRANCH  23  24
ENDBRANCH  22  23
ENDBRANCH   1  22
TORSDOF 18
ENDMDL
MODEL 2
REMARK VINA RESULT:     -11.8      5.133     10.228
REMARK SMILES C[C@@H]1CCC[C@@]1(C(=O)OCCOCCOC(=O)c1ccc(-c2c3nc(c(-c4cccc(S(=O)(=O)[O-])c4F)c4ccc([nH]4)c(-c4cccc(S(=O)(=O)[O-])c4F)c4nc(c(-c5cccc(S(=O)(=O)[O-])c5F)c5ccc2[nH]5)C=C4)C=C3)cc1)c1ccc(Cl)cc1Cl
REMARK SMILES IDX 13 1 12 2 11 3 10 4 9 5 7 6 8 7 6 8 1 9 2 10 3 11 4 12 5 13
REMARK SMILES IDX 81 14 82 15 87 16 83 17 86 18 88 19 84 20 85 21 14 22 15 23
REMARK SMILES IDX 16 24 17 25 18 26 19 27 80 28 20 29 79 30 21 31 22 32 23 33
REMARK SMILES IDX 73 34 24 35 78 36 72 37 74 38 25 39 77 40 71 41 70 42 26 44
REMARK SMILES IDX 58 45 38 46 57 47 39 48 42 49 56 50 75 51 40 52 41 53 55 55
REMARK SMILES IDX 76 56 43 57 27 58 28 59 36 60 29 61 31 62 37 63 30 64 32 65
REMARK SMILES IDX 33 66 34 67 35 68 59 69 60 70 68 71 61 72 63 73 69 74 62 75
REMARK SMILES IDX 64 76 65 77 66 78 67 79 44 80 45 81 53 82 46 83 48 84 54 85
REMARK SMILES IDX 47 86 49 87 50 88 51 89 52 90
REMARK H PARENT 74 43 42 54
REMARK Flexibility Score: inf
ROOT
ATOM      1  C   UNL A   1      35.978  20.531  25.069  1.00  0.00     0.202 C 
ENDROOT
BRANCH   1   2
ATOM      2  O   UNL A   1      35.592  21.637  25.883  1.00  0.00    -0.374 OA
BRANCH   2   3
ATOM      3  C   UNL A   1      34.544  21.408  26.824  1.00  0.00     0.202 C 
BRANCH   3   4
ATOM      4  C   UNL A   1      34.029  22.627  27.593  1.00  0.00     0.261 C 
BRANCH   4   5
ATOM      5  O   UNL A   1      33.908  23.872  26.856  1.00  0.00    -0.463 OA
BRANCH   5   6
ATOM      6  C   UNL A   1      32.667  24.137  26.345  1.00  0.00     0.316 C 
ATOM      7  O   UNL A   1      31.640  24.076  27.020  1.00  0.00    -0.251 OA
BRANCH   6   8
ATOM      8  C   UNL A   1      32.618  24.456  24.819  1.00  0.00     0.097 C 
ATOM      9  C   UNL A   1      32.037  21.920  24.345  1.00  0.00     0.009 C 
ATOM     10  C   UNL A   1      32.023  23.363  23.851  1.00  0.00     0.008 C 
ATOM     11  C   UNL A   1      32.880  23.402  22.569  1.00  0.00     0.005 C 
ATOM     12  C   UNL A   1      34.268  23.839  22.999  1.00  0.00     0.002 C 
ATOM     13  C   UNL A   1      34.137  24.417  24.405  1.00  0.00     0.024 C 
BRANCH   8  14
ATOM     14  C   UNL A   1      31.989  25.873  24.508  1.00  0.00    -0.012 A 
ATOM     15  C   UNL A   1      30.826  25.936  23.697  1.00  0.00     0.008 A 
ATOM     16  C   UNL A   1      32.437  27.128  24.993  1.00  0.00     0.046 A 
ATOM     17  C   UNL A   1      30.138  27.124  23.424  1.00  0.00     0.021 A 
ATOM     18  C   UNL A   1      31.754  28.326  24.701  1.00  0.00     0.041 A 
ATOM     19  Cl  UNL A   1      33.837  27.409  25.951  1.00  0.00    -0.084 Cl
ATOM     20  C   UNL A   1      30.607  28.321  23.930  1.00  0.00     0.042 A 
ATOM     21  Cl  UNL A   1      29.783  29.787  23.586  1.00  0.00    -0.084 Cl
ENDBRANCH   8  14
ENDBRANCH   6   8
ENDBRANCH   5   6
ENDBRANCH   4   5
ENDBRANCH   3   4
ENDBRANCH   2   3
ENDBRANCH   1   2
BRANCH   1  22
ATOM     22  C   UNL A   1      37.481  20.429  24.786  1.00  0.00     0.261 C 
BRANCH  22  23
ATOM     23  O   UNL A   1      38.148  21.601  25.273  1.00  0.00    -0.460 OA
BRANCH  23  24
ATOM     24  C   UNL A   1      39.287  21.391  25.958  1.00  0.00     0.338 C 
ATOM     25  O   UNL A   1      39.996  20.406  25.917  1.00  0.00    -0.246 OA
BRANCH  24  26
ATOM     26  C   UNL A   1      39.559  22.592  26.773  1.00  0.00     0.060 A 
ATOM     27  C   UNL A   1      38.817  23.760  26.553  1.00  0.00     0.016 A 
ATOM     28  C   UNL A   1      40.631  22.591  27.669  1.00  0.00     0.016 A 
ATOM     29  C   UNL A   1      39.218  24.957  27.152  1.00  0.00     0.010 A 
ATOM     30  C   UNL A   1      41.008  23.785  28.292  1.00  0.00     0.010 A 
ATOM     31  C   UNL A   1      40.352  24.989  27.979  1.00  0.00    -0.014 A 
BRANCH  31  32
ATOM     32  C   UNL A   1      40.975  26.295  28.329  1.00  0.00     0.031 A 
ATOM     33  C   UNL A   1      42.405  26.550  27.912  1.00  0.00     0.074 A 
ATOM     34  C   UNL A   1      40.296  27.256  28.982  1.00  0.00     0.049 A 
ATOM     35  N   UNL A   1      43.129  27.631  28.053  1.00  0.00    -0.248 NA
ATOM     36  C   UNL A   1      43.112  25.439  27.252  1.00  0.00     0.031 C 
ATOM     37  C   UNL A   1      38.925  27.143  29.471  1.00  0.00     0.029 A 
ATOM     38  N   UNL A   1      40.686  28.519  29.357  1.00  0.00    -0.354 N 
ATOM     39  C   UNL A   1      44.375  27.325  27.519  1.00  0.00     0.074 A 
ATOM     40  C   UNL A   1      44.321  25.950  27.077  1.00  0.00     0.031 C 
ATOM     41  C   UNL A   1      38.589  28.289  30.093  1.00  0.00     0.029 A 
ATOM     42  C   UNL A   1      39.721  29.214  30.047  1.00  0.00     0.049 A 
ATOM     43  H   UNL A   1      41.573  28.892  29.152  1.00  0.00     0.167 HD
ATOM     44  C   UNL A   1      45.461  28.121  27.372  1.00  0.00     0.034 A 
ATOM     45  C   UNL A   1      39.744  30.455  30.574  1.00  0.00     0.034 A 
ATOM     46  C   UNL A   1      45.520  29.500  27.767  1.00  0.00     0.049 A 
ATOM     47  C   UNL A   1      40.959  31.330  30.383  1.00  0.00     0.074 A 
ATOM     48  C   UNL A   1      46.564  30.396  27.610  1.00  0.00     0.029 A 
ATOM     49  N   UNL A   1      44.496  30.185  28.398  1.00  0.00    -0.354 N 
ATOM     50  N   UNL A   1      42.071  31.071  29.737  1.00  0.00    -0.248 NA
ATOM     51  C   UNL A   1      40.903  32.684  30.956  1.00  0.00     0.031 C 
ATOM     52  C   UNL A   1      46.171  31.625  28.151  1.00  0.00     0.029 A 
ATOM     53  C   UNL A   1      44.880  31.493  28.637  1.00  0.00     0.049 A 
ATOM     54  H   UNL A   1      43.623  29.799  28.641  1.00  0.00     0.167 HD
ATOM     55  C   UNL A   1      42.823  32.241  29.788  1.00  0.00     0.074 A 
ATOM     56  C   UNL A   1      42.037  33.214  30.514  1.00  0.00     0.031 C 
ATOM     57  C   UNL A   1      44.063  32.481  29.292  1.00  0.00     0.034 A 
BRANCH  44  58
ATOM     58  C   UNL A   1      46.664  27.529  26.690  1.00  0.00     0.023 A 
ATOM     59  C   UNL A   1      47.487  26.635  27.404  1.00  0.00     0.012 A 
ATOM     60  C   UNL A   1      46.951  27.809  25.341  1.00  0.00     0.148 A 
ATOM     61  C   UNL A   1      48.592  26.046  26.794  1.00  0.00     0.002 A 
ATOM     62  C   UNL A   1      48.035  27.190  24.728  1.00  0.00     0.091 A 
ATOM     63  F   UNL A   1      46.175  28.686  24.688  1.00  0.00    -0.205 F 
ATOM     64  C   UNL A   1      48.860  26.315  25.454  1.00  0.00     0.022 A 
BRANCH  62  65
ATOM     65  S   UNL A   1      48.412  27.425  22.987  1.00  0.00     0.127 S 
ATOM     66  O   UNL A   1      48.464  26.045  22.508  1.00  0.00    -0.237 OA
ATOM     67  O   UNL A   1      47.258  28.191  22.516  1.00  0.00    -0.237 OA
ATOM     68  O   UNL A   1      49.672  28.154  22.952  1.00  0.00    -0.744 OA
ENDBRANCH  62  65
ENDBRANCH  44  58
BRANCH  45  69
ATOM     69  C   UNL A   1      38.539  30.990  31.271  1.00  0.00     0.023 A 
ATOM     70  C   UNL A   1      38.463  30.914  32.675  1.00  0.00     0.012 A 
ATOM     71  C   UNL A   1      37.478  31.575  30.555  1.00  0.00     0.148 A 
ATOM     72  C   UNL A   1      37.338  31.386  33.353  1.00  0.00     0.002 A 
ATOM     73  C   UNL A   1      36.383  32.089  31.240  1.00  0.00     0.091 A 
ATOM     74  F   UNL A   1      37.558  31.615  29.217  1.00  0.00    -0.205 F 
ATOM     75  C   UNL A   1      36.304  31.983  32.637  1.00  0.00     0.022 A 
BRANCH  73  76
ATOM     76  S   UNL A   1      35.066  32.980  30.405  1.00  0.00     0.127 S 
ATOM     77  O   UNL A   1      35.788  34.114  29.832  1.00  0.00    -0.237 OA
ATOM     78  O   UNL A   1      34.596  31.993  29.432  1.00  0.00    -0.237 OA
ATOM     79  O   UNL A   1      34.097  33.301  31.444  1.00  0.00    -0.744 OA
ENDBRANCH  73  76
ENDBRANCH  45  69
BRANCH  57  80
ATOM     80  C   UNL A   1      44.644  33.859  29.475  1.00  0.00     0.023 A 
ATOM     81  C   UNL A   1      45.361  34.162  30.649  1.00  0.00     0.012 A 
ATOM     82  C   UNL A   1      44.554  34.825  28.453  1.00  0.00     0.148 A 
ATOM     83  C   UNL A   1      45.954  35.414  30.815  1.00  0.00     0.002 A 
ATOM     84  C   UNL A   1      45.182  36.057  28.609  1.00  0.00     0.091 A 
ATOM     85  F   UNL A   1      43.850  34.530  27.350  1.00  0.00    -0.205 F 
ATOM     86  C   UNL A   1      45.874  36.356  29.793  1.00  0.00     0.022 A 
BRANCH  84  87
ATOM     87  S   UNL A   1      45.195  37.282  27.295  1.00  0.00     0.127 S 
ATOM     88  O   UNL A   1      45.850  38.415  27.945  1.00  0.00    -0.237 OA
ATOM     89  O   UNL A   1      45.998  36.630  26.257  1.00  0.00    -0.237 OA
ATOM     90  O   UNL A   1      43.798  37.478  26.932  1.00  0.00    -0.744 OA
ENDBRANCH  84  87
ENDBRANCH  57  80
ENDBRANCH  31  32
ENDBRANCH  24  26
ENDBRANCH  23  24
ENDBRANCH  22  23
ENDBRANCH   1  22
TORSDOF 18
ENDMDL
MODEL 3
REMARK VINA RESULT:     -11.5      0.950      7.592
REMARK SMILES C[C@@H]1CCC[C@@]1(C(=O)OCCOCCOC(=O)c1ccc(-c2c3nc(c(-c4cccc(S(=O)(=O)[O-])c4F)c4ccc([nH]4)c(-c4cccc(S(=O)(=O)[O-])c4F)c4nc(c(-c5cccc(S(=O)(=O)[O-])c5F)c5ccc2[nH]5)C=C4)C=C3)cc1)c1ccc(Cl)cc1Cl
REMARK SMILES IDX 13 1 12 2 11 3 10 4 9 5 7 6 8 7 6 8 1 9 2 10 3 11 4 12 5 13
REMARK SMILES IDX 81 14 82 15 87 16 83 17 86 18 88 19 84 20 85 21 14 22 15 23
REMARK SMILES IDX 16 24 17 25 18 26 19 27 80 28 20 29 79 30 21 31 22 32 23 33
REMARK SMILES IDX 73 34 24 35 78 36 72 37 74 38 25 39 77 40 71 41 70 42 26 44
REMARK SMILES IDX 58 45 38 46 57 47 39 48 42 49 56 50 75 51 40 52 41 53 55 55
REMARK SMILES IDX 76 56 43 57 27 58 28 59 36 60 29 61 31 62 37 63 30 64 32 65
REMARK SMILES IDX 33 66 34 67 35 68 59 69 60 70 68 71 61 72 63 73 69 74 62 75
REMARK SMILES IDX 64 76 65 77 66 78 67 79 44 80 45 81 53 82 46 83 48 84 54 85
REMARK SMILES IDX 47 86 49 87 50 88 51 89 52 90
REMARK H PARENT 74 43 42 54
REMARK Flexibility Score: inf
ROOT
ATOM      1  C   UNL A   1      32.702  29.075  24.722  1.00  0.00     0.202 C 
ENDROOT
BRANCH   1   2
ATOM      2  O   UNL A   1      32.049  27.974  24.093  1.00  0.00    -0.374 OA
BRANCH   2   3
ATOM      3  C   UNL A   1      32.255  27.823  22.689  1.00  0.00     0.202 C 
BRANCH   3   4
ATOM      4  C   UNL A   1      33.175  26.682  22.245  1.00  0.00     0.261 C 
BRANCH   4   5
ATOM      5  O   UNL A   1      33.625  25.757  23.270  1.00  0.00    -0.463 OA
BRANCH   5   6
ATOM      6  C   UNL A   1      33.336  24.440  23.043  1.00  0.00     0.316 C 
ATOM      7  O   UNL A   1      33.520  23.893  21.957  1.00  0.00    -0.251 OA
BRANCH   6   8
ATOM      8  C   UNL A   1      32.683  23.677  24.238  1.00  0.00     0.097 C 
ATOM      9  C   UNL A   1      30.368  24.810  23.648  1.00  0.00     0.009 C 
ATOM     10  C   UNL A   1      31.111  23.676  24.346  1.00  0.00     0.008 C 
ATOM     11  C   UNL A   1      30.777  23.785  25.849  1.00  0.00     0.005 C 
ATOM     12  C   UNL A   1      31.914  24.567  26.480  1.00  0.00     0.002 C 
ATOM     13  C   UNL A   1      33.061  24.574  25.475  1.00  0.00     0.024 C 
BRANCH   8  14
ATOM     14  C   UNL A   1      33.252  22.212  24.413  1.00  0.00    -0.012 A 
ATOM     15  C   UNL A   1      32.407  21.115  24.103  1.00  0.00     0.008 A 
ATOM     16  C   UNL A   1      34.562  21.851  24.818  1.00  0.00     0.046 A 
ATOM     17  C   UNL A   1      32.828  19.780  24.142  1.00  0.00     0.021 A 
ATOM     18  C   UNL A   1      34.978  20.505  24.876  1.00  0.00     0.041 A 
ATOM     19  Cl  UNL A   1      35.809  22.926  25.312  1.00  0.00    -0.084 Cl
ATOM     20  C   UNL A   1      34.119  19.479  24.531  1.00  0.00     0.042 A 
ATOM     21  Cl  UNL A   1      34.642  17.845  24.603  1.00  0.00    -0.084 Cl
ENDBRANCH   8  14
ENDBRANCH   6   8
ENDBRANCH   5   6
ENDBRANCH   4   5
ENDBRANCH   3   4
ENDBRANCH   2   3
ENDBRANCH   1   2
BRANCH   1  22
ATOM     22  C   UNL A   1      31.787  29.978  25.556  1.00  0.00     0.261 C 
BRANCH  22  23
ATOM     23  O   UNL A   1      32.314  30.113  26.883  1.00  0.00    -0.460 OA
BRANCH  23  24
ATOM     24  C   UNL A   1      32.925  31.280  27.160  1.00  0.00     0.338 C 
ATOM     25  O   UNL A   1      32.431  32.389  27.140  1.00  0.00    -0.246 OA
BRANCH  24  26
ATOM     26  C   UNL A   1      34.325  30.987  27.527  1.00  0.00     0.060 A 
ATOM     27  C   UNL A   1      34.767  29.658  27.564  1.00  0.00     0.016 A 
ATOM     28  C   UNL A   1      35.159  32.024  27.951  1.00  0.00     0.016 A 
ATOM     29  C   UNL A   1      36.010  29.359  28.127  1.00  0.00     0.010 A 
ATOM     30  C   UNL A   1      36.416  31.722  28.484  1.00  0.00     0.010 A 
ATOM     31  C   UNL A   1      36.818  30.384  28.644  1.00  0.00    -0.014 A 
BRANCH  31  32
ATOM     32  C   UNL A   1      37.957  30.046  29.541  1.00  0.00     0.031 A 
ATOM     33  C   UNL A   1      39.009  29.081  29.045  1.00  0.00     0.074 A 
ATOM     34  C   UNL A   1      38.085  30.590  30.766  1.00  0.00     0.049 A 
ATOM     35  N   UNL A   1      40.114  28.689  29.626  1.00  0.00    -0.248 NA
ATOM     36  C   UNL A   1      38.782  28.475  27.722  1.00  0.00     0.031 C 
ATOM     37  C   UNL A   1      37.139  31.511  31.388  1.00  0.00     0.029 A 
ATOM     38  N   UNL A   1      39.070  30.428  31.710  1.00  0.00    -0.354 N 
ATOM     39  C   UNL A   1      40.702  27.783  28.751  1.00  0.00     0.074 A 
ATOM     40  C   UNL A   1      39.819  27.658  27.614  1.00  0.00     0.031 C 
ATOM     41  C   UNL A   1      37.583  31.827  32.619  1.00  0.00     0.029 A 
ATOM     42  C   UNL A   1      38.844  31.129  32.872  1.00  0.00     0.049 A 
ATOM     43  H   UNL A   1      39.863  29.863  31.570  1.00  0.00     0.167 HD
ATOM     44  C   UNL A   1      41.886  27.136  28.859  1.00  0.00     0.034 A 
ATOM     45  C   UNL A   1      39.573  31.207  34.003  1.00  0.00     0.034 A 
ATOM     46  C   UNL A   1      42.795  27.278  29.962  1.00  0.00     0.049 A 
ATOM     47  C   UNL A   1      40.898  30.490  34.094  1.00  0.00     0.074 A 
ATOM     48  C   UNL A   1      44.041  26.698  30.130  1.00  0.00     0.029 A 
ATOM     49  N   UNL A   1      42.559  28.053  31.084  1.00  0.00    -0.354 N 
ATOM     50  N   UNL A   1      41.507  29.761  33.190  1.00  0.00    -0.248 NA
ATOM     51  C   UNL A   1      41.656  30.644  35.346  1.00  0.00     0.031 C 
ATOM     52  C   UNL A   1      44.558  27.121  31.359  1.00  0.00     0.029 A 
ATOM     53  C   UNL A   1      43.636  27.970  31.950  1.00  0.00     0.049 A 
ATOM     54  H   UNL A   1      41.747  28.586  31.243  1.00  0.00     0.167 HD
ATOM     55  C   UNL A   1      42.734  29.410  33.747  1.00  0.00     0.074 A 
ATOM     56  C   UNL A   1      42.789  30.016  35.058  1.00  0.00     0.031 C 
ATOM     57  C   UNL A   1      43.719  28.638  33.223  1.00  0.00     0.034 A 
BRANCH  44  58
ATOM     58  C   UNL A   1      42.300  26.256  27.711  1.00  0.00     0.023 A 
ATOM     59  C   UNL A   1      43.187  26.766  26.741  1.00  0.00     0.012 A 
ATOM     60  C   UNL A   1      41.861  24.922  27.618  1.00  0.00     0.148 A 
ATOM     61  C   UNL A   1      43.612  25.968  25.681  1.00  0.00     0.002 A 
ATOM     62  C   UNL A   1      42.319  24.121  26.578  1.00  0.00     0.091 A 
ATOM     63  F   UNL A   1      40.994  24.465  28.533  1.00  0.00    -0.205 F 
ATOM     64  C   UNL A   1      43.188  24.644  25.605  1.00  0.00     0.022 A 
BRANCH  62  65
ATOM     65  S   UNL A   1      41.879  22.385  26.441  1.00  0.00     0.127 S 
ATOM     66  O   UNL A   1      42.629  21.982  25.253  1.00  0.00    -0.237 OA
ATOM     67  O   UNL A   1      42.386  21.833  27.698  1.00  0.00    -0.237 OA
ATOM     68  O   UNL A   1      40.429  22.355  26.313  1.00  0.00    -0.744 OA
ENDBRANCH  62  65
ENDBRANCH  44  58
BRANCH  45  69
ATOM     69  C   UNL A   1      39.108  32.066  35.129  1.00  0.00     0.023 A 
ATOM     70  C   UNL A   1      39.248  33.465  35.034  1.00  0.00     0.012 A 
ATOM     71  C   UNL A   1      38.525  31.511  36.284  1.00  0.00     0.148 A 
ATOM     72  C   UNL A   1      38.842  34.293  36.081  1.00  0.00     0.002 A 
ATOM     73  C   UNL A   1      38.077  32.345  37.301  1.00  0.00     0.091 A 
ATOM     74  F   UNL A   1      38.424  30.176  36.366  1.00  0.00    -0.205 F 
ATOM     75  C   UNL A   1      38.247  33.735  37.208  1.00  0.00     0.022 A 
BRANCH  73  76
ATOM     76  S   UNL A   1      37.191  31.716  38.732  1.00  0.00     0.127 S 
ATOM     77  O   UNL A   1      36.061  32.638  38.814  1.00  0.00    -0.237 OA
ATOM     78  O   UNL A   1      36.850  30.358  38.309  1.00  0.00    -0.237 OA
ATOM     79  O   UNL A   1      38.145  31.776  39.832  1.00  0.00    -0.744 OA
ENDBRANCH  73  76
ENDBRANCH  45  69
BRANCH  57  80
ATOM     80  C   UNL A   1      44.966  28.429  34.041  1.00  0.00     0.023 A 
ATOM     81  C   UNL A   1      46.033  29.342  33.931  1.00  0.00     0.012 A 
ATOM     82  C   UNL A   1      45.050  27.381  34.979  1.00  0.00     0.148 A 
ATOM     83  C   UNL A   1      47.175  29.198  34.719  1.00  0.00     0.002 A 
ATOM     84  C   UNL A   1      46.175  27.267  35.790  1.00  0.00     0.091 A 
ATOM     85  F   UNL A   1      44.036  26.506  35.059  1.00  0.00    -0.205 F 
ATOM     86  C   UNL A   1      47.242  28.169  35.655  1.00  0.00     0.022 A 
BRANCH  84  87
ATOM     87  S   UNL A   1      46.288  26.019  37.079  1.00  0.00     0.127 S 
ATOM     88  O   UNL A   1      47.590  26.315  37.672  1.00  0.00    -0.237 OA
ATOM     89  O   UNL A   1      45.143  26.340  37.935  1.00  0.00    -0.237 OA
ATOM     90  O   UNL A   1      46.178  24.739  36.392  1.00  0.00    -0.744 OA
ENDBRANCH  84  87
ENDBRANCH  57  80
ENDBRANCH  31  32
ENDBRANCH  24  26
ENDBRANCH  23  24
ENDBRANCH  22  23
ENDBRANCH   1  22
TORSDOF 18
ENDMDL
