MODEL 1
REMARK VINA RESULT:     -11.5      0.000      0.000
REMARK SMILES COc1ccc2c(c1)c(CC(=O)OCCOCCOC(=O)c1ccc(-c3c4nc(c(-c5cccc(S(=O)(=O)[O-])c5F)c5ccc([nH]5)c(-c5cccc(S(=O)(=O)[O-])c5F)c5nc(c(-c6cccc(S(=O)(=O)[O-])c6F)c6ccc3[nH]6)C=C5)C=C4)cc1)c(C)n2Cc1ccn(C(F)F)c(=O)c1
REMARK SMILES IDX 15 1 14 2 13 3 11 4 12 5 10 6 9 7 3 8 4 9 8 10 5 11 7 12
REMARK SMILES IDX 6 13 87 14 85 15 86 16 2 17 1 18 88 19 89 20 90 21 98 22
REMARK SMILES IDX 91 23 96 24 92 25 97 26 93 27 94 28 95 29 16 30 17 31 18 32
REMARK SMILES IDX 19 33 20 34 21 35 22 36 23 37 84 38 24 39 83 40 25 41 26 42
REMARK SMILES IDX 27 43 77 44 28 45 82 46 76 47 78 48 29 49 81 50 75 51 74 52
REMARK SMILES IDX 30 54 62 55 42 56 61 57 43 58 46 59 60 60 79 61 44 62 45 63
REMARK SMILES IDX 59 65 80 66 47 67 31 68 32 69 40 70 33 71 35 72 41 73 34 74
REMARK SMILES IDX 36 75 37 76 38 77 39 78 63 79 64 80 72 81 65 82 67 83 73 84
REMARK SMILES IDX 66 85 68 86 69 87 70 88 71 89 48 90 49 91 57 92 50 93 52 94
REMARK SMILES IDX 58 95 51 96 53 97 54 98 55 99 56 100
REMARK H PARENT 78 53 46 64
REMARK Flexibility Score: inf
ROOT
ATOM      1  C   UNL A   1      33.023  28.224  26.316  1.00  0.00     0.202 C 
ENDROOT
BRANCH   1   2
ATOM      2  C   UNL A   1      31.592  27.812  25.926  1.00  0.00     0.261 C 
BRANCH   2   3
ATOM      3  O   UNL A   1      31.503  26.835  24.872  1.00  0.00    -0.463 OA
BRANCH   3   4
ATOM      4  C   UNL A   1      32.286  27.092  23.793  1.00  0.00     0.310 C 
ATOM      5  O   UNL A   1      32.288  28.158  23.180  1.00  0.00    -0.252 OA
BRANCH   4   6
ATOM      6  C   UNL A   1      33.217  25.978  23.363  1.00  0.00     0.160 C 
BRANCH   6   7
ATOM      7  C   UNL A   1      33.192  24.659  24.089  1.00  0.00    -0.008 A 
ATOM      8  C   UNL A   1      36.588  23.456  25.371  1.00  0.00     0.119 A 
ATOM      9  C   UNL A   1      36.112  22.336  26.042  1.00  0.00     0.048 A 
ATOM     10  C   UNL A   1      35.701  24.249  24.641  1.00  0.00     0.057 A 
ATOM     11  C   UNL A   1      34.751  21.982  25.979  1.00  0.00     0.031 A 
ATOM     12  C   UNL A   1      34.319  23.970  24.629  1.00  0.00     0.007 A 
ATOM     13  C   UNL A   1      33.863  22.811  25.261  1.00  0.00     0.049 A 
ATOM     14  N   UNL A   1      32.498  22.721  25.002  1.00  0.00    -0.340 N 
ATOM     15  C   UNL A   1      32.118  23.784  24.192  1.00  0.00     0.020 A 
ATOM     16  C   UNL A   1      30.790  23.923  23.534  1.00  0.00     0.065 C 
BRANCH   8  17
ATOM     17  O   UNL A   1      37.842  23.989  25.492  1.00  0.00    -0.497 OA
ATOM     18  C   UNL A   1      38.526  23.751  26.710  1.00  0.00     0.278 C 
ENDBRANCH   8  17
BRANCH  14  19
ATOM     19  C   UNL A   1      31.660  21.562  25.363  1.00  0.00     0.158 C 
BRANCH  19  20
ATOM     20  C   UNL A   1      32.142  20.231  24.828  1.00  0.00    -0.021 A 
ATOM     21  C   UNL A   1      32.620  19.228  25.760  1.00  0.00     0.024 A 
ATOM     22  C   UNL A   1      32.082  19.900  23.525  1.00  0.00     0.077 A 
ATOM     23  C   UNL A   1      33.210  18.109  25.326  1.00  0.00     0.095 A 
ATOM     24  C   UNL A   1      32.615  18.592  23.034  1.00  0.00     0.255 A 
ATOM     25  N   UNL A   1      33.268  17.818  23.980  1.00  0.00    -0.258 N 
ATOM     26  O   UNL A   1      32.449  18.302  21.854  1.00  0.00    -0.269 OA
BRANCH  25  27
ATOM     27  C   UNL A   1      33.927  16.617  23.530  1.00  0.00     0.451 C 
ATOM     28  F   UNL A   1      35.253  16.671  23.804  1.00  0.00    -0.185 F 
ATOM     29  F   UNL A   1      33.416  15.521  24.139  1.00  0.00    -0.185 F 
ENDBRANCH  25  27
ENDBRANCH  19  20
ENDBRANCH  14  19
ENDBRANCH   6   7
ENDBRANCH   4   6
ENDBRANCH   3   4
ENDBRANCH   2   3
ENDBRANCH   1   2
BRANCH   1  30
ATOM     30  O   UNL A   1      33.240  29.257  27.268  1.00  0.00    -0.374 OA
BRANCH  30  31
ATOM     31  C   UNL A   1      33.017  30.598  26.841  1.00  0.00     0.202 C 
BRANCH  31  32
ATOM     32  C   UNL A   1      33.460  31.769  27.735  1.00  0.00     0.261 C 
BRANCH  32  33
ATOM     33  O   UNL A   1      34.611  31.457  28.516  1.00  0.00    -0.460 OA
BRANCH  33  34
ATOM     34  C   UNL A   1      35.747  32.072  28.095  1.00  0.00     0.338 C 
ATOM     35  O   UNL A   1      35.878  33.221  27.700  1.00  0.00    -0.246 OA
BRANCH  34  36
ATOM     36  C   UNL A   1      36.814  31.218  28.626  1.00  0.00     0.060 A 
ATOM     37  C   UNL A   1      37.862  31.801  29.347  1.00  0.00     0.016 A 
ATOM     38  C   UNL A   1      36.933  29.949  28.038  1.00  0.00     0.016 A 
ATOM     39  C   UNL A   1      39.080  31.144  29.380  1.00  0.00     0.010 A 
ATOM     40  C   UNL A   1      38.160  29.306  28.060  1.00  0.00     0.010 A 
ATOM     41  C   UNL A   1      39.240  29.927  28.691  1.00  0.00    -0.014 A 
BRANCH  41  42
ATOM     42  C   UNL A   1      40.506  29.225  28.871  1.00  0.00     0.031 A 
ATOM     43  C   UNL A   1      40.742  28.890  30.301  1.00  0.00     0.074 A 
ATOM     44  C   UNL A   1      41.323  28.786  27.894  1.00  0.00     0.049 A 
ATOM     45  N   UNL A   1      41.662  29.345  31.087  1.00  0.00    -0.248 NA
ATOM     46  C   UNL A   1      39.704  28.090  30.974  1.00  0.00     0.031 C 
ATOM     47  C   UNL A   1      41.085  28.764  26.451  1.00  0.00     0.029 A 
ATOM     48  N   UNL A   1      42.514  28.128  28.015  1.00  0.00    -0.354 N 
ATOM     49  C   UNL A   1      41.435  28.713  32.305  1.00  0.00     0.074 A 
ATOM     50  C   UNL A   1      40.129  28.110  32.234  1.00  0.00     0.031 C 
ATOM     51  C   UNL A   1      41.966  27.919  25.866  1.00  0.00     0.029 A 
ATOM     52  C   UNL A   1      42.894  27.430  26.870  1.00  0.00     0.049 A 
ATOM     53  H   UNL A   1      43.055  28.145  28.838  1.00  0.00     0.167 HD
ATOM     54  C   UNL A   1      42.422  28.501  33.214  1.00  0.00     0.034 A 
ATOM     55  C   UNL A   1      43.829  26.448  26.807  1.00  0.00     0.034 A 
ATOM     56  C   UNL A   1      43.591  29.289  32.963  1.00  0.00     0.049 A 
ATOM     57  C   UNL A   1      44.692  26.599  28.000  1.00  0.00     0.074 A 
ATOM     58  C   UNL A   1      43.873  30.638  32.913  1.00  0.00     0.029 A 
ATOM     59  N   UNL A   1      44.632  28.655  32.335  1.00  0.00    -0.354 N 
ATOM     60  N   UNL A   1      45.494  27.604  28.202  1.00  0.00    -0.248 NA
ATOM     61  C   UNL A   1      44.393  25.786  29.168  1.00  0.00     0.031 C 
ATOM     62  C   UNL A   1      44.830  30.777  31.866  1.00  0.00     0.029 A 
ATOM     63  C   UNL A   1      45.103  29.502  31.367  1.00  0.00     0.049 A 
ATOM     64  H   UNL A   1      44.979  27.757  32.542  1.00  0.00     0.167 HD
ATOM     65  C   UNL A   1      45.444  27.811  29.573  1.00  0.00     0.074 A 
ATOM     66  C   UNL A   1      44.851  26.597  30.123  1.00  0.00     0.031 C 
ATOM     67  C   UNL A   1      45.626  29.056  30.097  1.00  0.00     0.034 A 
BRANCH  54  68
ATOM     68  C   UNL A   1      42.441  27.295  34.104  1.00  0.00     0.023 A 
ATOM     69  C   UNL A   1      41.854  27.382  35.380  1.00  0.00     0.012 A 
ATOM     70  C   UNL A   1      43.222  26.151  33.817  1.00  0.00     0.148 A 
ATOM     71  C   UNL A   1      42.021  26.358  36.320  1.00  0.00     0.002 A 
ATOM     72  C   UNL A   1      43.311  25.102  34.718  1.00  0.00     0.091 A 
ATOM     73  F   UNL A   1      43.987  26.135  32.718  1.00  0.00    -0.205 F 
ATOM     74  C   UNL A   1      42.729  25.207  35.982  1.00  0.00     0.022 A 
BRANCH  72  75
ATOM     75  S   UNL A   1      44.165  23.580  34.296  1.00  0.00     0.127 S 
ATOM     76  O   UNL A   1      43.346  23.080  33.196  1.00  0.00    -0.237 OA
ATOM     77  O   UNL A   1      45.487  24.077  33.911  1.00  0.00    -0.237 OA
ATOM     78  O   UNL A   1      44.160  22.788  35.519  1.00  0.00    -0.744 OA
ENDBRANCH  72  75
ENDBRANCH  54  68
BRANCH  55  79
ATOM     79  C   UNL A   1      43.876  25.194  26.005  1.00  0.00     0.023 A 
ATOM     80  C   UNL A   1      44.988  24.978  25.157  1.00  0.00     0.012 A 
ATOM     81  C   UNL A   1      43.055  24.086  26.306  1.00  0.00     0.148 A 
ATOM     82  C   UNL A   1      45.324  23.696  24.709  1.00  0.00     0.002 A 
ATOM     83  C   UNL A   1      43.387  22.813  25.846  1.00  0.00     0.091 A 
ATOM     84  F   UNL A   1      42.011  24.254  27.125  1.00  0.00    -0.205 F 
ATOM     85  C   UNL A   1      44.534  22.610  25.068  1.00  0.00     0.022 A 
BRANCH  83  86
ATOM     86  S   UNL A   1      42.414  21.365  26.279  1.00  0.00     0.127 S 
ATOM     87  O   UNL A   1      41.144  21.634  25.603  1.00  0.00    -0.237 OA
ATOM     88  O   UNL A   1      43.201  20.284  25.696  1.00  0.00    -0.237 OA
ATOM     89  O   UNL A   1      42.325  21.376  27.735  1.00  0.00    -0.744 OA
ENDBRANCH  83  86
ENDBRANCH  55  79
BRANCH  67  90
ATOM     90  C   UNL A   1      46.188  30.120  29.195  1.00  0.00     0.023 A 
ATOM     91  C   UNL A   1      47.570  30.256  28.946  1.00  0.00     0.012 A 
ATOM     92  C   UNL A   1      45.279  30.892  28.454  1.00  0.00     0.148 A 
ATOM     93  C   UNL A   1      48.032  31.156  27.980  1.00  0.00     0.002 A 
ATOM     94  C   UNL A   1      45.740  31.754  27.469  1.00  0.00     0.091 A 
ATOM     95  F   UNL A   1      43.970  30.741  28.708  1.00  0.00    -0.205 F 
ATOM     96  C   UNL A   1      47.117  31.894  27.233  1.00  0.00     0.022 A 
BRANCH  94  97
ATOM     97  S   UNL A   1      44.611  32.646  26.398  1.00  0.00     0.127 S 
ATOM     98  O   UNL A   1      45.524  33.263  25.437  1.00  0.00    -0.237 OA
ATOM     99  O   UNL A   1      43.785  31.566  25.854  1.00  0.00    -0.237 OA
ATOM    100  O   UNL A   1      43.887  33.576  27.256  1.00  0.00    -0.744 OA
ENDBRANCH  94  97
ENDBRANCH  67  90
ENDBRANCH  41  42
ENDBRANCH  34  36
ENDBRANCH  33  34
ENDBRANCH  32  33
ENDBRANCH  31  32
ENDBRANCH  30  31
ENDBRANCH   1  30
TORSDOF 22
ENDMDL
MODEL 2
REMARK VINA RESULT:     -11.4      2.104      4.287
REMARK SMILES COc1ccc2c(c1)c(CC(=O)OCCOCCOC(=O)c1ccc(-c3c4nc(c(-c5cccc(S(=O)(=O)[O-])c5F)c5ccc([nH]5)c(-c5cccc(S(=O)(=O)[O-])c5F)c5nc(c(-c6cccc(S(=O)(=O)[O-])c6F)c6ccc3[nH]6)C=C5)C=C4)cc1)c(C)n2Cc1ccn(C(F)F)c(=O)c1
REMARK SMILES IDX 15 1 14 2 13 3 11 4 12 5 10 6 9 7 3 8 4 9 8 10 5 11 7 12
REMARK SMILES IDX 6 13 87 14 85 15 86 16 2 17 1 18 88 19 89 20 90 21 98 22
REMARK SMILES IDX 91 23 96 24 92 25 97 26 93 27 94 28 95 29 16 30 17 31 18 32
REMARK SMILES IDX 19 33 20 34 21 35 22 36 23 37 84 38 24 39 83 40 25 41 26 42
REMARK SMILES IDX 27 43 77 44 28 45 82 46 76 47 78 48 29 49 81 50 75 51 74 52
REMARK SMILES IDX 30 54 62 55 42 56 61 57 43 58 46 59 60 60 79 61 44 62 45 63
REMARK SMILES IDX 59 65 80 66 47 67 31 68 32 69 40 70 33 71 35 72 41 73 34 74
REMARK SMILES IDX 36 75 37 76 38 77 39 78 63 79 64 80 72 81 65 82 67 83 73 84
REMARK SMILES IDX 66 85 68 86 69 87 70 88 71 89 48 90 49 91 57 92 50 93 52 94
REMARK SMILES IDX 58 95 51 96 53 97 54 98 55 99 56 100
REMARK H PARENT 78 53 46 64
REMARK Flexibility Score: inf
ROOT
ATOM      1  C   UNL A   1      33.082  35.275  29.230  1.00  0.00     0.202 C 
ENDROOT
BRANCH   1   2
ATOM      2  C   UNL A   1      33.228  34.492  27.912  1.00  0.00     0.261 C 
BRANCH   2   3
ATOM      3  O   UNL A   1      32.254  33.451  27.710  1.00  0.00    -0.463 OA
BRANCH   3   4
ATOM      4  C   UNL A   1      32.770  32.265  27.294  1.00  0.00     0.310 C 
ATOM      5  O   UNL A   1      33.973  32.043  27.165  1.00  0.00    -0.252 OA
BRANCH   4   6
ATOM      6  C   UNL A   1      31.769  31.167  27.004  1.00  0.00     0.160 C 
BRANCH   6   7
ATOM      7  C   UNL A   1      32.067  30.143  25.941  1.00  0.00    -0.008 A 
ATOM      8  C   UNL A   1      29.604  30.084  23.016  1.00  0.00     0.119 A 
ATOM      9  C   UNL A   1      30.284  29.138  22.259  1.00  0.00     0.048 A 
ATOM     10  C   UNL A   1      30.085  30.431  24.279  1.00  0.00     0.057 A 
ATOM     11  C   UNL A   1      31.442  28.513  22.759  1.00  0.00     0.031 A 
ATOM     12  C   UNL A   1      31.289  29.886  24.772  1.00  0.00     0.007 A 
ATOM     13  C   UNL A   1      31.933  28.896  24.026  1.00  0.00     0.049 A 
ATOM     14  N   UNL A   1      33.015  28.459  24.785  1.00  0.00    -0.340 N 
ATOM     15  C   UNL A   1      33.024  29.138  25.997  1.00  0.00     0.020 A 
ATOM     16  C   UNL A   1      33.899  28.805  27.154  1.00  0.00     0.065 C 
BRANCH   8  17
ATOM     17  O   UNL A   1      28.575  30.872  22.577  1.00  0.00    -0.497 OA
ATOM     18  C   UNL A   1      27.559  31.182  23.514  1.00  0.00     0.278 C 
ENDBRANCH   8  17
BRANCH  14  19
ATOM     19  C   UNL A   1      33.870  27.313  24.425  1.00  0.00     0.158 C 
BRANCH  19  20
ATOM     20  C   UNL A   1      33.447  25.986  25.018  1.00  0.00    -0.021 A 
ATOM     21  C   UNL A   1      34.465  25.073  25.502  1.00  0.00     0.024 A 
ATOM     22  C   UNL A   1      32.159  25.636  25.186  1.00  0.00     0.077 A 
ATOM     23  C   UNL A   1      34.154  23.828  25.876  1.00  0.00     0.095 A 
ATOM     24  C   UNL A   1      31.787  24.294  25.732  1.00  0.00     0.255 A 
ATOM     25  N   UNL A   1      32.840  23.415  25.931  1.00  0.00    -0.258 N 
ATOM     26  O   UNL A   1      30.603  24.063  25.953  1.00  0.00    -0.269 OA
BRANCH  25  27
ATOM     27  C   UNL A   1      32.525  22.062  26.316  1.00  0.00     0.451 C 
ATOM     28  F   UNL A   1      31.502  21.581  25.570  1.00  0.00    -0.185 F 
ATOM     29  F   UNL A   1      33.591  21.244  26.145  1.00  0.00    -0.185 F 
ENDBRANCH  25  27
ENDBRANCH  19  20
ENDBRANCH  14  19
ENDBRANCH   6   7
ENDBRANCH   4   6
ENDBRANCH   3   4
ENDBRANCH   2   3
ENDBRANCH   1   2
BRANCH   1  30
ATOM     30  O   UNL A   1      32.954  34.585  30.466  1.00  0.00    -0.374 OA
BRANCH  30  31
ATOM     31  C   UNL A   1      34.086  34.577  31.331  1.00  0.00     0.202 C 
BRANCH  31  32
ATOM     32  C   UNL A   1      34.852  33.266  31.576  1.00  0.00     0.261 C 
BRANCH  32  33
ATOM     33  O   UNL A   1      34.989  32.483  30.392  1.00  0.00    -0.460 OA
BRANCH  33  34
ATOM     34  C   UNL A   1      36.056  32.825  29.624  1.00  0.00     0.338 C 
ATOM     35  O   UNL A   1      36.263  33.886  29.055  1.00  0.00    -0.246 OA
BRANCH  34  36
ATOM     36  C   UNL A   1      37.071  31.830  29.988  1.00  0.00     0.060 A 
ATOM     37  C   UNL A   1      38.310  32.263  30.472  1.00  0.00     0.016 A 
ATOM     38  C   UNL A   1      36.890  30.546  29.450  1.00  0.00     0.016 A 
ATOM     39  C   UNL A   1      39.403  31.431  30.310  1.00  0.00     0.010 A 
ATOM     40  C   UNL A   1      37.994  29.726  29.274  1.00  0.00     0.010 A 
ATOM     41  C   UNL A   1      39.252  30.190  29.663  1.00  0.00    -0.014 A 
BRANCH  41  42
ATOM     42  C   UNL A   1      40.415  29.309  29.638  1.00  0.00     0.031 A 
ATOM     43  C   UNL A   1      40.831  28.922  31.013  1.00  0.00     0.074 A 
ATOM     44  C   UNL A   1      40.987  28.771  28.543  1.00  0.00     0.049 A 
ATOM     45  N   UNL A   1      41.924  29.227  31.631  1.00  0.00    -0.248 NA
ATOM     46  C   UNL A   1      39.812  28.271  31.854  1.00  0.00     0.031 C 
ATOM     47  C   UNL A   1      40.513  28.805  27.160  1.00  0.00     0.029 A 
ATOM     48  N   UNL A   1      42.072  27.945  28.472  1.00  0.00    -0.354 N 
ATOM     49  C   UNL A   1      41.811  28.616  32.876  1.00  0.00     0.074 A 
ATOM     50  C   UNL A   1      40.437  28.210  33.027  1.00  0.00     0.031 C 
ATOM     51  C   UNL A   1      41.154  27.850  26.445  1.00  0.00     0.029 A 
ATOM     52  C   UNL A   1      42.153  27.217  27.286  1.00  0.00     0.049 A 
ATOM     53  H   UNL A   1      42.738  27.870  29.195  1.00  0.00     0.167 HD
ATOM     54  C   UNL A   1      42.893  28.249  33.611  1.00  0.00     0.034 A 
ATOM     55  C   UNL A   1      42.912  26.110  27.079  1.00  0.00     0.034 A 
ATOM     56  C   UNL A   1      44.107  28.862  33.164  1.00  0.00     0.049 A 
ATOM     57  C   UNL A   1      43.972  26.116  28.112  1.00  0.00     0.074 A 
ATOM     58  C   UNL A   1      44.570  30.156  33.055  1.00  0.00     0.029 A 
ATOM     59  N   UNL A   1      44.927  28.094  32.378  1.00  0.00    -0.354 N 
ATOM     60  N   UNL A   1      44.934  26.991  28.170  1.00  0.00    -0.248 NA
ATOM     61  C   UNL A   1      43.754  25.338  29.321  1.00  0.00     0.031 C 
ATOM     62  C   UNL A   1      45.352  30.171  31.864  1.00  0.00     0.029 A 
ATOM     63  C   UNL A   1      45.350  28.877  31.338  1.00  0.00     0.049 A 
ATOM     64  H   UNL A   1      45.168  27.152  32.533  1.00  0.00     0.167 HD
ATOM     65  C   UNL A   1      45.141  27.182  29.528  1.00  0.00     0.074 A 
ATOM     66  C   UNL A   1      44.476  26.059  30.179  1.00  0.00     0.031 C 
ATOM     67  C   UNL A   1      45.587  28.380  30.003  1.00  0.00     0.034 A 
BRANCH  54  68
ATOM     68  C   UNL A   1      42.882  27.039  34.497  1.00  0.00     0.023 A 
ATOM     69  C   UNL A   1      42.414  27.168  35.818  1.00  0.00     0.012 A 
ATOM     70  C   UNL A   1      43.534  25.834  34.146  1.00  0.00     0.148 A 
ATOM     71  C   UNL A   1      42.571  26.127  36.741  1.00  0.00     0.002 A 
ATOM     72  C   UNL A   1      43.607  24.775  35.036  1.00  0.00     0.091 A 
ATOM     73  F   UNL A   1      44.199  25.760  32.986  1.00  0.00    -0.205 F 
ATOM     74  C   UNL A   1      43.145  24.922  36.345  1.00  0.00     0.022 A 
BRANCH  72  75
ATOM     75  S   UNL A   1      44.288  23.189  34.544  1.00  0.00     0.127 S 
ATOM     76  O   UNL A   1      43.201  22.643  33.736  1.00  0.00    -0.237 OA
ATOM     77  O   UNL A   1      45.478  23.593  33.794  1.00  0.00    -0.237 OA
ATOM     78  O   UNL A   1      44.578  22.495  35.792  1.00  0.00    -0.744 OA
ENDBRANCH  72  75
ENDBRANCH  54  68
BRANCH  55  79
ATOM     79  C   UNL A   1      42.642  24.875  26.291  1.00  0.00     0.023 A 
ATOM     80  C   UNL A   1      43.594  24.472  25.325  1.00  0.00     0.012 A 
ATOM     81  C   UNL A   1      41.678  23.929  26.698  1.00  0.00     0.148 A 
ATOM     82  C   UNL A   1      43.643  23.155  24.856  1.00  0.00     0.002 A 
ATOM     83  C   UNL A   1      41.724  22.621  26.218  1.00  0.00     0.091 A 
ATOM     84  F   UNL A   1      40.781  24.272  27.629  1.00  0.00    -0.205 F 
ATOM     85  C   UNL A   1      42.719  22.224  25.317  1.00  0.00     0.022 A 
BRANCH  83  86
ATOM     86  S   UNL A   1      40.564  21.365  26.777  1.00  0.00     0.127 S 
ATOM     87  O   UNL A   1      40.809  21.341  28.220  1.00  0.00    -0.237 OA
ATOM     88  O   UNL A   1      39.282  21.939  26.383  1.00  0.00    -0.237 OA
ATOM     89  O   UNL A   1      40.954  20.140  26.088  1.00  0.00    -0.744 OA
ENDBRANCH  83  86
ENDBRANCH  55  79
BRANCH  67  90
ATOM     90  C   UNL A   1      46.141  29.364  29.011  1.00  0.00     0.023 A 
ATOM     91  C   UNL A   1      47.477  29.320  28.559  1.00  0.00     0.012 A 
ATOM     92  C   UNL A   1      45.240  30.250  28.400  1.00  0.00     0.148 A 
ATOM     93  C   UNL A   1      47.904  30.155  27.522  1.00  0.00     0.002 A 
ATOM     94  C   UNL A   1      45.657  31.048  27.344  1.00  0.00     0.091 A 
ATOM     95  F   UNL A   1      43.975  30.270  28.846  1.00  0.00    -0.205 F 
ATOM     96  C   UNL A   1      46.990  31.008  26.905  1.00  0.00     0.022 A 
BRANCH  94  97
ATOM     97  S   UNL A   1      44.507  32.082  26.436  1.00  0.00     0.127 S 
ATOM     98  O   UNL A   1      44.173  33.108  27.422  1.00  0.00    -0.237 OA
ATOM     99  O   UNL A   1      45.329  32.550  25.318  1.00  0.00    -0.237 OA
ATOM    100  O   UNL A   1      43.405  31.213  26.042  1.00  0.00    -0.744 OA
ENDBRANCH  94  97
ENDBRANCH  67  90
ENDBRANCH  41  42
ENDBRANCH  34  36
ENDBRANCH  33  34
ENDBRANCH  32  33
ENDBRANCH  31  32
ENDBRANCH  30  31
ENDBRANCH   1  30
TORSDOF 22
ENDMDL
MODEL 3
REMARK VINA RESULT:     -11.4      3.616      5.445
REMARK SMILES COc1ccc2c(c1)c(CC(=O)OCCOCCOC(=O)c1ccc(-c3c4nc(c(-c5cccc(S(=O)(=O)[O-])c5F)c5ccc([nH]5)c(-c5cccc(S(=O)(=O)[O-])c5F)c5nc(c(-c6cccc(S(=O)(=O)[O-])c6F)c6ccc3[nH]6)C=C5)C=C4)cc1)c(C)n2Cc1ccn(C(F)F)c(=O)c1
REMARK SMILES IDX 15 1 14 2 13 3 11 4 12 5 10 6 9 7 3 8 4 9 8 10 5 11 7 12
REMARK SMILES IDX 6 13 87 14 85 15 86 16 2 17 1 18 88 19 89 20 90 21 98 22
REMARK SMILES IDX 91 23 96 24 92 25 97 26 93 27 94 28 95 29 16 30 17 31 18 32
REMARK SMILES IDX 19 33 20 34 21 35 22 36 23 37 84 38 24 39 83 40 25 41 26 42
REMARK SMILES IDX 27 43 77 44 28 45 82 46 76 47 78 48 29 49 81 50 75 51 74 52
REMARK SMILES IDX 30 54 62 55 42 56 61 57 43 58 46 59 60 60 79 61 44 62 45 63
REMARK SMILES IDX 59 65 80 66 47 67 31 68 32 69 40 70 33 71 35 72 41 73 34 74
REMARK SMILES IDX 36 75 37 76 38 77 39 78 63 79 64 80 72 81 65 82 67 83 73 84
REMARK SMILES IDX 66 85 68 86 69 87 70 88 71 89 48 90 49 91 57 92 50 93 52 94
REMARK SMILES IDX 58 95 51 96 53 97 54 98 55 99 56 100
REMARK H PARENT 78 53 46 64
REMARK Flexibility Score: inf
ROOT
ATOM      1  C   UNL A   1      36.637  31.530  28.199  1.00  0.00     0.202 C 
ENDROOT
BRANCH   1   2
ATOM      2  C   UNL A   1      35.540  30.450  28.251  1.00  0.00     0.261 C 
BRANCH   2   3
ATOM      3  O   UNL A   1      35.542  29.524  27.148  1.00  0.00    -0.463 OA
BRANCH   3   4
ATOM      4  C   UNL A   1      34.360  28.887  26.940  1.00  0.00     0.310 C 
ATOM      5  O   UNL A   1      33.261  29.363  27.223  1.00  0.00    -0.252 OA
BRANCH   4   6
ATOM      6  C   UNL A   1      34.443  27.520  26.296  1.00  0.00     0.160 C 
BRANCH   6   7
ATOM      7  C   UNL A   1      33.316  27.033  25.424  1.00  0.00    -0.008 A 
ATOM      8  C   UNL A   1      31.728  23.734  26.528  1.00  0.00     0.119 A 
ATOM      9  C   UNL A   1      30.717  23.722  25.575  1.00  0.00     0.048 A 
ATOM     10  C   UNL A   1      32.676  24.758  26.513  1.00  0.00     0.057 A 
ATOM     11  C   UNL A   1      30.648  24.720  24.585  1.00  0.00     0.031 A 
ATOM     12  C   UNL A   1      32.584  25.818  25.588  1.00  0.00     0.007 A 
ATOM     13  C   UNL A   1      31.596  25.765  24.602  1.00  0.00     0.049 A 
ATOM     14  N   UNL A   1      31.801  26.861  23.768  1.00  0.00    -0.340 N 
ATOM     15  C   UNL A   1      32.918  27.562  24.203  1.00  0.00     0.020 A 
ATOM     16  C   UNL A   1      33.575  28.669  23.456  1.00  0.00     0.065 C 
BRANCH   8  17
ATOM     17  O   UNL A   1      31.803  22.922  27.627  1.00  0.00    -0.497 OA
ATOM     18  C   UNL A   1      33.073  22.377  27.937  1.00  0.00     0.278 C 
ENDBRANCH   8  17
BRANCH  14  19
ATOM     19  C   UNL A   1      31.065  27.093  22.510  1.00  0.00     0.158 C 
BRANCH  19  20
ATOM     20  C   UNL A   1      30.037  28.203  22.564  1.00  0.00    -0.021 A 
ATOM     21  C   UNL A   1      30.391  29.517  22.061  1.00  0.00     0.024 A 
ATOM     22  C   UNL A   1      28.777  28.015  22.994  1.00  0.00     0.077 A 
ATOM     23  C   UNL A   1      29.582  30.565  22.240  1.00  0.00     0.095 A 
ATOM     24  C   UNL A   1      27.808  29.152  23.076  1.00  0.00     0.255 A 
ATOM     25  N   UNL A   1      28.332  30.404  22.798  1.00  0.00    -0.258 N 
ATOM     26  O   UNL A   1      26.647  28.907  23.383  1.00  0.00    -0.269 OA
BRANCH  25  27
ATOM     27  C   UNL A   1      27.482  31.551  23.003  1.00  0.00     0.451 C 
ATOM     28  F   UNL A   1      27.037  31.590  24.283  1.00  0.00    -0.185 F 
ATOM     29  F   UNL A   1      28.146  32.704  22.754  1.00  0.00    -0.185 F 
ENDBRANCH  25  27
ENDBRANCH  19  20
ENDBRANCH  14  19
ENDBRANCH   6   7
ENDBRANCH   4   6
ENDBRANCH   3   4
ENDBRANCH   2   3
ENDBRANCH   1   2
BRANCH   1  30
ATOM     30  O   UNL A   1      36.291  32.908  28.221  1.00  0.00    -0.374 OA
BRANCH  30  31
ATOM     31  C   UNL A   1      34.907  33.233  28.320  1.00  0.00     0.202 C 
BRANCH  31  32
ATOM     32  C   UNL A   1      34.307  33.614  29.684  1.00  0.00     0.261 C 
BRANCH  32  33
ATOM     33  O   UNL A   1      34.344  32.539  30.619  1.00  0.00    -0.460 OA
BRANCH  33  34
ATOM     34  C   UNL A   1      34.672  32.917  31.882  1.00  0.00     0.338 C 
ATOM     35  O   UNL A   1      33.939  33.380  32.742  1.00  0.00    -0.246 OA
BRANCH  34  36
ATOM     36  C   UNL A   1      35.958  32.250  32.113  1.00  0.00     0.060 A 
ATOM     37  C   UNL A   1      37.142  32.977  31.955  1.00  0.00     0.016 A 
ATOM     38  C   UNL A   1      35.936  30.847  32.076  1.00  0.00     0.016 A 
ATOM     39  C   UNL A   1      38.300  32.284  31.645  1.00  0.00     0.010 A 
ATOM     40  C   UNL A   1      37.095  30.162  31.747  1.00  0.00     0.010 A 
ATOM     41  C   UNL A   1      38.260  30.886  31.488  1.00  0.00    -0.014 A 
BRANCH  41  42
ATOM     42  C   UNL A   1      39.535  30.205  31.288  1.00  0.00     0.031 A 
ATOM     43  C   UNL A   1      40.340  30.182  32.539  1.00  0.00     0.074 A 
ATOM     44  C   UNL A   1      39.922  29.541  30.181  1.00  0.00     0.049 A 
ATOM     45  N   UNL A   1      41.466  30.771  32.775  1.00  0.00    -0.248 NA
ATOM     46  C   UNL A   1      39.706  29.576  33.723  1.00  0.00     0.031 C 
ATOM     47  C   UNL A   1      39.132  29.213  28.995  1.00  0.00     0.029 A 
ATOM     48  N   UNL A   1      41.102  28.892  29.950  1.00  0.00    -0.354 N 
ATOM     49  C   UNL A   1      41.781  30.425  34.085  1.00  0.00     0.074 A 
ATOM     50  C   UNL A   1      40.595  29.857  34.672  1.00  0.00     0.031 C 
ATOM     51  C   UNL A   1      39.759  28.236  28.298  1.00  0.00     0.029 A 
ATOM     52  C   UNL A   1      41.038  27.952  28.923  1.00  0.00     0.049 A 
ATOM     53  H   UNL A   1      41.923  29.072  30.463  1.00  0.00     0.167 HD
ATOM     54  C   UNL A   1      43.060  30.388  34.544  1.00  0.00     0.034 A 
ATOM     55  C   UNL A   1      41.930  26.954  28.698  1.00  0.00     0.034 A 
ATOM     56  C   UNL A   1      43.981  31.070  33.685  1.00  0.00     0.049 A 
ATOM     57  C   UNL A   1      43.186  27.336  29.384  1.00  0.00     0.074 A 
ATOM     58  C   UNL A   1      44.135  32.367  33.245  1.00  0.00     0.029 A 
ATOM     59  N   UNL A   1      44.725  30.286  32.841  1.00  0.00    -0.354 N 
ATOM     60  N   UNL A   1      43.937  28.339  29.031  1.00  0.00    -0.248 NA
ATOM     61  C   UNL A   1      43.426  26.805  30.716  1.00  0.00     0.031 C 
ATOM     62  C   UNL A   1      44.587  32.249  31.898  1.00  0.00     0.029 A 
ATOM     63  C   UNL A   1      44.718  30.889  31.611  1.00  0.00     0.049 A 
ATOM     64  H   UNL A   1      45.180  29.445  33.075  1.00  0.00     0.167 HD
ATOM     65  C   UNL A   1      44.423  28.840  30.230  1.00  0.00     0.074 A 
ATOM     66  C   UNL A   1      44.174  27.792  31.213  1.00  0.00     0.031 C 
ATOM     67  C   UNL A   1      44.720  30.164  30.363  1.00  0.00     0.034 A 
BRANCH  54  68
ATOM     68  C   UNL A   1      43.506  29.404  35.583  1.00  0.00     0.023 A 
ATOM     69  C   UNL A   1      44.201  29.875  36.712  1.00  0.00     0.012 A 
ATOM     70  C   UNL A   1      43.467  28.006  35.372  1.00  0.00     0.148 A 
ATOM     71  C   UNL A   1      44.812  28.985  37.603  1.00  0.00     0.002 A 
ATOM     72  C   UNL A   1      43.997  27.128  36.303  1.00  0.00     0.091 A 
ATOM     73  F   UNL A   1      43.029  27.529  34.199  1.00  0.00    -0.205 F 
ATOM     74  C   UNL A   1      44.690  27.611  37.413  1.00  0.00     0.022 A 
BRANCH  72  75
ATOM     75  S   UNL A   1      43.809  25.351  36.121  1.00  0.00     0.127 S 
ATOM     76  O   UNL A   1      42.382  25.236  35.837  1.00  0.00    -0.237 OA
ATOM     77  O   UNL A   1      44.693  25.071  34.989  1.00  0.00    -0.237 OA
ATOM     78  O   UNL A   1      44.264  24.788  37.385  1.00  0.00    -0.744 OA
ENDBRANCH  72  75
ENDBRANCH  54  68
BRANCH  55  79
ATOM     79  C   UNL A   1      41.732  25.555  28.227  1.00  0.00     0.023 A 
ATOM     80  C   UNL A   1      40.427  25.010  28.267  1.00  0.00     0.012 A 
ATOM     81  C   UNL A   1      42.698  24.889  27.443  1.00  0.00     0.148 A 
ATOM     82  C   UNL A   1      40.075  23.906  27.482  1.00  0.00     0.002 A 
ATOM     83  C   UNL A   1      42.345  23.782  26.674  1.00  0.00     0.091 A 
ATOM     84  F   UNL A   1      43.934  25.395  27.365  1.00  0.00    -0.205 F 
ATOM     85  C   UNL A   1      41.029  23.303  26.671  1.00  0.00     0.022 A 
BRANCH  83  86
ATOM     86  S   UNL A   1      43.527  22.960  25.597  1.00  0.00     0.127 S 
ATOM     87  O   UNL A   1      44.584  22.579  26.535  1.00  0.00    -0.237 OA
ATOM     88  O   UNL A   1      42.741  21.847  25.076  1.00  0.00    -0.237 OA
ATOM     89  O   UNL A   1      43.932  23.966  24.622  1.00  0.00    -0.744 OA
ENDBRANCH  83  86
ENDBRANCH  55  79
BRANCH  67  90
ATOM     90  C   UNL A   1      44.809  30.990  29.109  1.00  0.00     0.023 A 
ATOM     91  C   UNL A   1      43.690  31.636  28.541  1.00  0.00     0.012 A 
ATOM     92  C   UNL A   1      46.088  31.252  28.591  1.00  0.00     0.148 A 
ATOM     93  C   UNL A   1      43.849  32.519  27.469  1.00  0.00     0.002 A 
ATOM     94  C   UNL A   1      46.244  32.159  27.553  1.00  0.00     0.091 A 
ATOM     95  F   UNL A   1      47.135  30.627  29.151  1.00  0.00    -0.205 F 
ATOM     96  C   UNL A   1      45.127  32.791  26.985  1.00  0.00     0.022 A 
BRANCH  94  97
ATOM     97  S   UNL A   1      47.869  32.638  26.962  1.00  0.00     0.127 S 
ATOM     98  O   UNL A   1      47.541  33.621  25.931  1.00  0.00    -0.237 OA
ATOM     99  O   UNL A   1      48.485  33.195  28.168  1.00  0.00    -0.237 OA
ATOM    100  O   UNL A   1      48.501  31.416  26.479  1.00  0.00    -0.744 OA
ENDBRANCH  94  97
ENDBRANCH  67  90
ENDBRANCH  41  42
ENDBRANCH  34  36
ENDBRANCH  33  34
ENDBRANCH  32  33
ENDBRANCH  31  32
ENDBRANCH  30  31
ENDBRANCH   1  30
TORSDOF 22
ENDMDL
