MODEL 1
REMARK VINA RESULT:     -10.5      0.000      0.000
REMARK SMILES O=C(CCc1cccnc1)Nc1ccsc1C(=O)OCCOCCOC(=O)c1ccc(-c2c3nc(c(-c4cccc(S(=O)(=O)[O-])c4F)c4ccc([nH]4)c(-c4cccc(S(=O)(=O)[O-])c4F)c4nc(c(-c5cccc(S(=O)(=O)[O-])c5F)c5ccc2[nH]5)C=C4)C=C3)cc1
REMARK SMILES IDX 21 1 20 2 19 3 17 4 18 5 16 6 12 7 13 8 14 9 15 10 11 11
REMARK SMILES IDX 1 12 2 13 3 15 4 16 5 17 6 18 10 19 7 20 9 21 8 22 22 23
REMARK SMILES IDX 23 24 24 25 25 26 26 27 27 28 28 29 29 30 90 31 30 32 89 33
REMARK SMILES IDX 31 34 32 35 33 36 83 37 34 38 88 39 82 40 84 41 35 42 87 43
REMARK SMILES IDX 81 44 80 45 36 47 68 48 48 49 67 50 49 51 52 52 66 53 85 54
REMARK SMILES IDX 50 55 51 56 65 58 86 59 53 60 37 61 38 62 46 63 39 64 41 65
REMARK SMILES IDX 47 66 40 67 42 68 43 69 44 70 45 71 69 72 70 73 78 74 71 75
REMARK SMILES IDX 73 76 79 77 72 78 74 79 75 80 76 81 77 82 54 83 55 84 63 85
REMARK SMILES IDX 56 86 58 87 64 88 57 89 59 90 60 91 61 92 62 93
REMARK H PARENT 11 14 84 46 52 57
REMARK Flexibility Score: inf
ROOT
ATOM      1  C   UNL A   1      33.752  27.762  24.977  1.00  0.00     0.202 C 
ENDROOT
BRANCH   1   2
ATOM      2  C   UNL A   1      33.083  26.948  26.087  1.00  0.00     0.261 C 
BRANCH   2   3
ATOM      3  O   UNL A   1      33.597  25.603  26.087  1.00  0.00    -0.459 OA
BRANCH   3   4
ATOM      4  C   UNL A   1      32.628  24.645  26.149  1.00  0.00     0.350 C 
ATOM      5  O   UNL A   1      31.626  24.735  26.850  1.00  0.00    -0.245 OA
BRANCH   4   6
ATOM      6  C   UNL A   1      32.864  23.665  25.111  1.00  0.00     0.136 A 
ATOM      7  C   UNL A   1      32.365  23.528  23.822  1.00  0.00     0.066 A 
ATOM      8  C   UNL A   1      32.756  22.264  23.264  1.00  0.00     0.039 A 
ATOM      9  C   UNL A   1      33.565  21.527  24.096  1.00  0.00     0.068 A 
ATOM     10  S   UNL A   1      33.864  22.337  25.560  1.00  0.00    -0.135 S 
BRANCH   7  11
ATOM     11  N   UNL A   1      31.633  24.511  23.151  1.00  0.00    -0.325 N 
ATOM     12  O   UNL A   1      33.357  25.529  21.975  1.00  0.00    -0.275 OA
ATOM     13  C   UNL A   1      32.189  25.504  22.362  1.00  0.00     0.224 C 
ATOM     14  H   UNL A   1      30.652  24.496  23.244  1.00  0.00     0.169 HD
BRANCH  13  15
ATOM     15  C   UNL A   1      31.241  26.635  21.994  1.00  0.00     0.105 C 
BRANCH  15  16
ATOM     16  C   UNL A   1      30.543  27.265  23.197  1.00  0.00     0.047 C 
BRANCH  16  17
ATOM     17  C   UNL A   1      29.613  28.380  22.802  1.00  0.00    -0.029 A 
ATOM     18  C   UNL A   1      30.060  29.482  22.068  1.00  0.00     0.007 A 
ATOM     19  C   UNL A   1      28.257  28.325  23.118  1.00  0.00     0.114 A 
ATOM     20  C   UNL A   1      29.148  30.442  21.641  1.00  0.00     0.020 A 
ATOM     21  N   UNL A   1      27.362  29.248  22.707  1.00  0.00    -0.264 NA
ATOM     22  C   UNL A   1      27.817  30.279  21.976  1.00  0.00     0.111 A 
ENDBRANCH  16  17
ENDBRANCH  15  16
ENDBRANCH  13  15
ENDBRANCH   7  11
ENDBRANCH   4   6
ENDBRANCH   3   4
ENDBRANCH   2   3
ENDBRANCH   1   2
BRANCH   1  23
ATOM     23  O   UNL A   1      33.262  29.100  24.855  1.00  0.00    -0.374 OA
BRANCH  23  24
ATOM     24  C   UNL A   1      31.975  29.368  25.412  1.00  0.00     0.202 C 
BRANCH  24  25
ATOM     25  C   UNL A   1      31.747  30.811  25.878  1.00  0.00     0.261 C 
BRANCH  25  26
ATOM     26  O   UNL A   1      32.233  31.063  27.208  1.00  0.00    -0.460 OA
BRANCH  26  27
ATOM     27  C   UNL A   1      33.133  32.075  27.304  1.00  0.00     0.338 C 
ATOM     28  O   UNL A   1      32.937  33.260  27.091  1.00  0.00    -0.246 OA
BRANCH  27  29
ATOM     29  C   UNL A   1      34.416  31.565  27.824  1.00  0.00     0.060 A 
ATOM     30  C   UNL A   1      34.516  30.199  28.114  1.00  0.00     0.016 A 
ATOM     31  C   UNL A   1      35.477  32.427  28.107  1.00  0.00     0.016 A 
ATOM     32  C   UNL A   1      35.674  29.696  28.713  1.00  0.00     0.010 A 
ATOM     33  C   UNL A   1      36.635  31.920  28.706  1.00  0.00     0.010 A 
ATOM     34  C   UNL A   1      36.731  30.557  29.037  1.00  0.00    -0.014 A 
BRANCH  34  35
ATOM     35  C   UNL A   1      37.908  30.054  29.792  1.00  0.00     0.031 A 
ATOM     36  C   UNL A   1      38.198  30.589  31.167  1.00  0.00     0.074 A 
ATOM     37  C   UNL A   1      38.738  29.149  29.243  1.00  0.00     0.049 A 
ATOM     38  N   UNL A   1      39.187  30.296  31.972  1.00  0.00    -0.248 NA
ATOM     39  C   UNL A   1      37.256  31.581  31.707  1.00  0.00     0.031 C 
ATOM     40  C   UNL A   1      38.582  28.564  27.916  1.00  0.00     0.029 A 
ATOM     41  N   UNL A   1      39.900  28.596  29.719  1.00  0.00    -0.354 N 
ATOM     42  C   UNL A   1      38.994  31.071  33.108  1.00  0.00     0.074 A 
ATOM     43  C   UNL A   1      37.806  31.867  32.880  1.00  0.00     0.031 C 
ATOM     44  C   UNL A   1      39.637  27.774  27.657  1.00  0.00     0.029 A 
ATOM     45  C   UNL A   1      40.541  27.794  28.804  1.00  0.00     0.049 A 
ATOM     46  H   UNL A   1      40.241  28.756  30.629  1.00  0.00     0.167 HD
ATOM     47  C   UNL A   1      39.717  31.094  34.252  1.00  0.00     0.034 A 
ATOM     48  C   UNL A   1      41.727  27.159  28.875  1.00  0.00     0.034 A 
ATOM     49  C   UNL A   1      40.878  30.282  34.501  1.00  0.00     0.049 A 
ATOM     50  C   UNL A   1      42.530  27.224  30.145  1.00  0.00     0.074 A 
ATOM     51  C   UNL A   1      41.621  30.179  35.664  1.00  0.00     0.029 A 
ATOM     52  N   UNL A   1      41.471  29.444  33.572  1.00  0.00    -0.354 N 
ATOM     53  N   UNL A   1      42.243  27.831  31.270  1.00  0.00    -0.248 NA
ATOM     54  C   UNL A   1      43.801  26.485  30.170  1.00  0.00     0.031 C 
ATOM     55  C   UNL A   1      42.673  29.284  35.434  1.00  0.00     0.029 A 
ATOM     56  C   UNL A   1      42.582  28.831  34.128  1.00  0.00     0.049 A 
ATOM     57  H   UNL A   1      41.150  29.304  32.651  1.00  0.00     0.167 HD
ATOM     58  C   UNL A   1      43.279  27.524  32.145  1.00  0.00     0.074 A 
ATOM     59  C   UNL A   1      44.194  26.663  31.425  1.00  0.00     0.031 C 
ATOM     60  C   UNL A   1      43.461  27.933  33.425  1.00  0.00     0.034 A 
BRANCH  47  61
ATOM     61  C   UNL A   1      39.226  31.981  35.361  1.00  0.00     0.023 A 
ATOM     62  C   UNL A   1      38.253  31.485  36.251  1.00  0.00     0.012 A 
ATOM     63  C   UNL A   1      39.761  33.267  35.563  1.00  0.00     0.148 A 
ATOM     64  C   UNL A   1      37.804  32.263  37.316  1.00  0.00     0.002 A 
ATOM     65  C   UNL A   1      39.329  34.027  36.645  1.00  0.00     0.091 A 
ATOM     66  F   UNL A   1      40.663  33.732  34.687  1.00  0.00    -0.205 F 
ATOM     67  C   UNL A   1      38.348  33.528  37.519  1.00  0.00     0.022 A 
BRANCH  65  68
ATOM     68  S   UNL A   1      40.019  35.645  37.010  1.00  0.00     0.127 S 
ATOM     69  O   UNL A   1      39.671  36.393  35.803  1.00  0.00    -0.237 OA
ATOM     70  O   UNL A   1      39.276  36.041  38.209  1.00  0.00    -0.237 OA
ATOM     71  O   UNL A   1      41.441  35.422  37.232  1.00  0.00    -0.744 OA
ENDBRANCH  65  68
ENDBRANCH  47  61
BRANCH  48  72
ATOM     72  C   UNL A   1      42.201  26.357  27.714  1.00  0.00     0.023 A 
ATOM     73  C   UNL A   1      43.010  26.967  26.738  1.00  0.00     0.012 A 
ATOM     74  C   UNL A   1      41.875  24.992  27.588  1.00  0.00     0.148 A 
ATOM     75  C   UNL A   1      43.475  26.235  25.645  1.00  0.00     0.002 A 
ATOM     76  C   UNL A   1      42.373  24.259  26.516  1.00  0.00     0.091 A 
ATOM     77  F   UNL A   1      41.079  24.439  28.514  1.00  0.00    -0.205 F 
ATOM     78  C   UNL A   1      43.166  24.881  25.539  1.00  0.00     0.022 A 
BRANCH  76  79
ATOM     79  S   UNL A   1      42.082  22.493  26.355  1.00  0.00     0.127 S 
ATOM     80  O   UNL A   1      40.624  22.434  26.320  1.00  0.00    -0.237 OA
ATOM     81  O   UNL A   1      42.738  22.185  25.084  1.00  0.00    -0.237 OA
ATOM     82  O   UNL A   1      42.714  21.887  27.520  1.00  0.00    -0.744 OA
ENDBRANCH  76  79
ENDBRANCH  48  72
BRANCH  60  83
ATOM     83  C   UNL A   1      44.692  27.452  34.145  1.00  0.00     0.023 A 
ATOM     84  C   UNL A   1      45.853  28.247  34.130  1.00  0.00     0.012 A 
ATOM     85  C   UNL A   1      44.677  26.262  34.900  1.00  0.00     0.148 A 
ATOM     86  C   UNL A   1      46.989  27.859  34.839  1.00  0.00     0.002 A 
ATOM     87  C   UNL A   1      45.802  25.898  35.634  1.00  0.00     0.091 A 
ATOM     88  F   UNL A   1      43.572  25.504  34.884  1.00  0.00    -0.205 F 
ATOM     89  C   UNL A   1      46.960  26.692  35.599  1.00  0.00     0.022 A 
BRANCH  87  90
ATOM     90  S   UNL A   1      45.810  24.454  36.703  1.00  0.00     0.127 S 
ATOM     91  O   UNL A   1      47.179  24.465  37.213  1.00  0.00    -0.237 OA
ATOM     92  O   UNL A   1      44.788  24.786  37.696  1.00  0.00    -0.237 OA
ATOM     93  O   UNL A   1      45.463  23.330  35.843  1.00  0.00    -0.744 OA
ENDBRANCH  87  90
ENDBRANCH  60  83
ENDBRANCH  34  35
ENDBRANCH  27  29
ENDBRANCH  26  27
ENDBRANCH  25  26
ENDBRANCH  24  25
ENDBRANCH  23  24
ENDBRANCH   1  23
TORSDOF 21
ENDMDL
MODEL 2
REMARK VINA RESULT:     -10.4      2.080      8.472
REMARK SMILES O=C(CCc1cccnc1)Nc1ccsc1C(=O)OCCOCCOC(=O)c1ccc(-c2c3nc(c(-c4cccc(S(=O)(=O)[O-])c4F)c4ccc([nH]4)c(-c4cccc(S(=O)(=O)[O-])c4F)c4nc(c(-c5cccc(S(=O)(=O)[O-])c5F)c5ccc2[nH]5)C=C4)C=C3)cc1
REMARK SMILES IDX 21 1 20 2 19 3 17 4 18 5 16 6 12 7 13 8 14 9 15 10 11 11
REMARK SMILES IDX 1 12 2 13 3 15 4 16 5 17 6 18 10 19 7 20 9 21 8 22 22 23
REMARK SMILES IDX 23 24 24 25 25 26 26 27 27 28 28 29 29 30 90 31 30 32 89 33
REMARK SMILES IDX 31 34 32 35 33 36 83 37 34 38 88 39 82 40 84 41 35 42 87 43
REMARK SMILES IDX 81 44 80 45 36 47 68 48 48 49 67 50 49 51 52 52 66 53 85 54
REMARK SMILES IDX 50 55 51 56 65 58 86 59 53 60 37 61 38 62 46 63 39 64 41 65
REMARK SMILES IDX 47 66 40 67 42 68 43 69 44 70 45 71 69 72 70 73 78 74 71 75
REMARK SMILES IDX 73 76 79 77 72 78 74 79 75 80 76 81 77 82 54 83 55 84 63 85
REMARK SMILES IDX 56 86 58 87 64 88 57 89 59 90 60 91 61 92 62 93
REMARK H PARENT 11 14 84 46 52 57
REMARK Flexibility Score: inf
ROOT
ATOM      1  C   UNL A   1      32.038  26.342  26.456  1.00  0.00     0.202 C 
ENDROOT
BRANCH   1   2
ATOM      2  C   UNL A   1      30.547  26.390  26.115  1.00  0.00     0.261 C 
BRANCH   2   3
ATOM      3  O   UNL A   1      30.269  25.514  25.007  1.00  0.00    -0.459 OA
BRANCH   3   4
ATOM      4  C   UNL A   1      30.050  26.170  23.830  1.00  0.00     0.350 C 
ATOM      5  O   UNL A   1      29.013  26.771  23.570  1.00  0.00    -0.245 OA
BRANCH   4   6
ATOM      6  C   UNL A   1      31.287  26.232  23.083  1.00  0.00     0.136 A 
ATOM      7  C   UNL A   1      32.150  25.248  22.617  1.00  0.00     0.066 A 
ATOM      8  C   UNL A   1      33.355  25.839  22.105  1.00  0.00     0.039 A 
ATOM      9  C   UNL A   1      33.346  27.213  22.141  1.00  0.00     0.068 A 
ATOM     10  S   UNL A   1      31.898  27.816  22.792  1.00  0.00    -0.135 S 
BRANCH   7  11
ATOM     11  N   UNL A   1      31.855  23.883  22.604  1.00  0.00    -0.325 N 
ATOM     12  O   UNL A   1      32.628  23.309  24.717  1.00  0.00    -0.275 OA
ATOM     13  C   UNL A   1      32.208  22.993  23.605  1.00  0.00     0.224 C 
ATOM     14  H   UNL A   1      31.361  23.528  21.829  1.00  0.00     0.169 HD
BRANCH  13  15
ATOM     15  C   UNL A   1      32.065  21.524  23.235  1.00  0.00     0.105 C 
BRANCH  15  16
ATOM     16  C   UNL A   1      32.357  20.571  24.391  1.00  0.00     0.047 C 
BRANCH  16  17
ATOM     17  C   UNL A   1      32.981  19.282  23.928  1.00  0.00    -0.029 A 
ATOM     18  C   UNL A   1      34.073  18.716  24.592  1.00  0.00     0.007 A 
ATOM     19  C   UNL A   1      32.457  18.582  22.843  1.00  0.00     0.114 A 
ATOM     20  C   UNL A   1      34.558  17.475  24.191  1.00  0.00     0.020 A 
ATOM     21  N   UNL A   1      32.915  17.376  22.446  1.00  0.00    -0.264 NA
ATOM     22  C   UNL A   1      33.946  16.844  23.125  1.00  0.00     0.111 A 
ENDBRANCH  16  17
ENDBRANCH  15  16
ENDBRANCH  13  15
ENDBRANCH   7  11
ENDBRANCH   4   6
ENDBRANCH   3   4
ENDBRANCH   2   3
ENDBRANCH   1   2
BRANCH   1  23
ATOM     23  O   UNL A   1      32.628  27.624  26.687  1.00  0.00    -0.374 OA
BRANCH  23  24
ATOM     24  C   UNL A   1      31.813  28.602  27.333  1.00  0.00     0.202 C 
BRANCH  24  25
ATOM     25  C   UNL A   1      31.888  30.015  26.744  1.00  0.00     0.261 C 
BRANCH  25  26
ATOM     26  O   UNL A   1      33.232  30.447  26.469  1.00  0.00    -0.460 OA
BRANCH  26  27
ATOM     27  C   UNL A   1      33.705  31.408  27.304  1.00  0.00     0.338 C 
ATOM     28  O   UNL A   1      33.114  32.399  27.699  1.00  0.00    -0.246 OA
BRANCH  27  29
ATOM     29  C   UNL A   1      35.051  31.042  27.786  1.00  0.00     0.060 A 
ATOM     30  C   UNL A   1      35.299  29.701  28.101  1.00  0.00     0.016 A 
ATOM     31  C   UNL A   1      36.027  32.014  28.012  1.00  0.00     0.016 A 
ATOM     32  C   UNL A   1      36.522  29.332  28.667  1.00  0.00     0.010 A 
ATOM     33  C   UNL A   1      37.251  31.640  28.579  1.00  0.00     0.010 A 
ATOM     34  C   UNL A   1      37.497  30.302  28.935  1.00  0.00    -0.014 A 
BRANCH  34  35
ATOM     35  C   UNL A   1      38.743  29.939  29.657  1.00  0.00     0.031 A 
ATOM     36  C   UNL A   1      39.659  28.891  29.088  1.00  0.00     0.074 A 
ATOM     37  C   UNL A   1      39.045  30.516  30.835  1.00  0.00     0.049 A 
ATOM     38  N   UNL A   1      40.776  28.419  29.579  1.00  0.00    -0.248 NA
ATOM     39  C   UNL A   1      39.268  28.295  27.801  1.00  0.00     0.031 C 
ATOM     40  C   UNL A   1      38.238  31.530  31.503  1.00  0.00     0.029 A 
ATOM     41  N   UNL A   1      40.092  30.299  31.695  1.00  0.00    -0.354 N 
ATOM     42  C   UNL A   1      41.219  27.467  28.670  1.00  0.00     0.074 A 
ATOM     43  C   UNL A   1      40.236  27.409  27.608  1.00  0.00     0.031 C 
ATOM     44  C   UNL A   1      38.786  31.812  32.697  1.00  0.00     0.029 A 
ATOM     45  C   UNL A   1      39.987  31.000  32.873  1.00  0.00     0.049 A 
ATOM     46  H   UNL A   1      40.845  29.700  31.488  1.00  0.00     0.167 HD
ATOM     47  C   UNL A   1      42.356  26.733  28.697  1.00  0.00     0.034 A 
ATOM     48  C   UNL A   1      40.762  30.981  33.975  1.00  0.00     0.034 A 
ATOM     49  C   UNL A   1      43.353  26.810  29.730  1.00  0.00     0.049 A 
ATOM     50  C   UNL A   1      42.004  30.132  33.996  1.00  0.00     0.074 A 
ATOM     51  C   UNL A   1      44.576  26.165  29.794  1.00  0.00     0.029 A 
ATOM     52  N   UNL A   1      43.240  27.567  30.885  1.00  0.00    -0.354 N 
ATOM     53  N   UNL A   1      42.492  29.365  33.053  1.00  0.00    -0.248 NA
ATOM     54  C   UNL A   1      42.823  30.178  35.217  1.00  0.00     0.031 C 
ATOM     55  C   UNL A   1      45.199  26.525  30.994  1.00  0.00     0.029 A 
ATOM     56  C   UNL A   1      44.363  27.394  31.676  1.00  0.00     0.049 A 
ATOM     57  H   UNL A   1      42.474  28.144  31.109  1.00  0.00     0.167 HD
ATOM     58  C   UNL A   1      43.688  28.860  33.552  1.00  0.00     0.074 A 
ATOM     59  C   UNL A   1      43.859  29.422  34.876  1.00  0.00     0.031 C 
ATOM     60  C   UNL A   1      44.556  27.997  32.970  1.00  0.00     0.034 A 
BRANCH  47  61
ATOM     61  C   UNL A   1      42.620  25.828  27.527  1.00  0.00     0.023 A 
ATOM     62  C   UNL A   1      43.411  26.304  26.462  1.00  0.00     0.012 A 
ATOM     63  C   UNL A   1      42.148  24.503  27.503  1.00  0.00     0.148 A 
ATOM     64  C   UNL A   1      43.713  25.480  25.380  1.00  0.00     0.002 A 
ATOM     65  C   UNL A   1      42.477  23.678  26.433  1.00  0.00     0.091 A 
ATOM     66  F   UNL A   1      41.372  24.080  28.511  1.00  0.00    -0.205 F 
ATOM     67  C   UNL A   1      43.254  24.165  25.370  1.00  0.00     0.022 A 
BRANCH  65  68
ATOM     68  S   UNL A   1      41.974  21.954  26.369  1.00  0.00     0.127 S 
ATOM     69  O   UNL A   1      40.530  22.075  26.168  1.00  0.00    -0.237 OA
ATOM     70  O   UNL A   1      42.711  21.453  25.207  1.00  0.00    -0.237 OA
ATOM     71  O   UNL A   1      42.391  21.378  27.640  1.00  0.00    -0.744 OA
ENDBRANCH  65  68
ENDBRANCH  47  61
BRANCH  48  72
ATOM     72  C   UNL A   1      40.407  31.841  35.137  1.00  0.00     0.023 A 
ATOM     73  C   UNL A   1      41.118  33.036  35.354  1.00  0.00     0.012 A 
ATOM     74  C   UNL A   1      39.357  31.493  36.009  1.00  0.00     0.148 A 
ATOM     75  C   UNL A   1      40.800  33.864  36.430  1.00  0.00     0.002 A 
ATOM     76  C   UNL A   1      39.020  32.342  37.058  1.00  0.00     0.091 A 
ATOM     77  F   UNL A   1      38.713  30.336  35.801  1.00  0.00    -0.205 F 
ATOM     78  C   UNL A   1      39.746  33.523  37.275  1.00  0.00     0.022 A 
BRANCH  76  79
ATOM     79  S   UNL A   1      37.625  32.008  38.140  1.00  0.00     0.127 S 
ATOM     80  O   UNL A   1      37.385  30.590  37.888  1.00  0.00    -0.237 OA
ATOM     81  O   UNL A   1      38.177  32.309  39.462  1.00  0.00    -0.237 OA
ATOM     82  O   UNL A   1      36.572  32.917  37.708  1.00  0.00    -0.744 OA
ENDBRANCH  76  79
ENDBRANCH  48  72
BRANCH  60  83
ATOM     83  C   UNL A   1      45.782  27.604  33.749  1.00  0.00     0.023 A 
ATOM     84  C   UNL A   1      46.952  28.377  33.628  1.00  0.00     0.012 A 
ATOM     85  C   UNL A   1      45.755  26.527  34.657  1.00  0.00     0.148 A 
ATOM     86  C   UNL A   1      48.085  28.075  34.383  1.00  0.00     0.002 A 
ATOM     87  C   UNL A   1      46.877  26.252  35.434  1.00  0.00     0.091 A 
ATOM     88  F   UNL A   1      44.642  25.785  34.742  1.00  0.00    -0.205 F 
ATOM     89  C   UNL A   1      48.043  27.021  35.293  1.00  0.00     0.022 A 
BRANCH  87  90
ATOM     90  S   UNL A   1      46.870  24.964  36.686  1.00  0.00     0.127 S 
ATOM     91  O   UNL A   1      46.155  23.887  36.005  1.00  0.00    -0.237 OA
ATOM     92  O   UNL A   1      48.297  24.712  36.892  1.00  0.00    -0.237 OA
ATOM     93  O   UNL A   1      46.195  25.544  37.839  1.00  0.00    -0.744 OA
ENDBRANCH  87  90
ENDBRANCH  60  83
ENDBRANCH  34  35
ENDBRANCH  27  29
ENDBRANCH  26  27
ENDBRANCH  25  26
ENDBRANCH  24  25
ENDBRANCH  23  24
ENDBRANCH   1  23
TORSDOF 21
ENDMDL
MODEL 3
REMARK VINA RESULT:     -10.4      4.845     10.230
REMARK SMILES O=C(CCc1cccnc1)Nc1ccsc1C(=O)OCCOCCOC(=O)c1ccc(-c2c3nc(c(-c4cccc(S(=O)(=O)[O-])c4F)c4ccc([nH]4)c(-c4cccc(S(=O)(=O)[O-])c4F)c4nc(c(-c5cccc(S(=O)(=O)[O-])c5F)c5ccc2[nH]5)C=C4)C=C3)cc1
REMARK SMILES IDX 21 1 20 2 19 3 17 4 18 5 16 6 12 7 13 8 14 9 15 10 11 11
REMARK SMILES IDX 1 12 2 13 3 15 4 16 5 17 6 18 10 19 7 20 9 21 8 22 22 23
REMARK SMILES IDX 23 24 24 25 25 26 26 27 27 28 28 29 29 30 90 31 30 32 89 33
REMARK SMILES IDX 31 34 32 35 33 36 83 37 34 38 88 39 82 40 84 41 35 42 87 43
REMARK SMILES IDX 81 44 80 45 36 47 68 48 48 49 67 50 49 51 52 52 66 53 85 54
REMARK SMILES IDX 50 55 51 56 65 58 86 59 53 60 37 61 38 62 46 63 39 64 41 65
REMARK SMILES IDX 47 66 40 67 42 68 43 69 44 70 45 71 69 72 70 73 78 74 71 75
REMARK SMILES IDX 73 76 79 77 72 78 74 79 75 80 76 81 77 82 54 83 55 84 63 85
REMARK SMILES IDX 56 86 58 87 64 88 57 89 59 90 60 91 61 92 62 93
REMARK H PARENT 11 14 84 46 52 57
REMARK Flexibility Score: inf
ROOT
ATOM      1  C   UNL A   1      35.165  23.536  24.428  1.00  0.00     0.202 C 
ENDROOT
BRANCH   1   2
ATOM      2  C   UNL A   1      34.424  24.176  23.252  1.00  0.00     0.261 C 
BRANCH   2   3
ATOM      3  O   UNL A   1      33.678  25.320  23.707  1.00  0.00    -0.459 OA
BRANCH   3   4
ATOM      4  C   UNL A   1      33.271  26.146  22.699  1.00  0.00     0.350 C 
ATOM      5  O   UNL A   1      33.654  26.041  21.539  1.00  0.00    -0.245 OA
BRANCH   4   6
ATOM      6  C   UNL A   1      32.181  26.969  23.172  1.00  0.00     0.136 A 
ATOM      7  C   UNL A   1      30.975  26.663  23.790  1.00  0.00     0.066 A 
ATOM      8  C   UNL A   1      30.144  27.831  23.875  1.00  0.00     0.039 A 
ATOM      9  C   UNL A   1      30.747  28.967  23.391  1.00  0.00     0.068 A 
ATOM     10  S   UNL A   1      32.317  28.651  22.822  1.00  0.00    -0.135 S 
BRANCH   7  11
ATOM     11  N   UNL A   1      30.648  25.405  24.300  1.00  0.00    -0.325 N 
ATOM     12  O   UNL A   1      31.022  25.805  26.557  1.00  0.00    -0.275 OA
ATOM     13  C   UNL A   1      30.794  25.033  25.627  1.00  0.00     0.224 C 
ATOM     14  H   UNL A   1      30.287  24.735  23.674  1.00  0.00     0.169 HD
BRANCH  13  15
ATOM     15  C   UNL A   1      30.675  23.539  25.889  1.00  0.00     0.105 C 
BRANCH  15  16
ATOM     16  C   UNL A   1      31.956  22.908  26.429  1.00  0.00     0.047 C 
BRANCH  16  17
ATOM     17  C   UNL A   1      32.372  21.692  25.646  1.00  0.00    -0.029 A 
ATOM     18  C   UNL A   1      32.020  21.529  24.303  1.00  0.00     0.007 A 
ATOM     19  C   UNL A   1      33.166  20.705  26.226  1.00  0.00     0.114 A 
ATOM     20  C   UNL A   1      32.506  20.439  23.590  1.00  0.00     0.020 A 
ATOM     21  N   UNL A   1      33.647  19.644  25.544  1.00  0.00    -0.264 NA
ATOM     22  C   UNL A   1      33.317  19.532  24.246  1.00  0.00     0.111 A 
ENDBRANCH  16  17
ENDBRANCH  15  16
ENDBRANCH  13  15
ENDBRANCH   7  11
ENDBRANCH   4   6
ENDBRANCH   3   4
ENDBRANCH   2   3
ENDBRANCH   1   2
BRANCH   1  23
ATOM     23  O   UNL A   1      35.523  22.166  24.220  1.00  0.00    -0.374 OA
BRANCH  23  24
ATOM     24  C   UNL A   1      36.884  21.900  23.882  1.00  0.00     0.202 C 
BRANCH  24  25
ATOM     25  C   UNL A   1      37.532  20.730  24.631  1.00  0.00     0.261 C 
BRANCH  25  26
ATOM     26  O   UNL A   1      37.883  21.048  25.989  1.00  0.00    -0.460 OA
BRANCH  26  27
ATOM     27  C   UNL A   1      39.213  21.010  26.258  1.00  0.00     0.338 C 
ATOM     28  O   UNL A   1      39.979  20.079  26.071  1.00  0.00    -0.246 OA
BRANCH  27  29
ATOM     29  C   UNL A   1      39.672  22.330  26.732  1.00  0.00     0.060 A 
ATOM     30  C   UNL A   1      39.049  23.472  26.214  1.00  0.00     0.016 A 
ATOM     31  C   UNL A   1      40.757  22.450  27.602  1.00  0.00     0.016 A 
ATOM     32  C   UNL A   1      39.529  24.741  26.549  1.00  0.00     0.010 A 
ATOM     33  C   UNL A   1      41.234  23.722  27.936  1.00  0.00     0.010 A 
ATOM     34  C   UNL A   1      40.640  24.875  27.392  1.00  0.00    -0.014 A 
BRANCH  34  35
ATOM     35  C   UNL A   1      41.236  26.212  27.647  1.00  0.00     0.031 A 
ATOM     36  C   UNL A   1      42.655  26.488  27.236  1.00  0.00     0.074 A 
ATOM     37  C   UNL A   1      40.528  27.168  28.275  1.00  0.00     0.049 A 
ATOM     38  N   UNL A   1      43.361  27.579  27.394  1.00  0.00    -0.248 NA
ATOM     39  C   UNL A   1      43.376  25.398  26.560  1.00  0.00     0.031 C 
ATOM     40  C   UNL A   1      39.153  27.026  28.739  1.00  0.00     0.029 A 
ATOM     41  N   UNL A   1      40.885  28.435  28.664  1.00  0.00    -0.354 N 
ATOM     42  C   UNL A   1      44.608  27.307  26.848  1.00  0.00     0.074 A 
ATOM     43  C   UNL A   1      44.574  25.939  26.376  1.00  0.00     0.031 C 
ATOM     44  C   UNL A   1      38.795  28.138  29.402  1.00  0.00     0.029 A 
ATOM     45  C   UNL A   1      39.916  29.075  29.402  1.00  0.00     0.049 A 
ATOM     46  H   UNL A   1      41.750  28.846  28.437  1.00  0.00     0.167 HD
ATOM     47  C   UNL A   1      45.675  28.131  26.718  1.00  0.00     0.034 A 
ATOM     48  C   UNL A   1      39.934  30.272  30.019  1.00  0.00     0.034 A 
ATOM     49  C   UNL A   1      45.706  29.501  27.153  1.00  0.00     0.049 A 
ATOM     50  C   UNL A   1      41.143  31.158  29.889  1.00  0.00     0.074 A 
ATOM     51  C   UNL A   1      46.715  30.433  26.985  1.00  0.00     0.029 A 
ATOM     52  N   UNL A   1      44.691  30.133  27.852  1.00  0.00    -0.354 N 
ATOM     53  N   UNL A   1      42.251  30.945  29.223  1.00  0.00    -0.248 NA
ATOM     54  C   UNL A   1      41.088  32.464  30.562  1.00  0.00     0.031 C 
ATOM     55  C   UNL A   1      46.313  31.629  27.592  1.00  0.00     0.029 A 
ATOM     56  C   UNL A   1      45.054  31.439  28.137  1.00  0.00     0.049 A 
ATOM     57  H   UNL A   1      43.836  29.715  28.107  1.00  0.00     0.167 HD
ATOM     58  C   UNL A   1      43.012  32.099  29.371  1.00  0.00     0.074 A 
ATOM     59  C   UNL A   1      42.232  33.016  30.176  1.00  0.00     0.031 C 
ATOM     60  C   UNL A   1      44.253  32.367  28.893  1.00  0.00     0.034 A 
BRANCH  47  61
ATOM     61  C   UNL A   1      46.882  27.589  26.007  1.00  0.00     0.023 A 
ATOM     62  C   UNL A   1      47.004  27.794  24.618  1.00  0.00     0.012 A 
ATOM     63  C   UNL A   1      47.916  26.939  26.706  1.00  0.00     0.148 A 
ATOM     64  C   UNL A   1      48.130  27.343  23.931  1.00  0.00     0.002 A 
ATOM     65  C   UNL A   1      49.048  26.516  26.019  1.00  0.00     0.091 A 
ATOM     66  F   UNL A   1      47.765  26.726  28.022  1.00  0.00    -0.205 F 
ATOM     67  C   UNL A   1      49.154  26.713  24.632  1.00  0.00     0.022 A 
BRANCH  65  68
ATOM     68  S   UNL A   1      50.440  25.747  26.855  1.00  0.00     0.127 S 
ATOM     69  O   UNL A   1      49.872  24.457  27.246  1.00  0.00    -0.237 OA
ATOM     70  O   UNL A   1      51.445  25.674  25.793  1.00  0.00    -0.237 OA
ATOM     71  O   UNL A   1      50.785  26.646  27.948  1.00  0.00    -0.744 OA
ENDBRANCH  65  68
ENDBRANCH  47  61
BRANCH  48  72
ATOM     72  C   UNL A   1      38.736  30.724  30.778  1.00  0.00     0.023 A 
ATOM     73  C   UNL A   1      38.672  30.500  32.166  1.00  0.00     0.012 A 
ATOM     74  C   UNL A   1      37.676  31.395  30.136  1.00  0.00     0.148 A 
ATOM     75  C   UNL A   1      37.564  30.922  32.901  1.00  0.00     0.002 A 
ATOM     76  C   UNL A   1      36.592  31.847  30.881  1.00  0.00     0.091 A 
ATOM     77  F   UNL A   1      37.745  31.572  28.809  1.00  0.00    -0.205 F 
ATOM     78  C   UNL A   1      36.531  31.604  32.262  1.00  0.00     0.022 A 
BRANCH  76  79
ATOM     79  S   UNL A   1      35.261  32.801  30.141  1.00  0.00     0.127 S 
ATOM     80  O   UNL A   1      34.723  31.854  29.169  1.00  0.00    -0.237 OA
ATOM     81  O   UNL A   1      34.390  33.062  31.288  1.00  0.00    -0.237 OA
ATOM     82  O   UNL A   1      35.896  33.989  29.586  1.00  0.00    -0.744 OA
ENDBRANCH  76  79
ENDBRANCH  48  72
BRANCH  60  83
ATOM     83  C   UNL A   1      44.853  33.708  29.215  1.00  0.00     0.023 A 
ATOM     84  C   UNL A   1      45.671  33.841  30.353  1.00  0.00     0.012 A 
ATOM     85  C   UNL A   1      44.677  34.812  28.356  1.00  0.00     0.148 A 
ATOM     86  C   UNL A   1      46.291  35.056  30.644  1.00  0.00     0.002 A 
ATOM     87  C   UNL A   1      45.327  36.011  28.633  1.00  0.00     0.091 A 
ATOM     88  F   UNL A   1      43.875  34.675  27.291  1.00  0.00    -0.205 F 
ATOM     89  C   UNL A   1      46.128  36.136  29.779  1.00  0.00     0.022 A 
BRANCH  87  90
ATOM     90  S   UNL A   1      45.233  37.418  27.520  1.00  0.00     0.127 S 
ATOM     91  O   UNL A   1      43.801  37.478  27.233  1.00  0.00    -0.237 OA
ATOM     92  O   UNL A   1      45.732  38.515  28.351  1.00  0.00    -0.237 OA
ATOM     93  O   UNL A   1      46.093  37.084  26.393  1.00  0.00    -0.744 OA
ENDBRANCH  87  90
ENDBRANCH  60  83
ENDBRANCH  34  35
ENDBRANCH  27  29
ENDBRANCH  26  27
ENDBRANCH  25  26
ENDBRANCH  24  25
ENDBRANCH  23  24
ENDBRANCH   1  23
TORSDOF 21
ENDMDL
