MODEL 1
REMARK VINA RESULT:     -10.6      0.000      0.000
REMARK SMILES C[C@@H]1CCC[C@H]1NC(=O)c1csc(/C=C/C(=O)OCCOCCOC(=O)c2ccc(-c3c4nc(c(-c5cccc(S(=O)(=O)[O-])c5F)c5ccc([nH]5)c(-c5cccc(S(=O)(=O)[O-])c5F)c5nc(c(-c6cccc(S(=O)(=O)[O-])c6F)c6ccc3[nH]6)C=C5)C=C4)cc2)c1
REMARK SMILES IDX 21 1 20 2 19 3 18 4 16 5 17 6 15 7 14 8 13 9 10 10 11 11
REMARK SMILES IDX 90 12 12 13 8 14 7 15 9 17 6 18 1 19 2 20 3 21 4 22 5 23
REMARK SMILES IDX 22 24 23 25 24 26 25 27 26 28 27 29 28 30 89 31 29 32 88 33
REMARK SMILES IDX 30 34 31 35 32 36 82 37 33 38 87 39 81 40 83 41 34 42 86 43
REMARK SMILES IDX 80 44 79 45 35 47 67 48 47 49 66 50 48 51 51 52 65 53 84 54
REMARK SMILES IDX 49 55 50 56 64 58 85 59 52 60 36 61 37 62 45 63 38 64 40 65
REMARK SMILES IDX 46 66 39 67 41 68 42 69 43 70 44 71 68 72 69 73 77 74 70 75
REMARK SMILES IDX 72 76 78 77 71 78 73 79 74 80 75 81 76 82 53 83 54 84 62 85
REMARK SMILES IDX 55 86 57 87 63 88 56 89 58 90 59 91 60 92 61 93
REMARK H PARENT 7 16 83 46 51 57
REMARK Flexibility Score: inf
ROOT
ATOM      1  O   UNL A   1      41.998  21.890  26.432  1.00  0.00    -0.374 OA
ENDROOT
BRANCH   1   2
ATOM      2  C   UNL A   1      40.607  22.174  26.607  1.00  0.00     0.202 C 
BRANCH   2   3
ATOM      3  C   UNL A   1      39.668  21.067  26.123  1.00  0.00     0.261 C 
BRANCH   3   4
ATOM      4  O   UNL A   1      38.508  21.629  25.485  1.00  0.00    -0.460 OA
BRANCH   4   5
ATOM      5  C   UNL A   1      37.598  20.735  25.039  1.00  0.00     0.330 C 
ATOM      6  O   UNL A   1      37.821  19.599  24.647  1.00  0.00    -0.247 OA
BRANCH   5   7
ATOM      7  C   UNL A   1      36.214  21.240  25.141  1.00  0.00     0.095 C 
ATOM      8  C   UNL A   1      35.551  21.957  24.219  1.00  0.00     0.026 C 
BRANCH   8   9
ATOM      9  C   UNL A   1      34.202  22.398  24.418  1.00  0.00     0.028 A 
ATOM     10  C   UNL A   1      32.309  23.522  25.322  1.00  0.00     0.051 A 
ATOM     11  C   UNL A   1      31.785  22.926  24.193  1.00  0.00     0.079 A 
ATOM     12  C   UNL A   1      33.716  23.216  25.427  1.00  0.00     0.033 A 
ATOM     13  S   UNL A   1      32.903  21.929  23.385  1.00  0.00    -0.144 S 
BRANCH  10  14
ATOM     14  C   UNL A   1      31.596  24.436  26.210  1.00  0.00     0.252 C 
ATOM     15  N   UNL A   1      31.483  25.770  25.911  1.00  0.00    -0.349 N 
ATOM     16  H   UNL A   1      31.162  26.329  26.655  1.00  0.00     0.164 HD
ATOM     17  O   UNL A   1      31.076  24.037  27.250  1.00  0.00    -0.269 OA
BRANCH  15  18
ATOM     18  C   UNL A   1      31.753  26.504  24.679  1.00  0.00     0.085 C 
ATOM     19  C   UNL A   1      30.927  28.504  23.356  1.00  0.00     0.010 C 
ATOM     20  C   UNL A   1      31.174  27.926  24.750  1.00  0.00     0.008 C 
ATOM     21  C   UNL A   1      32.251  28.707  25.505  1.00  0.00     0.005 C 
ATOM     22  C   UNL A   1      33.577  28.106  25.052  1.00  0.00     0.002 C 
ATOM     23  C   UNL A   1      33.261  26.713  24.501  1.00  0.00     0.025 C 
ENDBRANCH  15  18
ENDBRANCH  10  14
ENDBRANCH   8   9
ENDBRANCH   5   7
ENDBRANCH   4   5
ENDBRANCH   3   4
ENDBRANCH   2   3
ENDBRANCH   1   2
BRANCH   1  24
ATOM     24  C   UNL A   1      42.565  22.288  25.181  1.00  0.00     0.202 C 
BRANCH  24  25
ATOM     25  C   UNL A   1      44.096  22.378  25.170  1.00  0.00     0.261 C 
BRANCH  25  26
ATOM     26  O   UNL A   1      44.571  23.319  26.150  1.00  0.00    -0.460 OA
BRANCH  26  27
ATOM     27  C   UNL A   1      44.516  24.618  25.771  1.00  0.00     0.338 C 
ATOM     28  O   UNL A   1      44.939  25.098  24.727  1.00  0.00    -0.246 OA
BRANCH  27  29
ATOM     29  C   UNL A   1      43.704  25.394  26.730  1.00  0.00     0.060 A 
ATOM     30  C   UNL A   1      43.882  26.783  26.746  1.00  0.00     0.016 A 
ATOM     31  C   UNL A   1      42.824  24.785  27.630  1.00  0.00     0.016 A 
ATOM     32  C   UNL A   1      43.229  27.561  27.700  1.00  0.00     0.010 A 
ATOM     33  C   UNL A   1      42.172  25.568  28.590  1.00  0.00     0.010 A 
ATOM     34  C   UNL A   1      42.402  26.953  28.654  1.00  0.00    -0.014 A 
BRANCH  34  35
ATOM     35  C   UNL A   1      41.895  27.757  29.793  1.00  0.00     0.031 A 
ATOM     36  C   UNL A   1      40.577  28.471  29.657  1.00  0.00     0.074 A 
ATOM     37  C   UNL A   1      42.586  27.832  30.945  1.00  0.00     0.049 A 
ATOM     38  N   UNL A   1      39.931  29.189  30.537  1.00  0.00    -0.248 NA
ATOM     39  C   UNL A   1      39.897  28.359  28.355  1.00  0.00     0.031 C 
ATOM     40  C   UNL A   1      43.876  27.194  31.199  1.00  0.00     0.029 A 
ATOM     41  N   UNL A   1      42.300  28.492  32.114  1.00  0.00    -0.354 N 
ATOM     42  C   UNL A   1      38.778  29.629  29.896  1.00  0.00     0.074 A 
ATOM     43  C   UNL A   1      38.824  29.113  28.545  1.00  0.00     0.031 C 
ATOM     44  C   UNL A   1      44.282  27.512  32.440  1.00  0.00     0.029 A 
ATOM     45  C   UNL A   1      43.286  28.382  33.065  1.00  0.00     0.049 A 
ATOM     46  H   UNL A   1      41.467  28.998  32.258  1.00  0.00     0.167 HD
ATOM     47  C   UNL A   1      37.763  30.373  30.393  1.00  0.00     0.034 A 
ATOM     48  C   UNL A   1      43.376  28.924  34.296  1.00  0.00     0.034 A 
ATOM     49  C   UNL A   1      37.703  30.867  31.741  1.00  0.00     0.049 A 
ATOM     50  C   UNL A   1      42.237  29.760  34.820  1.00  0.00     0.074 A 
ATOM     51  C   UNL A   1      36.692  31.590  32.350  1.00  0.00     0.029 A 
ATOM     52  N   UNL A   1      38.701  30.697  32.689  1.00  0.00    -0.354 N 
ATOM     53  N   UNL A   1      41.093  30.048  34.248  1.00  0.00    -0.248 NA
ATOM     54  C   UNL A   1      42.385  30.313  36.175  1.00  0.00     0.031 C 
ATOM     55  C   UNL A   1      37.085  31.869  33.663  1.00  0.00     0.029 A 
ATOM     56  C   UNL A   1      38.334  31.308  33.876  1.00  0.00     0.049 A 
ATOM     57  H   UNL A   1      39.544  30.213  32.540  1.00  0.00     0.167 HD
ATOM     58  C   UNL A   1      40.372  30.784  35.183  1.00  0.00     0.074 A 
ATOM     59  C   UNL A   1      41.201  30.880  36.367  1.00  0.00     0.031 C 
ATOM     60  C   UNL A   1      39.143  31.345  35.067  1.00  0.00     0.034 A 
BRANCH  47  61
ATOM     61  C   UNL A   1      36.601  30.661  29.479  1.00  0.00     0.023 A 
ATOM     62  C   UNL A   1      35.940  29.591  28.844  1.00  0.00     0.012 A 
ATOM     63  C   UNL A   1      36.129  31.974  29.293  1.00  0.00     0.148 A 
ATOM     64  C   UNL A   1      34.845  29.823  28.015  1.00  0.00     0.002 A 
ATOM     65  C   UNL A   1      35.012  32.196  28.494  1.00  0.00     0.091 A 
ATOM     66  F   UNL A   1      36.787  32.982  29.884  1.00  0.00    -0.205 F 
ATOM     67  C   UNL A   1      34.374  31.123  27.849  1.00  0.00     0.022 A 
BRANCH  65  68
ATOM     68  S   UNL A   1      34.292  33.827  28.273  1.00  0.00     0.127 S 
ATOM     69  O   UNL A   1      34.469  34.409  29.603  1.00  0.00    -0.237 OA
ATOM     70  O   UNL A   1      35.147  34.407  27.236  1.00  0.00    -0.237 OA
ATOM     71  O   UNL A   1      32.913  33.602  27.864  1.00  0.00    -0.744 OA
ENDBRANCH  65  68
ENDBRANCH  47  61
BRANCH  48  72
ATOM     72  C   UNL A   1      44.570  28.647  35.144  1.00  0.00     0.023 A 
ATOM     73  C   UNL A   1      45.713  29.458  35.018  1.00  0.00     0.012 A 
ATOM     74  C   UNL A   1      44.572  27.598  36.083  1.00  0.00     0.148 A 
ATOM     75  C   UNL A   1      46.848  29.214  35.794  1.00  0.00     0.002 A 
ATOM     76  C   UNL A   1      45.685  27.393  36.890  1.00  0.00     0.091 A 
ATOM     77  F   UNL A   1      43.482  26.821  36.172  1.00  0.00    -0.205 F 
ATOM     78  C   UNL A   1      46.830  28.190  36.736  1.00  0.00     0.022 A 
BRANCH  76  79
ATOM     79  S   UNL A   1      45.696  26.179  38.214  1.00  0.00     0.127 S 
ATOM     80  O   UNL A   1      45.538  24.929  37.475  1.00  0.00    -0.237 OA
ATOM     81  O   UNL A   1      47.020  26.384  38.804  1.00  0.00    -0.237 OA
ATOM     82  O   UNL A   1      44.590  26.548  39.087  1.00  0.00    -0.744 OA
ENDBRANCH  76  79
ENDBRANCH  48  72
BRANCH  60  83
ATOM     83  C   UNL A   1      38.598  32.093  36.256  1.00  0.00     0.023 A 
ATOM     84  C   UNL A   1      38.729  33.493  36.317  1.00  0.00     0.012 A 
ATOM     85  C   UNL A   1      37.890  31.419  37.271  1.00  0.00     0.148 A 
ATOM     86  C   UNL A   1      38.188  34.211  37.384  1.00  0.00     0.002 A 
ATOM     87  C   UNL A   1      37.316  32.146  38.309  1.00  0.00     0.091 A 
ATOM     88  F   UNL A   1      37.793  30.083  37.208  1.00  0.00    -0.205 F 
ATOM     89  C   UNL A   1      37.473  33.539  38.373  1.00  0.00     0.022 A 
BRANCH  87  90
ATOM     90  S   UNL A   1      36.301  31.369  39.573  1.00  0.00     0.127 S 
ATOM     91  O   UNL A   1      35.313  32.411  39.846  1.00  0.00    -0.237 OA
ATOM     92  O   UNL A   1      35.774  30.196  38.877  1.00  0.00    -0.237 OA
ATOM     93  O   UNL A   1      37.208  31.058  40.671  1.00  0.00    -0.744 OA
ENDBRANCH  87  90
ENDBRANCH  60  83
ENDBRANCH  34  35
ENDBRANCH  27  29
ENDBRANCH  26  27
ENDBRANCH  25  26
ENDBRANCH  24  25
ENDBRANCH   1  24
TORSDOF 20
ENDMDL
MODEL 2
REMARK VINA RESULT:     -10.2      5.405      6.730
REMARK SMILES C[C@@H]1CCC[C@H]1NC(=O)c1csc(/C=C/C(=O)OCCOCCOC(=O)c2ccc(-c3c4nc(c(-c5cccc(S(=O)(=O)[O-])c5F)c5ccc([nH]5)c(-c5cccc(S(=O)(=O)[O-])c5F)c5nc(c(-c6cccc(S(=O)(=O)[O-])c6F)c6ccc3[nH]6)C=C5)C=C4)cc2)c1
REMARK SMILES IDX 21 1 20 2 19 3 18 4 16 5 17 6 15 7 14 8 13 9 10 10 11 11
REMARK SMILES IDX 90 12 12 13 8 14 7 15 9 17 6 18 1 19 2 20 3 21 4 22 5 23
REMARK SMILES IDX 22 24 23 25 24 26 25 27 26 28 27 29 28 30 89 31 29 32 88 33
REMARK SMILES IDX 30 34 31 35 32 36 82 37 33 38 87 39 81 40 83 41 34 42 86 43
REMARK SMILES IDX 80 44 79 45 35 47 67 48 47 49 66 50 48 51 51 52 65 53 84 54
REMARK SMILES IDX 49 55 50 56 64 58 85 59 52 60 36 61 37 62 45 63 38 64 40 65
REMARK SMILES IDX 46 66 39 67 41 68 42 69 43 70 44 71 68 72 69 73 77 74 70 75
REMARK SMILES IDX 72 76 78 77 71 78 73 79 74 80 75 81 76 82 53 83 54 84 62 85
REMARK SMILES IDX 55 86 57 87 63 88 56 89 58 90 59 91 60 92 61 93
REMARK H PARENT 7 16 83 46 51 57
REMARK Flexibility Score: inf
ROOT
ATOM      1  O   UNL A   1      40.871  21.365  25.753  1.00  0.00    -0.374 OA
ENDROOT
BRANCH   1   2
ATOM      2  C   UNL A   1      39.986  21.820  26.781  1.00  0.00     0.202 C 
BRANCH   2   3
ATOM      3  C   UNL A   1      38.651  22.364  26.272  1.00  0.00     0.261 C 
BRANCH   3   4
ATOM      4  O   UNL A   1      38.375  21.876  24.947  1.00  0.00    -0.460 OA
BRANCH   4   5
ATOM      5  C   UNL A   1      37.491  20.857  24.874  1.00  0.00     0.330 C 
ATOM      6  O   UNL A   1      37.747  19.662  24.921  1.00  0.00    -0.247 OA
BRANCH   5   7
ATOM      7  C   UNL A   1      36.093  21.326  24.806  1.00  0.00     0.095 C 
ATOM      8  C   UNL A   1      35.147  21.168  25.745  1.00  0.00     0.026 C 
BRANCH   8   9
ATOM      9  C   UNL A   1      33.814  21.667  25.579  1.00  0.00     0.028 A 
ATOM     10  C   UNL A   1      31.767  22.810  25.992  1.00  0.00     0.051 A 
ATOM     11  C   UNL A   1      31.594  22.356  24.701  1.00  0.00     0.079 A 
ATOM     12  C   UNL A   1      33.066  22.413  26.479  1.00  0.00     0.033 A 
ATOM     13  S   UNL A   1      32.877  21.377  24.161  1.00  0.00    -0.144 S 
BRANCH  10  14
ATOM     14  C   UNL A   1      30.844  23.675  26.721  1.00  0.00     0.252 C 
ATOM     15  N   UNL A   1      30.874  25.037  26.560  1.00  0.00    -0.349 N 
ATOM     16  H   UNL A   1      30.356  25.538  27.232  1.00  0.00     0.164 HD
ATOM     17  O   UNL A   1      30.013  23.208  27.497  1.00  0.00    -0.269 OA
BRANCH  15  18
ATOM     18  C   UNL A   1      31.539  25.872  25.566  1.00  0.00     0.085 C 
ATOM     19  C   UNL A   1      31.175  27.980  24.203  1.00  0.00     0.010 C 
ATOM     20  C   UNL A   1      30.933  27.284  25.544  1.00  0.00     0.008 C 
ATOM     21  C   UNL A   1      31.655  27.995  26.689  1.00  0.00     0.005 C 
ATOM     22  C   UNL A   1      33.072  27.431  26.684  1.00  0.00     0.002 C 
ATOM     23  C   UNL A   1      33.007  26.091  25.947  1.00  0.00     0.025 C 
ENDBRANCH  15  18
ENDBRANCH  10  14
ENDBRANCH   8   9
ENDBRANCH   5   7
ENDBRANCH   4   5
ENDBRANCH   3   4
ENDBRANCH   2   3
ENDBRANCH   1   2
BRANCH   1  24
ATOM     24  C   UNL A   1      42.158  20.917  26.188  1.00  0.00     0.202 C 
BRANCH  24  25
ATOM     25  C   UNL A   1      43.340  21.717  25.628  1.00  0.00     0.261 C 
BRANCH  25  26
ATOM     26  O   UNL A   1      42.930  23.033  25.212  1.00  0.00    -0.460 OA
BRANCH  26  27
ATOM     27  C   UNL A   1      43.940  23.914  25.021  1.00  0.00     0.338 C 
ATOM     28  O   UNL A   1      44.839  23.832  24.193  1.00  0.00    -0.246 OA
BRANCH  27  29
ATOM     29  C   UNL A   1      43.729  25.119  25.848  1.00  0.00     0.060 A 
ATOM     30  C   UNL A   1      43.449  26.317  25.179  1.00  0.00     0.016 A 
ATOM     31  C   UNL A   1      43.851  25.100  27.241  1.00  0.00     0.016 A 
ATOM     32  C   UNL A   1      43.349  27.509  25.892  1.00  0.00     0.010 A 
ATOM     33  C   UNL A   1      43.755  26.300  27.955  1.00  0.00     0.010 A 
ATOM     34  C   UNL A   1      43.542  27.515  27.280  1.00  0.00    -0.014 A 
BRANCH  34  35
ATOM     35  C   UNL A   1      43.656  28.811  27.992  1.00  0.00     0.031 A 
ATOM     36  C   UNL A   1      42.433  29.398  28.645  1.00  0.00     0.074 A 
ATOM     37  C   UNL A   1      44.838  29.449  28.080  1.00  0.00     0.049 A 
ATOM     38  N   UNL A   1      42.317  30.493  29.350  1.00  0.00    -0.248 NA
ATOM     39  C   UNL A   1      41.174  28.652  28.479  1.00  0.00     0.031 C 
ATOM     40  C   UNL A   1      46.091  28.988  27.486  1.00  0.00     0.029 A 
ATOM     41  N   UNL A   1      45.169  30.630  28.695  1.00  0.00    -0.354 N 
ATOM     42  C   UNL A   1      40.974  30.578  29.701  1.00  0.00     0.074 A 
ATOM     43  C   UNL A   1      40.311  29.435  29.113  1.00  0.00     0.031 C 
ATOM     44  C   UNL A   1      47.053  29.889  27.747  1.00  0.00     0.029 A 
ATOM     45  C   UNL A   1      46.483  30.992  28.519  1.00  0.00     0.049 A 
ATOM     46  H   UNL A   1      44.527  31.167  29.214  1.00  0.00     0.167 HD
ATOM     47  C   UNL A   1      40.354  31.508  30.463  1.00  0.00     0.034 A 
ATOM     48  C   UNL A   1      47.148  32.091  28.930  1.00  0.00     0.034 A 
ATOM     49  C   UNL A   1      41.014  32.633  31.068  1.00  0.00     0.049 A 
ATOM     50  C   UNL A   1      46.430  33.119  29.766  1.00  0.00     0.074 A 
ATOM     51  C   UNL A   1      40.478  33.603  31.896  1.00  0.00     0.029 A 
ATOM     52  N   UNL A   1      42.355  32.942  30.903  1.00  0.00    -0.354 N 
ATOM     53  N   UNL A   1      45.194  33.110  30.205  1.00  0.00    -0.248 NA
ATOM     54  C   UNL A   1      47.210  34.289  30.198  1.00  0.00     0.031 C 
ATOM     55  C   UNL A   1      41.494  34.509  32.221  1.00  0.00     0.029 A 
ATOM     56  C   UNL A   1      42.664  34.094  31.607  1.00  0.00     0.049 A 
ATOM     57  H   UNL A   1      42.994  32.422  30.366  1.00  0.00     0.167 HD
ATOM     58  C   UNL A   1      45.058  34.250  30.990  1.00  0.00     0.074 A 
ATOM     59  C   UNL A   1      46.344  34.916  30.984  1.00  0.00     0.031 C 
ATOM     60  C   UNL A   1      43.963  34.715  31.642  1.00  0.00     0.034 A 
BRANCH  47  61
ATOM     61  C   UNL A   1      38.883  31.323  30.727  1.00  0.00     0.023 A 
ATOM     62  C   UNL A   1      38.472  30.490  31.787  1.00  0.00     0.012 A 
ATOM     63  C   UNL A   1      37.915  32.008  29.969  1.00  0.00     0.148 A 
ATOM     64  C   UNL A   1      37.119  30.321  32.074  1.00  0.00     0.002 A 
ATOM     65  C   UNL A   1      36.568  31.864  30.283  1.00  0.00     0.091 A 
ATOM     66  F   UNL A   1      38.325  32.775  28.947  1.00  0.00    -0.205 F 
ATOM     67  C   UNL A   1      36.168  31.015  31.330  1.00  0.00     0.022 A 
BRANCH  65  68
ATOM     68  S   UNL A   1      35.275  32.769  29.426  1.00  0.00     0.127 S 
ATOM     69  O   UNL A   1      35.173  32.021  28.173  1.00  0.00    -0.237 OA
ATOM     70  O   UNL A   1      34.132  32.606  30.326  1.00  0.00    -0.237 OA
ATOM     71  O   UNL A   1      35.758  34.137  29.304  1.00  0.00    -0.744 OA
ENDBRANCH  65  68
ENDBRANCH  47  61
BRANCH  48  72
ATOM     72  C   UNL A   1      48.593  32.252  28.602  1.00  0.00     0.023 A 
ATOM     73  C   UNL A   1      49.565  31.803  29.516  1.00  0.00     0.012 A 
ATOM     74  C   UNL A   1      49.007  32.831  27.387  1.00  0.00     0.148 A 
ATOM     75  C   UNL A   1      50.925  31.950  29.238  1.00  0.00     0.002 A 
ATOM     76  C   UNL A   1      50.363  32.926  27.093  1.00  0.00     0.091 A 
ATOM     77  F   UNL A   1      48.067  33.275  26.541  1.00  0.00    -0.205 F 
ATOM     78  C   UNL A   1      51.323  32.501  28.024  1.00  0.00     0.022 A 
BRANCH  76  79
ATOM     79  S   UNL A   1      50.956  33.505  25.500  1.00  0.00     0.127 S 
ATOM     80  O   UNL A   1      51.160  32.250  24.782  1.00  0.00    -0.237 OA
ATOM     81  O   UNL A   1      49.828  34.310  25.028  1.00  0.00    -0.237 OA
ATOM     82  O   UNL A   1      52.158  34.276  25.791  1.00  0.00    -0.744 OA
ENDBRANCH  76  79
ENDBRANCH  48  72
BRANCH  60  83
ATOM     83  C   UNL A   1      44.106  35.990  32.431  1.00  0.00     0.023 A 
ATOM     84  C   UNL A   1      44.517  35.933  33.777  1.00  0.00     0.012 A 
ATOM     85  C   UNL A   1      43.908  37.244  31.820  1.00  0.00     0.148 A 
ATOM     86  C   UNL A   1      44.704  37.105  34.511  1.00  0.00     0.002 A 
ATOM     87  C   UNL A   1      44.139  38.408  32.546  1.00  0.00     0.091 A 
ATOM     88  F   UNL A   1      43.496  37.279  30.545  1.00  0.00    -0.205 F 
ATOM     89  C   UNL A   1      44.527  38.340  33.894  1.00  0.00     0.022 A 
BRANCH  87  90
ATOM     90  S   UNL A   1      44.022  40.039  31.800  1.00  0.00     0.127 S 
ATOM     91  O   UNL A   1      42.606  40.352  31.984  1.00  0.00    -0.237 OA
ATOM     92  O   UNL A   1      44.933  40.830  32.628  1.00  0.00    -0.237 OA
ATOM     93  O   UNL A   1      44.457  39.874  30.419  1.00  0.00    -0.744 OA
ENDBRANCH  87  90
ENDBRANCH  60  83
ENDBRANCH  34  35
ENDBRANCH  27  29
ENDBRANCH  26  27
ENDBRANCH  25  26
ENDBRANCH  24  25
ENDBRANCH   1  24
TORSDOF 20
ENDMDL
MODEL 3
REMARK VINA RESULT:     -10.2      5.117     10.585
REMARK SMILES C[C@@H]1CCC[C@H]1NC(=O)c1csc(/C=C/C(=O)OCCOCCOC(=O)c2ccc(-c3c4nc(c(-c5cccc(S(=O)(=O)[O-])c5F)c5ccc([nH]5)c(-c5cccc(S(=O)(=O)[O-])c5F)c5nc(c(-c6cccc(S(=O)(=O)[O-])c6F)c6ccc3[nH]6)C=C5)C=C4)cc2)c1
REMARK SMILES IDX 21 1 20 2 19 3 18 4 16 5 17 6 15 7 14 8 13 9 10 10 11 11
REMARK SMILES IDX 90 12 12 13 8 14 7 15 9 17 6 18 1 19 2 20 3 21 4 22 5 23
REMARK SMILES IDX 22 24 23 25 24 26 25 27 26 28 27 29 28 30 89 31 29 32 88 33
REMARK SMILES IDX 30 34 31 35 32 36 82 37 33 38 87 39 81 40 83 41 34 42 86 43
REMARK SMILES IDX 80 44 79 45 35 47 67 48 47 49 66 50 48 51 51 52 65 53 84 54
REMARK SMILES IDX 49 55 50 56 64 58 85 59 52 60 36 61 37 62 45 63 38 64 40 65
REMARK SMILES IDX 46 66 39 67 41 68 42 69 43 70 44 71 68 72 69 73 77 74 70 75
REMARK SMILES IDX 72 76 78 77 71 78 73 79 74 80 75 81 76 82 53 83 54 84 62 85
REMARK SMILES IDX 55 86 57 87 63 88 56 89 58 90 59 91 60 92 61 93
REMARK H PARENT 7 16 83 46 51 57
REMARK Flexibility Score: inf
ROOT
ATOM      1  O   UNL A   1      52.824  29.016  25.427  1.00  0.00    -0.374 OA
ENDROOT
BRANCH   1   2
ATOM      2  C   UNL A   1      52.368  28.874  26.775  1.00  0.00     0.202 C 
BRANCH   2   3
ATOM      3  C   UNL A   1      51.109  28.019  26.932  1.00  0.00     0.261 C 
BRANCH   3   4
ATOM      4  O   UNL A   1      51.356  26.909  27.814  1.00  0.00    -0.460 OA
BRANCH   4   5
ATOM      5  C   UNL A   1      50.718  25.761  27.499  1.00  0.00     0.330 C 
ATOM      6  O   UNL A   1      51.197  24.793  26.925  1.00  0.00    -0.247 OA
BRANCH   5   7
ATOM      7  C   UNL A   1      49.330  25.729  28.000  1.00  0.00     0.095 C 
ATOM      8  C   UNL A   1      48.395  24.809  27.717  1.00  0.00     0.026 C 
BRANCH   8   9
ATOM      9  C   UNL A   1      47.071  24.871  28.261  1.00  0.00     0.028 A 
ATOM     10  C   UNL A   1      45.194  25.569  29.547  1.00  0.00     0.051 A 
ATOM     11  C   UNL A   1      44.644  24.608  28.724  1.00  0.00     0.079 A 
ATOM     12  C   UNL A   1      46.599  25.718  29.254  1.00  0.00     0.033 A 
ATOM     13  S   UNL A   1      45.799  23.824  27.750  1.00  0.00    -0.144 S 
BRANCH  10  14
ATOM     14  C   UNL A   1      44.454  26.411  30.483  1.00  0.00     0.252 C 
ATOM     15  N   UNL A   1      44.380  26.093  31.815  1.00  0.00    -0.349 N 
ATOM     16  H   UNL A   1      43.706  26.603  32.320  1.00  0.00     0.164 HD
ATOM     17  O   UNL A   1      43.878  27.429  30.105  1.00  0.00    -0.269 OA
BRANCH  15  18
ATOM     18  C   UNL A   1      45.130  25.129  32.616  1.00  0.00     0.085 C 
ATOM     19  C   UNL A   1      46.234  24.891  34.886  1.00  0.00     0.010 C 
ATOM     20  C   UNL A   1      45.058  25.485  34.109  1.00  0.00     0.008 C 
ATOM     21  C   UNL A   1      43.724  24.882  34.551  1.00  0.00     0.005 C 
ATOM     22  C   UNL A   1      43.574  23.599  33.741  1.00  0.00     0.002 C 
ATOM     23  C   UNL A   1      44.487  23.742  32.521  1.00  0.00     0.025 C 
ENDBRANCH  15  18
ENDBRANCH  10  14
ENDBRANCH   8   9
ENDBRANCH   5   7
ENDBRANCH   4   5
ENDBRANCH   3   4
ENDBRANCH   2   3
ENDBRANCH   1   2
BRANCH   1  24
ATOM     24  C   UNL A   1      51.814  29.282  24.450  1.00  0.00     0.202 C 
BRANCH  24  25
ATOM     25  C   UNL A   1      51.710  28.238  23.331  1.00  0.00     0.261 C 
BRANCH  25  26
ATOM     26  O   UNL A   1      50.505  28.411  22.565  1.00  0.00    -0.460 OA
BRANCH  26  27
ATOM     27  C   UNL A   1      49.811  27.274  22.321  1.00  0.00     0.338 C 
ATOM     28  O   UNL A   1      50.172  26.326  21.635  1.00  0.00    -0.246 OA
BRANCH  27  29
ATOM     29  C   UNL A   1      48.588  27.236  23.149  1.00  0.00     0.060 A 
ATOM     30  C   UNL A   1      47.534  28.079  22.777  1.00  0.00     0.016 A 
ATOM     31  C   UNL A   1      48.484  26.436  24.291  1.00  0.00     0.016 A 
ATOM     32  C   UNL A   1      46.397  28.172  23.577  1.00  0.00     0.010 A 
ATOM     33  C   UNL A   1      47.342  26.534  25.096  1.00  0.00     0.010 A 
ATOM     34  C   UNL A   1      46.312  27.431  24.763  1.00  0.00    -0.014 A 
BRANCH  34  35
ATOM     35  C   UNL A   1      45.205  27.705  25.712  1.00  0.00     0.031 A 
ATOM     36  C   UNL A   1      45.260  28.945  26.563  1.00  0.00     0.074 A 
ATOM     37  C   UNL A   1      44.151  26.874  25.800  1.00  0.00     0.049 A 
ATOM     38  N   UNL A   1      44.386  29.397  27.424  1.00  0.00    -0.248 NA
ATOM     39  C   UNL A   1      46.460  29.787  26.426  1.00  0.00     0.031 C 
ATOM     40  C   UNL A   1      43.984  25.639  25.037  1.00  0.00     0.029 A 
ATOM     41  N   UNL A   1      43.027  26.941  26.584  1.00  0.00    -0.354 N 
ATOM     42  C   UNL A   1      44.933  30.565  27.942  1.00  0.00     0.074 A 
ATOM     43  C   UNL A   1      46.224  30.742  27.315  1.00  0.00     0.031 C 
ATOM     44  C   UNL A   1      42.832  25.051  25.407  1.00  0.00     0.029 A 
ATOM     45  C   UNL A   1      42.186  25.863  26.437  1.00  0.00     0.049 A 
ATOM     46  H   UNL A   1      42.839  27.691  27.195  1.00  0.00     0.167 HD
ATOM     47  C   UNL A   1      44.399  31.426  28.840  1.00  0.00     0.034 A 
ATOM     48  C   UNL A   1      41.031  25.565  27.065  1.00  0.00     0.034 A 
ATOM     49  C   UNL A   1      43.106  31.266  29.448  1.00  0.00     0.049 A 
ATOM     50  C   UNL A   1      40.466  26.534  28.070  1.00  0.00     0.074 A 
ATOM     51  C   UNL A   1      42.460  32.111  30.334  1.00  0.00     0.029 A 
ATOM     52  N   UNL A   1      42.265  30.184  29.240  1.00  0.00    -0.354 N 
ATOM     53  N   UNL A   1      40.930  27.702  28.443  1.00  0.00    -0.248 NA
ATOM     54  C   UNL A   1      39.195  26.162  28.712  1.00  0.00     0.031 C 
ATOM     55  C   UNL A   1      41.232  31.531  30.672  1.00  0.00     0.029 A 
ATOM     56  C   UNL A   1      41.109  30.333  29.986  1.00  0.00     0.049 A 
ATOM     57  H   UNL A   1      42.460  29.422  28.649  1.00  0.00     0.167 HD
ATOM     58  C   UNL A   1      39.995  28.219  29.334  1.00  0.00     0.074 A 
ATOM     59  C   UNL A   1      38.927  27.246  29.429  1.00  0.00     0.031 C 
ATOM     60  C   UNL A   1      40.025  29.386  30.026  1.00  0.00     0.034 A 
BRANCH  47  61
ATOM     61  C   UNL A   1      45.199  32.653  29.187  1.00  0.00     0.023 A 
ATOM     62  C   UNL A   1      46.234  32.556  30.140  1.00  0.00     0.012 A 
ATOM     63  C   UNL A   1      44.969  33.881  28.538  1.00  0.00     0.148 A 
ATOM     64  C   UNL A   1      47.010  33.668  30.461  1.00  0.00     0.002 A 
ATOM     65  C   UNL A   1      45.771  34.977  28.837  1.00  0.00     0.091 A 
ATOM     66  F   UNL A   1      43.963  33.960  27.655  1.00  0.00    -0.205 F 
ATOM     67  C   UNL A   1      46.786  34.874  29.803  1.00  0.00     0.022 A 
BRANCH  65  68
ATOM     68  S   UNL A   1      45.602  36.554  27.993  1.00  0.00     0.127 S 
ATOM     69  O   UNL A   1      44.250  36.454  27.448  1.00  0.00    -0.237 OA
ATOM     70  O   UNL A   1      45.747  37.511  29.091  1.00  0.00    -0.237 OA
ATOM     71  O   UNL A   1      46.675  36.596  27.009  1.00  0.00    -0.744 OA
ENDBRANCH  65  68
ENDBRANCH  47  61
BRANCH  48  72
ATOM     72  C   UNL A   1      40.300  24.313  26.720  1.00  0.00     0.023 A 
ATOM     73  C   UNL A   1      38.984  24.392  26.226  1.00  0.00     0.012 A 
ATOM     74  C   UNL A   1      40.905  23.049  26.863  1.00  0.00     0.148 A 
ATOM     75  C   UNL A   1      38.273  23.234  25.905  1.00  0.00     0.002 A 
ATOM     76  C   UNL A   1      40.211  21.904  26.491  1.00  0.00     0.091 A 
ATOM     77  F   UNL A   1      42.150  22.993  27.358  1.00  0.00    -0.205 F 
ATOM     78  C   UNL A   1      38.890  21.992  26.027  1.00  0.00     0.022 A 
BRANCH  76  79
ATOM     79  S   UNL A   1      40.977  20.279  26.497  1.00  0.00     0.127 S 
ATOM     80  O   UNL A   1      42.236  20.538  25.804  1.00  0.00    -0.237 OA
ATOM     81  O   UNL A   1      41.106  20.008  27.930  1.00  0.00    -0.237 OA
ATOM     82  O   UNL A   1      40.037  19.405  25.807  1.00  0.00    -0.744 OA
ENDBRANCH  76  79
ENDBRANCH  48  72
BRANCH  60  83
ATOM     83  C   UNL A   1      38.860  29.696  30.929  1.00  0.00     0.023 A 
ATOM     84  C   UNL A   1      38.792  29.106  32.205  1.00  0.00     0.012 A 
ATOM     85  C   UNL A   1      37.877  30.629  30.545  1.00  0.00     0.148 A 
ATOM     86  C   UNL A   1      37.748  29.418  33.077  1.00  0.00     0.002 A 
ATOM     87  C   UNL A   1      36.864  30.969  31.436  1.00  0.00     0.091 A 
ATOM     88  F   UNL A   1      37.945  31.166  29.318  1.00  0.00    -0.205 F 
ATOM     89  C   UNL A   1      36.792  30.357  32.697  1.00  0.00     0.022 A 
BRANCH  87  90
ATOM     90  S   UNL A   1      35.645  32.235  31.061  1.00  0.00     0.127 S 
ATOM     91  O   UNL A   1      34.721  32.104  32.186  1.00  0.00    -0.237 OA
ATOM     92  O   UNL A   1      36.448  33.458  31.072  1.00  0.00    -0.237 OA
ATOM     93  O   UNL A   1      35.101  31.886  29.755  1.00  0.00    -0.744 OA
ENDBRANCH  87  90
ENDBRANCH  60  83
ENDBRANCH  34  35
ENDBRANCH  27  29
ENDBRANCH  26  27
ENDBRANCH  25  26
ENDBRANCH  24  25
ENDBRANCH   1  24
TORSDOF 20
ENDMDL
