MODEL 1
REMARK VINA RESULT:      -9.9      0.000      0.000
REMARK SMILES CCOc1ncnc(N[C@@H]2C=C[C@H](C(=O)OCCOCCOC(=O)c3ccc(-c4c5nc(c(-c6cccc(S(=O)(=O)[O-])c6F)c6ccc([nH]6)c(-c6cccc(S(=O)(=O)[O-])c6F)c6nc(c(-c7cccc(S(=O)(=O)[O-])c7F)c7ccc4[nH]7)C=C6)C=C5)cc3)C2)c1C
REMARK SMILES IDX 18 1 17 2 16 3 14 4 15 5 13 6 10 7 11 8 88 9 12 10 9 11 8 13
REMARK SMILES IDX 4 14 5 15 89 16 6 17 90 18 7 19 3 20 2 21 1 22 19 23 20 24
REMARK SMILES IDX 21 25 22 26 23 27 24 28 25 29 26 30 87 31 27 32 86 33 28 34
REMARK SMILES IDX 29 35 30 36 80 37 31 38 85 39 79 40 81 41 32 42 84 43 78 44
REMARK SMILES IDX 77 45 33 47 65 48 45 49 64 50 46 51 49 52 63 53 82 54 47 55
REMARK SMILES IDX 48 56 62 58 83 59 50 60 34 61 35 62 43 63 36 64 38 65 44 66
REMARK SMILES IDX 37 67 39 68 40 69 41 70 42 71 66 72 67 73 75 74 68 75 70 76
REMARK SMILES IDX 76 77 69 78 71 79 72 80 73 81 74 82 51 83 52 84 60 85 53 86
REMARK SMILES IDX 55 87 61 88 54 89 56 90 57 91 58 92 59 93
REMARK H PARENT 9 12 81 46 49 57
REMARK Flexibility Score: inf
ROOT
ATOM      1  C   UNL A   1      35.411  32.705  28.375  1.00  0.00     0.202 C 
ENDROOT
BRANCH   1   2
ATOM      2  C   UNL A   1      34.247  31.901  27.791  1.00  0.00     0.261 C 
BRANCH   2   3
ATOM      3  O   UNL A   1      34.342  30.528  28.196  1.00  0.00    -0.463 OA
BRANCH   3   4
ATOM      4  C   UNL A   1      33.976  29.612  27.258  1.00  0.00     0.312 C 
ATOM      5  O   UNL A   1      34.723  28.752  26.801  1.00  0.00    -0.252 OA
BRANCH   4   6
ATOM      6  C   UNL A   1      32.467  29.624  26.996  1.00  0.00     0.124 C 
ATOM      7  C   UNL A   1      31.434  27.448  26.557  1.00  0.00     0.104 C 
ATOM      8  C   UNL A   1      31.440  28.305  25.339  1.00  0.00    -0.006 C 
ATOM      9  C   UNL A   1      31.781  28.434  27.680  1.00  0.00     0.048 C 
ATOM     10  C   UNL A   1      32.010  29.495  25.572  1.00  0.00    -0.014 C 
BRANCH   7  11
ATOM     11  N   UNL A   1      32.359  26.336  26.521  1.00  0.00    -0.363 N 
ATOM     12  H   UNL A   1      33.310  26.558  26.646  1.00  0.00     0.162 HD
BRANCH  11  13
ATOM     13  C   UNL A   1      32.068  24.996  26.332  1.00  0.00     0.136 A 
ATOM     14  C   UNL A   1      32.512  22.897  25.389  1.00  0.00     0.221 A 
ATOM     15  N   UNL A   1      31.485  22.320  26.030  1.00  0.00    -0.201 NA
ATOM     16  C   UNL A   1      32.841  24.241  25.462  1.00  0.00     0.054 A 
ATOM     17  C   UNL A   1      30.804  23.142  26.824  1.00  0.00     0.228 A 
ATOM     18  C   UNL A   1      33.983  24.820  24.687  1.00  0.00     0.054 C 
ATOM     19  N   UNL A   1      31.035  24.451  26.988  1.00  0.00    -0.219 NA
BRANCH  14  20
ATOM     20  O   UNL A   1      33.213  22.089  24.525  1.00  0.00    -0.478 OA
BRANCH  20  21
ATOM     21  C   UNL A   1      34.104  21.227  25.247  1.00  0.00     0.228 C 
ATOM     22  C   UNL A   1      35.529  21.517  24.806  1.00  0.00     0.049 C 
ENDBRANCH  20  21
ENDBRANCH  14  20
ENDBRANCH  11  13
ENDBRANCH   7  11
ENDBRANCH   4   6
ENDBRANCH   3   4
ENDBRANCH   2   3
ENDBRANCH   1   2
BRANCH   1  23
ATOM     23  O   UNL A   1      35.071  33.973  28.942  1.00  0.00    -0.374 OA
BRANCH  23  24
ATOM     24  C   UNL A   1      33.984  34.690  28.359  1.00  0.00     0.202 C 
BRANCH  24  25
ATOM     25  C   UNL A   1      33.174  35.605  29.287  1.00  0.00     0.261 C 
BRANCH  25  26
ATOM     26  O   UNL A   1      32.592  34.928  30.415  1.00  0.00    -0.460 OA
BRANCH  26  27
ATOM     27  C   UNL A   1      32.747  35.574  31.599  1.00  0.00     0.338 C 
ATOM     28  O   UNL A   1      32.042  36.462  32.050  1.00  0.00    -0.246 OA
BRANCH  27  29
ATOM     29  C   UNL A   1      33.850  34.988  32.383  1.00  0.00     0.060 A 
ATOM     30  C   UNL A   1      35.116  35.576  32.271  1.00  0.00     0.016 A 
ATOM     31  C   UNL A   1      33.686  33.787  33.075  1.00  0.00     0.016 A 
ATOM     32  C   UNL A   1      36.233  34.936  32.807  1.00  0.00     0.010 A 
ATOM     33  C   UNL A   1      34.810  33.143  33.606  1.00  0.00     0.010 A 
ATOM     34  C   UNL A   1      36.093  33.692  33.438  1.00  0.00    -0.014 A 
BRANCH  34  35
ATOM     35  C   UNL A   1      37.301  32.915  33.815  1.00  0.00     0.031 A 
ATOM     36  C   UNL A   1      38.102  33.327  35.022  1.00  0.00     0.074 A 
ATOM     37  C   UNL A   1      37.684  31.851  33.086  1.00  0.00     0.049 A 
ATOM     38  N   UNL A   1      39.196  32.798  35.509  1.00  0.00    -0.248 NA
ATOM     39  C   UNL A   1      37.606  34.486  35.782  1.00  0.00     0.031 C 
ATOM     40  C   UNL A   1      36.999  31.354  31.895  1.00  0.00     0.029 A 
ATOM     41  N   UNL A   1      38.764  31.015  33.229  1.00  0.00    -0.354 N 
ATOM     42  C   UNL A   1      39.527  33.564  36.620  1.00  0.00     0.074 A 
ATOM     43  C   UNL A   1      38.529  34.607  36.727  1.00  0.00     0.031 C 
ATOM     44  C   UNL A   1      37.696  30.322  31.392  1.00  0.00     0.029 A 
ATOM     45  C   UNL A   1      38.881  30.093  32.217  1.00  0.00     0.049 A 
ATOM     46  H   UNL A   1      39.393  31.071  33.984  1.00  0.00     0.167 HD
ATOM     47  C   UNL A   1      40.554  33.402  37.489  1.00  0.00     0.034 A 
ATOM     48  C   UNL A   1      39.842  29.180  31.973  1.00  0.00     0.034 A 
ATOM     49  C   UNL A   1      41.537  32.355  37.399  1.00  0.00     0.049 A 
ATOM     50  C   UNL A   1      40.984  29.029  32.946  1.00  0.00     0.074 A 
ATOM     51  C   UNL A   1      42.595  32.093  38.253  1.00  0.00     0.029 A 
ATOM     52  N   UNL A   1      41.586  31.401  36.396  1.00  0.00    -0.354 N 
ATOM     53  N   UNL A   1      41.211  29.681  34.061  1.00  0.00    -0.248 NA
ATOM     54  C   UNL A   1      41.982  27.990  32.647  1.00  0.00     0.031 C 
ATOM     55  C   UNL A   1      43.290  30.982  37.759  1.00  0.00     0.029 A 
ATOM     56  C   UNL A   1      42.659  30.550  36.605  1.00  0.00     0.049 A 
ATOM     57  H   UNL A   1      40.953  31.338  35.645  1.00  0.00     0.167 HD
ATOM     58  C   UNL A   1      42.355  29.112  34.610  1.00  0.00     0.074 A 
ATOM     59  C   UNL A   1      42.763  28.048  33.718  1.00  0.00     0.031 C 
ATOM     60  C   UNL A   1      43.020  29.454  35.742  1.00  0.00     0.034 A 
BRANCH  47  61
ATOM     61  C   UNL A   1      40.637  34.350  38.656  1.00  0.00     0.023 A 
ATOM     62  C   UNL A   1      41.517  35.449  38.583  1.00  0.00     0.012 A 
ATOM     63  C   UNL A   1      39.811  34.199  39.785  1.00  0.00     0.148 A 
ATOM     64  C   UNL A   1      41.588  36.372  39.627  1.00  0.00     0.002 A 
ATOM     65  C   UNL A   1      39.864  35.141  40.807  1.00  0.00     0.091 A 
ATOM     66  F   UNL A   1      38.998  33.133  39.846  1.00  0.00    -0.205 F 
ATOM     67  C   UNL A   1      40.757  36.222  40.733  1.00  0.00     0.022 A 
BRANCH  65  68
ATOM     68  S   UNL A   1      38.783  35.070  42.241  1.00  0.00     0.127 S 
ATOM     69  O   UNL A   1      39.238  33.842  42.892  1.00  0.00    -0.237 OA
ATOM     70  O   UNL A   1      39.129  36.301  42.953  1.00  0.00    -0.237 OA
ATOM     71  O   UNL A   1      37.426  35.038  41.716  1.00  0.00    -0.744 OA
ENDBRANCH  65  68
ENDBRANCH  47  61
BRANCH  48  72
ATOM     72  C   UNL A   1      39.740  28.306  30.772  1.00  0.00     0.023 A 
ATOM     73  C   UNL A   1      38.948  27.143  30.824  1.00  0.00     0.012 A 
ATOM     74  C   UNL A   1      40.395  28.637  29.570  1.00  0.00     0.148 A 
ATOM     75  C   UNL A   1      38.831  26.312  29.710  1.00  0.00     0.002 A 
ATOM     76  C   UNL A   1      40.230  27.835  28.447  1.00  0.00     0.091 A 
ATOM     77  F   UNL A   1      41.166  29.734  29.545  1.00  0.00    -0.205 F 
ATOM     78  C   UNL A   1      39.460  26.664  28.518  1.00  0.00     0.022 A 
BRANCH  76  79
ATOM     79  S   UNL A   1      40.891  28.296  26.842  1.00  0.00     0.127 S 
ATOM     80  O   UNL A   1      39.967  29.346  26.425  1.00  0.00    -0.237 OA
ATOM     81  O   UNL A   1      42.237  28.759  27.186  1.00  0.00    -0.237 OA
ATOM     82  O   UNL A   1      40.873  27.073  26.049  1.00  0.00    -0.744 OA
ENDBRANCH  76  79
ENDBRANCH  48  72
BRANCH  60  83
ATOM     83  C   UNL A   1      44.250  28.662  36.101  1.00  0.00     0.023 A 
ATOM     84  C   UNL A   1      45.515  29.122  35.687  1.00  0.00     0.012 A 
ATOM     85  C   UNL A   1      44.164  27.513  36.912  1.00  0.00     0.148 A 
ATOM     86  C   UNL A   1      46.674  28.438  36.053  1.00  0.00     0.002 A 
ATOM     87  C   UNL A   1      45.326  26.858  37.305  1.00  0.00     0.091 A 
ATOM     88  F   UNL A   1      42.950  27.077  37.280  1.00  0.00    -0.205 F 
ATOM     89  C   UNL A   1      46.581  27.314  36.870  1.00  0.00     0.022 A 
BRANCH  87  90
ATOM     90  S   UNL A   1      45.301  25.454  38.428  1.00  0.00     0.127 S 
ATOM     91  O   UNL A   1      44.601  24.448  37.631  1.00  0.00    -0.237 OA
ATOM     92  O   UNL A   1      46.725  25.187  38.631  1.00  0.00    -0.237 OA
ATOM     93  O   UNL A   1      44.601  25.914  39.620  1.00  0.00    -0.744 OA
ENDBRANCH  87  90
ENDBRANCH  60  83
ENDBRANCH  34  35
ENDBRANCH  27  29
ENDBRANCH  26  27
ENDBRANCH  25  26
ENDBRANCH  24  25
ENDBRANCH  23  24
ENDBRANCH   1  23
TORSDOF 21
ENDMDL
MODEL 2
REMARK VINA RESULT:      -9.9      2.763      8.388
REMARK SMILES CCOc1ncnc(N[C@@H]2C=C[C@H](C(=O)OCCOCCOC(=O)c3ccc(-c4c5nc(c(-c6cccc(S(=O)(=O)[O-])c6F)c6ccc([nH]6)c(-c6cccc(S(=O)(=O)[O-])c6F)c6nc(c(-c7cccc(S(=O)(=O)[O-])c7F)c7ccc4[nH]7)C=C6)C=C5)cc3)C2)c1C
REMARK SMILES IDX 18 1 17 2 16 3 14 4 15 5 13 6 10 7 11 8 88 9 12 10 9 11 8 13
REMARK SMILES IDX 4 14 5 15 89 16 6 17 90 18 7 19 3 20 2 21 1 22 19 23 20 24
REMARK SMILES IDX 21 25 22 26 23 27 24 28 25 29 26 30 87 31 27 32 86 33 28 34
REMARK SMILES IDX 29 35 30 36 80 37 31 38 85 39 79 40 81 41 32 42 84 43 78 44
REMARK SMILES IDX 77 45 33 47 65 48 45 49 64 50 46 51 49 52 63 53 82 54 47 55
REMARK SMILES IDX 48 56 62 58 83 59 50 60 34 61 35 62 43 63 36 64 38 65 44 66
REMARK SMILES IDX 37 67 39 68 40 69 41 70 42 71 66 72 67 73 75 74 68 75 70 76
REMARK SMILES IDX 76 77 69 78 71 79 72 80 73 81 74 82 51 83 52 84 60 85 53 86
REMARK SMILES IDX 55 87 61 88 54 89 56 90 57 91 58 92 59 93
REMARK H PARENT 9 12 81 46 49 57
REMARK Flexibility Score: inf
ROOT
ATOM      1  C   UNL A   1      33.246  29.371  25.606  1.00  0.00     0.202 C 
ENDROOT
BRANCH   1   2
ATOM      2  C   UNL A   1      34.056  28.421  24.721  1.00  0.00     0.261 C 
BRANCH   2   3
ATOM      3  O   UNL A   1      33.248  27.302  24.327  1.00  0.00    -0.463 OA
BRANCH   3   4
ATOM      4  C   UNL A   1      32.963  26.409  25.314  1.00  0.00     0.312 C 
ATOM      5  O   UNL A   1      33.790  25.957  26.100  1.00  0.00    -0.252 OA
BRANCH   4   6
ATOM      6  C   UNL A   1      31.456  26.197  25.485  1.00  0.00     0.124 C 
ATOM      7  C   UNL A   1      30.531  24.173  24.463  1.00  0.00     0.104 C 
ATOM      8  C   UNL A   1      30.066  25.400  23.760  1.00  0.00    -0.006 C 
ATOM      9  C   UNL A   1      31.136  24.722  25.761  1.00  0.00     0.048 C 
ATOM     10  C   UNL A   1      30.574  26.511  24.311  1.00  0.00    -0.014 C 
BRANCH   7  11
ATOM     11  N   UNL A   1      31.487  23.377  23.725  1.00  0.00    -0.363 N 
ATOM     12  H   UNL A   1      31.483  23.490  22.748  1.00  0.00     0.162 HD
BRANCH  11  13
ATOM     13  C   UNL A   1      32.410  22.476  24.228  1.00  0.00     0.136 A 
ATOM     14  C   UNL A   1      34.611  21.757  24.594  1.00  0.00     0.221 A 
ATOM     15  N   UNL A   1      34.213  20.685  25.295  1.00  0.00    -0.201 NA
ATOM     16  C   UNL A   1      33.763  22.676  23.996  1.00  0.00     0.054 A 
ATOM     17  C   UNL A   1      32.894  20.585  25.440  1.00  0.00     0.228 A 
ATOM     18  C   UNL A   1      34.282  23.830  23.197  1.00  0.00     0.054 C 
ATOM     19  N   UNL A   1      31.979  21.415  24.925  1.00  0.00    -0.219 NA
BRANCH  14  20
ATOM     20  O   UNL A   1      35.965  21.871  24.385  1.00  0.00    -0.478 OA
BRANCH  20  21
ATOM     21  C   UNL A   1      36.696  21.179  25.407  1.00  0.00     0.228 C 
ATOM     22  C   UNL A   1      37.586  20.137  24.752  1.00  0.00     0.049 C 
ENDBRANCH  20  21
ENDBRANCH  14  20
ENDBRANCH  11  13
ENDBRANCH   7  11
ENDBRANCH   4   6
ENDBRANCH   3   4
ENDBRANCH   2   3
ENDBRANCH   1   2
BRANCH   1  23
ATOM     23  O   UNL A   1      31.974  29.772  25.090  1.00  0.00    -0.374 OA
BRANCH  23  24
ATOM     24  C   UNL A   1      31.276  30.809  25.779  1.00  0.00     0.202 C 
BRANCH  24  25
ATOM     25  C   UNL A   1      31.997  31.468  26.962  1.00  0.00     0.261 C 
BRANCH  25  26
ATOM     26  O   UNL A   1      32.589  32.742  26.652  1.00  0.00    -0.460 OA
BRANCH  26  27
ATOM     27  C   UNL A   1      33.179  33.359  27.707  1.00  0.00     0.338 C 
ATOM     28  O   UNL A   1      32.721  34.272  28.375  1.00  0.00    -0.246 OA
BRANCH  27  29
ATOM     29  C   UNL A   1      34.454  32.707  28.059  1.00  0.00     0.060 A 
ATOM     30  C   UNL A   1      34.404  31.399  28.555  1.00  0.00     0.016 A 
ATOM     31  C   UNL A   1      35.653  33.422  28.066  1.00  0.00     0.016 A 
ATOM     32  C   UNL A   1      35.544  30.818  29.110  1.00  0.00     0.010 A 
ATOM     33  C   UNL A   1      36.794  32.839  28.630  1.00  0.00     0.010 A 
ATOM     34  C   UNL A   1      36.735  31.552  29.192  1.00  0.00    -0.014 A 
BRANCH  34  35
ATOM     35  C   UNL A   1      37.881  31.016  29.971  1.00  0.00     0.031 A 
ATOM     36  C   UNL A   1      38.783  29.983  29.350  1.00  0.00     0.074 A 
ATOM     37  C   UNL A   1      38.114  31.444  31.225  1.00  0.00     0.049 A 
ATOM     38  N   UNL A   1      39.821  29.375  29.864  1.00  0.00    -0.248 NA
ATOM     39  C   UNL A   1      38.477  29.583  27.967  1.00  0.00     0.031 C 
ATOM     40  C   UNL A   1      37.312  32.435  31.941  1.00  0.00     0.029 A 
ATOM     41  N   UNL A   1      39.080  31.075  32.128  1.00  0.00    -0.354 N 
ATOM     42  C   UNL A   1      40.285  28.513  28.878  1.00  0.00     0.074 A 
ATOM     43  C   UNL A   1      39.403  28.662  27.739  1.00  0.00     0.031 C 
ATOM     44  C   UNL A   1      37.797  32.568  33.187  1.00  0.00     0.029 A 
ATOM     45  C   UNL A   1      38.934  31.664  33.360  1.00  0.00     0.049 A 
ATOM     46  H   UNL A   1      39.809  30.449  31.912  1.00  0.00     0.167 HD
ATOM     47  C   UNL A   1      41.360  27.689  28.905  1.00  0.00     0.034 A 
ATOM     48  C   UNL A   1      39.624  31.484  34.503  1.00  0.00     0.034 A 
ATOM     49  C   UNL A   1      42.250  27.552  30.027  1.00  0.00     0.049 A 
ATOM     50  C   UNL A   1      40.807  30.549  34.514  1.00  0.00     0.074 A 
ATOM     51  C   UNL A   1      43.384  26.765  30.134  1.00  0.00     0.029 A 
ATOM     52  N   UNL A   1      42.106  28.212  31.235  1.00  0.00    -0.354 N 
ATOM     53  N   UNL A   1      41.307  29.838  33.532  1.00  0.00    -0.248 NA
ATOM     54  C   UNL A   1      41.546  30.422  35.779  1.00  0.00     0.031 C 
ATOM     55  C   UNL A   1      43.922  26.945  31.414  1.00  0.00     0.029 A 
ATOM     56  C   UNL A   1      43.127  27.849  32.099  1.00  0.00     0.049 A 
ATOM     57  H   UNL A   1      41.384  28.845  31.451  1.00  0.00     0.167 HD
ATOM     58  C   UNL A   1      42.431  29.205  34.051  1.00  0.00     0.074 A 
ATOM     59  C   UNL A   1      42.554  29.634  35.428  1.00  0.00     0.031 C 
ATOM     60  C   UNL A   1      43.275  28.331  33.448  1.00  0.00     0.034 A 
BRANCH  47  61
ATOM     61  C   UNL A   1      41.671  26.906  27.657  1.00  0.00     0.023 A 
ATOM     62  C   UNL A   1      42.174  27.587  26.530  1.00  0.00     0.012 A 
ATOM     63  C   UNL A   1      41.532  25.506  27.615  1.00  0.00     0.148 A 
ATOM     64  C   UNL A   1      42.515  26.889  25.372  1.00  0.00     0.002 A 
ATOM     65  C   UNL A   1      41.904  24.813  26.468  1.00  0.00     0.091 A 
ATOM     66  F   UNL A   1      41.029  24.880  28.689  1.00  0.00    -0.205 F 
ATOM     67  C   UNL A   1      42.388  25.503  25.344  1.00  0.00     0.022 A 
BRANCH  65  68
ATOM     68  S   UNL A   1      41.841  23.020  26.361  1.00  0.00     0.127 S 
ATOM     69  O   UNL A   1      40.400  22.773  26.399  1.00  0.00    -0.237 OA
ATOM     70  O   UNL A   1      42.470  22.762  25.065  1.00  0.00    -0.237 OA
ATOM     71  O   UNL A   1      42.594  22.527  27.505  1.00  0.00    -0.744 OA
ENDBRANCH  65  68
ENDBRANCH  47  61
BRANCH  48  72
ATOM     72  C   UNL A   1      39.238  32.242  35.726  1.00  0.00     0.023 A 
ATOM     73  C   UNL A   1      39.637  33.585  35.866  1.00  0.00     0.012 A 
ATOM     74  C   UNL A   1      38.450  31.651  36.732  1.00  0.00     0.148 A 
ATOM     75  C   UNL A   1      39.281  34.317  36.998  1.00  0.00     0.002 A 
ATOM     76  C   UNL A   1      38.051  32.403  37.832  1.00  0.00     0.091 A 
ATOM     77  F   UNL A   1      38.100  30.363  36.595  1.00  0.00    -0.205 F 
ATOM     78  C   UNL A   1      38.477  33.732  37.974  1.00  0.00     0.022 A 
BRANCH  76  79
ATOM     79  S   UNL A   1      36.903  31.764  39.057  1.00  0.00     0.127 S 
ATOM     80  O   UNL A   1      36.807  30.358  38.675  1.00  0.00    -0.237 OA
ATOM     81  O   UNL A   1      37.619  32.016  40.309  1.00  0.00    -0.237 OA
ATOM     82  O   UNL A   1      35.690  32.556  38.901  1.00  0.00    -0.744 OA
ENDBRANCH  76  79
ENDBRANCH  48  72
BRANCH  60  83
ATOM     83  C   UNL A   1      44.424  27.789  34.258  1.00  0.00     0.023 A 
ATOM     84  C   UNL A   1      45.620  28.528  34.344  1.00  0.00     0.012 A 
ATOM     85  C   UNL A   1      44.293  26.597  34.997  1.00  0.00     0.148 A 
ATOM     86  C   UNL A   1      46.678  28.077  35.132  1.00  0.00     0.002 A 
ATOM     87  C   UNL A   1      45.337  26.173  35.812  1.00  0.00     0.091 A 
ATOM     88  F   UNL A   1      43.156  25.895  34.887  1.00  0.00    -0.205 F 
ATOM     89  C   UNL A   1      46.533  26.907  35.874  1.00  0.00     0.022 A 
BRANCH  87  90
ATOM     90  S   UNL A   1      45.202  24.723  36.867  1.00  0.00     0.127 S 
ATOM     91  O   UNL A   1      44.932  23.669  35.891  1.00  0.00    -0.237 OA
ATOM     92  O   UNL A   1      46.527  24.657  37.484  1.00  0.00    -0.237 OA
ATOM     93  O   UNL A   1      44.121  25.013  37.798  1.00  0.00    -0.744 OA
ENDBRANCH  87  90
ENDBRANCH  60  83
ENDBRANCH  34  35
ENDBRANCH  27  29
ENDBRANCH  26  27
ENDBRANCH  25  26
ENDBRANCH  24  25
ENDBRANCH  23  24
ENDBRANCH   1  23
TORSDOF 21
ENDMDL
MODEL 3
REMARK VINA RESULT:      -9.5      1.827      2.964
REMARK SMILES CCOc1ncnc(N[C@@H]2C=C[C@H](C(=O)OCCOCCOC(=O)c3ccc(-c4c5nc(c(-c6cccc(S(=O)(=O)[O-])c6F)c6ccc([nH]6)c(-c6cccc(S(=O)(=O)[O-])c6F)c6nc(c(-c7cccc(S(=O)(=O)[O-])c7F)c7ccc4[nH]7)C=C6)C=C5)cc3)C2)c1C
REMARK SMILES IDX 18 1 17 2 16 3 14 4 15 5 13 6 10 7 11 8 88 9 12 10 9 11 8 13
REMARK SMILES IDX 4 14 5 15 89 16 6 17 90 18 7 19 3 20 2 21 1 22 19 23 20 24
REMARK SMILES IDX 21 25 22 26 23 27 24 28 25 29 26 30 87 31 27 32 86 33 28 34
REMARK SMILES IDX 29 35 30 36 80 37 31 38 85 39 79 40 81 41 32 42 84 43 78 44
REMARK SMILES IDX 77 45 33 47 65 48 45 49 64 50 46 51 49 52 63 53 82 54 47 55
REMARK SMILES IDX 48 56 62 58 83 59 50 60 34 61 35 62 43 63 36 64 38 65 44 66
REMARK SMILES IDX 37 67 39 68 40 69 41 70 42 71 66 72 67 73 75 74 68 75 70 76
REMARK SMILES IDX 76 77 69 78 71 79 72 80 73 81 74 82 51 83 52 84 60 85 53 86
REMARK SMILES IDX 55 87 61 88 54 89 56 90 57 91 58 92 59 93
REMARK H PARENT 9 12 81 46 49 57
REMARK Flexibility Score: inf
ROOT
ATOM      1  C   UNL A   1      35.130  31.372  28.183  1.00  0.00     0.202 C 
ENDROOT
BRANCH   1   2
ATOM      2  C   UNL A   1      34.104  30.671  27.291  1.00  0.00     0.261 C 
BRANCH   2   3
ATOM      3  O   UNL A   1      34.659  29.461  26.755  1.00  0.00    -0.463 OA
BRANCH   3   4
ATOM      4  C   UNL A   1      33.845  28.760  25.920  1.00  0.00     0.312 C 
ATOM      5  O   UNL A   1      33.745  28.967  24.714  1.00  0.00    -0.252 OA
BRANCH   4   6
ATOM      6  C   UNL A   1      33.232  27.535  26.605  1.00  0.00     0.124 C 
ATOM      7  C   UNL A   1      31.662  26.224  25.259  1.00  0.00     0.104 C 
ATOM      8  C   UNL A   1      30.969  26.930  26.371  1.00  0.00    -0.006 C 
ATOM      9  C   UNL A   1      33.144  26.349  25.633  1.00  0.00     0.048 C 
ATOM     10  C   UNL A   1      31.822  27.654  27.108  1.00  0.00    -0.014 C 
BRANCH   7  11
ATOM     11  N   UNL A   1      31.399  26.761  23.942  1.00  0.00    -0.363 N 
ATOM     12  H   UNL A   1      32.106  26.630  23.270  1.00  0.00     0.162 HD
BRANCH  11  13
ATOM     13  C   UNL A   1      30.270  27.436  23.510  1.00  0.00     0.136 A 
ATOM     14  C   UNL A   1      29.219  29.128  22.275  1.00  0.00     0.221 A 
ATOM     15  N   UNL A   1      27.993  28.717  22.632  1.00  0.00    -0.201 NA
ATOM     16  C   UNL A   1      30.407  28.560  22.708  1.00  0.00     0.054 A 
ATOM     17  C   UNL A   1      27.984  27.642  23.416  1.00  0.00     0.228 A 
ATOM     18  C   UNL A   1      31.740  29.099  22.293  1.00  0.00     0.054 C 
ATOM     19  N   UNL A   1      29.061  26.999  23.885  1.00  0.00    -0.219 NA
BRANCH  14  20
ATOM     20  O   UNL A   1      29.272  30.263  21.500  1.00  0.00    -0.478 OA
BRANCH  20  21
ATOM     21  C   UNL A   1      28.013  30.951  21.522  1.00  0.00     0.228 C 
ATOM     22  C   UNL A   1      28.025  32.029  20.452  1.00  0.00     0.049 C 
ENDBRANCH  20  21
ENDBRANCH  14  20
ENDBRANCH  11  13
ENDBRANCH   7  11
ENDBRANCH   4   6
ENDBRANCH   3   4
ENDBRANCH   2   3
ENDBRANCH   1   2
BRANCH   1  23
ATOM     23  O   UNL A   1      34.658  32.522  28.891  1.00  0.00    -0.374 OA
BRANCH  23  24
ATOM     24  C   UNL A   1      33.732  33.378  28.223  1.00  0.00     0.202 C 
BRANCH  24  25
ATOM     25  C   UNL A   1      33.476  34.754  28.850  1.00  0.00     0.261 C 
BRANCH  25  26
ATOM     26  O   UNL A   1      32.585  34.727  29.980  1.00  0.00    -0.460 OA
BRANCH  26  27
ATOM     27  C   UNL A   1      32.960  35.529  31.010  1.00  0.00     0.338 C 
ATOM     28  O   UNL A   1      32.474  36.605  31.318  1.00  0.00    -0.246 OA
BRANCH  27  29
ATOM     29  C   UNL A   1      33.997  34.883  31.835  1.00  0.00     0.060 A 
ATOM     30  C   UNL A   1      35.235  35.527  31.950  1.00  0.00     0.016 A 
ATOM     31  C   UNL A   1      33.819  33.594  32.340  1.00  0.00     0.016 A 
ATOM     32  C   UNL A   1      36.317  34.861  32.526  1.00  0.00     0.010 A 
ATOM     33  C   UNL A   1      34.909  32.926  32.911  1.00  0.00     0.010 A 
ATOM     34  C   UNL A   1      36.172  33.540  32.969  1.00  0.00    -0.014 A 
BRANCH  34  35
ATOM     35  C   UNL A   1      37.370  32.763  33.381  1.00  0.00     0.031 A 
ATOM     36  C   UNL A   1      38.130  33.171  34.616  1.00  0.00     0.074 A 
ATOM     37  C   UNL A   1      37.780  31.705  32.659  1.00  0.00     0.049 A 
ATOM     38  N   UNL A   1      39.208  32.642  35.135  1.00  0.00    -0.248 NA
ATOM     39  C   UNL A   1      37.606  34.324  35.365  1.00  0.00     0.031 C 
ATOM     40  C   UNL A   1      37.135  31.213  31.443  1.00  0.00     0.029 A 
ATOM     41  N   UNL A   1      38.856  30.871  32.833  1.00  0.00    -0.354 N 
ATOM     42  C   UNL A   1      39.501  33.403  36.261  1.00  0.00     0.074 A 
ATOM     43  C   UNL A   1      38.497  34.443  36.341  1.00  0.00     0.031 C 
ATOM     44  C   UNL A   1      37.851  30.185  30.958  1.00  0.00     0.029 A 
ATOM     45  C   UNL A   1      39.009  29.955  31.820  1.00  0.00     0.049 A 
ATOM     46  H   UNL A   1      39.461  30.924  33.608  1.00  0.00     0.167 HD
ATOM     47  C   UNL A   1      40.499  33.238  37.162  1.00  0.00     0.034 A 
ATOM     48  C   UNL A   1      39.981  29.046  31.603  1.00  0.00     0.034 A 
ATOM     49  C   UNL A   1      41.488  32.195  37.099  1.00  0.00     0.049 A 
ATOM     50  C   UNL A   1      41.090  28.892  32.611  1.00  0.00     0.074 A 
ATOM     51  C   UNL A   1      42.518  31.931  37.985  1.00  0.00     0.029 A 
ATOM     52  N   UNL A   1      41.573  31.247  36.093  1.00  0.00    -0.354 N 
ATOM     53  N   UNL A   1      41.278  29.538  33.737  1.00  0.00    -0.248 NA
ATOM     54  C   UNL A   1      42.100  27.858  32.340  1.00  0.00     0.031 C 
ATOM     55  C   UNL A   1      43.232  30.824  37.508  1.00  0.00     0.029 A 
ATOM     56  C   UNL A   1      42.640  30.397  36.331  1.00  0.00     0.049 A 
ATOM     57  H   UNL A   1      40.965  31.186  35.321  1.00  0.00     0.167 HD
ATOM     58  C   UNL A   1      42.406  28.970  34.320  1.00  0.00     0.074 A 
ATOM     59  C   UNL A   1      42.846  27.912  33.436  1.00  0.00     0.031 C 
ATOM     60  C   UNL A   1      43.032  29.307  35.475  1.00  0.00     0.034 A 
BRANCH  47  61
ATOM     61  C   UNL A   1      40.541  34.180  38.336  1.00  0.00     0.023 A 
ATOM     62  C   UNL A   1      41.342  35.338  38.257  1.00  0.00     0.012 A 
ATOM     63  C   UNL A   1      39.751  33.963  39.480  1.00  0.00     0.148 A 
ATOM     64  C   UNL A   1      41.372  36.254  39.307  1.00  0.00     0.002 A 
ATOM     65  C   UNL A   1      39.761  34.898  40.510  1.00  0.00     0.091 A 
ATOM     66  F   UNL A   1      39.014  32.844  39.547  1.00  0.00    -0.205 F 
ATOM     67  C   UNL A   1      40.576  36.039  40.428  1.00  0.00     0.022 A 
BRANCH  65  68
ATOM     68  S   UNL A   1      38.718  34.741  41.965  1.00  0.00     0.127 S 
ATOM     69  O   UNL A   1      38.918  36.036  42.613  1.00  0.00    -0.237 OA
ATOM     70  O   UNL A   1      37.390  34.552  41.378  1.00  0.00    -0.237 OA
ATOM     71  O   UNL A   1      39.224  33.587  42.695  1.00  0.00    -0.744 OA
ENDBRANCH  65  68
ENDBRANCH  47  61
BRANCH  48  72
ATOM     72  C   UNL A   1      39.920  28.177  30.394  1.00  0.00     0.023 A 
ATOM     73  C   UNL A   1      39.115  27.023  30.408  1.00  0.00     0.012 A 
ATOM     74  C   UNL A   1      40.628  28.508  29.222  1.00  0.00     0.148 A 
ATOM     75  C   UNL A   1      39.037  26.198  29.285  1.00  0.00     0.002 A 
ATOM     76  C   UNL A   1      40.502  27.712  28.089  1.00  0.00     0.091 A 
ATOM     77  F   UNL A   1      41.410  29.597  29.235  1.00  0.00    -0.205 F 
ATOM     78  C   UNL A   1      39.718  26.549  28.122  1.00  0.00     0.022 A 
BRANCH  76  79
ATOM     79  S   UNL A   1      41.234  28.174  26.515  1.00  0.00     0.127 S 
ATOM     80  O   UNL A   1      40.399  29.301  26.113  1.00  0.00    -0.237 OA
ATOM     81  O   UNL A   1      42.601  28.526  26.904  1.00  0.00    -0.237 OA
ATOM     82  O   UNL A   1      41.147  26.981  25.682  1.00  0.00    -0.744 OA
ENDBRANCH  76  79
ENDBRANCH  48  72
BRANCH  60  83
ATOM     83  C   UNL A   1      44.252  28.516  35.870  1.00  0.00     0.023 A 
ATOM     84  C   UNL A   1      45.525  28.949  35.448  1.00  0.00     0.012 A 
ATOM     85  C   UNL A   1      44.149  27.397  36.720  1.00  0.00     0.148 A 
ATOM     86  C   UNL A   1      46.674  28.267  35.845  1.00  0.00     0.002 A 
ATOM     87  C   UNL A   1      45.302  26.745  37.144  1.00  0.00     0.091 A 
ATOM     88  F   UNL A   1      42.929  26.986  37.095  1.00  0.00    -0.205 F 
ATOM     89  C   UNL A   1      46.565  27.173  36.701  1.00  0.00     0.022 A 
BRANCH  87  90
ATOM     90  S   UNL A   1      45.257  25.382  38.315  1.00  0.00     0.127 S 
ATOM     91  O   UNL A   1      44.651  26.014  39.485  1.00  0.00    -0.237 OA
ATOM     92  O   UNL A   1      44.400  24.410  37.635  1.00  0.00    -0.237 OA
ATOM     93  O   UNL A   1      46.640  24.953  38.475  1.00  0.00    -0.744 OA
ENDBRANCH  87  90
ENDBRANCH  60  83
ENDBRANCH  34  35
ENDBRANCH  27  29
ENDBRANCH  26  27
ENDBRANCH  25  26
ENDBRANCH  24  25
ENDBRANCH  23  24
ENDBRANCH   1  23
TORSDOF 21
ENDMDL
