MODEL 1
REMARK VINA RESULT:     -10.6      0.000      0.000
REMARK SMILES C[C@H](NC(=O)c1cc(S(=O)(=O)N(C)C)cs1)C(=O)OCCOCCOC(=O)c1ccc(-c2c3nc(c(-c4cccc(S(=O)(=O)[O-])c4F)c4ccc([nH]4)c(-c4cccc(S(=O)(=O)[O-])c4F)c4nc(c(-c5cccc(S(=O)(=O)[O-])c5F)c5ccc2[nH]5)C=C4)C=C3)cc1
REMARK SMILES IDX 21 1 20 2 19 3 17 4 18 5 2 6 1 7 3 8 4 9 5 11 6 12 7 13
REMARK SMILES IDX 16 14 8 15 15 16 9 17 10 18 11 19 12 20 13 21 14 22 22 23
REMARK SMILES IDX 23 24 24 25 25 26 26 27 27 28 28 29 29 30 90 31 30 32 89 33
REMARK SMILES IDX 31 34 32 35 33 36 83 37 34 38 88 39 82 40 84 41 35 42 87 43
REMARK SMILES IDX 81 44 80 45 36 47 68 48 48 49 67 50 49 51 52 52 66 53 85 54
REMARK SMILES IDX 50 55 51 56 65 58 86 59 53 60 37 61 38 62 46 63 39 64 41 65
REMARK SMILES IDX 47 66 40 67 42 68 43 69 44 70 45 71 69 72 70 73 78 74 71 75
REMARK SMILES IDX 73 76 79 77 72 78 74 79 75 80 76 81 77 82 54 83 55 84 63 85
REMARK SMILES IDX 56 86 58 87 64 88 57 89 59 90 60 91 61 92 62 93
REMARK H PARENT 3 10 84 46 52 57
REMARK Flexibility Score: inf
ROOT
ATOM      1  C   UNL A   1      32.882  29.309  26.896  1.00  0.00     0.202 C 
ENDROOT
BRANCH   1   2
ATOM      2  C   UNL A   1      32.735  27.961  26.190  1.00  0.00     0.261 C 
BRANCH   2   3
ATOM      3  O   UNL A   1      31.372  27.514  26.154  1.00  0.00    -0.462 OA
BRANCH   3   4
ATOM      4  C   UNL A   1      30.812  27.482  24.914  1.00  0.00     0.328 C 
ATOM      5  O   UNL A   1      30.833  28.402  24.102  1.00  0.00    -0.250 OA
BRANCH   4   6
ATOM      6  C   UNL A   1      30.063  26.175  24.643  1.00  0.00     0.189 C 
ATOM      7  C   UNL A   1      28.764  26.513  23.911  1.00  0.00     0.043 C 
BRANCH   6   8
ATOM      8  N   UNL A   1      29.830  25.332  25.823  1.00  0.00    -0.338 N 
ATOM      9  C   UNL A   1      30.480  24.178  26.205  1.00  0.00     0.262 C 
ATOM     10  H   UNL A   1      29.111  25.633  26.425  1.00  0.00     0.164 HD
ATOM     11  O   UNL A   1      30.126  23.626  27.246  1.00  0.00    -0.268 OA
BRANCH   9  12
ATOM     12  C   UNL A   1      31.531  23.674  25.344  1.00  0.00     0.093 A 
ATOM     13  C   UNL A   1      32.879  23.516  25.602  1.00  0.00     0.047 A 
ATOM     14  S   UNL A   1      31.150  23.229  23.733  1.00  0.00    -0.137 S 
ATOM     15  C   UNL A   1      33.621  23.242  24.416  1.00  0.00     0.094 A 
ATOM     16  C   UNL A   1      32.805  23.054  23.323  1.00  0.00     0.087 A 
BRANCH  15  17
ATOM     17  S   UNL A   1      35.351  23.263  24.331  1.00  0.00     0.243 S 
ATOM     18  O   UNL A   1      35.654  23.143  22.925  1.00  0.00    -0.207 OA
ATOM     19  O   UNL A   1      35.699  24.441  25.099  1.00  0.00    -0.207 OA
BRANCH  17  20
ATOM     20  N   UNL A   1      35.965  21.891  25.143  1.00  0.00    -0.204 NA
ATOM     21  C   UNL A   1      35.181  20.653  24.943  1.00  0.00     0.124 C 
ATOM     22  C   UNL A   1      37.410  21.669  24.915  1.00  0.00     0.124 C 
ENDBRANCH  17  20
ENDBRANCH  15  17
ENDBRANCH   9  12
ENDBRANCH   6   8
ENDBRANCH   4   6
ENDBRANCH   3   4
ENDBRANCH   2   3
ENDBRANCH   1   2
BRANCH   1  23
ATOM     23  O   UNL A   1      32.668  30.463  26.086  1.00  0.00    -0.374 OA
BRANCH  23  24
ATOM     24  C   UNL A   1      31.432  31.166  26.253  1.00  0.00     0.202 C 
BRANCH  24  25
ATOM     25  C   UNL A   1      31.519  32.557  26.892  1.00  0.00     0.261 C 
BRANCH  25  26
ATOM     26  O   UNL A   1      32.829  33.136  26.730  1.00  0.00    -0.460 OA
BRANCH  26  27
ATOM     27  C   UNL A   1      33.379  33.627  27.869  1.00  0.00     0.338 C 
ATOM     28  O   UNL A   1      32.886  34.444  28.630  1.00  0.00    -0.246 OA
BRANCH  27  29
ATOM     29  C   UNL A   1      34.613  32.888  28.199  1.00  0.00     0.060 A 
ATOM     30  C   UNL A   1      34.474  31.610  28.757  1.00  0.00     0.016 A 
ATOM     31  C   UNL A   1      35.875  33.468  28.059  1.00  0.00     0.016 A 
ATOM     32  C   UNL A   1      35.595  30.927  29.226  1.00  0.00     0.010 A 
ATOM     33  C   UNL A   1      36.998  32.785  28.542  1.00  0.00     0.010 A 
ATOM     34  C   UNL A   1      36.858  31.529  29.160  1.00  0.00    -0.014 A 
BRANCH  34  35
ATOM     35  C   UNL A   1      38.005  30.900  29.861  1.00  0.00     0.031 A 
ATOM     36  C   UNL A   1      38.321  31.316  31.271  1.00  0.00     0.074 A 
ATOM     37  C   UNL A   1      38.750  29.962  29.251  1.00  0.00     0.049 A 
ATOM     38  N   UNL A   1      39.260  30.881  32.070  1.00  0.00    -0.248 NA
ATOM     39  C   UNL A   1      37.464  32.359  31.860  1.00  0.00     0.031 C 
ATOM     40  C   UNL A   1      38.548  29.477  27.888  1.00  0.00     0.029 A 
ATOM     41  N   UNL A   1      39.844  29.263  29.700  1.00  0.00    -0.354 N 
ATOM     42  C   UNL A   1      39.121  31.606  33.248  1.00  0.00     0.074 A 
ATOM     43  C   UNL A   1      38.014  32.519  33.056  1.00  0.00     0.031 C 
ATOM     44  C   UNL A   1      39.506  28.578  27.599  1.00  0.00     0.029 A 
ATOM     45  C   UNL A   1      40.393  28.433  28.752  1.00  0.00     0.049 A 
ATOM     46  H   UNL A   1      40.201  29.349  30.613  1.00  0.00     0.167 HD
ATOM     47  C   UNL A   1      39.835  31.506  34.394  1.00  0.00     0.034 A 
ATOM     48  C   UNL A   1      41.492  27.655  28.805  1.00  0.00     0.034 A 
ATOM     49  C   UNL A   1      40.920  30.586  34.596  1.00  0.00     0.049 A 
ATOM     50  C   UNL A   1      42.283  27.579  30.085  1.00  0.00     0.074 A 
ATOM     51  C   UNL A   1      41.667  30.374  35.742  1.00  0.00     0.029 A 
ATOM     52  N   UNL A   1      41.424  29.734  33.627  1.00  0.00    -0.354 N 
ATOM     53  N   UNL A   1      42.049  28.163  31.236  1.00  0.00    -0.248 NA
ATOM     54  C   UNL A   1      43.472  26.713  30.084  1.00  0.00     0.031 C 
ATOM     55  C   UNL A   1      42.633  29.402  35.459  1.00  0.00     0.029 A 
ATOM     56  C   UNL A   1      42.481  29.003  34.141  1.00  0.00     0.049 A 
ATOM     57  H   UNL A   1      41.081  29.660  32.707  1.00  0.00     0.167 HD
ATOM     58  C   UNL A   1      43.041  27.712  32.102  1.00  0.00     0.074 A 
ATOM     59  C   UNL A   1      43.866  26.791  31.348  1.00  0.00     0.031 C 
ATOM     60  C   UNL A   1      43.259  28.047  33.398  1.00  0.00     0.034 A 
BRANCH  47  61
ATOM     61  C   UNL A   1      39.428  32.388  35.544  1.00  0.00     0.023 A 
ATOM     62  C   UNL A   1      38.607  31.859  36.560  1.00  0.00     0.012 A 
ATOM     63  C   UNL A   1      39.894  33.712  35.648  1.00  0.00     0.148 A 
ATOM     64  C   UNL A   1      38.238  32.642  37.653  1.00  0.00     0.002 A 
ATOM     65  C   UNL A   1      39.549  34.476  36.758  1.00  0.00     0.091 A 
ATOM     66  F   UNL A   1      40.651  34.205  34.657  1.00  0.00    -0.205 F 
ATOM     67  C   UNL A   1      38.717  33.944  37.757  1.00  0.00     0.022 A 
BRANCH  65  68
ATOM     68  S   UNL A   1      40.169  36.144  37.007  1.00  0.00     0.127 S 
ATOM     69  O   UNL A   1      39.374  36.586  38.150  1.00  0.00    -0.237 OA
ATOM     70  O   UNL A   1      41.583  35.910  37.303  1.00  0.00    -0.237 OA
ATOM     71  O   UNL A   1      39.924  36.848  35.756  1.00  0.00    -0.744 OA
ENDBRANCH  65  68
ENDBRANCH  47  61
BRANCH  48  72
ATOM     72  C   UNL A   1      41.883  26.843  27.619  1.00  0.00     0.023 A 
ATOM     73  C   UNL A   1      42.554  27.460  26.547  1.00  0.00     0.012 A 
ATOM     74  C   UNL A   1      41.619  25.460  27.560  1.00  0.00     0.148 A 
ATOM     75  C   UNL A   1      42.937  26.721  25.427  1.00  0.00     0.002 A 
ATOM     76  C   UNL A   1      42.049  24.719  26.465  1.00  0.00     0.091 A 
ATOM     77  F   UNL A   1      40.956  24.895  28.579  1.00  0.00    -0.205 F 
ATOM     78  C   UNL A   1      42.696  25.349  25.391  1.00  0.00     0.022 A 
BRANCH  76  79
ATOM     79  S   UNL A   1      41.893  22.931  26.403  1.00  0.00     0.127 S 
ATOM     80  O   UNL A   1      40.444  22.754  26.444  1.00  0.00    -0.237 OA
ATOM     81  O   UNL A   1      42.517  22.613  25.119  1.00  0.00    -0.237 OA
ATOM     82  O   UNL A   1      42.629  22.439  27.559  1.00  0.00    -0.744 OA
ENDBRANCH  76  79
ENDBRANCH  48  72
BRANCH  60  83
ATOM     83  C   UNL A   1      44.427  27.406  34.100  1.00  0.00     0.023 A 
ATOM     84  C   UNL A   1      45.689  28.029  34.054  1.00  0.00     0.012 A 
ATOM     85  C   UNL A   1      44.260  26.238  34.870  1.00  0.00     0.148 A 
ATOM     86  C   UNL A   1      46.774  27.488  34.744  1.00  0.00     0.002 A 
ATOM     87  C   UNL A   1      45.335  25.727  35.589  1.00  0.00     0.091 A 
ATOM     88  F   UNL A   1      43.057  25.645  34.884  1.00  0.00    -0.205 F 
ATOM     89  C   UNL A   1      46.595  26.346  35.520  1.00  0.00     0.022 A 
BRANCH  87  90
ATOM     90  S   UNL A   1      45.167  24.311  36.683  1.00  0.00     0.127 S 
ATOM     91  O   UNL A   1      44.224  24.816  37.681  1.00  0.00    -0.237 OA
ATOM     92  O   UNL A   1      44.620  23.286  35.792  1.00  0.00    -0.237 OA
ATOM     93  O   UNL A   1      46.510  24.027  37.170  1.00  0.00    -0.744 OA
ENDBRANCH  87  90
ENDBRANCH  60  83
ENDBRANCH  34  35
ENDBRANCH  27  29
ENDBRANCH  26  27
ENDBRANCH  25  26
ENDBRANCH  24  25
ENDBRANCH  23  24
ENDBRANCH   1  23
TORSDOF 21
ENDMDL
MODEL 2
REMARK VINA RESULT:     -10.3      5.256      8.777
REMARK SMILES C[C@H](NC(=O)c1cc(S(=O)(=O)N(C)C)cs1)C(=O)OCCOCCOC(=O)c1ccc(-c2c3nc(c(-c4cccc(S(=O)(=O)[O-])c4F)c4ccc([nH]4)c(-c4cccc(S(=O)(=O)[O-])c4F)c4nc(c(-c5cccc(S(=O)(=O)[O-])c5F)c5ccc2[nH]5)C=C4)C=C3)cc1
REMARK SMILES IDX 21 1 20 2 19 3 17 4 18 5 2 6 1 7 3 8 4 9 5 11 6 12 7 13
REMARK SMILES IDX 16 14 8 15 15 16 9 17 10 18 11 19 12 20 13 21 14 22 22 23
REMARK SMILES IDX 23 24 24 25 25 26 26 27 27 28 28 29 29 30 90 31 30 32 89 33
REMARK SMILES IDX 31 34 32 35 33 36 83 37 34 38 88 39 82 40 84 41 35 42 87 43
REMARK SMILES IDX 81 44 80 45 36 47 68 48 48 49 67 50 49 51 52 52 66 53 85 54
REMARK SMILES IDX 50 55 51 56 65 58 86 59 53 60 37 61 38 62 46 63 39 64 41 65
REMARK SMILES IDX 47 66 40 67 42 68 43 69 44 70 45 71 69 72 70 73 78 74 71 75
REMARK SMILES IDX 73 76 79 77 72 78 74 79 75 80 76 81 77 82 54 83 55 84 63 85
REMARK SMILES IDX 56 86 58 87 64 88 57 89 59 90 60 91 61 92 62 93
REMARK H PARENT 3 10 84 46 52 57
REMARK Flexibility Score: inf
ROOT
ATOM      1  C   UNL A   1      35.790  22.280  25.986  1.00  0.00     0.202 C 
ENDROOT
BRANCH   1   2
ATOM      2  C   UNL A   1      35.333  23.639  25.454  1.00  0.00     0.261 C 
BRANCH   2   3
ATOM      3  O   UNL A   1      34.124  23.542  24.688  1.00  0.00    -0.462 OA
BRANCH   3   4
ATOM      4  C   UNL A   1      34.305  23.433  23.343  1.00  0.00     0.328 C 
ATOM      5  O   UNL A   1      35.391  23.414  22.772  1.00  0.00    -0.250 OA
BRANCH   4   6
ATOM      6  C   UNL A   1      32.981  23.408  22.575  1.00  0.00     0.189 C 
ATOM      7  C   UNL A   1      32.415  21.989  22.649  1.00  0.00     0.043 C 
BRANCH   6   8
ATOM      8  N   UNL A   1      33.050  23.904  21.194  1.00  0.00    -0.338 N 
ATOM      9  C   UNL A   1      32.860  25.186  20.725  1.00  0.00     0.262 C 
ATOM     10  H   UNL A   1      33.263  23.229  20.510  1.00  0.00     0.164 HD
ATOM     11  O   UNL A   1      32.971  25.388  19.516  1.00  0.00    -0.268 OA
BRANCH   9  12
ATOM     12  C   UNL A   1      32.520  26.218  21.685  1.00  0.00     0.093 A 
ATOM     13  C   UNL A   1      31.304  26.505  22.274  1.00  0.00     0.047 A 
ATOM     14  S   UNL A   1      33.730  27.324  22.186  1.00  0.00    -0.137 S 
ATOM     15  C   UNL A   1      31.323  27.755  22.957  1.00  0.00     0.094 A 
ATOM     16  C   UNL A   1      32.584  28.309  22.994  1.00  0.00     0.087 A 
BRANCH  15  17
ATOM     17  S   UNL A   1      29.908  28.548  23.564  1.00  0.00     0.243 S 
ATOM     18  O   UNL A   1      29.147  27.505  24.208  1.00  0.00    -0.207 OA
ATOM     19  O   UNL A   1      30.454  29.672  24.297  1.00  0.00    -0.207 OA
BRANCH  17  20
ATOM     20  N   UNL A   1      29.002  29.154  22.247  1.00  0.00    -0.204 NA
ATOM     21  C   UNL A   1      27.549  29.262  22.496  1.00  0.00     0.124 C 
ATOM     22  C   UNL A   1      29.556  30.400  21.675  1.00  0.00     0.124 C 
ENDBRANCH  17  20
ENDBRANCH  15  17
ENDBRANCH   9  12
ENDBRANCH   6   8
ENDBRANCH   4   6
ENDBRANCH   3   4
ENDBRANCH   2   3
ENDBRANCH   1   2
BRANCH   1  23
ATOM     23  O   UNL A   1      37.099  21.867  25.600  1.00  0.00    -0.374 OA
BRANCH  23  24
ATOM     24  C   UNL A   1      37.230  20.581  24.985  1.00  0.00     0.202 C 
BRANCH  24  25
ATOM     25  C   UNL A   1      38.478  19.771  25.359  1.00  0.00     0.261 C 
BRANCH  25  26
ATOM     26  O   UNL A   1      39.649  20.606  25.442  1.00  0.00    -0.460 OA
BRANCH  26  27
ATOM     27  C   UNL A   1      40.327  20.521  26.615  1.00  0.00     0.338 C 
ATOM     28  O   UNL A   1      40.783  19.512  27.128  1.00  0.00    -0.246 OA
BRANCH  27  29
ATOM     29  C   UNL A   1      40.628  21.871  27.129  1.00  0.00     0.060 A 
ATOM     30  C   UNL A   1      40.095  22.964  26.431  1.00  0.00     0.016 A 
ATOM     31  C   UNL A   1      41.491  22.070  28.207  1.00  0.00     0.016 A 
ATOM     32  C   UNL A   1      40.465  24.263  26.779  1.00  0.00     0.010 A 
ATOM     33  C   UNL A   1      41.871  23.375  28.546  1.00  0.00     0.010 A 
ATOM     34  C   UNL A   1      41.389  24.473  27.810  1.00  0.00    -0.014 A 
BRANCH  34  35
ATOM     35  C   UNL A   1      41.949  25.830  28.024  1.00  0.00     0.031 A 
ATOM     36  C   UNL A   1      41.077  26.898  28.623  1.00  0.00     0.074 A 
ATOM     37  C   UNL A   1      43.224  26.104  27.697  1.00  0.00     0.049 A 
ATOM     38  N   UNL A   1      41.371  28.139  28.913  1.00  0.00    -0.248 NA
ATOM     39  C   UNL A   1      39.690  26.518  28.939  1.00  0.00     0.031 C 
ATOM     40  C   UNL A   1      44.167  25.158  27.107  1.00  0.00     0.029 A 
ATOM     41  N   UNL A   1      43.938  27.273  27.800  1.00  0.00    -0.354 N 
ATOM     42  C   UNL A   1      40.206  28.694  29.428  1.00  0.00     0.074 A 
ATOM     43  C   UNL A   1      39.194  27.659  29.401  1.00  0.00     0.031 C 
ATOM     44  C   UNL A   1      45.331  25.791  26.872  1.00  0.00     0.029 A 
ATOM     45  C   UNL A   1      45.210  27.188  27.285  1.00  0.00     0.049 A 
ATOM     46  H   UNL A   1      43.573  28.094  28.203  1.00  0.00     0.167 HD
ATOM     47  C   UNL A   1      40.000  29.945  29.903  1.00  0.00     0.034 A 
ATOM     48  C   UNL A   1      46.162  28.132  27.152  1.00  0.00     0.034 A 
ATOM     49  C   UNL A   1      41.007  30.970  29.952  1.00  0.00     0.049 A 
ATOM     50  C   UNL A   1      45.900  29.524  27.668  1.00  0.00     0.074 A 
ATOM     51  C   UNL A   1      40.909  32.250  30.467  1.00  0.00     0.029 A 
ATOM     52  N   UNL A   1      42.294  30.835  29.458  1.00  0.00    -0.354 N 
ATOM     53  N   UNL A   1      44.841  29.990  28.285  1.00  0.00    -0.248 NA
ATOM     54  C   UNL A   1      46.976  30.512  27.496  1.00  0.00     0.031 C 
ATOM     55  C   UNL A   1      42.134  32.896  30.270  1.00  0.00     0.029 A 
ATOM     56  C   UNL A   1      42.998  32.014  29.641  1.00  0.00     0.049 A 
ATOM     57  H   UNL A   1      42.656  30.022  29.037  1.00  0.00     0.167 HD
ATOM     58  C   UNL A   1      45.135  31.313  28.602  1.00  0.00     0.074 A 
ATOM     59  C   UNL A   1      46.479  31.568  28.127  1.00  0.00     0.031 C 
ATOM     60  C   UNL A   1      44.354  32.238  29.214  1.00  0.00     0.034 A 
BRANCH  47  61
ATOM     61  C   UNL A   1      38.638  30.263  30.457  1.00  0.00     0.023 A 
ATOM     62  C   UNL A   1      38.331  29.894  31.782  1.00  0.00     0.012 A 
ATOM     63  C   UNL A   1      37.685  30.965  29.694  1.00  0.00     0.148 A 
ATOM     64  C   UNL A   1      37.087  30.201  32.334  1.00  0.00     0.002 A 
ATOM     65  C   UNL A   1      36.460  31.296  30.262  1.00  0.00     0.091 A 
ATOM     66  F   UNL A   1      37.987  31.281  28.426  1.00  0.00    -0.205 F 
ATOM     67  C   UNL A   1      36.158  30.909  31.578  1.00  0.00     0.022 A 
BRANCH  65  68
ATOM     68  S   UNL A   1      35.224  32.261  29.385  1.00  0.00     0.127 S 
ATOM     69  O   UNL A   1      34.295  32.598  30.461  1.00  0.00    -0.237 OA
ATOM     70  O   UNL A   1      36.009  33.390  28.883  1.00  0.00    -0.237 OA
ATOM     71  O   UNL A   1      34.698  31.384  28.349  1.00  0.00    -0.744 OA
ENDBRANCH  65  68
ENDBRANCH  47  61
BRANCH  48  72
ATOM     72  C   UNL A   1      47.476  27.779  26.546  1.00  0.00     0.023 A 
ATOM     73  C   UNL A   1      48.546  27.406  27.381  1.00  0.00     0.012 A 
ATOM     74  C   UNL A   1      47.662  27.783  25.150  1.00  0.00     0.148 A 
ATOM     75  C   UNL A   1      49.786  27.064  26.839  1.00  0.00     0.002 A 
ATOM     76  C   UNL A   1      48.884  27.392  24.613  1.00  0.00     0.091 A 
ATOM     77  F   UNL A   1      46.639  28.165  24.372  1.00  0.00    -0.205 F 
ATOM     78  C   UNL A   1      49.951  27.045  25.455  1.00  0.00     0.022 A 
BRANCH  76  79
ATOM     79  S   UNL A   1      49.135  27.215  22.843  1.00  0.00     0.127 S 
ATOM     80  O   UNL A   1      50.573  26.977  22.767  1.00  0.00    -0.237 OA
ATOM     81  O   UNL A   1      48.300  26.055  22.529  1.00  0.00    -0.237 OA
ATOM     82  O   UNL A   1      48.662  28.463  22.260  1.00  0.00    -0.744 OA
ENDBRANCH  76  79
ENDBRANCH  48  72
BRANCH  60  83
ATOM     83  C   UNL A   1      44.931  33.613  29.424  1.00  0.00     0.023 A 
ATOM     84  C   UNL A   1      45.608  33.904  30.624  1.00  0.00     0.012 A 
ATOM     85  C   UNL A   1      44.878  34.586  28.406  1.00  0.00     0.148 A 
ATOM     86  C   UNL A   1      46.204  35.151  30.819  1.00  0.00     0.002 A 
ATOM     87  C   UNL A   1      45.508  35.811  28.590  1.00  0.00     0.091 A 
ATOM     88  F   UNL A   1      44.210  34.299  27.279  1.00  0.00    -0.205 F 
ATOM     89  C   UNL A   1      46.164  36.099  29.799  1.00  0.00     0.022 A 
BRANCH  87  90
ATOM     90  S   UNL A   1      45.581  37.053  27.293  1.00  0.00     0.127 S 
ATOM     91  O   UNL A   1      44.163  37.293  27.029  1.00  0.00    -0.237 OA
ATOM     92  O   UNL A   1      46.274  38.160  27.953  1.00  0.00    -0.237 OA
ATOM     93  O   UNL A   1      46.331  36.441  26.204  1.00  0.00    -0.744 OA
ENDBRANCH  87  90
ENDBRANCH  60  83
ENDBRANCH  34  35
ENDBRANCH  27  29
ENDBRANCH  26  27
ENDBRANCH  25  26
ENDBRANCH  24  25
ENDBRANCH  23  24
ENDBRANCH   1  23
TORSDOF 21
ENDMDL
MODEL 3
REMARK VINA RESULT:     -10.3      2.143      7.932
REMARK SMILES C[C@H](NC(=O)c1cc(S(=O)(=O)N(C)C)cs1)C(=O)OCCOCCOC(=O)c1ccc(-c2c3nc(c(-c4cccc(S(=O)(=O)[O-])c4F)c4ccc([nH]4)c(-c4cccc(S(=O)(=O)[O-])c4F)c4nc(c(-c5cccc(S(=O)(=O)[O-])c5F)c5ccc2[nH]5)C=C4)C=C3)cc1
REMARK SMILES IDX 21 1 20 2 19 3 17 4 18 5 2 6 1 7 3 8 4 9 5 11 6 12 7 13
REMARK SMILES IDX 16 14 8 15 15 16 9 17 10 18 11 19 12 20 13 21 14 22 22 23
REMARK SMILES IDX 23 24 24 25 25 26 26 27 27 28 28 29 29 30 90 31 30 32 89 33
REMARK SMILES IDX 31 34 32 35 33 36 83 37 34 38 88 39 82 40 84 41 35 42 87 43
REMARK SMILES IDX 81 44 80 45 36 47 68 48 48 49 67 50 49 51 52 52 66 53 85 54
REMARK SMILES IDX 50 55 51 56 65 58 86 59 53 60 37 61 38 62 46 63 39 64 41 65
REMARK SMILES IDX 47 66 40 67 42 68 43 69 44 70 45 71 69 72 70 73 78 74 71 75
REMARK SMILES IDX 73 76 79 77 72 78 74 79 75 80 76 81 77 82 54 83 55 84 63 85
REMARK SMILES IDX 56 86 58 87 64 88 57 89 59 90 60 91 61 92 62 93
REMARK H PARENT 3 10 84 46 52 57
REMARK Flexibility Score: inf
ROOT
ATOM      1  C   UNL A   1      30.611  27.598  23.819  1.00  0.00     0.202 C 
ENDROOT
BRANCH   1   2
ATOM      2  C   UNL A   1      30.225  26.296  24.521  1.00  0.00     0.261 C 
BRANCH   2   3
ATOM      3  O   UNL A   1      31.092  25.999  25.626  1.00  0.00    -0.462 OA
BRANCH   3   4
ATOM      4  C   UNL A   1      31.033  24.713  26.071  1.00  0.00     0.328 C 
ATOM      5  O   UNL A   1      30.141  24.245  26.771  1.00  0.00    -0.250 OA
BRANCH   4   6
ATOM      6  C   UNL A   1      32.261  23.896  25.662  1.00  0.00     0.189 C 
ATOM      7  C   UNL A   1      33.225  23.861  26.849  1.00  0.00     0.043 C 
BRANCH   6   8
ATOM      8  N   UNL A   1      32.922  24.336  24.427  1.00  0.00    -0.338 N 
ATOM      9  C   UNL A   1      33.713  23.610  23.562  1.00  0.00     0.262 C 
ATOM     10  H   UNL A   1      32.780  25.279  24.181  1.00  0.00     0.164 HD
ATOM     11  O   UNL A   1      34.168  24.178  22.571  1.00  0.00    -0.268 OA
BRANCH   9  12
ATOM     12  C   UNL A   1      33.977  22.222  23.887  1.00  0.00     0.093 A 
ATOM     13  C   UNL A   1      33.221  21.097  23.620  1.00  0.00     0.047 A 
ATOM     14  S   UNL A   1      35.389  21.825  24.776  1.00  0.00    -0.137 S 
ATOM     15  C   UNL A   1      33.691  19.956  24.333  1.00  0.00     0.094 A 
ATOM     16  C   UNL A   1      34.870  20.208  25.000  1.00  0.00     0.087 A 
BRANCH  15  17
ATOM     17  S   UNL A   1      32.822  18.462  24.449  1.00  0.00     0.243 S 
ATOM     18  O   UNL A   1      32.153  18.522  25.727  1.00  0.00    -0.207 OA
ATOM     19  O   UNL A   1      32.095  18.411  23.197  1.00  0.00    -0.207 OA
BRANCH  17  20
ATOM     20  N   UNL A   1      33.939  17.169  24.475  1.00  0.00    -0.204 NA
ATOM     21  C   UNL A   1      33.625  16.101  25.448  1.00  0.00     0.124 C 
ATOM     22  C   UNL A   1      34.236  16.621  23.133  1.00  0.00     0.124 C 
ENDBRANCH  17  20
ENDBRANCH  15  17
ENDBRANCH   9  12
ENDBRANCH   6   8
ENDBRANCH   4   6
ENDBRANCH   3   4
ENDBRANCH   2   3
ENDBRANCH   1   2
BRANCH   1  23
ATOM     23  O   UNL A   1      30.501  28.785  24.602  1.00  0.00    -0.374 OA
BRANCH  23  24
ATOM     24  C   UNL A   1      31.706  29.323  25.157  1.00  0.00     0.202 C 
BRANCH  24  25
ATOM     25  C   UNL A   1      31.618  30.742  25.732  1.00  0.00     0.261 C 
BRANCH  25  26
ATOM     26  O   UNL A   1      32.206  30.821  27.046  1.00  0.00    -0.460 OA
BRANCH  26  27
ATOM     27  C   UNL A   1      32.949  31.934  27.270  1.00  0.00     0.338 C 
ATOM     28  O   UNL A   1      32.563  33.092  27.250  1.00  0.00    -0.246 OA
BRANCH  27  29
ATOM     29  C   UNL A   1      34.294  31.561  27.748  1.00  0.00     0.060 A 
ATOM     30  C   UNL A   1      34.532  30.207  28.022  1.00  0.00     0.016 A 
ATOM     31  C   UNL A   1      35.270  32.522  28.018  1.00  0.00     0.016 A 
ATOM     32  C   UNL A   1      35.731  29.815  28.616  1.00  0.00     0.010 A 
ATOM     33  C   UNL A   1      36.468  32.127  28.625  1.00  0.00     0.010 A 
ATOM     34  C   UNL A   1      36.688  30.778  28.960  1.00  0.00    -0.014 A 
BRANCH  34  35
ATOM     35  C   UNL A   1      37.853  30.387  29.791  1.00  0.00     0.031 A 
ATOM     36  C   UNL A   1      38.870  29.434  29.227  1.00  0.00     0.074 A 
ATOM     37  C   UNL A   1      38.007  30.882  31.032  1.00  0.00     0.049 A 
ATOM     38  N   UNL A   1      39.969  28.980  29.772  1.00  0.00    -0.248 NA
ATOM     39  C   UNL A   1      38.619  28.929  27.867  1.00  0.00     0.031 C 
ATOM     40  C   UNL A   1      37.090  31.808  31.692  1.00  0.00     0.029 A 
ATOM     41  N   UNL A   1      38.989  30.656  31.965  1.00  0.00    -0.354 N 
ATOM     42  C   UNL A   1      40.531  28.122  28.834  1.00  0.00     0.074 A 
ATOM     43  C   UNL A   1      39.647  28.110  27.687  1.00  0.00     0.031 C 
ATOM     44  C   UNL A   1      37.537  32.050  32.937  1.00  0.00     0.029 A 
ATOM     45  C   UNL A   1      38.764  31.288  33.164  1.00  0.00     0.049 A 
ATOM     46  H   UNL A   1      39.779  30.093  31.792  1.00  0.00     0.167 HD
ATOM     47  C   UNL A   1      41.690  27.426  28.908  1.00  0.00     0.034 A 
ATOM     48  C   UNL A   1      39.462  31.248  34.316  1.00  0.00     0.034 A 
ATOM     49  C   UNL A   1      42.581  27.453  30.035  1.00  0.00     0.049 A 
ATOM     50  C   UNL A   1      40.737  30.446  34.381  1.00  0.00     0.074 A 
ATOM     51  C   UNL A   1      43.805  26.824  30.179  1.00  0.00     0.029 A 
ATOM     52  N   UNL A   1      42.339  28.135  31.216  1.00  0.00    -0.354 N 
ATOM     53  N   UNL A   1      41.328  29.758  33.434  1.00  0.00    -0.248 NA
ATOM     54  C   UNL A   1      41.457  30.440  35.663  1.00  0.00     0.031 C 
ATOM     55  C   UNL A   1      44.297  27.115  31.456  1.00  0.00     0.029 A 
ATOM     56  C   UNL A   1      43.384  27.933  32.102  1.00  0.00     0.049 A 
ATOM     57  H   UNL A   1      41.542  28.682  31.399  1.00  0.00     0.167 HD
ATOM     58  C   UNL A   1      42.502  29.265  33.996  1.00  0.00     0.074 A 
ATOM     59  C   UNL A   1      42.548  29.749  35.360  1.00  0.00     0.031 C 
ATOM     60  C   UNL A   1      43.446  28.466  33.438  1.00  0.00     0.034 A 
BRANCH  47  61
ATOM     61  C   UNL A   1      42.086  26.609  27.708  1.00  0.00     0.023 A 
ATOM     62  C   UNL A   1      42.775  27.231  26.648  1.00  0.00     0.012 A 
ATOM     63  C   UNL A   1      41.827  25.226  27.650  1.00  0.00     0.148 A 
ATOM     64  C   UNL A   1      43.182  26.494  25.536  1.00  0.00     0.002 A 
ATOM     65  C   UNL A   1      42.266  24.492  26.553  1.00  0.00     0.091 A 
ATOM     66  F   UNL A   1      41.146  24.659  28.655  1.00  0.00    -0.205 F 
ATOM     67  C   UNL A   1      42.937  25.125  25.494  1.00  0.00     0.022 A 
BRANCH  65  68
ATOM     68  S   UNL A   1      42.049  22.711  26.441  1.00  0.00     0.127 S 
ATOM     69  O   UNL A   1      42.647  22.423  25.138  1.00  0.00    -0.237 OA
ATOM     70  O   UNL A   1      42.823  22.230  27.585  1.00  0.00    -0.237 OA
ATOM     71  O   UNL A   1      40.615  22.480  26.542  1.00  0.00    -0.744 OA
ENDBRANCH  65  68
ENDBRANCH  47  61
BRANCH  48  72
ATOM     72  C   UNL A   1      38.996  32.033  35.493  1.00  0.00     0.023 A 
ATOM     73  C   UNL A   1      39.175  33.429  35.509  1.00  0.00     0.012 A 
ATOM     74  C   UNL A   1      38.353  31.410  36.580  1.00  0.00     0.148 A 
ATOM     75  C   UNL A   1      38.742  34.189  36.596  1.00  0.00     0.002 A 
ATOM     76  C   UNL A   1      37.878  32.178  37.637  1.00  0.00     0.091 A 
ATOM     77  F   UNL A   1      38.215  30.077  36.559  1.00  0.00    -0.205 F 
ATOM     78  C   UNL A   1      38.083  33.566  37.654  1.00  0.00     0.022 A 
BRANCH  76  79
ATOM     79  S   UNL A   1      36.905  31.469  38.970  1.00  0.00     0.127 S 
ATOM     80  O   UNL A   1      35.727  32.331  38.973  1.00  0.00    -0.237 OA
ATOM     81  O   UNL A   1      36.673  30.107  38.489  1.00  0.00    -0.237 OA
ATOM     82  O   UNL A   1      37.755  31.545  40.151  1.00  0.00    -0.744 OA
ENDBRANCH  76  79
ENDBRANCH  48  72
BRANCH  60  83
ATOM     83  C   UNL A   1      44.623  28.072  34.290  1.00  0.00     0.023 A 
ATOM     84  C   UNL A   1      45.761  28.900  34.324  1.00  0.00     0.012 A 
ATOM     85  C   UNL A   1      44.571  26.933  35.119  1.00  0.00     0.148 A 
ATOM     86  C   UNL A   1      46.841  28.590  35.151  1.00  0.00     0.002 A 
ATOM     87  C   UNL A   1      45.633  26.652  35.971  1.00  0.00     0.091 A 
ATOM     88  F   UNL A   1      43.488  26.144  35.057  1.00  0.00    -0.205 F 
ATOM     89  C   UNL A   1      46.772  27.474  35.982  1.00  0.00     0.022 A 
BRANCH  87  90
ATOM     90  S   UNL A   1      45.585  25.286  37.137  1.00  0.00     0.127 S 
ATOM     91  O   UNL A   1      44.436  25.642  37.969  1.00  0.00    -0.237 OA
ATOM     92  O   UNL A   1      45.371  24.131  36.264  1.00  0.00    -0.237 OA
ATOM     93  O   UNL A   1      46.878  25.296  37.810  1.00  0.00    -0.744 OA
ENDBRANCH  87  90
ENDBRANCH  60  83
ENDBRANCH  34  35
ENDBRANCH  27  29
ENDBRANCH  26  27
ENDBRANCH  25  26
ENDBRANCH  24  25
ENDBRANCH  23  24
ENDBRANCH   1  23
TORSDOF 21
ENDMDL
