MODEL 1
REMARK VINA RESULT:     -13.1      0.000      0.000
REMARK SMILES Cc1ccc(-c2cc(C(=O)OCCOCCOC(=O)c3ccc(-c4c5nc(c(-c6cccc(S(=O)(=O)[O-])c6F)c6ccc([nH]6)c(-c6cccc(S(=O)(=O)[O-])c6F)c6nc(c(-c7cccc(S(=O)(=O)[O-])c7F)c7ccc4[nH]7)C=C6)C=C5)cc3)c3c(-c4cccc([N+](=O)[O-])c4)[nH]nc3n2)cc1
REMARK SMILES IDX 15 1 14 2 13 3 12 4 11 5 9 6 10 7 8 8 6 9 7 10 97 11 96 12
REMARK SMILES IDX 83 13 95 14 84 15 94 16 5 18 1 19 2 20 3 21 99 22 4 23 98 24
REMARK SMILES IDX 85 25 86 26 93 27 87 28 89 29 88 30 90 31 91 32 92 33 16 34
REMARK SMILES IDX 17 35 18 36 19 37 20 38 21 39 82 40 22 41 81 42 23 43 24 44
REMARK SMILES IDX 25 45 75 46 26 47 80 48 74 49 76 50 27 51 79 52 73 53 72 54
REMARK SMILES IDX 28 56 60 57 40 58 59 59 41 60 44 61 58 62 77 63 42 64 43 65
REMARK SMILES IDX 57 67 78 68 45 69 29 70 30 71 38 72 31 73 33 74 39 75 32 76
REMARK SMILES IDX 34 77 35 78 36 79 37 80 61 81 62 82 70 83 63 84 65 85 71 86
REMARK SMILES IDX 64 87 66 88 67 89 68 90 69 91 46 92 47 93 55 94 48 95 50 96
REMARK SMILES IDX 56 97 49 98 51 99 52 100 53 101 54 102
REMARK H PARENT 94 17 76 55 44 66
REMARK Flexibility Score: inf
ROOT
ATOM      1  C   UNL A   1      32.596  29.757  26.341  1.00  0.00     0.202 C 
ENDROOT
BRANCH   1   2
ATOM      2  O   UNL A   1      33.755  29.184  25.821  1.00  0.00    -0.374 OA
BRANCH   2   3
ATOM      3  C   UNL A   1      33.812  27.782  25.754  1.00  0.00     0.202 C 
BRANCH   3   4
ATOM      4  C   UNL A   1      34.030  27.578  24.302  1.00  0.00     0.261 C 
BRANCH   4   5
ATOM      5  O   UNL A   1      34.094  26.154  23.984  1.00  0.00    -0.460 OA
BRANCH   5   6
ATOM      6  C   UNL A   1      33.193  25.462  23.212  1.00  0.00     0.339 C 
ATOM      7  O   UNL A   1      33.387  24.730  22.285  1.00  0.00    -0.246 OA
BRANCH   6   8
ATOM      8  C   UNL A   1      31.863  25.735  23.741  1.00  0.00     0.075 A 
ATOM      9  C   UNL A   1      29.880  27.186  23.636  1.00  0.00     0.074 A 
ATOM     10  C   UNL A   1      31.089  26.709  23.117  1.00  0.00     0.045 A 
ATOM     11  N   UNL A   1      29.291  26.756  24.787  1.00  0.00    -0.226 NA
ATOM     12  C   UNL A   1      29.971  25.721  25.377  1.00  0.00     0.182 A 
ATOM     13  C   UNL A   1      31.226  25.215  24.872  1.00  0.00     0.061 A 
ATOM     14  N   UNL A   1      29.603  25.073  26.484  1.00  0.00    -0.154 NA
ATOM     15  C   UNL A   1      31.591  24.186  25.730  1.00  0.00     0.076 A 
ATOM     16  N   UNL A   1      30.557  24.134  26.639  1.00  0.00    -0.275 N 
ATOM     17  H   UNL A   1      30.518  23.457  27.353  1.00  0.00     0.190 HD
BRANCH   9  18
ATOM     18  C   UNL A   1      29.291  28.295  22.864  1.00  0.00     0.000 A 
ATOM     19  C   UNL A   1      27.897  32.073  21.263  1.00  0.00     0.044 C 
ATOM     20  C   UNL A   1      28.384  30.767  21.819  1.00  0.00    -0.051 A 
ATOM     21  C   UNL A   1      27.528  29.946  22.566  1.00  0.00     0.004 A 
ATOM     22  C   UNL A   1      29.696  30.350  21.593  1.00  0.00     0.004 A 
ATOM     23  C   UNL A   1      27.976  28.722  23.084  1.00  0.00     0.010 A 
ATOM     24  C   UNL A   1      30.137  29.127  22.099  1.00  0.00     0.010 A 
ENDBRANCH   9  18
BRANCH  15  25
ATOM     25  C   UNL A   1      32.701  23.229  25.819  1.00  0.00     0.007 A 
ATOM     26  C   UNL A   1      33.930  23.598  26.386  1.00  0.00     0.011 A 
ATOM     27  C   UNL A   1      32.555  21.922  25.334  1.00  0.00     0.096 A 
ATOM     28  C   UNL A   1      34.980  22.673  26.500  1.00  0.00     0.008 A 
ATOM     29  C   UNL A   1      33.604  20.991  25.471  1.00  0.00     0.270 A 
ATOM     30  C   UNL A   1      34.822  21.363  26.052  1.00  0.00     0.085 A 
BRANCH  29  31
ATOM     31  N   UNL A   1      33.390  19.598  25.060  1.00  0.00     0.062 N 
ATOM     32  O   UNL A   1      34.347  18.968  24.590  1.00  0.00    -0.258 OA
ATOM     33  O   UNL A   1      32.257  19.117  25.227  1.00  0.00    -0.258 OA
ENDBRANCH  29  31
ENDBRANCH  15  25
ENDBRANCH   6   8
ENDBRANCH   5   6
ENDBRANCH   4   5
ENDBRANCH   3   4
ENDBRANCH   2   3
ENDBRANCH   1   2
BRANCH   1  34
ATOM     34  C   UNL A   1      33.026  30.744  27.412  1.00  0.00     0.261 C 
BRANCH  34  35
ATOM     35  O   UNL A   1      34.358  31.245  27.105  1.00  0.00    -0.460 OA
BRANCH  35  36
ATOM     36  C   UNL A   1      35.193  31.481  28.172  1.00  0.00     0.338 C 
ATOM     37  O   UNL A   1      35.295  32.568  28.719  1.00  0.00    -0.246 OA
BRANCH  36  38
ATOM     38  C   UNL A   1      36.104  30.302  28.423  1.00  0.00     0.060 A 
ATOM     39  C   UNL A   1      36.234  29.716  29.695  1.00  0.00     0.016 A 
ATOM     40  C   UNL A   1      37.071  30.020  27.472  1.00  0.00     0.016 A 
ATOM     41  C   UNL A   1      37.431  29.061  30.069  1.00  0.00     0.010 A 
ATOM     42  C   UNL A   1      38.265  29.447  27.875  1.00  0.00     0.010 A 
ATOM     43  C   UNL A   1      38.507  29.053  29.198  1.00  0.00    -0.014 A 
BRANCH  43  44
ATOM     44  C   UNL A   1      39.902  28.633  29.458  1.00  0.00     0.031 A 
ATOM     45  C   UNL A   1      40.209  27.220  29.143  1.00  0.00     0.074 A 
ATOM     46  C   UNL A   1      40.943  29.506  29.585  1.00  0.00     0.049 A 
ATOM     47  N   UNL A   1      41.378  26.703  29.255  1.00  0.00    -0.248 NA
ATOM     48  C   UNL A   1      39.203  26.250  28.706  1.00  0.00     0.031 C 
ATOM     49  C   UNL A   1      42.298  29.375  29.023  1.00  0.00     0.029 A 
ATOM     50  N   UNL A   1      40.997  30.785  30.146  1.00  0.00    -0.354 N 
ATOM     51  C   UNL A   1      41.357  25.493  28.609  1.00  0.00     0.074 A 
ATOM     52  C   UNL A   1      39.963  25.185  28.434  1.00  0.00     0.031 C 
ATOM     53  C   UNL A   1      43.074  30.400  29.426  1.00  0.00     0.029 A 
ATOM     54  C   UNL A   1      42.318  31.154  30.411  1.00  0.00     0.049 A 
ATOM     55  H   UNL A   1      40.210  31.349  30.328  1.00  0.00     0.167 HD
ATOM     56  C   UNL A   1      42.541  24.992  28.169  1.00  0.00     0.034 A 
ATOM     57  C   UNL A   1      42.701  31.547  31.657  1.00  0.00     0.034 A 
ATOM     58  C   UNL A   1      43.666  25.798  28.696  1.00  0.00     0.049 A 
ATOM     59  C   UNL A   1      43.633  30.494  32.194  1.00  0.00     0.074 A 
ATOM     60  C   UNL A   1      44.554  26.692  28.124  1.00  0.00     0.029 A 
ATOM     61  N   UNL A   1      43.793  25.962  30.080  1.00  0.00    -0.354 N 
ATOM     62  N   UNL A   1      43.806  29.357  31.582  1.00  0.00    -0.248 NA
ATOM     63  C   UNL A   1      44.491  30.620  33.365  1.00  0.00     0.031 C 
ATOM     64  C   UNL A   1      45.145  27.456  29.178  1.00  0.00     0.029 A 
ATOM     65  C   UNL A   1      44.664  26.994  30.397  1.00  0.00     0.049 A 
ATOM     66  H   UNL A   1      43.322  25.412  30.747  1.00  0.00     0.167 HD
ATOM     67  C   UNL A   1      44.712  28.591  32.223  1.00  0.00     0.074 A 
ATOM     68  C   UNL A   1      45.138  29.439  33.330  1.00  0.00     0.031 C 
ATOM     69  C   UNL A   1      44.975  27.320  31.799  1.00  0.00     0.034 A 
BRANCH  56  70
ATOM     70  C   UNL A   1      42.713  23.887  27.137  1.00  0.00     0.023 A 
ATOM     71  C   UNL A   1      43.393  24.234  25.949  1.00  0.00     0.012 A 
ATOM     72  C   UNL A   1      42.205  22.562  27.191  1.00  0.00     0.148 A 
ATOM     73  C   UNL A   1      43.565  23.336  24.888  1.00  0.00     0.002 A 
ATOM     74  C   UNL A   1      42.438  21.642  26.160  1.00  0.00     0.091 A 
ATOM     75  F   UNL A   1      41.399  22.189  28.188  1.00  0.00    -0.205 F 
ATOM     76  C   UNL A   1      43.107  22.033  25.000  1.00  0.00     0.022 A 
BRANCH  74  77
ATOM     77  S   UNL A   1      41.912  19.917  26.245  1.00  0.00     0.127 S 
ATOM     78  O   UNL A   1      40.462  20.031  26.083  1.00  0.00    -0.237 OA
ATOM     79  O   UNL A   1      42.605  19.321  25.103  1.00  0.00    -0.237 OA
ATOM     80  O   UNL A   1      42.347  19.419  27.544  1.00  0.00    -0.744 OA
ENDBRANCH  74  77
ENDBRANCH  56  70
BRANCH  57  81
ATOM     81  C   UNL A   1      41.627  32.313  32.372  1.00  0.00     0.023 A 
ATOM     82  C   UNL A   1      41.219  33.548  31.799  1.00  0.00     0.012 A 
ATOM     83  C   UNL A   1      40.723  31.642  33.217  1.00  0.00     0.148 A 
ATOM     84  C   UNL A   1      39.916  34.035  31.968  1.00  0.00     0.002 A 
ATOM     85  C   UNL A   1      39.403  32.087  33.309  1.00  0.00     0.091 A 
ATOM     86  F   UNL A   1      41.140  30.534  33.842  1.00  0.00    -0.205 F 
ATOM     87  C   UNL A   1      38.991  33.269  32.670  1.00  0.00     0.022 A 
BRANCH  85  88
ATOM     88  S   UNL A   1      38.113  31.065  34.038  1.00  0.00     0.127 S 
ATOM     89  O   UNL A   1      38.263  29.820  33.293  1.00  0.00    -0.237 OA
ATOM     90  O   UNL A   1      38.532  30.995  35.439  1.00  0.00    -0.237 OA
ATOM     91  O   UNL A   1      36.872  31.792  33.818  1.00  0.00    -0.744 OA
ENDBRANCH  85  88
ENDBRANCH  57  81
BRANCH  69  92
ATOM     92  C   UNL A   1      45.565  26.274  32.707  1.00  0.00     0.023 A 
ATOM     93  C   UNL A   1      46.958  26.164  32.897  1.00  0.00     0.012 A 
ATOM     94  C   UNL A   1      44.743  25.480  33.538  1.00  0.00     0.148 A 
ATOM     95  C   UNL A   1      47.515  25.244  33.782  1.00  0.00     0.002 A 
ATOM     96  C   UNL A   1      45.299  24.673  34.520  1.00  0.00     0.091 A 
ATOM     97  F   UNL A   1      43.413  25.488  33.377  1.00  0.00    -0.205 F 
ATOM     98  C   UNL A   1      46.683  24.513  34.613  1.00  0.00     0.022 A 
BRANCH  96  99
ATOM     99  S   UNL A   1      44.286  23.946  35.812  1.00  0.00     0.127 S 
ATOM    100  O   UNL A   1      43.702  25.134  36.431  1.00  0.00    -0.237 OA
ATOM    101  O   UNL A   1      43.347  23.132  35.040  1.00  0.00    -0.237 OA
ATOM    102  O   UNL A   1      45.204  23.178  36.642  1.00  0.00    -0.744 OA
ENDBRANCH  96  99
ENDBRANCH  69  92
ENDBRANCH  43  44
ENDBRANCH  36  38
ENDBRANCH  35  36
ENDBRANCH  34  35
ENDBRANCH   1  34
TORSDOF 20
ENDMDL
MODEL 2
REMARK VINA RESULT:     -12.9      4.037      9.023
REMARK SMILES Cc1ccc(-c2cc(C(=O)OCCOCCOC(=O)c3ccc(-c4c5nc(c(-c6cccc(S(=O)(=O)[O-])c6F)c6ccc([nH]6)c(-c6cccc(S(=O)(=O)[O-])c6F)c6nc(c(-c7cccc(S(=O)(=O)[O-])c7F)c7ccc4[nH]7)C=C6)C=C5)cc3)c3c(-c4cccc([N+](=O)[O-])c4)[nH]nc3n2)cc1
REMARK SMILES IDX 15 1 14 2 13 3 12 4 11 5 9 6 10 7 8 8 6 9 7 10 97 11 96 12
REMARK SMILES IDX 83 13 95 14 84 15 94 16 5 18 1 19 2 20 3 21 99 22 4 23 98 24
REMARK SMILES IDX 85 25 86 26 93 27 87 28 89 29 88 30 90 31 91 32 92 33 16 34
REMARK SMILES IDX 17 35 18 36 19 37 20 38 21 39 82 40 22 41 81 42 23 43 24 44
REMARK SMILES IDX 25 45 75 46 26 47 80 48 74 49 76 50 27 51 79 52 73 53 72 54
REMARK SMILES IDX 28 56 60 57 40 58 59 59 41 60 44 61 58 62 77 63 42 64 43 65
REMARK SMILES IDX 57 67 78 68 45 69 29 70 30 71 38 72 31 73 33 74 39 75 32 76
REMARK SMILES IDX 34 77 35 78 36 79 37 80 61 81 62 82 70 83 63 84 65 85 71 86
REMARK SMILES IDX 64 87 66 88 67 89 68 90 69 91 46 92 47 93 55 94 48 95 50 96
REMARK SMILES IDX 56 97 49 98 51 99 52 100 53 101 54 102
REMARK H PARENT 94 17 76 55 44 66
REMARK Flexibility Score: inf
ROOT
ATOM      1  C   UNL A   1      38.647  21.149  25.446  1.00  0.00     0.202 C 
ENDROOT
BRANCH   1   2
ATOM      2  O   UNL A   1      37.410  20.890  24.857  1.00  0.00    -0.374 OA
BRANCH   2   3
ATOM      3  C   UNL A   1      36.943  21.805  23.899  1.00  0.00     0.202 C 
BRANCH   3   4
ATOM      4  C   UNL A   1      35.503  21.867  24.247  1.00  0.00     0.261 C 
BRANCH   4   5
ATOM      5  O   UNL A   1      35.071  23.252  24.411  1.00  0.00    -0.460 OA
BRANCH   5   6
ATOM      6  C   UNL A   1      34.075  23.873  23.697  1.00  0.00     0.339 C 
ATOM      7  O   UNL A   1      33.932  23.969  22.512  1.00  0.00    -0.246 OA
BRANCH   6   8
ATOM      8  C   UNL A   1      33.120  24.412  24.656  1.00  0.00     0.075 A 
ATOM      9  C   UNL A   1      32.457  26.357  26.009  1.00  0.00     0.074 A 
ATOM     10  C   UNL A   1      33.193  25.765  24.975  1.00  0.00     0.045 A 
ATOM     11  N   UNL A   1      31.567  25.711  26.813  1.00  0.00    -0.226 NA
ATOM     12  C   UNL A   1      31.387  24.398  26.461  1.00  0.00     0.182 A 
ATOM     13  C   UNL A   1      32.140  23.757  25.408  1.00  0.00     0.061 A 
ATOM     14  N   UNL A   1      30.545  23.540  27.040  1.00  0.00    -0.154 NA
ATOM     15  C   UNL A   1      31.678  22.448  25.358  1.00  0.00     0.076 A 
ATOM     16  N   UNL A   1      30.703  22.406  26.330  1.00  0.00    -0.275 N 
ATOM     17  H   UNL A   1      30.158  21.603  26.495  1.00  0.00     0.190 HD
BRANCH   9  18
ATOM     18  C   UNL A   1      32.779  27.777  26.237  1.00  0.00     0.000 A 
ATOM     19  C   UNL A   1      33.768  31.702  27.784  1.00  0.00     0.044 C 
ATOM     20  C   UNL A   1      33.429  30.341  27.252  1.00  0.00    -0.051 A 
ATOM     21  C   UNL A   1      32.099  29.994  26.973  1.00  0.00     0.004 A 
ATOM     22  C   UNL A   1      34.436  29.403  27.020  1.00  0.00     0.004 A 
ATOM     23  C   UNL A   1      31.776  28.726  26.471  1.00  0.00     0.010 A 
ATOM     24  C   UNL A   1      34.114  28.145  26.510  1.00  0.00     0.010 A 
ENDBRANCH   9  18
BRANCH  15  25
ATOM     25  C   UNL A   1      31.957  21.260  24.541  1.00  0.00     0.007 A 
ATOM     26  C   UNL A   1      31.853  21.304  23.142  1.00  0.00     0.011 A 
ATOM     27  C   UNL A   1      32.333  20.053  25.145  1.00  0.00     0.096 A 
ATOM     28  C   UNL A   1      32.152  20.177  22.359  1.00  0.00     0.008 A 
ATOM     29  C   UNL A   1      32.654  18.931  24.354  1.00  0.00     0.270 A 
ATOM     30  C   UNL A   1      32.563  18.988  22.959  1.00  0.00     0.085 A 
BRANCH  29  31
ATOM     31  N   UNL A   1      33.155  17.712  25.001  1.00  0.00     0.062 N 
ATOM     32  O   UNL A   1      34.318  17.355  24.765  1.00  0.00    -0.258 OA
ATOM     33  O   UNL A   1      32.388  17.113  25.772  1.00  0.00    -0.258 OA
ENDBRANCH  29  31
ENDBRANCH  15  25
ENDBRANCH   6   8
ENDBRANCH   5   6
ENDBRANCH   4   5
ENDBRANCH   3   4
ENDBRANCH   2   3
ENDBRANCH   1   2
BRANCH   1  34
ATOM     34  C   UNL A   1      38.542  22.501  26.131  1.00  0.00     0.261 C 
BRANCH  34  35
ATOM     35  O   UNL A   1      39.334  22.491  27.352  1.00  0.00    -0.460 OA
BRANCH  35  36
ATOM     36  C   UNL A   1      40.407  23.348  27.401  1.00  0.00     0.338 C 
ATOM     37  O   UNL A   1      41.564  22.973  27.517  1.00  0.00    -0.246 OA
BRANCH  36  38
ATOM     38  C   UNL A   1      39.953  24.784  27.516  1.00  0.00     0.060 A 
ATOM     39  C   UNL A   1      40.216  25.732  26.510  1.00  0.00     0.016 A 
ATOM     40  C   UNL A   1      39.581  25.246  28.767  1.00  0.00     0.016 A 
ATOM     41  C   UNL A   1      40.333  27.106  26.826  1.00  0.00     0.010 A 
ATOM     42  C   UNL A   1      39.775  26.581  29.078  1.00  0.00     0.010 A 
ATOM     43  C   UNL A   1      40.252  27.514  28.147  1.00  0.00    -0.014 A 
BRANCH  43  44
ATOM     44  C   UNL A   1      40.562  28.840  28.725  1.00  0.00     0.031 A 
ATOM     45  C   UNL A   1      39.476  29.841  28.635  1.00  0.00     0.074 A 
ATOM     46  C   UNL A   1      41.567  29.058  29.621  1.00  0.00     0.049 A 
ATOM     47  N   UNL A   1      39.551  31.022  29.132  1.00  0.00    -0.248 NA
ATOM     48  C   UNL A   1      38.211  29.604  27.936  1.00  0.00     0.031 C 
ATOM     49  C   UNL A   1      41.525  29.898  30.830  1.00  0.00     0.029 A 
ATOM     50  N   UNL A   1      42.833  28.478  29.731  1.00  0.00    -0.354 N 
ATOM     51  C   UNL A   1      38.287  31.553  29.126  1.00  0.00     0.074 A 
ATOM     52  C   UNL A   1      37.532  30.716  28.233  1.00  0.00     0.031 C 
ATOM     53  C   UNL A   1      42.734  29.929  31.423  1.00  0.00     0.029 A 
ATOM     54  C   UNL A   1      43.668  29.256  30.537  1.00  0.00     0.049 A 
ATOM     55  H   UNL A   1      43.100  27.634  29.299  1.00  0.00     0.167 HD
ATOM     56  C   UNL A   1      38.017  32.548  30.011  1.00  0.00     0.034 A 
ATOM     57  C   UNL A   1      44.873  29.696  30.082  1.00  0.00     0.034 A 
ATOM     58  C   UNL A   1      39.264  33.003  30.668  1.00  0.00     0.049 A 
ATOM     59  C   UNL A   1      44.786  31.192  29.949  1.00  0.00     0.074 A 
ATOM     60  C   UNL A   1      39.778  32.865  31.945  1.00  0.00     0.029 A 
ATOM     61  N   UNL A   1      40.323  33.454  29.873  1.00  0.00    -0.354 N 
ATOM     62  N   UNL A   1      43.653  31.825  30.071  1.00  0.00    -0.248 NA
ATOM     63  C   UNL A   1      45.904  32.106  29.758  1.00  0.00     0.031 C 
ATOM     64  C   UNL A   1      41.177  33.151  31.886  1.00  0.00     0.029 A 
ATOM     65  C   UNL A   1      41.510  33.517  30.588  1.00  0.00     0.049 A 
ATOM     66  H   UNL A   1      40.237  33.697  28.923  1.00  0.00     0.167 HD
ATOM     67  C   UNL A   1      43.824  33.158  29.952  1.00  0.00     0.074 A 
ATOM     68  C   UNL A   1      45.265  33.292  29.780  1.00  0.00     0.031 C 
ATOM     69  C   UNL A   1      42.750  34.001  29.958  1.00  0.00     0.034 A 
BRANCH  56  70
ATOM     70  C   UNL A   1      36.631  33.019  30.427  1.00  0.00     0.023 A 
ATOM     71  C   UNL A   1      36.135  32.516  31.650  1.00  0.00     0.012 A 
ATOM     72  C   UNL A   1      35.738  33.847  29.696  1.00  0.00     0.148 A 
ATOM     73  C   UNL A   1      34.850  32.812  32.123  1.00  0.00     0.002 A 
ATOM     74  C   UNL A   1      34.481  34.202  30.202  1.00  0.00     0.091 A 
ATOM     75  F   UNL A   1      36.040  34.229  28.453  1.00  0.00    -0.205 F 
ATOM     76  C   UNL A   1      34.030  33.672  31.411  1.00  0.00     0.022 A 
BRANCH  74  77
ATOM     77  S   UNL A   1      33.369  35.347  29.358  1.00  0.00     0.127 S 
ATOM     78  O   UNL A   1      32.615  35.919  30.473  1.00  0.00    -0.237 OA
ATOM     79  O   UNL A   1      34.302  36.273  28.716  1.00  0.00    -0.237 OA
ATOM     80  O   UNL A   1      32.581  34.544  28.431  1.00  0.00    -0.744 OA
ENDBRANCH  74  77
ENDBRANCH  56  70
BRANCH  57  81
ATOM     81  C   UNL A   1      45.541  28.703  29.176  1.00  0.00     0.023 A 
ATOM     82  C   UNL A   1      45.930  27.461  29.748  1.00  0.00     0.012 A 
ATOM     83  C   UNL A   1      45.322  28.755  27.786  1.00  0.00     0.148 A 
ATOM     84  C   UNL A   1      45.982  26.289  28.980  1.00  0.00     0.002 A 
ATOM     85  C   UNL A   1      45.291  27.571  27.047  1.00  0.00     0.091 A 
ATOM     86  F   UNL A   1      45.059  29.943  27.229  1.00  0.00    -0.205 F 
ATOM     87  C   UNL A   1      45.599  26.336  27.643  1.00  0.00     0.022 A 
BRANCH  85  88
ATOM     88  S   UNL A   1      44.631  27.522  25.373  1.00  0.00     0.127 S 
ATOM     89  O   UNL A   1      45.660  28.239  24.627  1.00  0.00    -0.237 OA
ATOM     90  O   UNL A   1      44.574  26.084  25.107  1.00  0.00    -0.237 OA
ATOM     91  O   UNL A   1      43.332  28.172  25.449  1.00  0.00    -0.744 OA
ENDBRANCH  85  88
ENDBRANCH  57  81
BRANCH  69  92
ATOM     92  C   UNL A   1      42.806  35.380  29.355  1.00  0.00     0.023 A 
ATOM     93  C   UNL A   1      42.019  35.728  28.239  1.00  0.00     0.012 A 
ATOM     94  C   UNL A   1      43.515  36.426  29.989  1.00  0.00     0.148 A 
ATOM     95  C   UNL A   1      42.013  37.017  27.709  1.00  0.00     0.002 A 
ATOM     96  C   UNL A   1      43.389  37.734  29.546  1.00  0.00     0.091 A 
ATOM     97  F   UNL A   1      44.328  36.162  31.020  1.00  0.00    -0.205 F 
ATOM     98  C   UNL A   1      42.681  38.028  28.378  1.00  0.00     0.022 A 
BRANCH  96  99
ATOM     99  S   UNL A   1      43.973  39.112  30.536  1.00  0.00     0.127 S 
ATOM    100  O   UNL A   1      45.418  39.030  30.332  1.00  0.00    -0.237 OA
ATOM    101  O   UNL A   1      43.325  40.251  29.885  1.00  0.00    -0.237 OA
ATOM    102  O   UNL A   1      43.503  38.849  31.889  1.00  0.00    -0.744 OA
ENDBRANCH  96  99
ENDBRANCH  69  92
ENDBRANCH  43  44
ENDBRANCH  36  38
ENDBRANCH  35  36
ENDBRANCH  34  35
ENDBRANCH   1  34
TORSDOF 20
ENDMDL
MODEL 3
REMARK VINA RESULT:     -12.8      2.543      5.200
REMARK SMILES Cc1ccc(-c2cc(C(=O)OCCOCCOC(=O)c3ccc(-c4c5nc(c(-c6cccc(S(=O)(=O)[O-])c6F)c6ccc([nH]6)c(-c6cccc(S(=O)(=O)[O-])c6F)c6nc(c(-c7cccc(S(=O)(=O)[O-])c7F)c7ccc4[nH]7)C=C6)C=C5)cc3)c3c(-c4cccc([N+](=O)[O-])c4)[nH]nc3n2)cc1
REMARK SMILES IDX 15 1 14 2 13 3 12 4 11 5 9 6 10 7 8 8 6 9 7 10 97 11 96 12
REMARK SMILES IDX 83 13 95 14 84 15 94 16 5 18 1 19 2 20 3 21 99 22 4 23 98 24
REMARK SMILES IDX 85 25 86 26 93 27 87 28 89 29 88 30 90 31 91 32 92 33 16 34
REMARK SMILES IDX 17 35 18 36 19 37 20 38 21 39 82 40 22 41 81 42 23 43 24 44
REMARK SMILES IDX 25 45 75 46 26 47 80 48 74 49 76 50 27 51 79 52 73 53 72 54
REMARK SMILES IDX 28 56 60 57 40 58 59 59 41 60 44 61 58 62 77 63 42 64 43 65
REMARK SMILES IDX 57 67 78 68 45 69 29 70 30 71 38 72 31 73 33 74 39 75 32 76
REMARK SMILES IDX 34 77 35 78 36 79 37 80 61 81 62 82 70 83 63 84 65 85 71 86
REMARK SMILES IDX 64 87 66 88 67 89 68 90 69 91 46 92 47 93 55 94 48 95 50 96
REMARK SMILES IDX 56 97 49 98 51 99 52 100 53 101 54 102
REMARK H PARENT 94 17 76 55 44 66
REMARK Flexibility Score: inf
ROOT
ATOM      1  C   UNL A   1      31.950  30.793  26.853  1.00  0.00     0.202 C 
ENDROOT
BRANCH   1   2
ATOM      2  O   UNL A   1      31.787  30.418  25.520  1.00  0.00    -0.374 OA
BRANCH   2   3
ATOM      3  C   UNL A   1      32.228  29.137  25.148  1.00  0.00     0.202 C 
BRANCH   3   4
ATOM      4  C   UNL A   1      31.390  28.285  26.026  1.00  0.00     0.261 C 
BRANCH   4   5
ATOM      5  O   UNL A   1      32.058  27.016  26.303  1.00  0.00    -0.460 OA
BRANCH   5   6
ATOM      6  C   UNL A   1      31.610  25.773  25.927  1.00  0.00     0.339 C 
ATOM      7  O   UNL A   1      30.670  25.148  26.325  1.00  0.00    -0.246 OA
BRANCH   6   8
ATOM      8  C   UNL A   1      32.486  25.296  24.865  1.00  0.00     0.075 A 
ATOM      9  C   UNL A   1      34.584  24.138  24.312  1.00  0.00     0.074 A 
ATOM     10  C   UNL A   1      33.576  24.503  25.212  1.00  0.00     0.045 A 
ATOM     11  N   UNL A   1      34.626  24.479  22.993  1.00  0.00    -0.226 NA
ATOM     12  C   UNL A   1      33.515  25.172  22.588  1.00  0.00     0.182 A 
ATOM     13  C   UNL A   1      32.464  25.573  23.495  1.00  0.00     0.061 A 
ATOM     14  N   UNL A   1      33.263  25.592  21.347  1.00  0.00    -0.154 NA
ATOM     15  C   UNL A   1      31.530  26.245  22.716  1.00  0.00     0.076 A 
ATOM     16  N   UNL A   1      32.055  26.180  21.444  1.00  0.00    -0.275 N 
ATOM     17  H   UNL A   1      31.579  26.538  20.660  1.00  0.00     0.190 HD
BRANCH   9  18
ATOM     18  C   UNL A   1      35.695  23.389  24.927  1.00  0.00     0.000 A 
ATOM     19  C   UNL A   1      39.460  21.577  26.078  1.00  0.00     0.044 C 
ATOM     20  C   UNL A   1      38.159  22.209  25.678  1.00  0.00    -0.051 A 
ATOM     21  C   UNL A   1      37.237  21.507  24.889  1.00  0.00     0.004 A 
ATOM     22  C   UNL A   1      37.847  23.504  26.093  1.00  0.00     0.004 A 
ATOM     23  C   UNL A   1      36.017  22.090  24.517  1.00  0.00     0.010 A 
ATOM     24  C   UNL A   1      36.628  24.079  25.731  1.00  0.00     0.010 A 
ENDBRANCH   9  18
BRANCH  15  25
ATOM     25  C   UNL A   1      30.231  26.888  22.948  1.00  0.00     0.007 A 
ATOM     26  C   UNL A   1      29.193  26.208  23.603  1.00  0.00     0.011 A 
ATOM     27  C   UNL A   1      30.000  28.202  22.514  1.00  0.00     0.096 A 
ATOM     28  C   UNL A   1      27.962  26.836  23.852  1.00  0.00     0.008 A 
ATOM     29  C   UNL A   1      28.771  28.835  22.787  1.00  0.00     0.270 A 
ATOM     30  C   UNL A   1      27.746  28.155  23.455  1.00  0.00     0.085 A 
BRANCH  29  31
ATOM     31  N   UNL A   1      28.591  30.246  22.425  1.00  0.00     0.062 N 
ATOM     32  O   UNL A   1      29.118  31.110  23.141  1.00  0.00    -0.258 OA
ATOM     33  O   UNL A   1      27.934  30.499  21.402  1.00  0.00    -0.258 OA
ENDBRANCH  29  31
ENDBRANCH  15  25
ENDBRANCH   6   8
ENDBRANCH   5   6
ENDBRANCH   4   5
ENDBRANCH   3   4
ENDBRANCH   2   3
ENDBRANCH   1   2
BRANCH   1  34
ATOM     34  C   UNL A   1      33.421  31.111  27.051  1.00  0.00     0.261 C 
BRANCH  34  35
ATOM     35  O   UNL A   1      33.991  30.195  28.028  1.00  0.00    -0.460 OA
BRANCH  35  36
ATOM     36  C   UNL A   1      34.994  29.364  27.588  1.00  0.00     0.338 C 
ATOM     37  O   UNL A   1      34.793  28.359  26.924  1.00  0.00    -0.246 OA
BRANCH  36  38
ATOM     38  C   UNL A   1      36.320  29.732  28.211  1.00  0.00     0.060 A 
ATOM     39  C   UNL A   1      37.435  30.094  27.434  1.00  0.00     0.016 A 
ATOM     40  C   UNL A   1      36.532  29.378  29.533  1.00  0.00     0.016 A 
ATOM     41  C   UNL A   1      38.749  29.872  27.909  1.00  0.00     0.010 A 
ATOM     42  C   UNL A   1      37.819  29.091  29.955  1.00  0.00     0.010 A 
ATOM     43  C   UNL A   1      38.938  29.233  29.123  1.00  0.00    -0.014 A 
BRANCH  43  44
ATOM     44  C   UNL A   1      40.193  28.705  29.702  1.00  0.00     0.031 A 
ATOM     45  C   UNL A   1      40.714  27.471  29.072  1.00  0.00     0.074 A 
ATOM     46  C   UNL A   1      41.047  29.449  30.463  1.00  0.00     0.049 A 
ATOM     47  N   UNL A   1      41.817  26.908  29.410  1.00  0.00    -0.248 NA
ATOM     48  C   UNL A   1      40.007  26.738  28.019  1.00  0.00     0.031 C 
ATOM     49  C   UNL A   1      42.518  29.471  30.401  1.00  0.00     0.029 A 
ATOM     50  N   UNL A   1      40.794  30.462  31.392  1.00  0.00    -0.354 N 
ATOM     51  C   UNL A   1      42.124  25.989  28.440  1.00  0.00     0.074 A 
ATOM     52  C   UNL A   1      40.906  25.803  27.699  1.00  0.00     0.031 C 
ATOM     53  C   UNL A   1      43.017  30.274  31.361  1.00  0.00     0.029 A 
ATOM     54  C   UNL A   1      41.907  30.677  32.207  1.00  0.00     0.049 A 
ATOM     55  H   UNL A   1      39.945  30.957  31.461  1.00  0.00     0.167 HD
ATOM     56  C   UNL A   1      43.427  25.627  28.305  1.00  0.00     0.034 A 
ATOM     57  C   UNL A   1      41.807  30.614  33.563  1.00  0.00     0.034 A 
ATOM     58  C   UNL A   1      44.229  26.170  29.424  1.00  0.00     0.049 A 
ATOM     59  C   UNL A   1      42.591  29.412  34.018  1.00  0.00     0.074 A 
ATOM     60  C   UNL A   1      45.175  27.175  29.524  1.00  0.00     0.029 A 
ATOM     61  N   UNL A   1      43.862  25.854  30.737  1.00  0.00    -0.354 N 
ATOM     62  N   UNL A   1      43.062  28.542  33.169  1.00  0.00    -0.248 NA
ATOM     63  C   UNL A   1      42.985  29.108  35.387  1.00  0.00     0.031 C 
ATOM     64  C   UNL A   1      45.302  27.519  30.906  1.00  0.00     0.029 A 
ATOM     65  C   UNL A   1      44.479  26.690  31.657  1.00  0.00     0.049 A 
ATOM     66  H   UNL A   1      43.244  25.127  30.979  1.00  0.00     0.167 HD
ATOM     67  C   UNL A   1      43.761  27.576  33.799  1.00  0.00     0.074 A 
ATOM     68  C   UNL A   1      43.708  27.987  35.197  1.00  0.00     0.031 C 
ATOM     69  C   UNL A   1      44.265  26.514  33.103  1.00  0.00     0.034 A 
BRANCH  56  70
ATOM     70  C   UNL A   1      44.037  24.929  27.098  1.00  0.00     0.023 A 
ATOM     71  C   UNL A   1      44.825  25.726  26.239  1.00  0.00     0.012 A 
ATOM     72  C   UNL A   1      43.848  23.582  26.685  1.00  0.00     0.148 A 
ATOM     73  C   UNL A   1      45.392  25.231  25.058  1.00  0.00     0.002 A 
ATOM     74  C   UNL A   1      44.473  23.068  25.542  1.00  0.00     0.091 A 
ATOM     75  F   UNL A   1      42.981  22.796  27.328  1.00  0.00    -0.205 F 
ATOM     76  C   UNL A   1      45.235  23.897  24.719  1.00  0.00     0.022 A 
BRANCH  74  77
ATOM     77  S   UNL A   1      44.354  21.334  25.052  1.00  0.00     0.127 S 
ATOM     78  O   UNL A   1      44.554  21.411  23.605  1.00  0.00    -0.237 OA
ATOM     79  O   UNL A   1      45.462  20.725  25.787  1.00  0.00    -0.237 OA
ATOM     80  O   UNL A   1      43.032  20.882  25.467  1.00  0.00    -0.744 OA
ENDBRANCH  74  77
ENDBRANCH  56  70
BRANCH  57  81
ATOM     81  C   UNL A   1      40.490  31.129  34.066  1.00  0.00     0.023 A 
ATOM     82  C   UNL A   1      39.650  30.206  34.746  1.00  0.00     0.012 A 
ATOM     83  C   UNL A   1      40.321  32.501  34.330  1.00  0.00     0.148 A 
ATOM     84  C   UNL A   1      38.757  30.629  35.740  1.00  0.00     0.002 A 
ATOM     85  C   UNL A   1      39.494  32.905  35.380  1.00  0.00     0.091 A 
ATOM     86  F   UNL A   1      41.035  33.378  33.615  1.00  0.00    -0.205 F 
ATOM     87  C   UNL A   1      38.728  31.973  36.100  1.00  0.00     0.022 A 
BRANCH  85  88
ATOM     88  S   UNL A   1      39.542  34.586  36.022  1.00  0.00     0.127 S 
ATOM     89  O   UNL A   1      38.702  34.474  37.210  1.00  0.00    -0.237 OA
ATOM     90  O   UNL A   1      40.968  34.770  36.296  1.00  0.00    -0.237 OA
ATOM     91  O   UNL A   1      39.021  35.425  34.954  1.00  0.00    -0.744 OA
ENDBRANCH  85  88
ENDBRANCH  57  81
BRANCH  69  92
ATOM     92  C   UNL A   1      44.602  25.205  33.766  1.00  0.00     0.023 A 
ATOM     93  C   UNL A   1      43.725  24.103  33.708  1.00  0.00     0.012 A 
ATOM     94  C   UNL A   1      45.882  24.974  34.319  1.00  0.00     0.148 A 
ATOM     95  C   UNL A   1      44.050  22.867  34.262  1.00  0.00     0.002 A 
ATOM     96  C   UNL A   1      46.253  23.704  34.735  1.00  0.00     0.091 A 
ATOM     97  F   UNL A   1      46.748  25.986  34.459  1.00  0.00    -0.205 F 
ATOM     98  C   UNL A   1      45.326  22.659  34.756  1.00  0.00     0.022 A 
BRANCH  96  99
ATOM     99  S   UNL A   1      47.966  23.306  35.094  1.00  0.00     0.127 S 
ATOM    100  O   UNL A   1      48.653  23.907  33.953  1.00  0.00    -0.237 OA
ATOM    101  O   UNL A   1      48.177  23.993  36.369  1.00  0.00    -0.237 OA
ATOM    102  O   UNL A   1      48.021  21.853  35.181  1.00  0.00    -0.744 OA
ENDBRANCH  96  99
ENDBRANCH  69  92
ENDBRANCH  43  44
ENDBRANCH  36  38
ENDBRANCH  35  36
ENDBRANCH  34  35
ENDBRANCH   1  34
TORSDOF 20
ENDMDL
