MODEL 1
REMARK VINA RESULT:      -9.8      0.000      0.000
REMARK SMILES O=C(CCCNC(=O)N1CC[C@@H](C(=O)OCCOCCOC(=O)c2ccc(-c3c4nc(c(-c5cccc(S(=O)(=O)[O-])c5F)c5ccc([nH]5)c(-c5cccc(S(=O)(=O)[O-])c5F)c5nc(c(-c6cccc(S(=O)(=O)[O-])c6F)c6ccc3[nH]6)C=C5)C=C4)cc2)C1)NC1CC1
REMARK SMILES IDX 16 1 15 2 13 3 14 4 12 5 9 6 10 7 87 8 11 9 7 10 6 11 8 13
REMARK SMILES IDX 5 14 4 15 3 16 2 17 1 18 88 19 89 21 90 22 91 23 17 24 18 25
REMARK SMILES IDX 19 26 20 27 21 28 22 29 23 30 24 31 25 32 86 33 26 34 85 35
REMARK SMILES IDX 27 36 28 37 29 38 79 39 30 40 84 41 78 42 80 43 31 44 83 45
REMARK SMILES IDX 77 46 76 47 32 49 64 50 44 51 63 52 45 53 48 54 62 55 81 56
REMARK SMILES IDX 46 57 47 58 61 60 82 61 49 62 33 63 34 64 42 65 35 66 37 67
REMARK SMILES IDX 43 68 36 69 38 70 39 71 40 72 41 73 65 74 66 75 74 76 67 77
REMARK SMILES IDX 69 78 75 79 68 80 70 81 71 82 72 83 73 84 50 85 51 86 59 87
REMARK SMILES IDX 52 88 54 89 60 90 53 91 55 92 56 93 57 94 58 95
REMARK H PARENT 6 12 88 20 80 48 48 59
REMARK Flexibility Score: inf
ROOT
ATOM      1  C   UNL A   1      33.782  27.870  23.895  1.00  0.00     0.261 C 
ENDROOT
BRANCH   1   2
ATOM      2  O   UNL A   1      33.354  27.041  22.798  1.00  0.00    -0.463 OA
BRANCH   2   3
ATOM      3  C   UNL A   1      32.334  26.185  23.046  1.00  0.00     0.310 C 
ATOM      4  O   UNL A   1      31.181  26.325  22.656  1.00  0.00    -0.252 OA
BRANCH   3   5
ATOM      5  C   UNL A   1      32.775  24.961  23.813  1.00  0.00     0.120 C 
ATOM      6  N   UNL A   1      31.552  23.749  25.429  1.00  0.00    -0.324 N 
ATOM      7  C   UNL A   1      31.218  23.140  24.155  1.00  0.00     0.122 C 
ATOM      8  C   UNL A   1      32.197  25.028  25.228  1.00  0.00     0.136 C 
ATOM      9  C   UNL A   1      32.360  23.583  23.263  1.00  0.00     0.039 C 
BRANCH   6  10
ATOM     10  C   UNL A   1      31.105  23.356  26.649  1.00  0.00     0.317 C 
ATOM     11  N   UNL A   1      31.975  22.687  27.451  1.00  0.00    -0.338 N 
ATOM     12  H   UNL A   1      31.587  22.064  28.108  1.00  0.00     0.165 HD
ATOM     13  O   UNL A   1      29.994  23.645  27.087  1.00  0.00    -0.249 OA
BRANCH  11  14
ATOM     14  C   UNL A   1      33.426  22.804  27.430  1.00  0.00     0.118 C 
BRANCH  14  15
ATOM     15  C   UNL A   1      34.114  21.449  27.252  1.00  0.00     0.031 C 
BRANCH  15  16
ATOM     16  C   UNL A   1      34.416  21.063  25.806  1.00  0.00     0.102 C 
BRANCH  16  17
ATOM     17  C   UNL A   1      33.487  19.974  25.313  1.00  0.00     0.220 C 
ATOM     18  O   UNL A   1      32.273  20.029  25.485  1.00  0.00    -0.275 OA
ATOM     19  N   UNL A   1      34.141  18.925  24.703  1.00  0.00    -0.353 N 
ATOM     20  H   UNL A   1      35.115  18.988  24.573  1.00  0.00     0.163 HD
BRANCH  19  21
ATOM     21  C   UNL A   1      33.467  17.753  24.251  1.00  0.00     0.082 C 
ATOM     22  C   UNL A   1      32.922  17.690  22.850  1.00  0.00     0.027 C 
ATOM     23  C   UNL A   1      34.102  16.848  23.232  1.00  0.00     0.027 C 
ENDBRANCH  19  21
ENDBRANCH  16  17
ENDBRANCH  15  16
ENDBRANCH  14  15
ENDBRANCH  11  14
ENDBRANCH   6  10
ENDBRANCH   3   5
ENDBRANCH   2   3
ENDBRANCH   1   2
BRANCH   1  24
ATOM     24  C   UNL A   1      32.647  28.792  24.346  1.00  0.00     0.202 C 
BRANCH  24  25
ATOM     25  O   UNL A   1      31.996  28.400  25.560  1.00  0.00    -0.374 OA
BRANCH  25  26
ATOM     26  C   UNL A   1      31.976  29.377  26.600  1.00  0.00     0.202 C 
BRANCH  26  27
ATOM     27  C   UNL A   1      33.067  30.448  26.524  1.00  0.00     0.261 C 
BRANCH  27  28
ATOM     28  O   UNL A   1      34.195  30.104  27.346  1.00  0.00    -0.460 OA
BRANCH  28  29
ATOM     29  C   UNL A   1      34.941  31.161  27.739  1.00  0.00     0.338 C 
ATOM     30  O   UNL A   1      34.657  32.348  27.619  1.00  0.00    -0.246 OA
BRANCH  29  31
ATOM     31  C   UNL A   1      36.109  30.708  28.515  1.00  0.00     0.060 A 
ATOM     32  C   UNL A   1      37.332  31.336  28.244  1.00  0.00     0.016 A 
ATOM     33  C   UNL A   1      36.039  29.662  29.439  1.00  0.00     0.016 A 
ATOM     34  C   UNL A   1      38.501  30.874  28.842  1.00  0.00     0.010 A 
ATOM     35  C   UNL A   1      37.215  29.198  30.038  1.00  0.00     0.010 A 
ATOM     36  C   UNL A   1      38.456  29.773  29.707  1.00  0.00    -0.014 A 
BRANCH  36  37
ATOM     37  C   UNL A   1      39.729  29.150  30.142  1.00  0.00     0.031 A 
ATOM     38  C   UNL A   1      40.413  29.668  31.378  1.00  0.00     0.074 A 
ATOM     39  C   UNL A   1      40.253  28.113  29.464  1.00  0.00     0.049 A 
ATOM     40  N   UNL A   1      41.509  29.247  31.955  1.00  0.00    -0.248 NA
ATOM     41  C   UNL A   1      39.781  30.813  32.054  1.00  0.00     0.031 C 
ATOM     42  C   UNL A   1      39.686  27.528  28.250  1.00  0.00     0.029 A 
ATOM     43  N   UNL A   1      41.391  27.382  29.694  1.00  0.00    -0.354 N 
ATOM     44  C   UNL A   1      41.711  30.087  33.043  1.00  0.00     0.074 A 
ATOM     45  C   UNL A   1      40.634  31.052  33.039  1.00  0.00     0.031 C 
ATOM     46  C   UNL A   1      40.494  26.542  27.826  1.00  0.00     0.029 A 
ATOM     47  C   UNL A   1      41.641  26.438  28.727  1.00  0.00     0.049 A 
ATOM     48  H   UNL A   1      41.972  27.521  30.476  1.00  0.00     0.167 HD
ATOM     49  C   UNL A   1      42.695  30.048  33.973  1.00  0.00     0.034 A 
ATOM     50  C   UNL A   1      42.683  25.596  28.579  1.00  0.00     0.034 A 
ATOM     51  C   UNL A   1      43.750  29.071  33.992  1.00  0.00     0.049 A 
ATOM     52  C   UNL A   1      43.768  25.575  29.624  1.00  0.00     0.074 A 
ATOM     53  C   UNL A   1      44.754  28.908  34.930  1.00  0.00     0.029 A 
ATOM     54  N   UNL A   1      43.948  28.102  33.021  1.00  0.00    -0.354 N 
ATOM     55  N   UNL A   1      43.868  26.282  30.724  1.00  0.00    -0.248 NA
ATOM     56  C   UNL A   1      44.864  24.616  29.427  1.00  0.00     0.031 C 
ATOM     57  C   UNL A   1      45.576  27.857  34.510  1.00  0.00     0.029 A 
ATOM     58  C   UNL A   1      45.069  27.348  33.325  1.00  0.00     0.049 A 
ATOM     59  H   UNL A   1      43.376  27.969  32.232  1.00  0.00     0.167 HD
ATOM     60  C   UNL A   1      45.019  25.834  31.364  1.00  0.00     0.074 A 
ATOM     61  C   UNL A   1      45.568  24.777  30.540  1.00  0.00     0.031 C 
ATOM     62  C   UNL A   1      45.579  26.268  32.520  1.00  0.00     0.034 A 
BRANCH  49  63
ATOM     63  C   UNL A   1      42.661  31.081  35.068  1.00  0.00     0.023 A 
ATOM     64  C   UNL A   1      41.901  30.844  36.230  1.00  0.00     0.012 A 
ATOM     65  C   UNL A   1      43.425  32.260  34.969  1.00  0.00     0.148 A 
ATOM     66  C   UNL A   1      41.875  31.778  37.265  1.00  0.00     0.002 A 
ATOM     67  C   UNL A   1      43.427  33.168  36.023  1.00  0.00     0.091 A 
ATOM     68  F   UNL A   1      44.120  32.481  33.845  1.00  0.00    -0.205 F 
ATOM     69  C   UNL A   1      42.645  32.932  37.167  1.00  0.00     0.022 A 
BRANCH  67  70
ATOM     70  S   UNL A   1      44.445  34.648  36.019  1.00  0.00     0.127 S 
ATOM     71  O   UNL A   1      43.784  35.457  34.995  1.00  0.00    -0.237 OA
ATOM     72  O   UNL A   1      44.279  35.141  37.387  1.00  0.00    -0.237 OA
ATOM     73  O   UNL A   1      45.793  34.206  35.695  1.00  0.00    -0.744 OA
ENDBRANCH  67  70
ENDBRANCH  49  63
BRANCH  50  74
ATOM     74  C   UNL A   1      42.731  24.679  27.406  1.00  0.00     0.023 A 
ATOM     75  C   UNL A   1      43.373  25.088  26.222  1.00  0.00     0.012 A 
ATOM     76  C   UNL A   1      42.167  23.389  27.472  1.00  0.00     0.148 A 
ATOM     77  C   UNL A   1      43.431  24.238  25.116  1.00  0.00     0.002 A 
ATOM     78  C   UNL A   1      42.279  22.527  26.388  1.00  0.00     0.091 A 
ATOM     79  F   UNL A   1      41.542  23.026  28.601  1.00  0.00    -0.205 F 
ATOM     80  C   UNL A   1      42.895  22.956  25.202  1.00  0.00     0.022 A 
BRANCH  78  81
ATOM     81  S   UNL A   1      41.741  20.815  26.464  1.00  0.00     0.127 S 
ATOM     82  O   UNL A   1      40.314  20.936  26.178  1.00  0.00    -0.237 OA
ATOM     83  O   UNL A   1      42.534  20.202  25.397  1.00  0.00    -0.237 OA
ATOM     84  O   UNL A   1      42.084  20.355  27.802  1.00  0.00    -0.744 OA
ENDBRANCH  78  81
ENDBRANCH  50  74
BRANCH  62  85
ATOM     85  C   UNL A   1      46.844  25.590  32.983  1.00  0.00     0.023 A 
ATOM     86  C   UNL A   1      48.096  26.108  32.595  1.00  0.00     0.012 A 
ATOM     87  C   UNL A   1      46.794  24.488  33.859  1.00  0.00     0.148 A 
ATOM     88  C   UNL A   1      49.278  25.519  33.045  1.00  0.00     0.002 A 
ATOM     89  C   UNL A   1      47.974  23.936  34.341  1.00  0.00     0.091 A 
ATOM     90  F   UNL A   1      45.593  23.997  34.202  1.00  0.00    -0.205 F 
ATOM     91  C   UNL A   1      49.217  24.442  33.926  1.00  0.00     0.022 A 
BRANCH  89  92
ATOM     92  S   UNL A   1      47.991  22.609  35.553  1.00  0.00     0.127 S 
ATOM     93  O   UNL A   1      47.427  21.500  34.787  1.00  0.00    -0.237 OA
ATOM     94  O   UNL A   1      49.416  22.480  35.857  1.00  0.00    -0.237 OA
ATOM     95  O   UNL A   1      47.178  23.078  36.668  1.00  0.00    -0.744 OA
ENDBRANCH  89  92
ENDBRANCH  62  85
ENDBRANCH  36  37
ENDBRANCH  29  31
ENDBRANCH  28  29
ENDBRANCH  27  28
ENDBRANCH  26  27
ENDBRANCH  25  26
ENDBRANCH  24  25
ENDBRANCH   1  24
TORSDOF 23
ENDMDL
MODEL 2
REMARK VINA RESULT:      -9.4      4.677      8.681
REMARK SMILES O=C(CCCNC(=O)N1CC[C@@H](C(=O)OCCOCCOC(=O)c2ccc(-c3c4nc(c(-c5cccc(S(=O)(=O)[O-])c5F)c5ccc([nH]5)c(-c5cccc(S(=O)(=O)[O-])c5F)c5nc(c(-c6cccc(S(=O)(=O)[O-])c6F)c6ccc3[nH]6)C=C5)C=C4)cc2)C1)NC1CC1
REMARK SMILES IDX 16 1 15 2 13 3 14 4 12 5 9 6 10 7 87 8 11 9 7 10 6 11 8 13
REMARK SMILES IDX 5 14 4 15 3 16 2 17 1 18 88 19 89 21 90 22 91 23 17 24 18 25
REMARK SMILES IDX 19 26 20 27 21 28 22 29 23 30 24 31 25 32 86 33 26 34 85 35
REMARK SMILES IDX 27 36 28 37 29 38 79 39 30 40 84 41 78 42 80 43 31 44 83 45
REMARK SMILES IDX 77 46 76 47 32 49 64 50 44 51 63 52 45 53 48 54 62 55 81 56
REMARK SMILES IDX 46 57 47 58 61 60 82 61 49 62 33 63 34 64 42 65 35 66 37 67
REMARK SMILES IDX 43 68 36 69 38 70 39 71 40 72 41 73 65 74 66 75 74 76 67 77
REMARK SMILES IDX 69 78 75 79 68 80 70 81 71 82 72 83 73 84 50 85 51 86 59 87
REMARK SMILES IDX 52 88 54 89 60 90 53 91 55 92 56 93 57 94 58 95
REMARK H PARENT 6 12 88 20 80 48 48 59
REMARK Flexibility Score: inf
ROOT
ATOM      1  C   UNL A   1      36.862  22.351  23.847  1.00  0.00     0.261 C 
ENDROOT
BRANCH   1   2
ATOM      2  O   UNL A   1      35.438  22.519  23.977  1.00  0.00    -0.463 OA
BRANCH   2   3
ATOM      3  C   UNL A   1      35.011  23.355  24.954  1.00  0.00     0.310 C 
ATOM      4  O   UNL A   1      35.359  24.521  25.090  1.00  0.00    -0.252 OA
BRANCH   3   5
ATOM      5  C   UNL A   1      33.978  22.720  25.854  1.00  0.00     0.120 C 
ATOM      6  N   UNL A   1      31.679  23.238  26.006  1.00  0.00    -0.324 N 
ATOM      7  C   UNL A   1      31.778  22.219  24.979  1.00  0.00     0.122 C 
ATOM      8  C   UNL A   1      32.982  23.793  26.301  1.00  0.00     0.136 C 
ATOM      9  C   UNL A   1      33.122  21.580  25.269  1.00  0.00     0.039 C 
BRANCH   6  10
ATOM     10  C   UNL A   1      30.537  23.816  26.458  1.00  0.00     0.317 C 
ATOM     11  N   UNL A   1      30.074  24.903  25.785  1.00  0.00    -0.338 N 
ATOM     12  H   UNL A   1      29.536  25.550  26.297  1.00  0.00     0.165 HD
ATOM     13  O   UNL A   1      29.869  23.361  27.383  1.00  0.00    -0.249 OA
BRANCH  11  14
ATOM     14  C   UNL A   1      30.299  25.200  24.377  1.00  0.00     0.118 C 
BRANCH  14  15
ATOM     15  C   UNL A   1      31.341  26.302  24.177  1.00  0.00     0.031 C 
BRANCH  15  16
ATOM     16  C   UNL A   1      30.803  27.727  24.282  1.00  0.00     0.102 C 
BRANCH  16  17
ATOM     17  C   UNL A   1      30.094  28.152  23.014  1.00  0.00     0.220 C 
ATOM     18  O   UNL A   1      30.455  27.764  21.907  1.00  0.00    -0.275 OA
ATOM     19  N   UNL A   1      29.053  29.029  23.232  1.00  0.00    -0.353 N 
ATOM     20  H   UNL A   1      28.810  29.251  24.160  1.00  0.00     0.163 HD
BRANCH  19  21
ATOM     21  C   UNL A   1      28.312  29.627  22.170  1.00  0.00     0.082 C 
ATOM     22  C   UNL A   1      27.670  30.974  22.367  1.00  0.00     0.027 C 
ATOM     23  C   UNL A   1      28.846  30.833  21.448  1.00  0.00     0.027 C 
ENDBRANCH  19  21
ENDBRANCH  16  17
ENDBRANCH  15  16
ENDBRANCH  14  15
ENDBRANCH  11  14
ENDBRANCH   6  10
ENDBRANCH   3   5
ENDBRANCH   2   3
ENDBRANCH   1   2
BRANCH   1  24
ATOM     24  C   UNL A   1      37.387  21.375  24.903  1.00  0.00     0.202 C 
BRANCH  24  25
ATOM     25  O   UNL A   1      37.262  19.991  24.560  1.00  0.00    -0.374 OA
BRANCH  25  26
ATOM     26  C   UNL A   1      38.096  19.090  25.289  1.00  0.00     0.202 C 
BRANCH  26  27
ATOM     27  C   UNL A   1      39.545  19.545  25.489  1.00  0.00     0.261 C 
BRANCH  27  28
ATOM     28  O   UNL A   1      39.722  20.172  26.770  1.00  0.00    -0.460 OA
BRANCH  28  29
ATOM     29  C   UNL A   1      41.014  20.356  27.125  1.00  0.00     0.338 C 
ATOM     30  O   UNL A   1      41.934  19.553  27.004  1.00  0.00    -0.246 OA
BRANCH  29  31
ATOM     31  C   UNL A   1      41.241  21.752  27.539  1.00  0.00     0.060 A 
ATOM     32  C   UNL A   1      40.686  22.752  26.730  1.00  0.00     0.016 A 
ATOM     33  C   UNL A   1      42.022  22.090  28.647  1.00  0.00     0.016 A 
ATOM     34  C   UNL A   1      40.966  24.091  26.984  1.00  0.00     0.010 A 
ATOM     35  C   UNL A   1      42.304  23.437  28.900  1.00  0.00     0.010 A 
ATOM     36  C   UNL A   1      41.814  24.439  28.042  1.00  0.00    -0.014 A 
BRANCH  36  37
ATOM     37  C   UNL A   1      42.290  25.839  28.150  1.00  0.00     0.031 A 
ATOM     38  C   UNL A   1      41.385  26.876  28.758  1.00  0.00     0.074 A 
ATOM     39  C   UNL A   1      43.526  26.177  27.743  1.00  0.00     0.049 A 
ATOM     40  N   UNL A   1      41.613  28.144  28.981  1.00  0.00    -0.248 NA
ATOM     41  C   UNL A   1      40.044  26.426  29.166  1.00  0.00     0.031 C 
ATOM     42  C   UNL A   1      44.492  25.264  27.133  1.00  0.00     0.029 A 
ATOM     43  N   UNL A   1      44.172  27.387  27.765  1.00  0.00    -0.354 N 
ATOM     44  C   UNL A   1      40.442  28.649  29.531  1.00  0.00     0.074 A 
ATOM     45  C   UNL A   1      39.498  27.554  29.595  1.00  0.00     0.031 C 
ATOM     46  C   UNL A   1      45.600  25.952  26.815  1.00  0.00     0.029 A 
ATOM     47  C   UNL A   1      45.417  27.356  27.183  1.00  0.00     0.049 A 
ATOM     48  H   UNL A   1      43.782  28.199  28.160  1.00  0.00     0.167 HD
ATOM     49  C   UNL A   1      40.180  29.905  29.963  1.00  0.00     0.034 A 
ATOM     50  C   UNL A   1      46.301  28.349  26.959  1.00  0.00     0.034 A 
ATOM     51  C   UNL A   1      41.128  30.986  29.925  1.00  0.00     0.049 A 
ATOM     52  C   UNL A   1      45.985  29.740  27.443  1.00  0.00     0.074 A 
ATOM     53  C   UNL A   1      40.979  32.277  30.399  1.00  0.00     0.029 A 
ATOM     54  N   UNL A   1      42.395  30.908  29.368  1.00  0.00    -0.354 N 
ATOM     55  N   UNL A   1      44.927  30.168  28.090  1.00  0.00    -0.248 NA
ATOM     56  C   UNL A   1      46.998  30.776  27.200  1.00  0.00     0.031 C 
ATOM     57  C   UNL A   1      42.147  32.988  30.103  1.00  0.00     0.029 A 
ATOM     58  C   UNL A   1      43.034  32.132  29.468  1.00  0.00     0.049 A 
ATOM     59  H   UNL A   1      42.783  30.100  28.961  1.00  0.00     0.167 HD
ATOM     60  C   UNL A   1      45.159  31.513  28.357  1.00  0.00     0.074 A 
ATOM     61  C   UNL A   1      46.470  31.822  27.822  1.00  0.00     0.031 C 
ATOM     62  C   UNL A   1      44.356  32.415  28.973  1.00  0.00     0.034 A 
BRANCH  49  63
ATOM     63  C   UNL A   1      38.816  30.176  30.540  1.00  0.00     0.023 A 
ATOM     64  C   UNL A   1      38.516  29.756  31.851  1.00  0.00     0.012 A 
ATOM     65  C   UNL A   1      37.851  30.891  29.804  1.00  0.00     0.148 A 
ATOM     66  C   UNL A   1      37.265  30.017  32.412  1.00  0.00     0.002 A 
ATOM     67  C   UNL A   1      36.621  31.183  30.385  1.00  0.00     0.091 A 
ATOM     68  F   UNL A   1      38.145  31.258  28.549  1.00  0.00    -0.205 F 
ATOM     69  C   UNL A   1      36.324  30.739  31.684  1.00  0.00     0.022 A 
BRANCH  67  70
ATOM     70  S   UNL A   1      35.372  32.170  29.554  1.00  0.00     0.127 S 
ATOM     71  O   UNL A   1      34.903  31.245  28.523  1.00  0.00    -0.237 OA
ATOM     72  O   UNL A   1      34.412  32.423  30.628  1.00  0.00    -0.237 OA
ATOM     73  O   UNL A   1      36.059  33.357  29.064  1.00  0.00    -0.744 OA
ENDBRANCH  67  70
ENDBRANCH  49  63
BRANCH  50  74
ATOM     74  C   UNL A   1      47.587  28.051  26.269  1.00  0.00     0.023 A 
ATOM     75  C   UNL A   1      48.749  27.811  27.025  1.00  0.00     0.012 A 
ATOM     76  C   UNL A   1      47.654  27.974  24.863  1.00  0.00     0.148 A 
ATOM     77  C   UNL A   1      49.961  27.526  26.394  1.00  0.00     0.002 A 
ATOM     78  C   UNL A   1      48.849  27.633  24.243  1.00  0.00     0.091 A 
ATOM     79  F   UNL A   1      46.540  28.225  24.160  1.00  0.00    -0.205 F 
ATOM     80  C   UNL A   1      50.009  27.425  25.006  1.00  0.00     0.022 A 
BRANCH  78  81
ATOM     81  S   UNL A   1      48.965  27.345  22.474  1.00  0.00     0.127 S 
ATOM     82  O   UNL A   1      50.407  27.405  22.254  1.00  0.00    -0.237 OA
ATOM     83  O   UNL A   1      48.376  26.012  22.346  1.00  0.00    -0.237 OA
ATOM     84  O   UNL A   1      48.184  28.406  21.853  1.00  0.00    -0.744 OA
ENDBRANCH  78  81
ENDBRANCH  50  74
BRANCH  62  85
ATOM     85  C   UNL A   1      44.873  33.823  29.127  1.00  0.00     0.023 A 
ATOM     86  C   UNL A   1      44.597  34.780  28.130  1.00  0.00     0.012 A 
ATOM     87  C   UNL A   1      45.565  34.215  30.289  1.00  0.00     0.148 A 
ATOM     88  C   UNL A   1      45.033  36.098  28.273  1.00  0.00     0.002 A 
ATOM     89  C   UNL A   1      45.953  35.540  30.447  1.00  0.00     0.091 A 
ATOM     90  F   UNL A   1      45.834  33.286  31.219  1.00  0.00    -0.205 F 
ATOM     91  C   UNL A   1      45.699  36.480  29.434  1.00  0.00     0.022 A 
BRANCH  89  92
ATOM     92  S   UNL A   1      46.732  36.142  31.950  1.00  0.00     0.127 S 
ATOM     93  O   UNL A   1      45.796  35.682  32.975  1.00  0.00    -0.237 OA
ATOM     94  O   UNL A   1      48.017  35.444  31.939  1.00  0.00    -0.237 OA
ATOM     95  O   UNL A   1      46.831  37.588  31.796  1.00  0.00    -0.744 OA
ENDBRANCH  89  92
ENDBRANCH  62  85
ENDBRANCH  36  37
ENDBRANCH  29  31
ENDBRANCH  28  29
ENDBRANCH  27  28
ENDBRANCH  26  27
ENDBRANCH  25  26
ENDBRANCH  24  25
ENDBRANCH   1  24
TORSDOF 23
ENDMDL
MODEL 3
REMARK VINA RESULT:      -8.9      4.754     10.146
REMARK SMILES O=C(CCCNC(=O)N1CC[C@@H](C(=O)OCCOCCOC(=O)c2ccc(-c3c4nc(c(-c5cccc(S(=O)(=O)[O-])c5F)c5ccc([nH]5)c(-c5cccc(S(=O)(=O)[O-])c5F)c5nc(c(-c6cccc(S(=O)(=O)[O-])c6F)c6ccc3[nH]6)C=C5)C=C4)cc2)C1)NC1CC1
REMARK SMILES IDX 16 1 15 2 13 3 14 4 12 5 9 6 10 7 87 8 11 9 7 10 6 11 8 13
REMARK SMILES IDX 5 14 4 15 3 16 2 17 1 18 88 19 89 21 90 22 91 23 17 24 18 25
REMARK SMILES IDX 19 26 20 27 21 28 22 29 23 30 24 31 25 32 86 33 26 34 85 35
REMARK SMILES IDX 27 36 28 37 29 38 79 39 30 40 84 41 78 42 80 43 31 44 83 45
REMARK SMILES IDX 77 46 76 47 32 49 64 50 44 51 63 52 45 53 48 54 62 55 81 56
REMARK SMILES IDX 46 57 47 58 61 60 82 61 49 62 33 63 34 64 42 65 35 66 37 67
REMARK SMILES IDX 43 68 36 69 38 70 39 71 40 72 41 73 65 74 66 75 74 76 67 77
REMARK SMILES IDX 69 78 75 79 68 80 70 81 71 82 72 83 73 84 50 85 51 86 59 87
REMARK SMILES IDX 52 88 54 89 60 90 53 91 55 92 56 93 57 94 58 95
REMARK H PARENT 6 12 88 20 80 48 48 59
REMARK Flexibility Score: inf
ROOT
ATOM      1  C   UNL A   1      40.102  21.454  26.068  1.00  0.00     0.261 C 
ENDROOT
BRANCH   1   2
ATOM      2  O   UNL A   1      38.668  21.524  26.190  1.00  0.00    -0.463 OA
BRANCH   2   3
ATOM      3  C   UNL A   1      37.946  21.039  25.151  1.00  0.00     0.310 C 
ATOM      4  O   UNL A   1      37.980  19.884  24.744  1.00  0.00    -0.252 OA
BRANCH   3   5
ATOM      5  C   UNL A   1      37.009  22.067  24.562  1.00  0.00     0.120 C 
ATOM      6  N   UNL A   1      34.871  22.691  25.346  1.00  0.00    -0.324 N 
ATOM      7  C   UNL A   1      35.804  23.565  26.031  1.00  0.00     0.122 C 
ATOM      8  C   UNL A   1      35.568  21.581  24.734  1.00  0.00     0.136 C 
ATOM      9  C   UNL A   1      37.040  23.487  25.157  1.00  0.00     0.039 C 
BRANCH   6  10
ATOM     10  C   UNL A   1      33.518  22.710  25.461  1.00  0.00     0.317 C 
ATOM     11  N   UNL A   1      32.836  23.601  24.693  1.00  0.00    -0.338 N 
ATOM     12  H   UNL A   1      31.968  23.914  25.038  1.00  0.00     0.165 HD
ATOM     13  O   UNL A   1      32.887  21.917  26.155  1.00  0.00    -0.249 OA
BRANCH  11  14
ATOM     14  C   UNL A   1      33.267  24.137  23.410  1.00  0.00     0.118 C 
BRANCH  14  15
ATOM     15  C   UNL A   1      34.016  25.463  23.557  1.00  0.00     0.031 C 
BRANCH  15  16
ATOM     16  C   UNL A   1      33.128  26.703  23.615  1.00  0.00     0.102 C 
BRANCH  16  17
ATOM     17  C   UNL A   1      33.320  27.468  24.907  1.00  0.00     0.220 C 
ATOM     18  O   UNL A   1      33.700  26.920  25.936  1.00  0.00    -0.275 OA
ATOM     19  N   UNL A   1      32.990  28.803  24.811  1.00  0.00    -0.353 N 
ATOM     20  H   UNL A   1      32.733  29.164  23.931  1.00  0.00     0.163 HD
BRANCH  19  21
ATOM     21  C   UNL A   1      33.006  29.685  25.931  1.00  0.00     0.082 C 
ATOM     22  C   UNL A   1      31.862  30.637  26.156  1.00  0.00     0.027 C 
ATOM     23  C   UNL A   1      32.064  29.477  27.084  1.00  0.00     0.027 C 
ENDBRANCH  19  21
ENDBRANCH  16  17
ENDBRANCH  15  16
ENDBRANCH  14  15
ENDBRANCH  11  14
ENDBRANCH   6  10
ENDBRANCH   3   5
ENDBRANCH   2   3
ENDBRANCH   1   2
BRANCH   1  24
ATOM     24  C   UNL A   1      40.620  20.115  26.600  1.00  0.00     0.202 C 
BRANCH  24  25
ATOM     25  O   UNL A   1      42.013  20.094  26.930  1.00  0.00    -0.374 OA
BRANCH  25  26
ATOM     26  C   UNL A   1      42.890  19.631  25.903  1.00  0.00     0.202 C 
BRANCH  26  27
ATOM     27  C   UNL A   1      43.940  20.639  25.425  1.00  0.00     0.261 C 
BRANCH  27  28
ATOM     28  O   UNL A   1      43.787  21.905  26.088  1.00  0.00    -0.460 OA
BRANCH  28  29
ATOM     29  C   UNL A   1      43.459  22.928  25.267  1.00  0.00     0.338 C 
ATOM     30  O   UNL A   1      43.275  22.870  24.055  1.00  0.00    -0.246 OA
BRANCH  29  31
ATOM     31  C   UNL A   1      43.169  24.144  26.047  1.00  0.00     0.060 A 
ATOM     32  C   UNL A   1      42.985  25.331  25.326  1.00  0.00     0.016 A 
ATOM     33  C   UNL A   1      43.135  24.150  27.444  1.00  0.00     0.016 A 
ATOM     34  C   UNL A   1      42.837  26.540  25.999  1.00  0.00     0.010 A 
ATOM     35  C   UNL A   1      42.987  25.367  28.119  1.00  0.00     0.010 A 
ATOM     36  C   UNL A   1      42.883  26.572  27.398  1.00  0.00    -0.014 A 
BRANCH  36  37
ATOM     37  C   UNL A   1      42.965  27.883  28.085  1.00  0.00     0.031 A 
ATOM     38  C   UNL A   1      44.315  28.506  28.317  1.00  0.00     0.074 A 
ATOM     39  C   UNL A   1      41.849  28.529  28.468  1.00  0.00     0.049 A 
ATOM     40  N   UNL A   1      44.612  29.657  28.862  1.00  0.00    -0.248 NA
ATOM     41  C   UNL A   1      45.486  27.729  27.879  1.00  0.00     0.031 C 
ATOM     42  C   UNL A   1      40.486  28.025  28.304  1.00  0.00     0.029 A 
ATOM     43  N   UNL A   1      41.690  29.740  29.091  1.00  0.00    -0.354 N 
ATOM     44  C   UNL A   1      45.999  29.732  28.856  1.00  0.00     0.074 A 
ATOM     45  C   UNL A   1      46.488  28.504  28.267  1.00  0.00     0.031 C 
ATOM     46  C   UNL A   1      39.629  28.911  28.838  1.00  0.00     0.029 A 
ATOM     47  C   UNL A   1      40.381  30.034  29.395  1.00  0.00     0.049 A 
ATOM     48  H   UNL A   1      42.439  30.342  29.301  1.00  0.00     0.167 HD
ATOM     49  C   UNL A   1      46.796  30.740  29.284  1.00  0.00     0.034 A 
ATOM     50  C   UNL A   1      39.854  31.081  30.059  1.00  0.00     0.034 A 
ATOM     51  C   UNL A   1      46.310  31.972  29.844  1.00  0.00     0.049 A 
ATOM     52  C   UNL A   1      40.761  32.187  30.531  1.00  0.00     0.074 A 
ATOM     53  C   UNL A   1      47.034  33.079  30.246  1.00  0.00     0.029 A 
ATOM     54  N   UNL A   1      44.976  32.253  30.098  1.00  0.00    -0.354 N 
ATOM     55  N   UNL A   1      42.059  32.307  30.389  1.00  0.00    -0.248 NA
ATOM     56  C   UNL A   1      40.127  33.319  31.222  1.00  0.00     0.031 C 
ATOM     57  C   UNL A   1      46.140  34.020  30.769  1.00  0.00     0.029 A 
ATOM     58  C   UNL A   1      44.856  33.509  30.668  1.00  0.00     0.049 A 
ATOM     59  H   UNL A   1      44.225  31.648  29.900  1.00  0.00     0.167 HD
ATOM     60  C   UNL A   1      42.394  33.537  30.945  1.00  0.00     0.074 A 
ATOM     61  C   UNL A   1      41.157  34.136  31.404  1.00  0.00     0.031 C 
ATOM     62  C   UNL A   1      43.614  34.112  31.079  1.00  0.00     0.034 A 
BRANCH  49  63
ATOM     63  C   UNL A   1      48.285  30.563  29.140  1.00  0.00     0.023 A 
ATOM     64  C   UNL A   1      49.046  30.116  30.238  1.00  0.00     0.012 A 
ATOM     65  C   UNL A   1      48.920  30.788  27.903  1.00  0.00     0.148 A 
ATOM     66  C   UNL A   1      50.422  29.925  30.118  1.00  0.00     0.002 A 
ATOM     67  C   UNL A   1      50.286  30.556  27.779  1.00  0.00     0.091 A 
ATOM     68  F   UNL A   1      48.184  31.239  26.878  1.00  0.00    -0.205 F 
ATOM     69  C   UNL A   1      51.039  30.133  28.888  1.00  0.00     0.022 A 
BRANCH  67  70
ATOM     70  S   UNL A   1      51.156  30.727  26.217  1.00  0.00     0.127 S 
ATOM     71  O   UNL A   1      52.541  30.494  26.625  1.00  0.00    -0.237 OA
ATOM     72  O   UNL A   1      50.568  29.653  25.417  1.00  0.00    -0.237 OA
ATOM     73  O   UNL A   1      50.860  32.070  25.739  1.00  0.00    -0.744 OA
ENDBRANCH  67  70
ENDBRANCH  49  63
BRANCH  50  74
ATOM     74  C   UNL A   1      38.382  31.146  30.286  1.00  0.00     0.023 A 
ATOM     75  C   UNL A   1      37.801  30.398  31.327  1.00  0.00     0.012 A 
ATOM     76  C   UNL A   1      37.563  31.973  29.493  1.00  0.00     0.148 A 
ATOM     77  C   UNL A   1      36.425  30.452  31.556  1.00  0.00     0.002 A 
ATOM     78  C   UNL A   1      36.204  32.068  29.763  1.00  0.00     0.091 A 
ATOM     79  F   UNL A   1      38.134  32.663  28.494  1.00  0.00    -0.205 F 
ATOM     80  C   UNL A   1      35.629  31.294  30.784  1.00  0.00     0.022 A 
BRANCH  78  81
ATOM     81  S   UNL A   1      35.133  33.230  28.910  1.00  0.00     0.127 S 
ATOM     82  O   UNL A   1      34.949  32.575  27.618  1.00  0.00    -0.237 OA
ATOM     83  O   UNL A   1      33.951  33.240  29.771  1.00  0.00    -0.237 OA
ATOM     84  O   UNL A   1      35.864  34.489  28.884  1.00  0.00    -0.744 OA
ENDBRANCH  78  81
ENDBRANCH  50  74
BRANCH  62  85
ATOM     85  C   UNL A   1      43.681  35.471  31.729  1.00  0.00     0.023 A 
ATOM     86  C   UNL A   1      43.676  35.573  33.134  1.00  0.00     0.012 A 
ATOM     87  C   UNL A   1      43.821  36.638  30.952  1.00  0.00     0.148 A 
ATOM     88  C   UNL A   1      43.777  36.819  33.755  1.00  0.00     0.002 A 
ATOM     89  C   UNL A   1      43.969  37.870  31.577  1.00  0.00     0.091 A 
ATOM     90  F   UNL A   1      43.805  36.523  29.615  1.00  0.00    -0.205 F 
ATOM     91  C   UNL A   1      43.935  37.964  32.979  1.00  0.00     0.022 A 
BRANCH  89  92
ATOM     92  S   UNL A   1      44.274  39.384  30.660  1.00  0.00     0.127 S 
ATOM     93  O   UNL A   1      44.596  40.323  31.733  1.00  0.00    -0.237 OA
ATOM     94  O   UNL A   1      45.407  39.014  29.812  1.00  0.00    -0.237 OA
ATOM     95  O   UNL A   1      43.043  39.663  29.932  1.00  0.00    -0.744 OA
ENDBRANCH  89  92
ENDBRANCH  62  85
ENDBRANCH  36  37
ENDBRANCH  29  31
ENDBRANCH  28  29
ENDBRANCH  27  28
ENDBRANCH  26  27
ENDBRANCH  25  26
ENDBRANCH  24  25
ENDBRANCH   1  24
TORSDOF 23
ENDMDL
