MODEL 1
REMARK VINA RESULT:     -10.7      0.000      0.000
REMARK SMILES C[C@H](NC(=O)N1CC[C@H](C(=O)OCCOCCOC(=O)c2ccc(-c3c4nc(c(-c5cccc(S(=O)(=O)[O-])c5F)c5ccc([nH]5)c(-c5cccc(S(=O)(=O)[O-])c5F)c5nc(c(-c6cccc(S(=O)(=O)[O-])c6F)c6ccc3[nH]6)C=C5)C=C4)cc2)[C@@H]1C)[C@@H]1CCCO1
REMARK SMILES IDX 15 1 14 2 13 3 12 4 10 5 11 6 9 7 6 8 7 9 84 10 8 11 85 12
REMARK SMILES IDX 4 13 3 14 5 16 2 17 1 18 86 19 87 20 90 21 88 22 89 23 16 24
REMARK SMILES IDX 17 25 18 26 19 27 20 28 21 29 22 30 83 31 23 32 82 33 24 34
REMARK SMILES IDX 25 35 26 36 76 37 27 38 81 39 75 40 77 41 28 42 80 43 74 44
REMARK SMILES IDX 73 45 29 47 61 48 41 49 60 50 42 51 45 52 59 53 78 54 43 55
REMARK SMILES IDX 44 56 58 58 79 59 46 60 30 61 31 62 39 63 32 64 34 65 40 66
REMARK SMILES IDX 33 67 35 68 36 69 37 70 38 71 62 72 63 73 71 74 64 75 66 76
REMARK SMILES IDX 72 77 65 78 67 79 68 80 69 81 70 82 47 83 48 84 56 85 49 86
REMARK SMILES IDX 51 87 57 88 50 89 52 90 53 91 54 92 55 93
REMARK H PARENT 3 15 77 46 45 57
REMARK Flexibility Score: inf
ROOT
ATOM      1  O   UNL A   1      37.598  21.282  24.639  1.00  0.00    -0.374 OA
ENDROOT
BRANCH   1   2
ATOM      2  C   UNL A   1      36.699  22.072  25.424  1.00  0.00     0.202 C 
BRANCH   2   3
ATOM      3  C   UNL A   1      35.495  21.356  26.046  1.00  0.00     0.261 C 
BRANCH   3   4
ATOM      4  O   UNL A   1      34.480  21.125  25.050  1.00  0.00    -0.463 OA
BRANCH   4   5
ATOM      5  C   UNL A   1      33.507  22.070  24.919  1.00  0.00     0.311 C 
ATOM      6  O   UNL A   1      32.990  22.690  25.835  1.00  0.00    -0.252 OA
BRANCH   5   7
ATOM      7  C   UNL A   1      33.170  22.248  23.456  1.00  0.00     0.123 C 
ATOM      8  N   UNL A   1      32.718  24.205  22.183  1.00  0.00    -0.321 N 
ATOM      9  C   UNL A   1      31.553  23.960  23.002  1.00  0.00     0.122 C 
ATOM     10  C   UNL A   1      33.838  23.424  22.700  1.00  0.00     0.098 C 
ATOM     11  C   UNL A   1      31.660  22.478  23.300  1.00  0.00     0.039 C 
ATOM     12  C   UNL A   1      34.833  24.334  23.423  1.00  0.00     0.032 C 
BRANCH   8  13
ATOM     13  C   UNL A   1      32.770  25.266  21.329  1.00  0.00     0.317 C 
ATOM     14  N   UNL A   1      32.306  26.480  21.734  1.00  0.00    -0.333 N 
ATOM     15  H   UNL A   1      31.509  26.813  21.262  1.00  0.00     0.165 HD
ATOM     16  O   UNL A   1      33.107  25.141  20.151  1.00  0.00    -0.249 OA
BRANCH  14  17
ATOM     17  C   UNL A   1      32.846  27.365  22.790  1.00  0.00     0.109 C 
ATOM     18  C   UNL A   1      33.824  28.448  22.357  1.00  0.00     0.034 C 
BRANCH  17  19
ATOM     19  C   UNL A   1      31.771  27.985  23.717  1.00  0.00     0.140 C 
ATOM     20  C   UNL A   1      30.994  29.124  23.071  1.00  0.00     0.036 C 
ATOM     21  O   UNL A   1      32.297  28.498  24.952  1.00  0.00    -0.376 OA
ATOM     22  C   UNL A   1      30.478  29.850  24.285  1.00  0.00     0.031 C 
ATOM     23  C   UNL A   1      31.670  29.762  25.214  1.00  0.00     0.160 C 
ENDBRANCH  17  19
ENDBRANCH  14  17
ENDBRANCH   8  13
ENDBRANCH   5   7
ENDBRANCH   4   5
ENDBRANCH   3   4
ENDBRANCH   2   3
ENDBRANCH   1   2
BRANCH   1  24
ATOM     24  C   UNL A   1      37.581  19.879  24.861  1.00  0.00     0.202 C 
BRANCH  24  25
ATOM     25  C   UNL A   1      38.845  19.192  25.396  1.00  0.00     0.261 C 
BRANCH  25  26
ATOM     26  O   UNL A   1      39.411  19.863  26.518  1.00  0.00    -0.460 OA
BRANCH  26  27
ATOM     27  C   UNL A   1      40.742  20.068  26.392  1.00  0.00     0.338 C 
ATOM     28  O   UNL A   1      41.562  19.334  25.858  1.00  0.00    -0.246 OA
BRANCH  27  29
ATOM     29  C   UNL A   1      41.048  21.426  26.847  1.00  0.00     0.060 A 
ATOM     30  C   UNL A   1      40.631  22.486  26.036  1.00  0.00     0.016 A 
ATOM     31  C   UNL A   1      41.747  21.650  28.036  1.00  0.00     0.016 A 
ATOM     32  C   UNL A   1      40.959  23.787  26.386  1.00  0.00     0.010 A 
ATOM     33  C   UNL A   1      42.083  22.955  28.381  1.00  0.00     0.010 A 
ATOM     34  C   UNL A   1      41.726  24.019  27.534  1.00  0.00    -0.014 A 
BRANCH  34  35
ATOM     35  C   UNL A   1      42.302  25.360  27.753  1.00  0.00     0.031 A 
ATOM     36  C   UNL A   1      41.453  26.399  28.425  1.00  0.00     0.074 A 
ATOM     37  C   UNL A   1      43.560  25.628  27.368  1.00  0.00     0.049 A 
ATOM     38  N   UNL A   1      41.733  27.644  28.698  1.00  0.00    -0.248 NA
ATOM     39  C   UNL A   1      40.103  25.980  28.843  1.00  0.00     0.031 C 
ATOM     40  C   UNL A   1      44.464  24.679  26.718  1.00  0.00     0.029 A 
ATOM     41  N   UNL A   1      44.286  26.787  27.450  1.00  0.00    -0.354 N 
ATOM     42  C   UNL A   1      40.588  28.166  29.289  1.00  0.00     0.074 A 
ATOM     43  C   UNL A   1      39.604  27.108  29.320  1.00  0.00     0.031 C 
ATOM     44  C   UNL A   1      45.621  25.304  26.439  1.00  0.00     0.029 A 
ATOM     45  C   UNL A   1      45.523  26.699  26.861  1.00  0.00     0.049 A 
ATOM     46  H   UNL A   1      43.952  27.603  27.888  1.00  0.00     0.167 HD
ATOM     47  C   UNL A   1      40.385  29.413  29.773  1.00  0.00     0.034 A 
ATOM     48  C   UNL A   1      46.456  27.650  26.666  1.00  0.00     0.034 A 
ATOM     49  C   UNL A   1      41.380  30.449  29.741  1.00  0.00     0.049 A 
ATOM     50  C   UNL A   1      46.192  29.038  27.184  1.00  0.00     0.074 A 
ATOM     51  C   UNL A   1      41.298  31.736  30.238  1.00  0.00     0.029 A 
ATOM     52  N   UNL A   1      42.635  30.318  29.165  1.00  0.00    -0.354 N 
ATOM     53  N   UNL A   1      45.146  29.493  27.833  1.00  0.00    -0.248 NA
ATOM     54  C   UNL A   1      47.247  30.038  26.971  1.00  0.00     0.031 C 
ATOM     55  C   UNL A   1      42.491  32.397  29.925  1.00  0.00     0.029 A 
ATOM     56  C   UNL A   1      43.333  31.507  29.276  1.00  0.00     0.049 A 
ATOM     57  H   UNL A   1      42.978  29.500  28.738  1.00  0.00     0.167 HD
ATOM     58  C   UNL A   1      45.433  30.818  28.142  1.00  0.00     0.074 A 
ATOM     59  C   UNL A   1      46.759  31.086  27.622  1.00  0.00     0.031 C 
ATOM     60  C   UNL A   1      44.671  31.733  28.790  1.00  0.00     0.034 A 
BRANCH  47  61
ATOM     61  C   UNL A   1      39.041  29.716  30.380  1.00  0.00     0.023 A 
ATOM     62  C   UNL A   1      38.747  29.291  31.693  1.00  0.00     0.012 A 
ATOM     63  C   UNL A   1      38.079  30.455  29.663  1.00  0.00     0.148 A 
ATOM     64  C   UNL A   1      37.506  29.563  32.268  1.00  0.00     0.002 A 
ATOM     65  C   UNL A   1      36.864  30.764  30.261  1.00  0.00     0.091 A 
ATOM     66  F   UNL A   1      38.366  30.828  28.408  1.00  0.00    -0.205 F 
ATOM     67  C   UNL A   1      36.570  30.309  31.556  1.00  0.00     0.022 A 
BRANCH  65  68
ATOM     68  S   UNL A   1      35.622  31.784  29.458  1.00  0.00     0.127 S 
ATOM     69  O   UNL A   1      36.432  32.891  28.950  1.00  0.00    -0.237 OA
ATOM     70  O   UNL A   1      35.105  30.883  28.428  1.00  0.00    -0.237 OA
ATOM     71  O   UNL A   1      34.662  32.140  30.494  1.00  0.00    -0.744 OA
ENDBRANCH  65  68
ENDBRANCH  47  61
BRANCH  48  72
ATOM     72  C   UNL A   1      47.733  27.313  25.977  1.00  0.00     0.023 A 
ATOM     73  C   UNL A   1      48.806  26.781  26.717  1.00  0.00     0.012 A 
ATOM     74  C   UNL A   1      47.881  27.499  24.589  1.00  0.00     0.148 A 
ATOM     75  C   UNL A   1      50.015  26.472  26.094  1.00  0.00     0.002 A 
ATOM     76  C   UNL A   1      49.068  27.137  23.964  1.00  0.00     0.091 A 
ATOM     77  F   UNL A   1      46.852  28.017  23.904  1.00  0.00    -0.205 F 
ATOM     78  C   UNL A   1      50.144  26.641  24.717  1.00  0.00     0.022 A 
BRANCH  76  79
ATOM     79  S   UNL A   1      49.279  27.199  22.182  1.00  0.00     0.127 S 
ATOM     80  O   UNL A   1      48.512  26.032  21.751  1.00  0.00    -0.237 OA
ATOM     81  O   UNL A   1      48.676  28.490  21.853  1.00  0.00    -0.237 OA
ATOM     82  O   UNL A   1      50.716  27.129  21.951  1.00  0.00    -0.744 OA
ENDBRANCH  76  79
ENDBRANCH  48  72
BRANCH  60  83
ATOM     83  C   UNL A   1      45.266  33.099  29.019  1.00  0.00     0.023 A 
ATOM     84  C   UNL A   1      46.048  33.347  30.163  1.00  0.00     0.012 A 
ATOM     85  C   UNL A   1      45.110  34.112  28.052  1.00  0.00     0.148 A 
ATOM     86  C   UNL A   1      46.636  34.596  30.360  1.00  0.00     0.002 A 
ATOM     87  C   UNL A   1      45.745  35.334  28.227  1.00  0.00     0.091 A 
ATOM     88  F   UNL A   1      44.350  33.858  26.977  1.00  0.00    -0.205 F 
ATOM     89  C   UNL A   1      46.496  35.583  29.387  1.00  0.00     0.022 A 
BRANCH  87  90
ATOM     90  S   UNL A   1      45.708  36.627  26.981  1.00  0.00     0.127 S 
ATOM     91  O   UNL A   1      44.276  36.902  26.881  1.00  0.00    -0.237 OA
ATOM     92  O   UNL A   1      46.491  37.688  27.615  1.00  0.00    -0.237 OA
ATOM     93  O   UNL A   1      46.317  36.056  25.787  1.00  0.00    -0.744 OA
ENDBRANCH  87  90
ENDBRANCH  60  83
ENDBRANCH  34  35
ENDBRANCH  27  29
ENDBRANCH  26  27
ENDBRANCH  25  26
ENDBRANCH  24  25
ENDBRANCH   1  24
TORSDOF 20
ENDMDL
MODEL 2
REMARK VINA RESULT:     -10.7      5.341     10.964
REMARK SMILES C[C@H](NC(=O)N1CC[C@H](C(=O)OCCOCCOC(=O)c2ccc(-c3c4nc(c(-c5cccc(S(=O)(=O)[O-])c5F)c5ccc([nH]5)c(-c5cccc(S(=O)(=O)[O-])c5F)c5nc(c(-c6cccc(S(=O)(=O)[O-])c6F)c6ccc3[nH]6)C=C5)C=C4)cc2)[C@@H]1C)[C@@H]1CCCO1
REMARK SMILES IDX 15 1 14 2 13 3 12 4 10 5 11 6 9 7 6 8 7 9 84 10 8 11 85 12
REMARK SMILES IDX 4 13 3 14 5 16 2 17 1 18 86 19 87 20 90 21 88 22 89 23 16 24
REMARK SMILES IDX 17 25 18 26 19 27 20 28 21 29 22 30 83 31 23 32 82 33 24 34
REMARK SMILES IDX 25 35 26 36 76 37 27 38 81 39 75 40 77 41 28 42 80 43 74 44
REMARK SMILES IDX 73 45 29 47 61 48 41 49 60 50 42 51 45 52 59 53 78 54 43 55
REMARK SMILES IDX 44 56 58 58 79 59 46 60 30 61 31 62 39 63 32 64 34 65 40 66
REMARK SMILES IDX 33 67 35 68 36 69 37 70 38 71 62 72 63 73 71 74 64 75 66 76
REMARK SMILES IDX 72 77 65 78 67 79 68 80 69 81 70 82 47 83 48 84 56 85 49 86
REMARK SMILES IDX 51 87 57 88 50 89 52 90 53 91 54 92 55 93
REMARK H PARENT 3 15 77 46 45 57
REMARK Flexibility Score: inf
ROOT
ATOM      1  O   UNL A   1      31.913  29.829  24.737  1.00  0.00    -0.374 OA
ENDROOT
BRANCH   1   2
ATOM      2  C   UNL A   1      31.599  28.434  24.804  1.00  0.00     0.202 C 
BRANCH   2   3
ATOM      3  C   UNL A   1      32.692  27.492  25.321  1.00  0.00     0.261 C 
BRANCH   3   4
ATOM      4  O   UNL A   1      33.219  26.696  24.242  1.00  0.00    -0.463 OA
BRANCH   4   5
ATOM      5  C   UNL A   1      32.669  25.464  24.047  1.00  0.00     0.311 C 
ATOM      6  O   UNL A   1      32.435  24.954  22.963  1.00  0.00    -0.252 OA
BRANCH   5   7
ATOM      7  C   UNL A   1      32.404  24.813  25.385  1.00  0.00     0.123 C 
ATOM      8  N   UNL A   1      32.905  22.631  26.188  1.00  0.00    -0.321 N 
ATOM      9  C   UNL A   1      31.799  22.494  25.267  1.00  0.00     0.122 C 
ATOM     10  C   UNL A   1      33.527  23.938  25.997  1.00  0.00     0.098 C 
ATOM     11  C   UNL A   1      31.187  23.882  25.272  1.00  0.00     0.039 C 
ATOM     12  C   UNL A   1      34.865  23.790  25.270  1.00  0.00     0.032 C 
BRANCH   8  13
ATOM     13  C   UNL A   1      33.430  21.547  26.826  1.00  0.00     0.317 C 
ATOM     14  N   UNL A   1      33.433  20.336  26.205  1.00  0.00    -0.333 N 
ATOM     15  H   UNL A   1      32.866  19.643  26.614  1.00  0.00     0.165 HD
ATOM     16  O   UNL A   1      33.790  21.592  28.003  1.00  0.00    -0.249 OA
BRANCH  14  17
ATOM     17  C   UNL A   1      34.179  19.925  24.995  1.00  0.00     0.109 C 
ATOM     18  C   UNL A   1      35.686  20.139  25.001  1.00  0.00     0.034 C 
BRANCH  17  19
ATOM     19  C   UNL A   1      33.867  18.489  24.507  1.00  0.00     0.140 C 
ATOM     20  C   UNL A   1      32.809  17.779  25.341  1.00  0.00     0.036 C 
ATOM     21  O   UNL A   1      35.015  17.624  24.481  1.00  0.00    -0.376 OA
ATOM     22  C   UNL A   1      33.110  16.337  25.027  1.00  0.00     0.031 C 
ATOM     23  C   UNL A   1      34.623  16.346  25.006  1.00  0.00     0.160 C 
ENDBRANCH  17  19
ENDBRANCH  14  17
ENDBRANCH   8  13
ENDBRANCH   5   7
ENDBRANCH   4   5
ENDBRANCH   3   4
ENDBRANCH   2   3
ENDBRANCH   1   2
BRANCH   1  24
ATOM     24  C   UNL A   1      30.975  30.727  25.313  1.00  0.00     0.202 C 
BRANCH  24  25
ATOM     25  C   UNL A   1      31.402  31.584  26.512  1.00  0.00     0.261 C 
BRANCH  25  26
ATOM     26  O   UNL A   1      32.681  31.226  27.026  1.00  0.00    -0.460 OA
BRANCH  26  27
ATOM     27  C   UNL A   1      33.379  32.289  27.487  1.00  0.00     0.338 C 
ATOM     28  O   UNL A   1      32.984  33.438  27.626  1.00  0.00    -0.246 OA
BRANCH  27  29
ATOM     29  C   UNL A   1      34.674  31.815  27.982  1.00  0.00     0.060 A 
ATOM     30  C   UNL A   1      34.774  30.464  28.330  1.00  0.00     0.016 A 
ATOM     31  C   UNL A   1      35.758  32.685  28.119  1.00  0.00     0.016 A 
ATOM     32  C   UNL A   1      35.957  29.981  28.871  1.00  0.00     0.010 A 
ATOM     33  C   UNL A   1      36.941  32.201  28.671  1.00  0.00     0.010 A 
ATOM     34  C   UNL A   1      37.025  30.860  29.085  1.00  0.00    -0.014 A 
BRANCH  34  35
ATOM     35  C   UNL A   1      38.168  30.413  29.905  1.00  0.00     0.031 A 
ATOM     36  C   UNL A   1      39.124  29.420  29.312  1.00  0.00     0.074 A 
ATOM     37  C   UNL A   1      38.345  30.900  31.144  1.00  0.00     0.049 A 
ATOM     38  N   UNL A   1      40.177  28.867  29.848  1.00  0.00    -0.248 NA
ATOM     39  C   UNL A   1      38.854  28.988  27.930  1.00  0.00     0.031 C 
ATOM     40  C   UNL A   1      37.475  31.877  31.799  1.00  0.00     0.029 A 
ATOM     41  N   UNL A   1      39.305  30.620  32.079  1.00  0.00    -0.354 N 
ATOM     42  C   UNL A   1      40.678  28.000  28.884  1.00  0.00     0.074 A 
ATOM     43  C   UNL A   1      39.804  28.088  27.736  1.00  0.00     0.031 C 
ATOM     44  C   UNL A   1      37.932  32.098  33.044  1.00  0.00     0.029 A 
ATOM     45  C   UNL A   1      39.102  31.257  33.278  1.00  0.00     0.049 A 
ATOM     46  H   UNL A   1      40.068  30.021  31.907  1.00  0.00     0.167 HD
ATOM     47  C   UNL A   1      41.777  27.213  28.949  1.00  0.00     0.034 A 
ATOM     48  C   UNL A   1      39.776  31.147  34.439  1.00  0.00     0.034 A 
ATOM     49  C   UNL A   1      42.639  27.146  30.097  1.00  0.00     0.049 A 
ATOM     50  C   UNL A   1      40.975  30.238  34.496  1.00  0.00     0.074 A 
ATOM     51  C   UNL A   1      43.801  26.416  30.259  1.00  0.00     0.029 A 
ATOM     52  N   UNL A   1      42.421  27.828  31.286  1.00  0.00    -0.354 N 
ATOM     53  N   UNL A   1      41.499  29.502  33.545  1.00  0.00    -0.248 NA
ATOM     54  C   UNL A   1      41.694  30.168  35.776  1.00  0.00     0.031 C 
ATOM     55  C   UNL A   1      44.264  26.623  31.563  1.00  0.00     0.029 A 
ATOM     56  C   UNL A   1      43.417  27.521  32.195  1.00  0.00     0.049 A 
ATOM     57  H   UNL A   1      41.669  28.438  31.458  1.00  0.00     0.167 HD
ATOM     58  C   UNL A   1      42.631  28.913  34.097  1.00  0.00     0.074 A 
ATOM     59  C   UNL A   1      42.724  29.392  35.461  1.00  0.00     0.031 C 
ATOM     60  C   UNL A   1      43.511  28.049  33.533  1.00  0.00     0.034 A 
BRANCH  47  61
ATOM     61  C   UNL A   1      42.105  26.371  27.745  1.00  0.00     0.023 A 
ATOM     62  C   UNL A   1      42.802  26.936  26.657  1.00  0.00     0.012 A 
ATOM     63  C   UNL A   1      41.754  25.006  27.706  1.00  0.00     0.148 A 
ATOM     64  C   UNL A   1      43.112  26.168  25.535  1.00  0.00     0.002 A 
ATOM     65  C   UNL A   1      42.110  24.237  26.606  1.00  0.00     0.091 A 
ATOM     66  F   UNL A   1      41.070  24.493  28.738  1.00  0.00    -0.205 F 
ATOM     67  C   UNL A   1      42.775  24.817  25.515  1.00  0.00     0.022 A 
BRANCH  65  68
ATOM     68  S   UNL A   1      41.791  22.471  26.516  1.00  0.00     0.127 S 
ATOM     69  O   UNL A   1      40.329  22.436  26.493  1.00  0.00    -0.237 OA
ATOM     70  O   UNL A   1      42.430  22.109  25.251  1.00  0.00    -0.237 OA
ATOM     71  O   UNL A   1      42.409  21.889  27.699  1.00  0.00    -0.744 OA
ENDBRANCH  65  68
ENDBRANCH  47  61
BRANCH  48  72
ATOM     72  C   UNL A   1      39.350  31.939  35.627  1.00  0.00     0.023 A 
ATOM     73  C   UNL A   1      39.740  33.286  35.744  1.00  0.00     0.012 A 
ATOM     74  C   UNL A   1      38.544  31.367  36.631  1.00  0.00     0.148 A 
ATOM     75  C   UNL A   1      39.364  34.041  36.856  1.00  0.00     0.002 A 
ATOM     76  C   UNL A   1      38.126  32.139  37.707  1.00  0.00     0.091 A 
ATOM     77  F   UNL A   1      38.192  30.079  36.507  1.00  0.00    -0.205 F 
ATOM     78  C   UNL A   1      38.550  33.471  37.832  1.00  0.00     0.022 A 
BRANCH  76  79
ATOM     79  S   UNL A   1      36.975  31.530  38.944  1.00  0.00     0.127 S 
ATOM     80  O   UNL A   1      37.786  31.582  40.158  1.00  0.00    -0.237 OA
ATOM     81  O   UNL A   1      35.904  32.524  38.872  1.00  0.00    -0.237 OA
ATOM     82  O   UNL A   1      36.589  30.196  38.501  1.00  0.00    -0.744 OA
ENDBRANCH  76  79
ENDBRANCH  48  72
BRANCH  60  83
ATOM     83  C   UNL A   1      44.682  27.601  34.370  1.00  0.00     0.023 A 
ATOM     84  C   UNL A   1      45.839  28.399  34.453  1.00  0.00     0.012 A 
ATOM     85  C   UNL A   1      44.595  26.422  35.137  1.00  0.00     0.148 A 
ATOM     86  C   UNL A   1      46.908  28.011  35.259  1.00  0.00     0.002 A 
ATOM     87  C   UNL A   1      45.640  26.072  35.981  1.00  0.00     0.091 A 
ATOM     88  F   UNL A   1      43.490  25.671  35.033  1.00  0.00    -0.205 F 
ATOM     89  C   UNL A   1      46.804  26.857  36.033  1.00  0.00     0.022 A 
BRANCH  87  90
ATOM     90  S   UNL A   1      45.554  24.662  37.090  1.00  0.00     0.127 S 
ATOM     91  O   UNL A   1      45.123  25.291  38.337  1.00  0.00    -0.237 OA
ATOM     92  O   UNL A   1      44.541  23.825  36.446  1.00  0.00    -0.237 OA
ATOM     93  O   UNL A   1      46.891  24.084  37.114  1.00  0.00    -0.744 OA
ENDBRANCH  87  90
ENDBRANCH  60  83
ENDBRANCH  34  35
ENDBRANCH  27  29
ENDBRANCH  26  27
ENDBRANCH  25  26
ENDBRANCH  24  25
ENDBRANCH   1  24
TORSDOF 20
ENDMDL
MODEL 3
REMARK VINA RESULT:     -10.7      1.838      7.783
REMARK SMILES C[C@H](NC(=O)N1CC[C@H](C(=O)OCCOCCOC(=O)c2ccc(-c3c4nc(c(-c5cccc(S(=O)(=O)[O-])c5F)c5ccc([nH]5)c(-c5cccc(S(=O)(=O)[O-])c5F)c5nc(c(-c6cccc(S(=O)(=O)[O-])c6F)c6ccc3[nH]6)C=C5)C=C4)cc2)[C@@H]1C)[C@@H]1CCCO1
REMARK SMILES IDX 15 1 14 2 13 3 12 4 10 5 11 6 9 7 6 8 7 9 84 10 8 11 85 12
REMARK SMILES IDX 4 13 3 14 5 16 2 17 1 18 86 19 87 20 90 21 88 22 89 23 16 24
REMARK SMILES IDX 17 25 18 26 19 27 20 28 21 29 22 30 83 31 23 32 82 33 24 34
REMARK SMILES IDX 25 35 26 36 76 37 27 38 81 39 75 40 77 41 28 42 80 43 74 44
REMARK SMILES IDX 73 45 29 47 61 48 41 49 60 50 42 51 45 52 59 53 78 54 43 55
REMARK SMILES IDX 44 56 58 58 79 59 46 60 30 61 31 62 39 63 32 64 34 65 40 66
REMARK SMILES IDX 33 67 35 68 36 69 37 70 38 71 62 72 63 73 71 74 64 75 66 76
REMARK SMILES IDX 72 77 65 78 67 79 68 80 69 81 70 82 47 83 48 84 56 85 49 86
REMARK SMILES IDX 51 87 57 88 50 89 52 90 53 91 54 92 55 93
REMARK H PARENT 3 15 77 46 45 57
REMARK Flexibility Score: inf
ROOT
ATOM      1  O   UNL A   1      35.036  19.305  24.692  1.00  0.00    -0.374 OA
ENDROOT
BRANCH   1   2
ATOM      2  C   UNL A   1      33.679  19.426  25.128  1.00  0.00     0.202 C 
BRANCH   2   3
ATOM      3  C   UNL A   1      32.628  19.777  24.069  1.00  0.00     0.261 C 
BRANCH   3   4
ATOM      4  O   UNL A   1      32.487  21.207  23.958  1.00  0.00    -0.463 OA
BRANCH   4   5
ATOM      5  C   UNL A   1      32.121  21.707  22.745  1.00  0.00     0.311 C 
ATOM      6  O   UNL A   1      31.953  21.052  21.728  1.00  0.00    -0.252 OA
BRANCH   5   7
ATOM      7  C   UNL A   1      31.939  23.204  22.849  1.00  0.00     0.123 C 
ATOM      8  N   UNL A   1      32.804  24.779  24.407  1.00  0.00    -0.321 N 
ATOM      9  C   UNL A   1      31.769  24.037  25.093  1.00  0.00     0.122 C 
ATOM     10  C   UNL A   1      33.184  24.060  23.195  1.00  0.00     0.098 C 
ATOM     11  C   UNL A   1      30.916  23.522  23.950  1.00  0.00     0.039 C 
ATOM     12  C   UNL A   1      34.547  23.390  23.377  1.00  0.00     0.032 C 
BRANCH   8  13
ATOM     13  C   UNL A   1      33.498  25.767  25.037  1.00  0.00     0.317 C 
ATOM     14  N   UNL A   1      34.019  26.794  24.310  1.00  0.00    -0.333 N 
ATOM     15  H   UNL A   1      35.002  26.844  24.283  1.00  0.00     0.165 HD
ATOM     16  O   UNL A   1      33.786  25.705  26.233  1.00  0.00    -0.249 OA
BRANCH  14  17
ATOM     17  C   UNL A   1      33.300  27.845  23.557  1.00  0.00     0.109 C 
ATOM     18  C   UNL A   1      33.471  27.857  22.045  1.00  0.00     0.034 C 
BRANCH  17  19
ATOM     19  C   UNL A   1      31.795  27.965  23.904  1.00  0.00     0.140 C 
ATOM     20  C   UNL A   1      30.877  27.379  22.841  1.00  0.00     0.036 C 
ATOM     21  O   UNL A   1      31.357  29.317  24.123  1.00  0.00    -0.376 OA
ATOM     22  C   UNL A   1      29.587  28.097  23.142  1.00  0.00     0.031 C 
ATOM     23  C   UNL A   1      30.090  29.486  23.470  1.00  0.00     0.160 C 
ENDBRANCH  17  19
ENDBRANCH  14  17
ENDBRANCH   8  13
ENDBRANCH   5   7
ENDBRANCH   4   5
ENDBRANCH   3   4
ENDBRANCH   2   3
ENDBRANCH   1   2
BRANCH   1  24
ATOM     24  C   UNL A   1      35.904  20.391  24.986  1.00  0.00     0.202 C 
BRANCH  24  25
ATOM     25  C   UNL A   1      37.420  20.149  25.014  1.00  0.00     0.261 C 
BRANCH  25  26
ATOM     26  O   UNL A   1      38.169  21.333  25.267  1.00  0.00    -0.460 OA
BRANCH  26  27
ATOM     27  C   UNL A   1      39.267  21.110  26.025  1.00  0.00     0.338 C 
ATOM     28  O   UNL A   1      39.914  20.077  26.114  1.00  0.00    -0.246 OA
BRANCH  27  29
ATOM     29  C   UNL A   1      39.691  22.383  26.614  1.00  0.00     0.060 A 
ATOM     30  C   UNL A   1      39.023  23.539  26.197  1.00  0.00     0.016 A 
ATOM     31  C   UNL A   1      40.735  22.439  27.540  1.00  0.00     0.016 A 
ATOM     32  C   UNL A   1      39.434  24.776  26.670  1.00  0.00     0.010 A 
ATOM     33  C   UNL A   1      41.152  23.682  28.007  1.00  0.00     0.010 A 
ATOM     34  C   UNL A   1      40.530  24.852  27.539  1.00  0.00    -0.014 A 
BRANCH  34  35
ATOM     35  C   UNL A   1      41.133  26.169  27.819  1.00  0.00     0.031 A 
ATOM     36  C   UNL A   1      42.536  26.424  27.351  1.00  0.00     0.074 A 
ATOM     37  C   UNL A   1      40.431  27.113  28.466  1.00  0.00     0.049 A 
ATOM     38  N   UNL A   1      43.278  27.487  27.504  1.00  0.00    -0.248 NA
ATOM     39  C   UNL A   1      43.195  25.330  26.615  1.00  0.00     0.031 C 
ATOM     40  C   UNL A   1      39.057  26.961  28.948  1.00  0.00     0.029 A 
ATOM     41  N   UNL A   1      40.785  28.380  28.847  1.00  0.00    -0.354 N 
ATOM     42  C   UNL A   1      44.498  27.182  26.914  1.00  0.00     0.074 A 
ATOM     43  C   UNL A   1      44.405  25.829  26.414  1.00  0.00     0.031 C 
ATOM     44  C   UNL A   1      38.694  28.088  29.583  1.00  0.00     0.029 A 
ATOM     45  C   UNL A   1      39.817  29.022  29.577  1.00  0.00     0.049 A 
ATOM     46  H   UNL A   1      41.652  28.789  28.618  1.00  0.00     0.167 HD
ATOM     47  C   UNL A   1      45.593  27.967  26.789  1.00  0.00     0.034 A 
ATOM     48  C   UNL A   1      39.850  30.220  30.191  1.00  0.00     0.034 A 
ATOM     49  C   UNL A   1      45.664  29.314  27.285  1.00  0.00     0.049 A 
ATOM     50  C   UNL A   1      41.093  31.061  30.067  1.00  0.00     0.074 A 
ATOM     51  C   UNL A   1      46.705  30.216  27.180  1.00  0.00     0.029 A 
ATOM     52  N   UNL A   1      44.653  29.946  27.995  1.00  0.00    -0.354 N 
ATOM     53  N   UNL A   1      42.204  30.804  29.418  1.00  0.00    -0.248 NA
ATOM     54  C   UNL A   1      41.076  32.371  30.733  1.00  0.00     0.031 C 
ATOM     55  C   UNL A   1      46.340  31.381  27.864  1.00  0.00     0.029 A 
ATOM     56  C   UNL A   1      45.052  31.221  28.351  1.00  0.00     0.049 A 
ATOM     57  H   UNL A   1      43.781  29.546  28.214  1.00  0.00     0.167 HD
ATOM     58  C   UNL A   1      43.002  31.933  29.561  1.00  0.00     0.074 A 
ATOM     59  C   UNL A   1      42.239  32.882  30.346  1.00  0.00     0.031 C 
ATOM     60  C   UNL A   1      44.254  32.164  29.094  1.00  0.00     0.034 A 
BRANCH  47  61
ATOM     61  C   UNL A   1      46.792  27.389  26.087  1.00  0.00     0.023 A 
ATOM     62  C   UNL A   1      46.898  27.477  24.683  1.00  0.00     0.012 A 
ATOM     63  C   UNL A   1      47.834  26.788  26.821  1.00  0.00     0.148 A 
ATOM     64  C   UNL A   1      48.003  26.944  24.018  1.00  0.00     0.002 A 
ATOM     65  C   UNL A   1      48.953  26.304  26.156  1.00  0.00     0.091 A 
ATOM     66  F   UNL A   1      47.704  26.691  28.151  1.00  0.00    -0.205 F 
ATOM     67  C   UNL A   1      49.034  26.369  24.755  1.00  0.00     0.022 A 
BRANCH  65  68
ATOM     68  S   UNL A   1      50.370  25.615  27.019  1.00  0.00     0.127 S 
ATOM     69  O   UNL A   1      51.327  25.445  25.927  1.00  0.00    -0.237 OA
ATOM     70  O   UNL A   1      50.702  26.682  27.962  1.00  0.00    -0.237 OA
ATOM     71  O   UNL A   1      49.904  24.380  27.636  1.00  0.00    -0.744 OA
ENDBRANCH  65  68
ENDBRANCH  47  61
BRANCH  48  72
ATOM     72  C   UNL A   1      38.664  30.703  30.950  1.00  0.00     0.023 A 
ATOM     73  C   UNL A   1      38.618  30.546  32.349  1.00  0.00     0.012 A 
ATOM     74  C   UNL A   1      37.589  31.337  30.295  1.00  0.00     0.148 A 
ATOM     75  C   UNL A   1      37.509  30.979  33.077  1.00  0.00     0.002 A 
ATOM     76  C   UNL A   1      36.514  31.816  31.032  1.00  0.00     0.091 A 
ATOM     77  F   UNL A   1      37.647  31.467  28.962  1.00  0.00    -0.205 F 
ATOM     78  C   UNL A   1      36.462  31.622  32.421  1.00  0.00     0.022 A 
BRANCH  76  79
ATOM     79  S   UNL A   1      35.183  32.768  30.290  1.00  0.00     0.127 S 
ATOM     80  O   UNL A   1      34.662  31.830  29.299  1.00  0.00    -0.237 OA
ATOM     81  O   UNL A   1      34.308  33.003  31.438  1.00  0.00    -0.237 OA
ATOM     82  O   UNL A   1      35.809  33.969  29.754  1.00  0.00    -0.744 OA
ENDBRANCH  76  79
ENDBRANCH  48  72
BRANCH  60  83
ATOM     83  C   UNL A   1      44.864  33.514  29.375  1.00  0.00     0.023 A 
ATOM     84  C   UNL A   1      45.680  33.699  30.507  1.00  0.00     0.012 A 
ATOM     85  C   UNL A   1      44.686  34.575  28.466  1.00  0.00     0.148 A 
ATOM     86  C   UNL A   1      46.281  34.934  30.750  1.00  0.00     0.002 A 
ATOM     87  C   UNL A   1      45.333  35.784  28.684  1.00  0.00     0.091 A 
ATOM     88  F   UNL A   1      43.893  34.381  27.402  1.00  0.00    -0.205 F 
ATOM     89  C   UNL A   1      46.119  35.970  29.833  1.00  0.00     0.022 A 
BRANCH  87  90
ATOM     90  S   UNL A   1      45.268  37.140  27.508  1.00  0.00     0.127 S 
ATOM     91  O   UNL A   1      46.282  36.738  26.535  1.00  0.00    -0.237 OA
ATOM     92  O   UNL A   1      43.890  37.060  27.022  1.00  0.00    -0.237 OA
ATOM     93  O   UNL A   1      45.574  38.346  28.265  1.00  0.00    -0.744 OA
ENDBRANCH  87  90
ENDBRANCH  60  83
ENDBRANCH  34  35
ENDBRANCH  27  29
ENDBRANCH  26  27
ENDBRANCH  25  26
ENDBRANCH  24  25
ENDBRANCH   1  24
TORSDOF 20
ENDMDL
