MODEL 1
REMARK VINA RESULT:     -11.4      0.000      0.000
REMARK SMILES CC1CCN(S(=O)(=O)c2ccc(C(=O)N3CCC[C@@H]3C(=O)OCCOCCOC(=O)c3ccc(-c4c5nc(c(-c6cccc(S(=O)(=O)[O-])c6F)c6ccc([nH]6)c(-c6cccc(S(=O)(=O)[O-])c6F)c6nc(c(-c7cccc(S(=O)(=O)[O-])c7F)c7ccc4[nH]7)C=C6)C=C5)cc3)cc2)CC1
REMARK SMILES IDX 24 1 23 2 22 3 20 4 21 5 19 6 15 7 16 8 17 9 18 10 13 11
REMARK SMILES IDX 14 12 12 13 9 14 10 15 95 16 11 17 94 18 6 19 7 20 8 21 5 22
REMARK SMILES IDX 1 23 2 24 3 25 97 26 4 27 96 28 25 29 26 30 27 31 28 32
REMARK SMILES IDX 29 33 30 34 31 35 32 36 93 37 33 38 92 39 34 40 35 41 36 42
REMARK SMILES IDX 86 43 37 44 91 45 85 46 87 47 38 48 90 49 84 50 83 51 39 53
REMARK SMILES IDX 71 54 51 55 70 56 52 57 55 58 69 59 88 60 53 61 54 62 68 64
REMARK SMILES IDX 89 65 56 66 40 67 41 68 49 69 42 70 44 71 50 72 43 73 45 74
REMARK SMILES IDX 46 75 47 76 48 77 72 78 73 79 81 80 74 81 76 82 82 83 75 84
REMARK SMILES IDX 77 85 78 86 79 87 80 88 57 89 58 90 66 91 59 92 61 93 67 94
REMARK SMILES IDX 60 95 62 96 63 97 64 98 65 99
REMARK H PARENT 87 52 55 63
REMARK Flexibility Score: inf
ROOT
ATOM      1  C   UNL A   1      33.834  26.817  24.735  1.00  0.00     0.202 C 
ENDROOT
BRANCH   1   2
ATOM      2  C   UNL A   1      33.711  25.664  25.737  1.00  0.00     0.261 C 
BRANCH   2   3
ATOM      3  O   UNL A   1      34.640  24.601  25.469  1.00  0.00    -0.462 OA
BRANCH   3   4
ATOM      4  C   UNL A   1      34.212  23.685  24.556  1.00  0.00     0.328 C 
ATOM      5  O   UNL A   1      34.499  23.707  23.364  1.00  0.00    -0.250 OA
BRANCH   4   6
ATOM      6  C   UNL A   1      33.252  22.651  25.157  1.00  0.00     0.195 C 
ATOM      7  N   UNL A   1      31.874  23.012  24.878  1.00  0.00    -0.325 N 
ATOM      8  C   UNL A   1      31.018  22.497  25.925  1.00  0.00     0.121 C 
ATOM      9  C   UNL A   1      31.852  22.772  27.158  1.00  0.00     0.024 C 
ATOM     10  C   UNL A   1      33.284  22.480  26.687  1.00  0.00     0.039 C 
BRANCH   7  11
ATOM     11  C   UNL A   1      31.460  23.242  23.588  1.00  0.00     0.254 C 
ATOM     12  O   UNL A   1      31.577  22.425  22.684  1.00  0.00    -0.269 OA
BRANCH  11  13
ATOM     13  C   UNL A   1      31.091  24.666  23.321  1.00  0.00     0.040 A 
ATOM     14  C   UNL A   1      30.369  27.325  22.818  1.00  0.00     0.082 A 
ATOM     15  C   UNL A   1      29.752  26.622  23.858  1.00  0.00     0.022 A 
ATOM     16  C   UNL A   1      31.336  26.698  22.034  1.00  0.00     0.022 A 
ATOM     17  C   UNL A   1      30.126  25.295  24.117  1.00  0.00     0.015 A 
ATOM     18  C   UNL A   1      31.656  25.367  22.250  1.00  0.00     0.015 A 
BRANCH  14  19
ATOM     19  S   UNL A   1      30.184  29.090  22.688  1.00  0.00     0.243 S 
ATOM     20  O   UNL A   1      31.113  29.477  21.643  1.00  0.00    -0.207 OA
ATOM     21  O   UNL A   1      30.327  29.629  24.022  1.00  0.00    -0.207 OA
BRANCH  19  22
ATOM     22  N   UNL A   1      28.576  29.413  22.188  1.00  0.00    -0.198 NA
ATOM     23  C   UNL A   1      28.593  33.603  22.997  1.00  0.00     0.008 C 
ATOM     24  C   UNL A   1      27.958  32.272  22.586  1.00  0.00    -0.012 C 
ATOM     25  C   UNL A   1      27.998  31.274  23.755  1.00  0.00     0.020 C 
ATOM     26  C   UNL A   1      28.647  31.748  21.321  1.00  0.00     0.020 C 
ATOM     27  C   UNL A   1      27.692  29.838  23.328  1.00  0.00     0.103 C 
ATOM     28  C   UNL A   1      28.286  30.300  21.033  1.00  0.00     0.103 C 
ENDBRANCH  19  22
ENDBRANCH  14  19
ENDBRANCH  11  13
ENDBRANCH   7  11
ENDBRANCH   4   6
ENDBRANCH   3   4
ENDBRANCH   2   3
ENDBRANCH   1   2
BRANCH   1  29
ATOM     29  O   UNL A   1      33.230  28.059  25.095  1.00  0.00    -0.374 OA
BRANCH  29  30
ATOM     30  C   UNL A   1      33.761  28.757  26.219  1.00  0.00     0.202 C 
BRANCH  30  31
ATOM     31  C   UNL A   1      33.314  30.209  26.419  1.00  0.00     0.261 C 
BRANCH  31  32
ATOM     32  O   UNL A   1      33.404  30.631  27.792  1.00  0.00    -0.460 OA
BRANCH  32  33
ATOM     33  C   UNL A   1      34.469  31.429  28.060  1.00  0.00     0.338 C 
ATOM     34  O   UNL A   1      34.446  32.628  28.290  1.00  0.00    -0.246 OA
BRANCH  33  35
ATOM     35  C   UNL A   1      35.698  30.628  28.223  1.00  0.00     0.060 A 
ATOM     36  C   UNL A   1      35.764  29.784  29.338  1.00  0.00     0.016 A 
ATOM     37  C   UNL A   1      36.801  30.769  27.377  1.00  0.00     0.016 A 
ATOM     38  C   UNL A   1      36.954  29.130  29.650  1.00  0.00     0.010 A 
ATOM     39  C   UNL A   1      37.999  30.115  27.697  1.00  0.00     0.010 A 
ATOM     40  C   UNL A   1      38.094  29.327  28.859  1.00  0.00    -0.014 A 
BRANCH  40  41
ATOM     41  C   UNL A   1      39.403  28.834  29.357  1.00  0.00     0.031 A 
ATOM     42  C   UNL A   1      40.033  29.504  30.555  1.00  0.00     0.074 A 
ATOM     43  C   UNL A   1      40.000  27.767  28.796  1.00  0.00     0.049 A 
ATOM     44  N   UNL A   1      41.117  29.177  31.209  1.00  0.00    -0.248 NA
ATOM     45  C   UNL A   1      39.351  30.697  31.083  1.00  0.00     0.031 C 
ATOM     46  C   UNL A   1      39.513  27.025  27.632  1.00  0.00     0.029 A 
ATOM     47  N   UNL A   1      41.160  27.122  29.143  1.00  0.00    -0.354 N 
ATOM     48  C   UNL A   1      41.260  30.129  32.212  1.00  0.00     0.074 A 
ATOM     49  C   UNL A   1      40.158  31.058  32.070  1.00  0.00     0.031 C 
ATOM     50  C   UNL A   1      40.375  26.028  27.358  1.00  0.00     0.029 A 
ATOM     51  C   UNL A   1      41.467  26.060  28.328  1.00  0.00     0.049 A 
ATOM     52  H   UNL A   1      41.721  27.394  29.904  1.00  0.00     0.167 HD
ATOM     53  C   UNL A   1      42.203  30.216  33.181  1.00  0.00     0.034 A 
ATOM     54  C   UNL A   1      42.509  25.211  28.367  1.00  0.00     0.034 A 
ATOM     55  C   UNL A   1      43.283  29.282  33.355  1.00  0.00     0.049 A 
ATOM     56  C   UNL A   1      43.551  25.339  29.445  1.00  0.00     0.074 A 
ATOM     57  C   UNL A   1      44.240  29.249  34.355  1.00  0.00     0.029 A 
ATOM     58  N   UNL A   1      43.559  28.226  32.505  1.00  0.00    -0.354 N 
ATOM     59  N   UNL A   1      43.599  26.173  30.453  1.00  0.00    -0.248 NA
ATOM     60  C   UNL A   1      44.663  24.375  29.402  1.00  0.00     0.031 C 
ATOM     61  C   UNL A   1      45.107  28.180  34.097  1.00  0.00     0.029 A 
ATOM     62  C   UNL A   1      44.679  27.542  32.946  1.00  0.00     0.049 A 
ATOM     63  H   UNL A   1      43.035  27.994  31.704  1.00  0.00     0.167 HD
ATOM     64  C   UNL A   1      44.740  25.827  31.170  1.00  0.00     0.074 A 
ATOM     65  C   UNL A   1      45.337  24.694  30.497  1.00  0.00     0.031 C 
ATOM     66  C   UNL A   1      45.255  26.405  32.281  1.00  0.00     0.034 A 
BRANCH  53  67
ATOM     67  C   UNL A   1      42.088  31.344  34.168  1.00  0.00     0.023 A 
ATOM     68  C   UNL A   1      42.930  32.466  34.038  1.00  0.00     0.012 A 
ATOM     69  C   UNL A   1      41.107  31.328  35.179  1.00  0.00     0.148 A 
ATOM     70  C   UNL A   1      42.812  33.547  34.910  1.00  0.00     0.002 A 
ATOM     71  C   UNL A   1      40.973  32.424  36.023  1.00  0.00     0.091 A 
ATOM     72  F   UNL A   1      40.336  30.238  35.304  1.00  0.00    -0.205 F 
ATOM     73  C   UNL A   1      41.827  33.530  35.895  1.00  0.00     0.022 A 
BRANCH  71  74
ATOM     74  S   UNL A   1      39.689  32.515  37.277  1.00  0.00     0.127 S 
ATOM     75  O   UNL A   1      40.475  32.453  38.508  1.00  0.00    -0.237 OA
ATOM     76  O   UNL A   1      39.081  33.818  37.008  1.00  0.00    -0.237 OA
ATOM     77  O   UNL A   1      38.813  31.378  37.029  1.00  0.00    -0.744 OA
ENDBRANCH  71  74
ENDBRANCH  53  67
BRANCH  54  78
ATOM     78  C   UNL A   1      42.651  24.122  27.370  1.00  0.00     0.023 A 
ATOM     79  C   UNL A   1      43.417  24.340  26.211  1.00  0.00     0.012 A 
ATOM     80  C   UNL A   1      41.903  22.941  27.502  1.00  0.00     0.148 A 
ATOM     81  C   UNL A   1      43.416  23.399  25.180  1.00  0.00     0.002 A 
ATOM     82  C   UNL A   1      41.892  22.019  26.465  1.00  0.00     0.091 A 
ATOM     83  F   UNL A   1      41.165  22.778  28.610  1.00  0.00    -0.205 F 
ATOM     84  C   UNL A   1      42.652  22.240  25.306  1.00  0.00     0.022 A 
BRANCH  82  85
ATOM     85  S   UNL A   1      40.879  20.539  26.531  1.00  0.00     0.127 S 
ATOM     86  O   UNL A   1      41.009  20.153  27.932  1.00  0.00    -0.237 OA
ATOM     87  O   UNL A   1      39.564  21.054  26.151  1.00  0.00    -0.237 OA
ATOM     88  O   UNL A   1      41.475  19.632  25.562  1.00  0.00    -0.744 OA
ENDBRANCH  82  85
ENDBRANCH  54  78
BRANCH  66  89
ATOM     89  C   UNL A   1      46.526  25.822  32.836  1.00  0.00     0.023 A 
ATOM     90  C   UNL A   1      47.766  26.378  32.460  1.00  0.00     0.012 A 
ATOM     91  C   UNL A   1      46.496  24.751  33.749  1.00  0.00     0.148 A 
ATOM     92  C   UNL A   1      48.957  25.854  32.958  1.00  0.00     0.002 A 
ATOM     93  C   UNL A   1      47.687  24.261  34.274  1.00  0.00     0.091 A 
ATOM     94  F   UNL A   1      45.310  24.216  34.071  1.00  0.00    -0.205 F 
ATOM     95  C   UNL A   1      48.918  24.803  33.874  1.00  0.00     0.022 A 
BRANCH  93  96
ATOM     96  S   UNL A   1      47.707  22.966  35.518  1.00  0.00     0.127 S 
ATOM     97  O   UNL A   1      49.137  22.832  35.792  1.00  0.00    -0.237 OA
ATOM     98  O   UNL A   1      46.930  23.558  36.608  1.00  0.00    -0.237 OA
ATOM     99  O   UNL A   1      47.072  21.814  34.892  1.00  0.00    -0.744 OA
ENDBRANCH  93  96
ENDBRANCH  66  89
ENDBRANCH  40  41
ENDBRANCH  33  35
ENDBRANCH  32  33
ENDBRANCH  31  32
ENDBRANCH  30  31
ENDBRANCH  29  30
ENDBRANCH   1  29
TORSDOF 21
ENDMDL
MODEL 2
REMARK VINA RESULT:     -11.3      2.140      4.433
REMARK SMILES CC1CCN(S(=O)(=O)c2ccc(C(=O)N3CCC[C@@H]3C(=O)OCCOCCOC(=O)c3ccc(-c4c5nc(c(-c6cccc(S(=O)(=O)[O-])c6F)c6ccc([nH]6)c(-c6cccc(S(=O)(=O)[O-])c6F)c6nc(c(-c7cccc(S(=O)(=O)[O-])c7F)c7ccc4[nH]7)C=C6)C=C5)cc3)cc2)CC1
REMARK SMILES IDX 24 1 23 2 22 3 20 4 21 5 19 6 15 7 16 8 17 9 18 10 13 11
REMARK SMILES IDX 14 12 12 13 9 14 10 15 95 16 11 17 94 18 6 19 7 20 8 21 5 22
REMARK SMILES IDX 1 23 2 24 3 25 97 26 4 27 96 28 25 29 26 30 27 31 28 32
REMARK SMILES IDX 29 33 30 34 31 35 32 36 93 37 33 38 92 39 34 40 35 41 36 42
REMARK SMILES IDX 86 43 37 44 91 45 85 46 87 47 38 48 90 49 84 50 83 51 39 53
REMARK SMILES IDX 71 54 51 55 70 56 52 57 55 58 69 59 88 60 53 61 54 62 68 64
REMARK SMILES IDX 89 65 56 66 40 67 41 68 49 69 42 70 44 71 50 72 43 73 45 74
REMARK SMILES IDX 46 75 47 76 48 77 72 78 73 79 81 80 74 81 76 82 82 83 75 84
REMARK SMILES IDX 77 85 78 86 79 87 80 88 57 89 58 90 66 91 59 92 61 93 67 94
REMARK SMILES IDX 60 95 62 96 63 97 64 98 65 99
REMARK H PARENT 87 52 55 63
REMARK Flexibility Score: inf
ROOT
ATOM      1  C   UNL A   1      33.017  28.399  27.375  1.00  0.00     0.202 C 
ENDROOT
BRANCH   1   2
ATOM      2  C   UNL A   1      33.273  27.545  26.130  1.00  0.00     0.261 C 
BRANCH   2   3
ATOM      3  O   UNL A   1      34.070  28.228  25.148  1.00  0.00    -0.462 OA
BRANCH   3   4
ATOM      4  C   UNL A   1      33.397  28.597  24.022  1.00  0.00     0.328 C 
ATOM      5  O   UNL A   1      33.780  29.457  23.235  1.00  0.00    -0.250 OA
BRANCH   4   6
ATOM      6  C   UNL A   1      32.052  27.879  23.872  1.00  0.00     0.195 C 
ATOM      7  N   UNL A   1      31.962  27.227  22.577  1.00  0.00    -0.325 N 
ATOM      8  C   UNL A   1      30.577  27.151  22.169  1.00  0.00     0.121 C 
ATOM      9  C   UNL A   1      30.060  28.508  22.598  1.00  0.00     0.024 C 
ATOM     10  C   UNL A   1      30.786  28.755  23.928  1.00  0.00     0.039 C 
BRANCH   7  11
ATOM     11  C   UNL A   1      32.935  26.346  22.172  1.00  0.00     0.254 C 
ATOM     12  O   UNL A   1      33.664  26.539  21.207  1.00  0.00    -0.269 OA
BRANCH  11  13
ATOM     13  C   UNL A   1      32.860  25.015  22.849  1.00  0.00     0.040 A 
ATOM     14  C   UNL A   1      32.735  22.533  24.142  1.00  0.00     0.082 A 
ATOM     15  C   UNL A   1      32.296  23.685  24.804  1.00  0.00     0.022 A 
ATOM     16  C   UNL A   1      33.237  22.627  22.846  1.00  0.00     0.022 A 
ATOM     17  C   UNL A   1      32.345  24.925  24.149  1.00  0.00     0.015 A 
ATOM     18  C   UNL A   1      33.347  23.862  22.225  1.00  0.00     0.015 A 
BRANCH  14  19
ATOM     19  S   UNL A   1      32.363  20.921  24.795  1.00  0.00     0.243 S 
ATOM     20  O   UNL A   1      32.338  20.055  23.630  1.00  0.00    -0.207 OA
ATOM     21  O   UNL A   1      31.183  21.061  25.619  1.00  0.00    -0.207 OA
BRANCH  19  22
ATOM     22  N   UNL A   1      33.648  20.465  25.834  1.00  0.00    -0.198 NA
ATOM     23  C   UNL A   1      35.973  24.017  25.401  1.00  0.00     0.008 C 
ATOM     24  C   UNL A   1      35.688  22.597  25.897  1.00  0.00    -0.012 C 
ATOM     25  C   UNL A   1      35.552  21.630  24.710  1.00  0.00     0.020 C 
ATOM     26  C   UNL A   1      34.455  22.612  26.807  1.00  0.00     0.020 C 
ATOM     27  C   UNL A   1      34.947  20.282  25.100  1.00  0.00     0.103 C 
ATOM     28  C   UNL A   1      33.934  21.212  27.086  1.00  0.00     0.103 C 
ENDBRANCH  19  22
ENDBRANCH  14  19
ENDBRANCH  11  13
ENDBRANCH   7  11
ENDBRANCH   4   6
ENDBRANCH   3   4
ENDBRANCH   2   3
ENDBRANCH   1   2
BRANCH   1  29
ATOM     29  O   UNL A   1      31.883  29.265  27.349  1.00  0.00    -0.374 OA
BRANCH  29  30
ATOM     30  C   UNL A   1      32.020  30.523  26.692  1.00  0.00     0.202 C 
BRANCH  30  31
ATOM     31  C   UNL A   1      32.844  31.601  27.404  1.00  0.00     0.261 C 
BRANCH  31  32
ATOM     32  O   UNL A   1      34.256  31.324  27.379  1.00  0.00    -0.460 OA
BRANCH  32  33
ATOM     33  C   UNL A   1      34.884  31.520  28.567  1.00  0.00     0.338 C 
ATOM     34  O   UNL A   1      34.481  32.189  29.505  1.00  0.00    -0.246 OA
BRANCH  33  35
ATOM     35  C   UNL A   1      36.079  30.661  28.678  1.00  0.00     0.060 A 
ATOM     36  C   UNL A   1      36.161  29.828  29.801  1.00  0.00     0.016 A 
ATOM     37  C   UNL A   1      37.142  30.738  27.775  1.00  0.00     0.016 A 
ATOM     38  C   UNL A   1      37.332  29.120  30.061  1.00  0.00     0.010 A 
ATOM     39  C   UNL A   1      38.322  30.029  28.042  1.00  0.00     0.010 A 
ATOM     40  C   UNL A   1      38.438  29.252  29.210  1.00  0.00    -0.014 A 
BRANCH  40  41
ATOM     41  C   UNL A   1      39.746  28.701  29.648  1.00  0.00     0.031 A 
ATOM     42  C   UNL A   1      40.509  29.403  30.745  1.00  0.00     0.074 A 
ATOM     43  C   UNL A   1      40.226  27.558  29.124  1.00  0.00     0.049 A 
ATOM     44  N   UNL A   1      41.616  29.044  31.342  1.00  0.00    -0.248 NA
ATOM     45  C   UNL A   1      39.950  30.675  31.233  1.00  0.00     0.031 C 
ATOM     46  C   UNL A   1      39.603  26.775  28.055  1.00  0.00     0.029 A 
ATOM     47  N   UNL A   1      41.364  26.856  29.433  1.00  0.00    -0.354 N 
ATOM     48  C   UNL A   1      41.898  30.049  32.261  1.00  0.00     0.074 A 
ATOM     49  C   UNL A   1      40.853  31.042  32.131  1.00  0.00     0.031 C 
ATOM     50  C   UNL A   1      40.373  25.703  27.793  1.00  0.00     0.029 A 
ATOM     51  C   UNL A   1      41.536  25.722  28.677  1.00  0.00     0.049 A 
ATOM     52  H   UNL A   1      41.998  27.138  30.131  1.00  0.00     0.167 HD
ATOM     53  C   UNL A   1      42.916  30.133  33.151  1.00  0.00     0.034 A 
ATOM     54  C   UNL A   1      42.519  24.805  28.703  1.00  0.00     0.034 A 
ATOM     55  C   UNL A   1      43.941  29.138  33.315  1.00  0.00     0.049 A 
ATOM     56  C   UNL A   1      43.646  24.930  29.692  1.00  0.00     0.074 A 
ATOM     57  C   UNL A   1      44.968  29.104  34.243  1.00  0.00     0.029 A 
ATOM     58  N   UNL A   1      44.080  28.009  32.526  1.00  0.00    -0.354 N 
ATOM     59  N   UNL A   1      43.827  25.825  30.631  1.00  0.00    -0.248 NA
ATOM     60  C   UNL A   1      44.685  23.889  29.640  1.00  0.00     0.031 C 
ATOM     61  C   UNL A   1      45.739  27.960  34.002  1.00  0.00     0.029 A 
ATOM     62  C   UNL A   1      45.183  27.278  32.934  1.00  0.00     0.049 A 
ATOM     63  H   UNL A   1      43.483  27.762  31.783  1.00  0.00     0.167 HD
ATOM     64  C   UNL A   1      44.993  25.447  31.287  1.00  0.00     0.074 A 
ATOM     65  C   UNL A   1      45.461  24.232  30.658  1.00  0.00     0.031 C 
ATOM     66  C   UNL A   1      45.629  26.061  32.314  1.00  0.00     0.034 A 
BRANCH  53  67
ATOM     67  C   UNL A   1      42.952  31.331  34.059  1.00  0.00     0.023 A 
ATOM     68  C   UNL A   1      43.599  32.506  33.628  1.00  0.00     0.012 A 
ATOM     69  C   UNL A   1      42.292  31.318  35.303  1.00  0.00     0.148 A 
ATOM     70  C   UNL A   1      43.606  33.646  34.430  1.00  0.00     0.002 A 
ATOM     71  C   UNL A   1      42.275  32.470  36.083  1.00  0.00     0.091 A 
ATOM     72  F   UNL A   1      41.709  30.181  35.707  1.00  0.00    -0.205 F 
ATOM     73  C   UNL A   1      42.935  33.631  35.651  1.00  0.00     0.022 A 
BRANCH  71  74
ATOM     74  S   UNL A   1      41.381  32.559  37.638  1.00  0.00     0.127 S 
ATOM     75  O   UNL A   1      42.114  31.593  38.454  1.00  0.00    -0.237 OA
ATOM     76  O   UNL A   1      41.572  33.956  38.029  1.00  0.00    -0.237 OA
ATOM     77  O   UNL A   1      40.004  32.205  37.323  1.00  0.00    -0.744 OA
ENDBRANCH  71  74
ENDBRANCH  53  67
BRANCH  54  78
ATOM     78  C   UNL A   1      42.512  23.644  27.781  1.00  0.00     0.023 A 
ATOM     79  C   UNL A   1      41.652  22.561  28.036  1.00  0.00     0.012 A 
ATOM     80  C   UNL A   1      43.464  23.554  26.752  1.00  0.00     0.148 A 
ATOM     81  C   UNL A   1      41.758  21.388  27.288  1.00  0.00     0.002 A 
ATOM     82  C   UNL A   1      43.576  22.377  26.026  1.00  0.00     0.091 A 
ATOM     83  F   UNL A   1      44.284  24.596  26.554  1.00  0.00    -0.205 F 
ATOM     84  C   UNL A   1      42.721  21.295  26.285  1.00  0.00     0.022 A 
BRANCH  82  85
ATOM     85  S   UNL A   1      44.836  22.163  24.767  1.00  0.00     0.127 S 
ATOM     86  O   UNL A   1      44.617  23.335  23.926  1.00  0.00    -0.237 OA
ATOM     87  O   UNL A   1      46.066  22.193  25.560  1.00  0.00    -0.237 OA
ATOM     88  O   UNL A   1      44.544  20.875  24.156  1.00  0.00    -0.744 OA
ENDBRANCH  82  85
ENDBRANCH  54  78
BRANCH  66  89
ATOM     89  C   UNL A   1      46.898  25.427  32.817  1.00  0.00     0.023 A 
ATOM     90  C   UNL A   1      48.133  25.810  32.259  1.00  0.00     0.012 A 
ATOM     91  C   UNL A   1      46.873  24.480  33.858  1.00  0.00     0.148 A 
ATOM     92  C   UNL A   1      49.322  25.236  32.707  1.00  0.00     0.002 A 
ATOM     93  C   UNL A   1      48.066  23.942  34.328  1.00  0.00     0.091 A 
ATOM     94  F   UNL A   1      45.686  24.104  34.356  1.00  0.00    -0.205 F 
ATOM     95  C   UNL A   1      49.290  24.310  33.748  1.00  0.00     0.022 A 
BRANCH  93  96
ATOM     96  S   UNL A   1      48.106  22.807  35.720  1.00  0.00     0.127 S 
ATOM     97  O   UNL A   1      49.538  22.549  35.858  1.00  0.00    -0.237 OA
ATOM     98  O   UNL A   1      47.524  23.606  36.800  1.00  0.00    -0.237 OA
ATOM     99  O   UNL A   1      47.293  21.667  35.318  1.00  0.00    -0.744 OA
ENDBRANCH  93  96
ENDBRANCH  66  89
ENDBRANCH  40  41
ENDBRANCH  33  35
ENDBRANCH  32  33
ENDBRANCH  31  32
ENDBRANCH  30  31
ENDBRANCH  29  30
ENDBRANCH   1  29
TORSDOF 21
ENDMDL
MODEL 3
REMARK VINA RESULT:     -10.8      2.286      4.862
REMARK SMILES CC1CCN(S(=O)(=O)c2ccc(C(=O)N3CCC[C@@H]3C(=O)OCCOCCOC(=O)c3ccc(-c4c5nc(c(-c6cccc(S(=O)(=O)[O-])c6F)c6ccc([nH]6)c(-c6cccc(S(=O)(=O)[O-])c6F)c6nc(c(-c7cccc(S(=O)(=O)[O-])c7F)c7ccc4[nH]7)C=C6)C=C5)cc3)cc2)CC1
REMARK SMILES IDX 24 1 23 2 22 3 20 4 21 5 19 6 15 7 16 8 17 9 18 10 13 11
REMARK SMILES IDX 14 12 12 13 9 14 10 15 95 16 11 17 94 18 6 19 7 20 8 21 5 22
REMARK SMILES IDX 1 23 2 24 3 25 97 26 4 27 96 28 25 29 26 30 27 31 28 32
REMARK SMILES IDX 29 33 30 34 31 35 32 36 93 37 33 38 92 39 34 40 35 41 36 42
REMARK SMILES IDX 86 43 37 44 91 45 85 46 87 47 38 48 90 49 84 50 83 51 39 53
REMARK SMILES IDX 71 54 51 55 70 56 52 57 55 58 69 59 88 60 53 61 54 62 68 64
REMARK SMILES IDX 89 65 56 66 40 67 41 68 49 69 42 70 44 71 50 72 43 73 45 74
REMARK SMILES IDX 46 75 47 76 48 77 72 78 73 79 81 80 74 81 76 82 82 83 75 84
REMARK SMILES IDX 77 85 78 86 79 87 80 88 57 89 58 90 66 91 59 92 61 93 67 94
REMARK SMILES IDX 60 95 62 96 63 97 64 98 65 99
REMARK H PARENT 87 52 55 63
REMARK Flexibility Score: inf
ROOT
ATOM      1  C   UNL A   1      32.660  28.809  27.557  1.00  0.00     0.202 C 
ENDROOT
BRANCH   1   2
ATOM      2  C   UNL A   1      33.203  27.877  26.468  1.00  0.00     0.261 C 
BRANCH   2   3
ATOM      3  O   UNL A   1      33.914  28.587  25.441  1.00  0.00    -0.462 OA
BRANCH   3   4
ATOM      4  C   UNL A   1      33.287  28.621  24.231  1.00  0.00     0.328 C 
ATOM      5  O   UNL A   1      33.560  29.407  23.329  1.00  0.00    -0.250 OA
BRANCH   4   6
ATOM      6  C   UNL A   1      32.130  27.621  24.133  1.00  0.00     0.195 C 
ATOM      7  N   UNL A   1      32.192  26.889  22.881  1.00  0.00    -0.325 N 
ATOM      8  C   UNL A   1      30.859  26.489  22.487  1.00  0.00     0.121 C 
ATOM      9  C   UNL A   1      30.058  27.725  22.838  1.00  0.00     0.024 C 
ATOM     10  C   UNL A   1      30.704  28.203  24.147  1.00  0.00     0.039 C 
BRANCH   7  11
ATOM     11  C   UNL A   1      33.336  26.218  22.521  1.00  0.00     0.254 C 
ATOM     12  O   UNL A   1      34.019  26.515  21.550  1.00  0.00    -0.269 OA
BRANCH  11  13
ATOM     13  C   UNL A   1      33.538  24.935  23.264  1.00  0.00     0.040 A 
ATOM     14  C   UNL A   1      33.896  22.519  24.634  1.00  0.00     0.082 A 
ATOM     15  C   UNL A   1      34.071  22.564  23.246  1.00  0.00     0.022 A 
ATOM     16  C   UNL A   1      33.539  23.674  25.326  1.00  0.00     0.022 A 
ATOM     17  C   UNL A   1      33.906  23.779  22.564  1.00  0.00     0.015 A 
ATOM     18  C   UNL A   1      33.311  24.858  24.642  1.00  0.00     0.015 A 
BRANCH  14  19
ATOM     19  S   UNL A   1      34.436  21.103  25.566  1.00  0.00     0.243 S 
ATOM     20  O   UNL A   1      34.971  21.659  26.794  1.00  0.00    -0.207 OA
ATOM     21  O   UNL A   1      35.286  20.322  24.694  1.00  0.00    -0.207 OA
BRANCH  19  22
ATOM     22  N   UNL A   1      33.058  20.144  25.911  1.00  0.00    -0.198 NA
ATOM     23  C   UNL A   1      33.250  17.661  22.446  1.00  0.00     0.008 C 
ATOM     24  C   UNL A   1      32.627  18.192  23.739  1.00  0.00    -0.012 C 
ATOM     25  C   UNL A   1      32.259  19.677  23.588  1.00  0.00     0.020 C 
ATOM     26  C   UNL A   1      33.576  17.921  24.911  1.00  0.00     0.020 C 
ATOM     27  C   UNL A   1      31.946  20.356  24.921  1.00  0.00     0.103 C 
ATOM     28  C   UNL A   1      33.171  18.684  26.162  1.00  0.00     0.103 C 
ENDBRANCH  19  22
ENDBRANCH  14  19
ENDBRANCH  11  13
ENDBRANCH   7  11
ENDBRANCH   4   6
ENDBRANCH   3   4
ENDBRANCH   2   3
ENDBRANCH   1   2
BRANCH   1  29
ATOM     29  O   UNL A   1      31.584  29.674  27.196  1.00  0.00    -0.374 OA
BRANCH  29  30
ATOM     30  C   UNL A   1      31.909  30.947  26.641  1.00  0.00     0.202 C 
BRANCH  30  31
ATOM     31  C   UNL A   1      32.772  31.884  27.493  1.00  0.00     0.261 C 
BRANCH  31  32
ATOM     32  O   UNL A   1      34.162  31.513  27.487  1.00  0.00    -0.460 OA
BRANCH  32  33
ATOM     33  C   UNL A   1      34.794  31.701  28.674  1.00  0.00     0.338 C 
ATOM     34  O   UNL A   1      34.380  32.337  29.630  1.00  0.00    -0.246 OA
BRANCH  33  35
ATOM     35  C   UNL A   1      36.014  30.874  28.757  1.00  0.00     0.060 A 
ATOM     36  C   UNL A   1      36.028  29.857  29.719  1.00  0.00     0.016 A 
ATOM     37  C   UNL A   1      37.154  31.144  27.996  1.00  0.00     0.016 A 
ATOM     38  C   UNL A   1      37.202  29.151  29.971  1.00  0.00     0.010 A 
ATOM     39  C   UNL A   1      38.336  30.436  28.256  1.00  0.00     0.010 A 
ATOM     40  C   UNL A   1      38.377  29.467  29.275  1.00  0.00    -0.014 A 
BRANCH  40  41
ATOM     41  C   UNL A   1      39.662  28.888  29.744  1.00  0.00     0.031 A 
ATOM     42  C   UNL A   1      40.318  29.457  30.978  1.00  0.00     0.074 A 
ATOM     43  C   UNL A   1      40.214  27.831  29.120  1.00  0.00     0.049 A 
ATOM     44  N   UNL A   1      41.386  29.045  31.612  1.00  0.00    -0.248 NA
ATOM     45  C   UNL A   1      39.688  30.646  31.577  1.00  0.00     0.031 C 
ATOM     46  C   UNL A   1      39.697  27.181  27.914  1.00  0.00     0.029 A 
ATOM     47  N   UNL A   1      41.343  27.115  29.428  1.00  0.00    -0.354 N 
ATOM     48  C   UNL A   1      41.568  29.928  32.670  1.00  0.00     0.074 A 
ATOM     49  C   UNL A   1      40.509  30.911  32.584  1.00  0.00     0.031 C 
ATOM     50  C   UNL A   1      40.515  26.165  27.581  1.00  0.00     0.029 A 
ATOM     51  C   UNL A   1      41.604  26.091  28.551  1.00  0.00     0.049 A 
ATOM     52  H   UNL A   1      41.913  27.317  30.204  1.00  0.00     0.167 HD
ATOM     53  C   UNL A   1      42.511  29.915  33.642  1.00  0.00     0.034 A 
ATOM     54  C   UNL A   1      42.608  25.196  28.539  1.00  0.00     0.034 A 
ATOM     55  C   UNL A   1      43.548  28.926  33.760  1.00  0.00     0.049 A 
ATOM     56  C   UNL A   1      43.652  25.214  29.623  1.00  0.00     0.074 A 
ATOM     57  C   UNL A   1      44.501  28.792  34.756  1.00  0.00     0.029 A 
ATOM     58  N   UNL A   1      43.779  27.911  32.849  1.00  0.00    -0.354 N 
ATOM     59  N   UNL A   1      43.734  25.984  30.679  1.00  0.00    -0.248 NA
ATOM     60  C   UNL A   1      44.720  24.206  29.523  1.00  0.00     0.031 C 
ATOM     61  C   UNL A   1      45.320  27.703  34.436  1.00  0.00     0.029 A 
ATOM     62  C   UNL A   1      44.867  27.154  33.248  1.00  0.00     0.049 A 
ATOM     63  H   UNL A   1      43.248  27.750  32.036  1.00  0.00     0.167 HD
ATOM     64  C   UNL A   1      44.857  25.546  31.374  1.00  0.00     0.074 A 
ATOM     65  C   UNL A   1      45.405  24.429  30.635  1.00  0.00     0.031 C 
ATOM     66  C   UNL A   1      45.394  26.034  32.517  1.00  0.00     0.034 A 
BRANCH  53  67
ATOM     67  C   UNL A   1      42.444  30.987  34.695  1.00  0.00     0.023 A 
ATOM     68  C   UNL A   1      41.739  30.741  35.890  1.00  0.00     0.012 A 
ATOM     69  C   UNL A   1      43.129  32.207  34.533  1.00  0.00     0.148 A 
ATOM     70  C   UNL A   1      41.701  31.699  36.902  1.00  0.00     0.002 A 
ATOM     71  C   UNL A   1      43.115  33.144  35.560  1.00  0.00     0.091 A 
ATOM     72  F   UNL A   1      43.768  32.434  33.377  1.00  0.00    -0.205 F 
ATOM     73  C   UNL A   1      42.397  32.895  36.741  1.00  0.00     0.022 A 
BRANCH  71  74
ATOM     74  S   UNL A   1      44.037  34.682  35.465  1.00  0.00     0.127 S 
ATOM     75  O   UNL A   1      43.361  35.362  34.362  1.00  0.00    -0.237 OA
ATOM     76  O   UNL A   1      43.797  35.273  36.782  1.00  0.00    -0.237 OA
ATOM     77  O   UNL A   1      45.421  34.300  35.220  1.00  0.00    -0.744 OA
ENDBRANCH  71  74
ENDBRANCH  53  67
BRANCH  54  78
ATOM     78  C   UNL A   1      42.705  24.163  27.479  1.00  0.00     0.023 A 
ATOM     79  C   UNL A   1      43.430  24.439  26.307  1.00  0.00     0.012 A 
ATOM     80  C   UNL A   1      41.951  22.982  27.574  1.00  0.00     0.148 A 
ATOM     81  C   UNL A   1      43.384  23.557  25.227  1.00  0.00     0.002 A 
ATOM     82  C   UNL A   1      41.894  22.119  26.489  1.00  0.00     0.091 A 
ATOM     83  F   UNL A   1      41.251  22.764  28.696  1.00  0.00    -0.205 F 
ATOM     84  C   UNL A   1      42.614  22.398  25.317  1.00  0.00     0.022 A 
BRANCH  82  85
ATOM     85  S   UNL A   1      40.871  20.645  26.510  1.00  0.00     0.127 S 
ATOM     86  O   UNL A   1      39.585  21.170  26.064  1.00  0.00    -0.237 OA
ATOM     87  O   UNL A   1      41.556  19.786  25.544  1.00  0.00    -0.237 OA
ATOM     88  O   UNL A   1      40.924  20.169  27.884  1.00  0.00    -0.744 OA
ENDBRANCH  82  85
ENDBRANCH  54  78
BRANCH  66  89
ATOM     89  C   UNL A   1      46.637  25.363  33.036  1.00  0.00     0.023 A 
ATOM     90  C   UNL A   1      47.901  25.863  32.665  1.00  0.00     0.012 A 
ATOM     91  C   UNL A   1      46.558  24.264  33.912  1.00  0.00     0.148 A 
ATOM     92  C   UNL A   1      49.067  25.258  33.131  1.00  0.00     0.002 A 
ATOM     93  C   UNL A   1      47.725  23.691  34.406  1.00  0.00     0.091 A 
ATOM     94  F   UNL A   1      45.347  23.783  34.230  1.00  0.00    -0.205 F 
ATOM     95  C   UNL A   1      48.980  24.180  34.009  1.00  0.00     0.022 A 
BRANCH  93  96
ATOM     96  S   UNL A   1      47.687  22.354  35.604  1.00  0.00     0.127 S 
ATOM     97  O   UNL A   1      47.126  21.258  34.816  1.00  0.00    -0.237 OA
ATOM     98  O   UNL A   1      49.100  22.196  35.951  1.00  0.00    -0.237 OA
ATOM     99  O   UNL A   1      46.855  22.836  36.699  1.00  0.00    -0.744 OA
ENDBRANCH  93  96
ENDBRANCH  66  89
ENDBRANCH  40  41
ENDBRANCH  33  35
ENDBRANCH  32  33
ENDBRANCH  31  32
ENDBRANCH  30  31
ENDBRANCH  29  30
ENDBRANCH   1  29
TORSDOF 21
ENDMDL
