MODEL 1
REMARK VINA RESULT:     -10.5      0.000      0.000
REMARK SMILES O=C(OCCOCCOC(=O)[C@@]1([NH2+]C2CC2)CCC[C@@H](n2cncn2)C1)c1ccc(-c2c3nc(c(-c4cccc(S(=O)(=O)[O-])c4F)c4ccc([nH]4)c(-c4cccc(S(=O)(=O)[O-])c4F)c4nc(c(-c5cccc(S(=O)(=O)[O-])c5F)c5ccc2[nH]5)C=C4)C=C3)cc1
REMARK SMILES IDX 5 1 4 2 3 3 2 4 1 5 27 6 28 7 89 8 29 9 88 10 30 11 31 12
REMARK SMILES IDX 32 13 82 14 33 15 87 16 81 17 83 18 34 19 86 20 80 21 79 22
REMARK SMILES IDX 35 24 67 25 47 26 66 27 48 28 51 29 65 30 84 31 49 32 50 33
REMARK SMILES IDX 64 35 85 36 52 37 36 38 37 39 45 40 38 41 40 42 46 43 39 44
REMARK SMILES IDX 41 45 42 46 43 47 44 48 68 49 69 50 77 51 70 52 72 53 78 54
REMARK SMILES IDX 71 55 73 56 74 57 75 58 76 59 53 60 54 61 62 62 55 63 57 64
REMARK SMILES IDX 63 65 56 66 58 67 59 68 60 69 61 70 6 71 7 72 8 73 9 74
REMARK SMILES IDX 10 75 11 76 12 77 17 78 26 79 18 80 20 81 19 82 13 83 14 86
REMARK SMILES IDX 15 87 16 88 21 89 22 90 25 91 23 92 24 93
REMARK H PARENT 83 23 51 34 13 84 13 85
REMARK Flexibility Score: inf
ROOT
ATOM      1  C   UNL A   1      33.329  29.177  27.287  1.00  0.00     0.202 C 
ENDROOT
BRANCH   1   2
ATOM      2  C   UNL A   1      33.421  30.712  27.252  1.00  0.00     0.261 C 
BRANCH   2   3
ATOM      3  O   UNL A   1      34.745  31.180  27.515  1.00  0.00    -0.460 OA
BRANCH   3   4
ATOM      4  C   UNL A   1      35.207  31.599  28.717  1.00  0.00     0.338 C 
ATOM      5  O   UNL A   1      34.529  32.396  29.363  1.00  0.00    -0.246 OA
BRANCH   4   6
ATOM      6  C   UNL A   1      36.443  31.038  29.322  1.00  0.00     0.060 A 
ATOM      7  C   UNL A   1      37.584  31.763  29.665  1.00  0.00     0.016 A 
ATOM      8  C   UNL A   1      36.471  29.642  29.428  1.00  0.00     0.016 A 
ATOM      9  C   UNL A   1      38.801  31.138  29.714  1.00  0.00     0.010 A 
ATOM     10  C   UNL A   1      37.672  28.995  29.619  1.00  0.00     0.010 A 
ATOM     11  C   UNL A   1      38.835  29.755  29.620  1.00  0.00    -0.014 A 
BRANCH  11  12
ATOM     12  C   UNL A   1      40.147  29.151  29.621  1.00  0.00     0.031 A 
ATOM     13  C   UNL A   1      40.733  29.017  30.982  1.00  0.00     0.074 A 
ATOM     14  C   UNL A   1      40.711  28.735  28.474  1.00  0.00     0.049 A 
ATOM     15  N   UNL A   1      41.824  29.539  31.440  1.00  0.00    -0.248 NA
ATOM     16  C   UNL A   1      39.888  28.389  32.014  1.00  0.00     0.031 C 
ATOM     17  C   UNL A   1      40.097  28.629  27.147  1.00  0.00     0.029 A 
ATOM     18  N   UNL A   1      41.922  28.156  28.297  1.00  0.00    -0.354 N 
ATOM     19  C   UNL A   1      41.908  29.109  32.763  1.00  0.00     0.074 A 
ATOM     20  C   UNL A   1      40.618  28.581  33.111  1.00  0.00     0.031 C 
ATOM     21  C   UNL A   1      40.808  27.751  26.407  1.00  0.00     0.029 A 
ATOM     22  C   UNL A   1      41.990  27.367  27.157  1.00  0.00     0.049 A 
ATOM     23  H   UNL A   1      42.678  28.281  28.915  1.00  0.00     0.167 HD
ATOM     24  C   UNL A   1      43.103  28.986  33.401  1.00  0.00     0.034 A 
ATOM     25  C   UNL A   1      42.890  26.381  26.931  1.00  0.00     0.034 A 
ATOM     26  C   UNL A   1      44.130  29.765  32.767  1.00  0.00     0.049 A 
ATOM     27  C   UNL A   1      44.031  26.609  27.852  1.00  0.00     0.074 A 
ATOM     28  C   UNL A   1      44.313  31.113  32.532  1.00  0.00     0.029 A 
ATOM     29  N   UNL A   1      44.977  29.111  31.906  1.00  0.00    -0.354 N 
ATOM     30  N   UNL A   1      44.815  27.649  27.778  1.00  0.00    -0.248 NA
ATOM     31  C   UNL A   1      44.009  25.932  29.140  1.00  0.00     0.031 C 
ATOM     32  C   UNL A   1      44.883  31.181  31.227  1.00  0.00     0.029 A 
ATOM     33  C   UNL A   1      45.074  29.874  30.771  1.00  0.00     0.049 A 
ATOM     34  H   UNL A   1      45.429  28.252  32.072  1.00  0.00     0.167 HD
ATOM     35  C   UNL A   1      45.025  28.022  29.100  1.00  0.00     0.074 A 
ATOM     36  C   UNL A   1      44.592  26.872  29.893  1.00  0.00     0.031 C 
ATOM     37  C   UNL A   1      45.248  29.326  29.443  1.00  0.00     0.034 A 
BRANCH  24  38
ATOM     38  C   UNL A   1      43.410  27.885  34.384  1.00  0.00     0.023 A 
ATOM     39  C   UNL A   1      43.837  28.251  35.677  1.00  0.00     0.012 A 
ATOM     40  C   UNL A   1      43.549  26.523  34.023  1.00  0.00     0.148 A 
ATOM     41  C   UNL A   1      44.400  27.314  36.551  1.00  0.00     0.002 A 
ATOM     42  C   UNL A   1      44.027  25.582  34.924  1.00  0.00     0.091 A 
ATOM     43  F   UNL A   1      43.353  26.143  32.757  1.00  0.00    -0.205 F 
ATOM     44  C   UNL A   1      44.484  25.977  36.180  1.00  0.00     0.022 A 
BRANCH  42  45
ATOM     45  S   UNL A   1      44.098  23.837  34.503  1.00  0.00     0.127 S 
ATOM     46  O   UNL A   1      44.543  23.887  33.115  1.00  0.00    -0.237 OA
ATOM     47  O   UNL A   1      45.090  23.340  35.457  1.00  0.00    -0.237 OA
ATOM     48  O   UNL A   1      42.751  23.327  34.729  1.00  0.00    -0.744 OA
ENDBRANCH  42  45
ENDBRANCH  24  38
BRANCH  25  49
ATOM     49  C   UNL A   1      42.665  25.089  26.246  1.00  0.00     0.023 A 
ATOM     50  C   UNL A   1      43.562  24.665  25.249  1.00  0.00     0.012 A 
ATOM     51  C   UNL A   1      41.727  24.153  26.744  1.00  0.00     0.148 A 
ATOM     52  C   UNL A   1      43.539  23.346  24.776  1.00  0.00     0.002 A 
ATOM     53  C   UNL A   1      41.702  22.849  26.264  1.00  0.00     0.091 A 
ATOM     54  F   UNL A   1      40.924  24.517  27.753  1.00  0.00    -0.205 F 
ATOM     55  C   UNL A   1      42.614  22.438  25.286  1.00  0.00     0.022 A 
BRANCH  53  56
ATOM     56  S   UNL A   1      40.552  21.617  26.892  1.00  0.00     0.127 S 
ATOM     57  O   UNL A   1      39.259  22.199  26.529  1.00  0.00    -0.237 OA
ATOM     58  O   UNL A   1      40.928  20.434  26.123  1.00  0.00    -0.237 OA
ATOM     59  O   UNL A   1      40.793  21.542  28.328  1.00  0.00    -0.744 OA
ENDBRANCH  53  56
ENDBRANCH  25  49
BRANCH  37  60
ATOM     60  C   UNL A   1      45.434  30.329  28.327  1.00  0.00     0.023 A 
ATOM     61  C   UNL A   1      44.343  30.970  27.698  1.00  0.00     0.012 A 
ATOM     62  C   UNL A   1      46.733  30.772  28.032  1.00  0.00     0.148 A 
ATOM     63  C   UNL A   1      44.544  32.006  26.781  1.00  0.00     0.002 A 
ATOM     64  C   UNL A   1      46.928  31.833  27.156  1.00  0.00     0.091 A 
ATOM     65  F   UNL A   1      47.762  30.165  28.645  1.00  0.00    -0.205 F 
ATOM     66  C   UNL A   1      45.838  32.446  26.520  1.00  0.00     0.022 A 
BRANCH  64  67
ATOM     67  S   UNL A   1      48.557  32.533  26.882  1.00  0.00     0.127 S 
ATOM     68  O   UNL A   1      48.296  33.507  25.825  1.00  0.00    -0.237 OA
ATOM     69  O   UNL A   1      48.874  33.116  28.187  1.00  0.00    -0.237 OA
ATOM     70  O   UNL A   1      49.414  31.414  26.509  1.00  0.00    -0.744 OA
ENDBRANCH  64  67
ENDBRANCH  37  60
ENDBRANCH  11  12
ENDBRANCH   4   6
ENDBRANCH   3   4
ENDBRANCH   2   3
ENDBRANCH   1   2
BRANCH   1  71
ATOM     71  O   UNL A   1      32.106  28.537  26.943  1.00  0.00    -0.374 OA
BRANCH  71  72
ATOM     72  C   UNL A   1      31.719  28.463  25.566  1.00  0.00     0.202 C 
BRANCH  72  73
ATOM     73  C   UNL A   1      31.838  27.112  24.859  1.00  0.00     0.261 C 
BRANCH  73  74
ATOM     74  O   UNL A   1      32.898  26.330  25.441  1.00  0.00    -0.459 OA
BRANCH  74  75
ATOM     75  C   UNL A   1      32.672  24.981  25.551  1.00  0.00     0.368 C 
ATOM     76  O   UNL A   1      31.725  24.495  26.139  1.00  0.00    -0.245 OA
BRANCH  75  77
ATOM     77  C   UNL A   1      33.828  24.185  24.864  1.00  0.00     0.196 C 
ATOM     78  C   UNL A   1      35.178  24.167  25.612  1.00  0.00     0.081 C 
ATOM     79  C   UNL A   1      33.294  22.736  24.877  1.00  0.00     0.108 C 
ATOM     80  C   UNL A   1      36.193  23.234  24.952  1.00  0.00     0.009 C 
ATOM     81  C   UNL A   1      34.249  21.674  24.317  1.00  0.00     0.116 C 
ATOM     82  C   UNL A   1      35.670  21.806  24.908  1.00  0.00     0.028 C 
BRANCH  77  83
ATOM     83  N   UNL A   1      34.005  24.629  23.458  1.00  0.00    -0.330 N 
ATOM     84  H   UNL A   1      34.866  24.195  23.125  1.00  0.00     0.347 HD
ATOM     85  H   UNL A   1      33.973  25.645  23.541  1.00  0.00     0.347 HD
BRANCH  83  86
ATOM     86  C   UNL A   1      32.982  24.363  22.433  1.00  0.00     0.183 C 
ATOM     87  C   UNL A   1      31.607  24.944  22.293  1.00  0.00     0.071 C 
ATOM     88  C   UNL A   1      32.706  25.486  21.450  1.00  0.00     0.071 C 
ENDBRANCH  83  86
ENDBRANCH  77  83
BRANCH  81  89
ATOM     89  N   UNL A   1      33.678  20.342  24.531  1.00  0.00    -0.250 N 
ATOM     90  C   UNL A   1      32.371  20.021  24.760  1.00  0.00     0.220 A 
ATOM     91  N   UNL A   1      34.449  19.238  24.595  1.00  0.00    -0.160 NA
ATOM     92  N   UNL A   1      32.266  18.738  25.017  1.00  0.00    -0.224 NA
ATOM     93  C   UNL A   1      33.555  18.304  24.921  1.00  0.00     0.246 A 
ENDBRANCH  81  89
ENDBRANCH  75  77
ENDBRANCH  74  75
ENDBRANCH  73  74
ENDBRANCH  72  73
ENDBRANCH  71  72
ENDBRANCH   1  71
TORSDOF 20
ENDMDL
MODEL 2
REMARK VINA RESULT:     -10.4      1.026      2.323
REMARK SMILES O=C(OCCOCCOC(=O)[C@@]1([NH2+]C2CC2)CCC[C@@H](n2cncn2)C1)c1ccc(-c2c3nc(c(-c4cccc(S(=O)(=O)[O-])c4F)c4ccc([nH]4)c(-c4cccc(S(=O)(=O)[O-])c4F)c4nc(c(-c5cccc(S(=O)(=O)[O-])c5F)c5ccc2[nH]5)C=C4)C=C3)cc1
REMARK SMILES IDX 5 1 4 2 3 3 2 4 1 5 27 6 28 7 89 8 29 9 88 10 30 11 31 12
REMARK SMILES IDX 32 13 82 14 33 15 87 16 81 17 83 18 34 19 86 20 80 21 79 22
REMARK SMILES IDX 35 24 67 25 47 26 66 27 48 28 51 29 65 30 84 31 49 32 50 33
REMARK SMILES IDX 64 35 85 36 52 37 36 38 37 39 45 40 38 41 40 42 46 43 39 44
REMARK SMILES IDX 41 45 42 46 43 47 44 48 68 49 69 50 77 51 70 52 72 53 78 54
REMARK SMILES IDX 71 55 73 56 74 57 75 58 76 59 53 60 54 61 62 62 55 63 57 64
REMARK SMILES IDX 63 65 56 66 58 67 59 68 60 69 61 70 6 71 7 72 8 73 9 74
REMARK SMILES IDX 10 75 11 76 12 77 17 78 26 79 18 80 20 81 19 82 13 83 14 86
REMARK SMILES IDX 15 87 16 88 21 89 22 90 25 91 23 92 24 93
REMARK H PARENT 83 23 51 34 13 84 13 85
REMARK Flexibility Score: inf
ROOT
ATOM      1  C   UNL A   1      33.034  28.538  27.419  1.00  0.00     0.202 C 
ENDROOT
BRANCH   1   2
ATOM      2  C   UNL A   1      33.060  30.075  27.357  1.00  0.00     0.261 C 
BRANCH   2   3
ATOM      3  O   UNL A   1      34.390  30.593  27.369  1.00  0.00    -0.460 OA
BRANCH   3   4
ATOM      4  C   UNL A   1      34.952  31.298  28.379  1.00  0.00     0.338 C 
ATOM      5  O   UNL A   1      34.331  32.250  28.850  1.00  0.00    -0.246 OA
BRANCH   4   6
ATOM      6  C   UNL A   1      36.233  30.884  29.007  1.00  0.00     0.060 A 
ATOM      7  C   UNL A   1      37.339  31.707  29.220  1.00  0.00     0.016 A 
ATOM      8  C   UNL A   1      36.344  29.516  29.285  1.00  0.00     0.016 A 
ATOM      9  C   UNL A   1      38.592  31.158  29.305  1.00  0.00     0.010 A 
ATOM     10  C   UNL A   1      37.585  28.963  29.514  1.00  0.00     0.010 A 
ATOM     11  C   UNL A   1      38.702  29.778  29.382  1.00  0.00    -0.014 A 
BRANCH  11  12
ATOM     12  C   UNL A   1      40.047  29.250  29.414  1.00  0.00     0.031 A 
ATOM     13  C   UNL A   1      40.610  29.156  30.788  1.00  0.00     0.074 A 
ATOM     14  C   UNL A   1      40.657  28.862  28.282  1.00  0.00     0.049 A 
ATOM     15  N   UNL A   1      41.659  29.742  31.265  1.00  0.00    -0.248 NA
ATOM     16  C   UNL A   1      39.781  28.487  31.806  1.00  0.00     0.031 C 
ATOM     17  C   UNL A   1      40.078  28.714  26.943  1.00  0.00     0.029 A 
ATOM     18  N   UNL A   1      41.902  28.352  28.133  1.00  0.00    -0.354 N 
ATOM     19  C   UNL A   1      41.740  29.324  32.592  1.00  0.00     0.074 A 
ATOM     20  C   UNL A   1      40.475  28.725  32.916  1.00  0.00     0.031 C 
ATOM     21  C   UNL A   1      40.854  27.875  26.223  1.00  0.00     0.029 A 
ATOM     22  C   UNL A   1      42.040  27.563  27.000  1.00  0.00     0.049 A 
ATOM     23  H   UNL A   1      42.637  28.524  28.766  1.00  0.00     0.167 HD
ATOM     24  C   UNL A   1      42.927  29.273  33.255  1.00  0.00     0.034 A 
ATOM     25  C   UNL A   1      42.999  26.629  26.798  1.00  0.00     0.034 A 
ATOM     26  C   UNL A   1      43.921  30.107  32.638  1.00  0.00     0.049 A 
ATOM     27  C   UNL A   1      44.105  26.926  27.741  1.00  0.00     0.074 A 
ATOM     28  C   UNL A   1      44.032  31.462  32.399  1.00  0.00     0.029 A 
ATOM     29  N   UNL A   1      44.821  29.497  31.799  1.00  0.00    -0.354 N 
ATOM     30  N   UNL A   1      44.830  28.009  27.677  1.00  0.00    -0.248 NA
ATOM     31  C   UNL A   1      44.095  26.256  29.033  1.00  0.00     0.031 C 
ATOM     32  C   UNL A   1      44.623  31.555  31.105  1.00  0.00     0.029 A 
ATOM     33  C   UNL A   1      44.899  30.260  30.661  1.00  0.00     0.049 A 
ATOM     34  H   UNL A   1      45.318  28.667  31.980  1.00  0.00     0.167 HD
ATOM     35  C   UNL A   1      44.991  28.400  29.001  1.00  0.00     0.074 A 
ATOM     36  C   UNL A   1      44.608  27.231  29.792  1.00  0.00     0.031 C 
ATOM     37  C   UNL A   1      45.131  29.716  29.340  1.00  0.00     0.034 A 
BRANCH  24  38
ATOM     38  C   UNL A   1      43.275  28.197  34.251  1.00  0.00     0.023 A 
ATOM     39  C   UNL A   1      43.668  28.593  35.546  1.00  0.00     0.012 A 
ATOM     40  C   UNL A   1      43.485  26.840  33.903  1.00  0.00     0.148 A 
ATOM     41  C   UNL A   1      44.266  27.691  36.435  1.00  0.00     0.002 A 
ATOM     42  C   UNL A   1      43.998  25.931  34.818  1.00  0.00     0.091 A 
ATOM     43  F   UNL A   1      43.324  26.441  32.638  1.00  0.00    -0.205 F 
ATOM     44  C   UNL A   1      44.419  26.357  36.076  1.00  0.00     0.022 A 
BRANCH  42  45
ATOM     45  S   UNL A   1      44.159  24.188  34.412  1.00  0.00     0.127 S 
ATOM     46  O   UNL A   1      42.766  23.754  34.423  1.00  0.00    -0.237 OA
ATOM     47  O   UNL A   1      44.782  24.245  33.089  1.00  0.00    -0.237 OA
ATOM     48  O   UNL A   1      45.017  23.625  35.448  1.00  0.00    -0.744 OA
ENDBRANCH  42  45
ENDBRANCH  24  38
BRANCH  25  49
ATOM     49  C   UNL A   1      42.862  25.323  26.116  1.00  0.00     0.023 A 
ATOM     50  C   UNL A   1      43.768  24.971  25.099  1.00  0.00     0.012 A 
ATOM     51  C   UNL A   1      42.013  24.316  26.634  1.00  0.00     0.148 A 
ATOM     52  C   UNL A   1      43.840  23.655  24.625  1.00  0.00     0.002 A 
ATOM     53  C   UNL A   1      42.082  23.014  26.152  1.00  0.00     0.091 A 
ATOM     54  F   UNL A   1      41.206  24.614  27.660  1.00  0.00    -0.205 F 
ATOM     55  C   UNL A   1      43.002  22.676  25.154  1.00  0.00     0.022 A 
BRANCH  53  56
ATOM     56  S   UNL A   1      41.047  21.694  26.804  1.00  0.00     0.127 S 
ATOM     57  O   UNL A   1      39.742  22.022  26.229  1.00  0.00    -0.237 OA
ATOM     58  O   UNL A   1      41.684  20.507  26.240  1.00  0.00    -0.237 OA
ATOM     59  O   UNL A   1      41.111  21.818  28.256  1.00  0.00    -0.744 OA
ENDBRANCH  53  56
ENDBRANCH  25  49
BRANCH  37  60
ATOM     60  C   UNL A   1      45.283  30.723  28.223  1.00  0.00     0.023 A 
ATOM     61  C   UNL A   1      44.171  31.306  27.576  1.00  0.00     0.012 A 
ATOM     62  C   UNL A   1      46.563  31.229  27.945  1.00  0.00     0.148 A 
ATOM     63  C   UNL A   1      44.333  32.347  26.656  1.00  0.00     0.002 A 
ATOM     64  C   UNL A   1      46.718  32.295  27.067  1.00  0.00     0.091 A 
ATOM     65  F   UNL A   1      47.612  30.677  28.575  1.00  0.00    -0.205 F 
ATOM     66  C   UNL A   1      45.607  32.850  26.412  1.00  0.00     0.022 A 
BRANCH  64  67
ATOM     67  S   UNL A   1      48.313  33.074  26.812  1.00  0.00     0.127 S 
ATOM     68  O   UNL A   1      49.153  31.937  26.443  1.00  0.00    -0.237 OA
ATOM     69  O   UNL A   1      48.036  34.010  25.721  1.00  0.00    -0.237 OA
ATOM     70  O   UNL A   1      48.648  33.720  28.076  1.00  0.00    -0.744 OA
ENDBRANCH  64  67
ENDBRANCH  37  60
ENDBRANCH  11  12
ENDBRANCH   4   6
ENDBRANCH   3   4
ENDBRANCH   2   3
ENDBRANCH   1   2
BRANCH   1  71
ATOM     71  O   UNL A   1      31.788  27.858  27.512  1.00  0.00    -0.374 OA
BRANCH  71  72
ATOM     72  C   UNL A   1      31.197  27.314  26.324  1.00  0.00     0.202 C 
BRANCH  72  73
ATOM     73  C   UNL A   1      30.994  25.800  26.253  1.00  0.00     0.261 C 
BRANCH  73  74
ATOM     74  O   UNL A   1      32.260  25.117  26.313  1.00  0.00    -0.459 OA
BRANCH  74  75
ATOM     75  C   UNL A   1      32.216  23.769  26.565  1.00  0.00     0.368 C 
ATOM     76  O   UNL A   1      31.827  23.284  27.609  1.00  0.00    -0.245 OA
BRANCH  75  77
ATOM     77  C   UNL A   1      32.783  22.977  25.343  1.00  0.00     0.196 C 
ATOM     78  C   UNL A   1      31.996  21.714  24.930  1.00  0.00     0.081 C 
ATOM     79  C   UNL A   1      32.636  23.990  24.186  1.00  0.00     0.108 C 
ATOM     80  C   UNL A   1      32.526  21.102  23.633  1.00  0.00     0.009 C 
ATOM     81  C   UNL A   1      33.054  23.478  22.802  1.00  0.00     0.116 C 
ATOM     82  C   UNL A   1      32.437  22.098  22.486  1.00  0.00     0.028 C 
BRANCH  77  83
ATOM     83  N   UNL A   1      34.221  22.666  25.541  1.00  0.00    -0.330 N 
ATOM     84  H   UNL A   1      34.475  21.998  24.814  1.00  0.00     0.347 HD
ATOM     85  H   UNL A   1      34.248  22.361  26.514  1.00  0.00     0.347 HD
BRANCH  83  86
ATOM     86  C   UNL A   1      35.247  23.722  25.513  1.00  0.00     0.183 C 
ATOM     87  C   UNL A   1      36.653  23.691  26.032  1.00  0.00     0.071 C 
ATOM     88  C   UNL A   1      36.420  23.496  24.577  1.00  0.00     0.071 C 
ENDBRANCH  83  86
ENDBRANCH  77  83
BRANCH  81  89
ATOM     89  N   UNL A   1      32.720  24.482  21.788  1.00  0.00    -0.250 N 
ATOM     90  C   UNL A   1      31.905  25.568  21.926  1.00  0.00     0.220 A 
ATOM     91  N   UNL A   1      33.160  24.386  20.518  1.00  0.00    -0.160 NA
ATOM     92  N   UNL A   1      31.761  26.167  20.767  1.00  0.00    -0.224 NA
ATOM     93  C   UNL A   1      32.528  25.406  19.936  1.00  0.00     0.246 A 
ENDBRANCH  81  89
ENDBRANCH  75  77
ENDBRANCH  74  75
ENDBRANCH  73  74
ENDBRANCH  72  73
ENDBRANCH  71  72
ENDBRANCH   1  71
TORSDOF 20
ENDMDL
MODEL 3
REMARK VINA RESULT:     -10.4      3.129      8.515
REMARK SMILES O=C(OCCOCCOC(=O)[C@@]1([NH2+]C2CC2)CCC[C@@H](n2cncn2)C1)c1ccc(-c2c3nc(c(-c4cccc(S(=O)(=O)[O-])c4F)c4ccc([nH]4)c(-c4cccc(S(=O)(=O)[O-])c4F)c4nc(c(-c5cccc(S(=O)(=O)[O-])c5F)c5ccc2[nH]5)C=C4)C=C3)cc1
REMARK SMILES IDX 5 1 4 2 3 3 2 4 1 5 27 6 28 7 89 8 29 9 88 10 30 11 31 12
REMARK SMILES IDX 32 13 82 14 33 15 87 16 81 17 83 18 34 19 86 20 80 21 79 22
REMARK SMILES IDX 35 24 67 25 47 26 66 27 48 28 51 29 65 30 84 31 49 32 50 33
REMARK SMILES IDX 64 35 85 36 52 37 36 38 37 39 45 40 38 41 40 42 46 43 39 44
REMARK SMILES IDX 41 45 42 46 43 47 44 48 68 49 69 50 77 51 70 52 72 53 78 54
REMARK SMILES IDX 71 55 73 56 74 57 75 58 76 59 53 60 54 61 62 62 55 63 57 64
REMARK SMILES IDX 63 65 56 66 58 67 59 68 60 69 61 70 6 71 7 72 8 73 9 74
REMARK SMILES IDX 10 75 11 76 12 77 17 78 26 79 18 80 20 81 19 82 13 83 14 86
REMARK SMILES IDX 15 87 16 88 21 89 22 90 25 91 23 92 24 93
REMARK H PARENT 83 23 51 34 13 84 13 85
REMARK Flexibility Score: inf
ROOT
ATOM      1  C   UNL A   1      39.429  21.343  25.844  1.00  0.00     0.202 C 
ENDROOT
BRANCH   1   2
ATOM      2  C   UNL A   1      40.381  21.913  26.909  1.00  0.00     0.261 C 
BRANCH   2   3
ATOM      3  O   UNL A   1      41.608  22.376  26.343  1.00  0.00    -0.460 OA
BRANCH   3   4
ATOM      4  C   UNL A   1      41.987  23.672  26.239  1.00  0.00     0.338 C 
ATOM      5  O   UNL A   1      42.680  24.008  25.281  1.00  0.00    -0.246 OA
BRANCH   4   6
ATOM      6  C   UNL A   1      41.493  24.711  27.180  1.00  0.00     0.060 A 
ATOM      7  C   UNL A   1      40.434  25.587  26.943  1.00  0.00     0.016 A 
ATOM      8  C   UNL A   1      42.260  24.875  28.340  1.00  0.00     0.016 A 
ATOM      9  C   UNL A   1      40.388  26.794  27.591  1.00  0.00     0.010 A 
ATOM     10  C   UNL A   1      42.130  26.023  29.090  1.00  0.00     0.010 A 
ATOM     11  C   UNL A   1      41.290  27.024  28.619  1.00  0.00    -0.014 A 
BRANCH  11  12
ATOM     12  C   UNL A   1      41.234  28.332  29.230  1.00  0.00     0.031 A 
ATOM     13  C   UNL A   1      42.256  29.274  28.698  1.00  0.00     0.074 A 
ATOM     14  C   UNL A   1      40.301  28.617  30.153  1.00  0.00     0.049 A 
ATOM     15  N   UNL A   1      43.209  29.867  29.340  1.00  0.00    -0.248 NA
ATOM     16  C   UNL A   1      42.346  29.405  27.233  1.00  0.00     0.031 C 
ATOM     17  C   UNL A   1      39.136  27.817  30.545  1.00  0.00     0.029 A 
ATOM     18  N   UNL A   1      40.110  29.780  30.820  1.00  0.00    -0.354 N 
ATOM     19  C   UNL A   1      43.877  30.628  28.382  1.00  0.00     0.074 A 
ATOM     20  C   UNL A   1      43.435  30.158  27.098  1.00  0.00     0.031 C 
ATOM     21  C   UNL A   1      38.222  28.630  31.117  1.00  0.00     0.029 A 
ATOM     22  C   UNL A   1      38.805  29.951  31.260  1.00  0.00     0.049 A 
ATOM     23  H   UNL A   1      40.826  30.438  30.977  1.00  0.00     0.167 HD
ATOM     24  C   UNL A   1      44.557  31.759  28.712  1.00  0.00     0.034 A 
ATOM     25  C   UNL A   1      38.230  31.133  31.586  1.00  0.00     0.034 A 
ATOM     26  C   UNL A   1      44.895  31.791  30.108  1.00  0.00     0.049 A 
ATOM     27  C   UNL A   1      39.327  32.097  31.847  1.00  0.00     0.074 A 
ATOM     28  C   UNL A   1      45.669  30.999  30.932  1.00  0.00     0.029 A 
ATOM     29  N   UNL A   1      44.079  32.520  30.937  1.00  0.00    -0.354 N 
ATOM     30  N   UNL A   1      40.167  31.976  32.837  1.00  0.00    -0.248 NA
ATOM     31  C   UNL A   1      39.780  32.926  30.739  1.00  0.00     0.031 C 
ATOM     32  C   UNL A   1      44.945  30.935  32.159  1.00  0.00     0.029 A 
ATOM     33  C   UNL A   1      43.811  31.740  32.034  1.00  0.00     0.049 A 
ATOM     34  H   UNL A   1      43.746  33.432  30.775  1.00  0.00     0.167 HD
ATOM     35  C   UNL A   1      41.398  32.322  32.294  1.00  0.00     0.074 A 
ATOM     36  C   UNL A   1      41.082  32.995  31.034  1.00  0.00     0.031 C 
ATOM     37  C   UNL A   1      42.560  31.774  32.761  1.00  0.00     0.034 A 
BRANCH  24  38
ATOM     38  C   UNL A   1      44.601  32.986  27.838  1.00  0.00     0.023 A 
ATOM     39  C   UNL A   1      45.716  33.158  26.993  1.00  0.00     0.012 A 
ATOM     40  C   UNL A   1      43.737  34.096  27.996  1.00  0.00     0.148 A 
ATOM     41  C   UNL A   1      45.972  34.382  26.363  1.00  0.00     0.002 A 
ATOM     42  C   UNL A   1      43.946  35.279  27.301  1.00  0.00     0.091 A 
ATOM     43  F   UNL A   1      42.780  34.073  28.928  1.00  0.00    -0.205 F 
ATOM     44  C   UNL A   1      45.080  35.439  26.506  1.00  0.00     0.022 A 
BRANCH  42  45
ATOM     45  S   UNL A   1      42.788  36.648  27.415  1.00  0.00     0.127 S 
ATOM     46  O   UNL A   1      42.838  36.956  28.840  1.00  0.00    -0.237 OA
ATOM     47  O   UNL A   1      43.414  37.642  26.542  1.00  0.00    -0.237 OA
ATOM     48  O   UNL A   1      41.522  36.130  26.912  1.00  0.00    -0.744 OA
ENDBRANCH  42  45
ENDBRANCH  24  38
BRANCH  25  49
ATOM     49  C   UNL A   1      36.835  31.560  31.339  1.00  0.00     0.023 A 
ATOM     50  C   UNL A   1      36.046  32.016  32.411  1.00  0.00     0.012 A 
ATOM     51  C   UNL A   1      36.359  31.768  30.022  1.00  0.00     0.148 A 
ATOM     52  C   UNL A   1      34.832  32.676  32.180  1.00  0.00     0.002 A 
ATOM     53  C   UNL A   1      35.148  32.413  29.799  1.00  0.00     0.091 A 
ATOM     54  F   UNL A   1      37.137  31.416  28.990  1.00  0.00    -0.205 F 
ATOM     55  C   UNL A   1      34.386  32.879  30.875  1.00  0.00     0.022 A 
BRANCH  53  56
ATOM     56  S   UNL A   1      34.521  32.730  28.143  1.00  0.00     0.127 S 
ATOM     57  O   UNL A   1      35.637  33.453  27.531  1.00  0.00    -0.237 OA
ATOM     58  O   UNL A   1      34.316  31.377  27.635  1.00  0.00    -0.237 OA
ATOM     59  O   UNL A   1      33.314  33.530  28.320  1.00  0.00    -0.744 OA
ENDBRANCH  53  56
ENDBRANCH  25  49
BRANCH  37  60
ATOM     60  C   UNL A   1      42.487  30.914  34.002  1.00  0.00     0.023 A 
ATOM     61  C   UNL A   1      42.463  31.465  35.302  1.00  0.00     0.012 A 
ATOM     62  C   UNL A   1      42.253  29.538  33.851  1.00  0.00     0.148 A 
ATOM     63  C   UNL A   1      42.237  30.661  36.424  1.00  0.00     0.002 A 
ATOM     64  C   UNL A   1      41.983  28.749  34.963  1.00  0.00     0.091 A 
ATOM     65  F   UNL A   1      42.265  29.026  32.611  1.00  0.00    -0.205 F 
ATOM     66  C   UNL A   1      41.984  29.304  36.253  1.00  0.00     0.022 A 
BRANCH  64  67
ATOM     67  S   UNL A   1      41.517  27.024  34.797  1.00  0.00     0.127 S 
ATOM     68  O   UNL A   1      40.393  27.100  33.867  1.00  0.00    -0.237 OA
ATOM     69  O   UNL A   1      42.731  26.423  34.241  1.00  0.00    -0.237 OA
ATOM     70  O   UNL A   1      41.192  26.567  36.142  1.00  0.00    -0.744 OA
ENDBRANCH  64  67
ENDBRANCH  37  60
ENDBRANCH  11  12
ENDBRANCH   4   6
ENDBRANCH   3   4
ENDBRANCH   2   3
ENDBRANCH   1   2
BRANCH   1  71
ATOM     71  O   UNL A   1      38.037  21.627  25.920  1.00  0.00    -0.374 OA
BRANCH  71  72
ATOM     72  C   UNL A   1      37.586  22.974  25.730  1.00  0.00     0.202 C 
BRANCH  72  73
ATOM     73  C   UNL A   1      36.143  23.307  26.108  1.00  0.00     0.261 C 
BRANCH  73  74
ATOM     74  O   UNL A   1      35.221  22.568  25.284  1.00  0.00    -0.459 OA
BRANCH  74  75
ATOM     75  C   UNL A   1      34.475  23.299  24.395  1.00  0.00     0.368 C 
ATOM     76  O   UNL A   1      34.741  24.436  24.055  1.00  0.00    -0.245 OA
BRANCH  75  77
ATOM     77  C   UNL A   1      33.225  22.478  23.940  1.00  0.00     0.196 C 
ATOM     78  C   UNL A   1      33.036  22.320  22.416  1.00  0.00     0.081 C 
ATOM     79  C   UNL A   1      33.527  21.070  24.499  1.00  0.00     0.108 C 
ATOM     80  C   UNL A   1      31.890  21.369  22.072  1.00  0.00     0.009 C 
ATOM     81  C   UNL A   1      32.495  19.987  24.156  1.00  0.00     0.116 C 
ATOM     82  C   UNL A   1      32.138  19.985  22.653  1.00  0.00     0.028 C 
BRANCH  77  83
ATOM     83  N   UNL A   1      31.992  23.004  24.578  1.00  0.00    -0.330 N 
ATOM     84  H   UNL A   1      32.125  22.909  25.585  1.00  0.00     0.347 HD
ATOM     85  H   UNL A   1      31.260  22.453  24.130  1.00  0.00     0.347 HD
BRANCH  83  86
ATOM     86  C   UNL A   1      31.536  24.384  24.348  1.00  0.00     0.183 C 
ATOM     87  C   UNL A   1      31.535  25.183  23.079  1.00  0.00     0.071 C 
ATOM     88  C   UNL A   1      30.269  24.547  23.529  1.00  0.00     0.071 C 
ENDBRANCH  83  86
ENDBRANCH  77  83
BRANCH  81  89
ATOM     89  N   UNL A   1      32.982  18.684  24.615  1.00  0.00    -0.250 N 
ATOM     90  C   UNL A   1      34.231  18.157  24.457  1.00  0.00     0.220 A 
ATOM     91  N   UNL A   1      32.170  17.792  25.218  1.00  0.00    -0.160 NA
ATOM     92  N   UNL A   1      34.252  16.922  24.901  1.00  0.00    -0.224 NA
ATOM     93  C   UNL A   1      32.975  16.736  25.340  1.00  0.00     0.246 A 
ENDBRANCH  81  89
ENDBRANCH  75  77
ENDBRANCH  74  75
ENDBRANCH  73  74
ENDBRANCH  72  73
ENDBRANCH  71  72
ENDBRANCH   1  71
TORSDOF 20
ENDMDL
