MODEL 1
REMARK VINA RESULT:      -9.9      0.000      0.000
REMARK SMILES O=C(OCCOCCOC(=O)c1ccc(-c2c3nc(c(-c4cccc(S(=O)(=O)[O-])c4F)c4ccc([nH]4)c(-c4cccc(S(=O)(=O)[O-])c4F)c4nc(c(-c5cccc(S(=O)(=O)[O-])c5F)c5ccc2[nH]5)C=C4)C=C3)cc1)c1ccc(/[NH+]=C2\S[C@@H](Cc3ccc(F)cc3)C(=O)N2Cc2ccccc2)cc1
REMARK SMILES IDX 6 1 5 2 4 3 3 4 2 5 1 6 75 7 76 8 102 9 77 10 101 11 78 12
REMARK SMILES IDX 79 13 80 14 81 16 93 17 82 18 91 19 92 20 94 21 95 22 96 23
REMARK SMILES IDX 100 24 97 25 99 26 98 27 83 28 84 29 85 30 90 31 86 32 89 33
REMARK SMILES IDX 87 34 88 35 7 36 8 37 9 38 10 39 11 40 12 41 13 42 74 43
REMARK SMILES IDX 14 44 73 45 15 46 16 47 17 48 67 49 18 50 72 51 66 52 68 53
REMARK SMILES IDX 19 54 71 55 65 56 64 57 20 59 52 60 32 61 51 62 33 63 36 64
REMARK SMILES IDX 50 65 69 66 34 67 35 68 49 70 70 71 37 72 21 73 22 74 30 75
REMARK SMILES IDX 23 76 25 77 31 78 24 79 26 80 27 81 28 82 29 83 53 84 54 85
REMARK SMILES IDX 62 86 55 87 57 88 63 89 56 90 58 91 59 92 60 93 61 94 38 95
REMARK SMILES IDX 39 96 47 97 40 98 42 99 48 100 41 101 43 102 44 103 45 104
REMARK SMILES IDX 46 105
REMARK H PARENT 79 15 68 58 36 69
REMARK Flexibility Score: inf
ROOT
ATOM      1  O   UNL A   1      34.076  28.552  25.797  1.00  0.00    -0.374 OA
ENDROOT
BRANCH   1   2
ATOM      2  C   UNL A   1      33.334  27.355  26.044  1.00  0.00     0.202 C 
BRANCH   2   3
ATOM      3  C   UNL A   1      32.694  26.759  24.788  1.00  0.00     0.261 C 
BRANCH   3   4
ATOM      4  O   UNL A   1      33.683  26.044  24.022  1.00  0.00    -0.460 OA
BRANCH   4   5
ATOM      5  C   UNL A   1      33.951  24.720  24.017  1.00  0.00     0.338 C 
ATOM      6  O   UNL A   1      33.107  23.935  23.587  1.00  0.00    -0.246 OA
BRANCH   5   7
ATOM      7  C   UNL A   1      35.236  24.144  24.504  1.00  0.00     0.060 A 
ATOM      8  C   UNL A   1      35.668  24.208  25.826  1.00  0.00     0.020 A 
ATOM      9  C   UNL A   1      35.987  23.377  23.597  1.00  0.00     0.020 A 
ATOM     10  C   UNL A   1      36.838  23.581  26.227  1.00  0.00     0.052 A 
ATOM     11  C   UNL A   1      37.159  22.726  24.004  1.00  0.00     0.052 A 
ATOM     12  C   UNL A   1      37.598  22.852  25.319  1.00  0.00     0.125 A 
BRANCH  12  13
ATOM     13  N   UNL A   1      38.783  22.285  25.788  1.00  0.00    -0.235 N 
ATOM     14  C   UNL A   1      39.502  22.971  26.613  1.00  0.00     0.320 C 
ATOM     15  H   UNL A   1      39.062  21.387  25.499  1.00  0.00     0.313 HD
ATOM     16  S   UNL A   1      39.318  24.663  27.008  1.00  0.00    -0.022 SA
ATOM     17  N   UNL A   1      40.526  22.419  27.329  1.00  0.00    -0.186 N 
ATOM     18  C   UNL A   1      41.012  24.739  27.637  1.00  0.00     0.178 C 
ATOM     19  C   UNL A   1      41.315  23.299  28.042  1.00  0.00     0.324 C 
ATOM     20  O   UNL A   1      42.202  22.965  28.818  1.00  0.00    -0.245 OA
BRANCH  17  21
ATOM     21  C   UNL A   1      40.733  20.978  27.407  1.00  0.00     0.283 C 
BRANCH  21  22
ATOM     22  C   UNL A   1      41.912  20.485  26.586  1.00  0.00    -0.006 A 
ATOM     23  C   UNL A   1      42.217  19.119  26.507  1.00  0.00     0.008 A 
ATOM     24  C   UNL A   1      42.749  21.390  25.913  1.00  0.00     0.008 A 
ATOM     25  C   UNL A   1      43.327  18.678  25.777  1.00  0.00     0.000 A 
ATOM     26  C   UNL A   1      43.837  20.948  25.160  1.00  0.00     0.000 A 
ATOM     27  C   UNL A   1      44.131  19.591  25.097  1.00  0.00     0.000 A 
ENDBRANCH  21  22
ENDBRANCH  17  21
BRANCH  18  28
ATOM     28  C   UNL A   1      41.144  25.785  28.737  1.00  0.00     0.063 C 
BRANCH  28  29
ATOM     29  C   UNL A   1      40.358  27.035  28.409  1.00  0.00    -0.046 A 
ATOM     30  C   UNL A   1      40.738  27.832  27.320  1.00  0.00     0.007 A 
ATOM     31  C   UNL A   1      39.211  27.373  29.144  1.00  0.00     0.007 A 
ATOM     32  C   UNL A   1      39.958  28.924  26.944  1.00  0.00     0.039 A 
ATOM     33  C   UNL A   1      38.429  28.461  28.761  1.00  0.00     0.039 A 
ATOM     34  C   UNL A   1      38.804  29.221  27.660  1.00  0.00     0.123 A 
ATOM     35  F   UNL A   1      38.039  30.252  27.279  1.00  0.00    -0.207 F 
ENDBRANCH  28  29
ENDBRANCH  18  28
ENDBRANCH  12  13
ENDBRANCH   5   7
ENDBRANCH   4   5
ENDBRANCH   3   4
ENDBRANCH   2   3
ENDBRANCH   1   2
BRANCH   1  36
ATOM     36  C   UNL A   1      33.467  29.763  26.265  1.00  0.00     0.202 C 
BRANCH  36  37
ATOM     37  C   UNL A   1      34.068  30.142  27.620  1.00  0.00     0.261 C 
BRANCH  37  38
ATOM     38  O   UNL A   1      35.126  31.080  27.387  1.00  0.00    -0.460 OA
BRANCH  38  39
ATOM     39  C   UNL A   1      34.992  32.251  28.059  1.00  0.00     0.338 C 
ATOM     40  O   UNL A   1      34.102  33.076  27.930  1.00  0.00    -0.246 OA
BRANCH  39  41
ATOM     41  C   UNL A   1      35.996  32.272  29.146  1.00  0.00     0.060 A 
ATOM     42  C   UNL A   1      36.846  33.383  29.241  1.00  0.00     0.016 A 
ATOM     43  C   UNL A   1      36.071  31.242  30.091  1.00  0.00     0.016 A 
ATOM     44  C   UNL A   1      37.807  33.442  30.246  1.00  0.00     0.010 A 
ATOM     45  C   UNL A   1      37.028  31.302  31.099  1.00  0.00     0.010 A 
ATOM     46  C   UNL A   1      37.928  32.379  31.150  1.00  0.00    -0.014 A 
BRANCH  46  47
ATOM     47  C   UNL A   1      39.124  32.262  32.008  1.00  0.00     0.031 A 
ATOM     48  C   UNL A   1      40.347  31.623  31.410  1.00  0.00     0.074 A 
ATOM     49  C   UNL A   1      39.103  32.659  33.290  1.00  0.00     0.049 A 
ATOM     50  N   UNL A   1      41.490  31.334  31.971  1.00  0.00    -0.248 NA
ATOM     51  C   UNL A   1      40.262  31.246  29.987  1.00  0.00     0.031 C 
ATOM     52  C   UNL A   1      37.960  33.270  33.968  1.00  0.00     0.029 A 
ATOM     53  N   UNL A   1      40.066  32.572  34.261  1.00  0.00    -0.354 N 
ATOM     54  C   UNL A   1      42.246  30.716  30.983  1.00  0.00     0.074 A 
ATOM     55  C   UNL A   1      41.429  30.653  29.792  1.00  0.00     0.031 C 
ATOM     56  C   UNL A   1      38.279  33.473  35.259  1.00  0.00     0.029 A 
ATOM     57  C   UNL A   1      39.637  32.988  35.499  1.00  0.00     0.049 A 
ATOM     58  H   UNL A   1      40.978  32.243  34.088  1.00  0.00     0.167 HD
ATOM     59  C   UNL A   1      43.517  30.260  31.054  1.00  0.00     0.034 A 
ATOM     60  C   UNL A   1      40.270  32.959  36.687  1.00  0.00     0.034 A 
ATOM     61  C   UNL A   1      44.323  30.340  32.240  1.00  0.00     0.049 A 
ATOM     62  C   UNL A   1      41.685  32.441  36.744  1.00  0.00     0.074 A 
ATOM     63  C   UNL A   1      45.638  29.952  32.415  1.00  0.00     0.029 A 
ATOM     64  N   UNL A   1      43.882  30.836  33.457  1.00  0.00    -0.354 N 
ATOM     65  N   UNL A   1      42.436  31.979  35.771  1.00  0.00    -0.248 NA
ATOM     66  C   UNL A   1      42.353  32.472  38.052  1.00  0.00     0.031 C 
ATOM     67  C   UNL A   1      45.985  30.195  33.748  1.00  0.00     0.029 A 
ATOM     68  C   UNL A   1      44.895  30.759  34.394  1.00  0.00     0.049 A 
ATOM     69  H   UNL A   1      42.979  31.190  33.629  1.00  0.00     0.167 HD
ATOM     70  C   UNL A   1      43.674  31.703  36.340  1.00  0.00     0.074 A 
ATOM     71  C   UNL A   1      43.577  32.066  37.740  1.00  0.00     0.031 C 
ATOM     72  C   UNL A   1      44.787  31.182  35.767  1.00  0.00     0.034 A 
BRANCH  59  73
ATOM     73  C   UNL A   1      44.114  29.665  29.807  1.00  0.00     0.023 A 
ATOM     74  C   UNL A   1      43.987  28.281  29.568  1.00  0.00     0.012 A 
ATOM     75  C   UNL A   1      44.771  30.472  28.860  1.00  0.00     0.148 A 
ATOM     76  C   UNL A   1      44.534  27.704  28.423  1.00  0.00     0.002 A 
ATOM     77  C   UNL A   1      45.276  29.897  27.700  1.00  0.00     0.091 A 
ATOM     78  F   UNL A   1      44.908  31.781  29.119  1.00  0.00    -0.205 F 
ATOM     79  C   UNL A   1      45.170  28.513  27.486  1.00  0.00     0.022 A 
BRANCH  77  80
ATOM     80  S   UNL A   1      46.048  30.863  26.396  1.00  0.00     0.127 S 
ATOM     81  O   UNL A   1      45.047  31.903  26.168  1.00  0.00    -0.237 OA
ATOM     82  O   UNL A   1      47.274  31.330  27.045  1.00  0.00    -0.237 OA
ATOM     83  O   UNL A   1      46.261  29.943  25.288  1.00  0.00    -0.744 OA
ENDBRANCH  77  80
ENDBRANCH  59  73
BRANCH  60  84
ATOM     84  C   UNL A   1      39.593  33.479  37.910  1.00  0.00     0.023 A 
ATOM     85  C   UNL A   1      38.810  32.607  38.691  1.00  0.00     0.012 A 
ATOM     86  C   UNL A   1      39.737  34.821  38.315  1.00  0.00     0.148 A 
ATOM     87  C   UNL A   1      38.155  33.069  39.833  1.00  0.00     0.002 A 
ATOM     88  C   UNL A   1      39.125  35.261  39.483  1.00  0.00     0.091 A 
ATOM     89  F   UNL A   1      40.473  35.639  37.550  1.00  0.00    -0.205 F 
ATOM     90  C   UNL A   1      38.320  34.392  40.234  1.00  0.00     0.022 A 
BRANCH  88  91
ATOM     91  S   UNL A   1      39.386  36.911  40.144  1.00  0.00     0.127 S 
ATOM     92  O   UNL A   1      38.765  36.808  41.462  1.00  0.00    -0.237 OA
ATOM     93  O   UNL A   1      40.846  37.004  40.156  1.00  0.00    -0.237 OA
ATOM     94  O   UNL A   1      38.737  37.816  39.205  1.00  0.00    -0.744 OA
ENDBRANCH  88  91
ENDBRANCH  60  84
BRANCH  72  95
ATOM     95  C   UNL A   1      46.006  31.013  36.635  1.00  0.00     0.023 A 
ATOM     96  C   UNL A   1      46.223  29.795  37.307  1.00  0.00     0.012 A 
ATOM     97  C   UNL A   1      46.976  32.032  36.713  1.00  0.00     0.148 A 
ATOM     98  C   UNL A   1      47.374  29.605  38.070  1.00  0.00     0.002 A 
ATOM     99  C   UNL A   1      48.143  31.816  37.434  1.00  0.00     0.091 A 
ATOM    100  F   UNL A   1      46.740  33.190  36.079  1.00  0.00    -0.205 F 
ATOM    101  C   UNL A   1      48.338  30.609  38.124  1.00  0.00     0.022 A 
BRANCH  99 102
ATOM    102  S   UNL A   1      49.481  33.015  37.474  1.00  0.00     0.127 S 
ATOM    103  O   UNL A   1      50.485  32.314  38.273  1.00  0.00    -0.237 OA
ATOM    104  O   UNL A   1      49.817  33.154  36.058  1.00  0.00    -0.237 OA
ATOM    105  O   UNL A   1      48.923  34.216  38.082  1.00  0.00    -0.744 OA
ENDBRANCH  99 102
ENDBRANCH  72  95
ENDBRANCH  46  47
ENDBRANCH  39  41
ENDBRANCH  38  39
ENDBRANCH  37  38
ENDBRANCH  36  37
ENDBRANCH   1  36
TORSDOF 22
ENDMDL
MODEL 2
REMARK VINA RESULT:      -9.7      5.337     12.535
REMARK SMILES O=C(OCCOCCOC(=O)c1ccc(-c2c3nc(c(-c4cccc(S(=O)(=O)[O-])c4F)c4ccc([nH]4)c(-c4cccc(S(=O)(=O)[O-])c4F)c4nc(c(-c5cccc(S(=O)(=O)[O-])c5F)c5ccc2[nH]5)C=C4)C=C3)cc1)c1ccc(/[NH+]=C2\S[C@@H](Cc3ccc(F)cc3)C(=O)N2Cc2ccccc2)cc1
REMARK SMILES IDX 6 1 5 2 4 3 3 4 2 5 1 6 75 7 76 8 102 9 77 10 101 11 78 12
REMARK SMILES IDX 79 13 80 14 81 16 93 17 82 18 91 19 92 20 94 21 95 22 96 23
REMARK SMILES IDX 100 24 97 25 99 26 98 27 83 28 84 29 85 30 90 31 86 32 89 33
REMARK SMILES IDX 87 34 88 35 7 36 8 37 9 38 10 39 11 40 12 41 13 42 74 43
REMARK SMILES IDX 14 44 73 45 15 46 16 47 17 48 67 49 18 50 72 51 66 52 68 53
REMARK SMILES IDX 19 54 71 55 65 56 64 57 20 59 52 60 32 61 51 62 33 63 36 64
REMARK SMILES IDX 50 65 69 66 34 67 35 68 49 70 70 71 37 72 21 73 22 74 30 75
REMARK SMILES IDX 23 76 25 77 31 78 24 79 26 80 27 81 28 82 29 83 53 84 54 85
REMARK SMILES IDX 62 86 55 87 57 88 63 89 56 90 58 91 59 92 60 93 61 94 38 95
REMARK SMILES IDX 39 96 47 97 40 98 42 99 48 100 41 101 43 102 44 103 45 104
REMARK SMILES IDX 46 105
REMARK H PARENT 79 15 68 58 36 69
REMARK Flexibility Score: inf
ROOT
ATOM      1  O   UNL A   1      39.572  23.149  26.184  1.00  0.00    -0.374 OA
ENDROOT
BRANCH   1   2
ATOM      2  C   UNL A   1      39.240  24.490  26.551  1.00  0.00     0.202 C 
BRANCH   2   3
ATOM      3  C   UNL A   1      39.386  24.771  28.048  1.00  0.00     0.261 C 
BRANCH   3   4
ATOM      4  O   UNL A   1      40.483  25.677  28.275  1.00  0.00    -0.460 OA
BRANCH   4   5
ATOM      5  C   UNL A   1      40.513  26.792  29.038  1.00  0.00     0.338 C 
ATOM      6  O   UNL A   1      41.288  26.850  29.992  1.00  0.00    -0.246 OA
BRANCH   5   7
ATOM      7  C   UNL A   1      39.650  27.979  28.784  1.00  0.00     0.060 A 
ATOM      8  C   UNL A   1      39.608  28.669  27.575  1.00  0.00     0.020 A 
ATOM      9  C   UNL A   1      38.729  28.337  29.784  1.00  0.00     0.020 A 
ATOM     10  C   UNL A   1      38.723  29.718  27.380  1.00  0.00     0.052 A 
ATOM     11  C   UNL A   1      37.820  29.384  29.583  1.00  0.00     0.052 A 
ATOM     12  C   UNL A   1      37.837  30.093  28.385  1.00  0.00     0.125 A 
BRANCH  12  13
ATOM     13  N   UNL A   1      37.006  31.183  28.129  1.00  0.00    -0.235 N 
ATOM     14  C   UNL A   1      35.750  30.960  27.931  1.00  0.00     0.320 C 
ATOM     15  H   UNL A   1      37.368  32.098  28.100  1.00  0.00     0.313 HD
ATOM     16  S   UNL A   1      34.991  29.409  27.664  1.00  0.00    -0.022 SA
ATOM     17  N   UNL A   1      34.817  31.957  27.935  1.00  0.00    -0.186 N 
ATOM     18  C   UNL A   1      33.541  30.203  26.931  1.00  0.00     0.178 C 
ATOM     19  C   UNL A   1      33.542  31.600  27.545  1.00  0.00     0.324 C 
ATOM     20  O   UNL A   1      32.567  32.341  27.594  1.00  0.00    -0.245 OA
BRANCH  17  21
ATOM     21  C   UNL A   1      35.120  33.305  28.400  1.00  0.00     0.283 C 
BRANCH  21  22
ATOM     22  C   UNL A   1      34.808  33.529  29.870  1.00  0.00    -0.006 A 
ATOM     23  C   UNL A   1      35.091  32.545  30.827  1.00  0.00     0.008 A 
ATOM     24  C   UNL A   1      34.196  34.716  30.303  1.00  0.00     0.008 A 
ATOM     25  C   UNL A   1      34.766  32.746  32.173  1.00  0.00     0.000 A 
ATOM     26  C   UNL A   1      33.901  34.931  31.650  1.00  0.00     0.000 A 
ATOM     27  C   UNL A   1      34.180  33.942  32.585  1.00  0.00     0.000 A 
ENDBRANCH  21  22
ENDBRANCH  17  21
BRANCH  18  28
ATOM     28  C   UNL A   1      32.284  29.372  27.161  1.00  0.00     0.063 C 
BRANCH  28  29
ATOM     29  C   UNL A   1      31.710  28.863  25.858  1.00  0.00    -0.046 A 
ATOM     30  C   UNL A   1      31.623  27.482  25.627  1.00  0.00     0.007 A 
ATOM     31  C   UNL A   1      31.202  29.755  24.902  1.00  0.00     0.007 A 
ATOM     32  C   UNL A   1      30.997  27.002  24.479  1.00  0.00     0.039 A 
ATOM     33  C   UNL A   1      30.570  29.272  23.758  1.00  0.00     0.039 A 
ATOM     34  C   UNL A   1      30.466  27.900  23.561  1.00  0.00     0.123 A 
ATOM     35  F   UNL A   1      29.837  27.437  22.473  1.00  0.00    -0.207 F 
ENDBRANCH  28  29
ENDBRANCH  18  28
ENDBRANCH  12  13
ENDBRANCH   5   7
ENDBRANCH   4   5
ENDBRANCH   3   4
ENDBRANCH   2   3
ENDBRANCH   1   2
BRANCH   1  36
ATOM     36  C   UNL A   1      40.104  22.335  27.240  1.00  0.00     0.202 C 
BRANCH  36  37
ATOM     37  C   UNL A   1      41.100  21.332  26.654  1.00  0.00     0.261 C 
BRANCH  37  38
ATOM     38  O   UNL A   1      41.843  21.997  25.627  1.00  0.00    -0.460 OA
BRANCH  38  39
ATOM     39  C   UNL A   1      43.113  21.544  25.475  1.00  0.00     0.338 C 
ATOM     40  O   UNL A   1      43.459  20.440  25.089  1.00  0.00    -0.246 OA
BRANCH  39  41
ATOM     41  C   UNL A   1      44.032  22.691  25.650  1.00  0.00     0.060 A 
ATOM     42  C   UNL A   1      45.018  22.604  26.643  1.00  0.00     0.016 A 
ATOM     43  C   UNL A   1      43.964  23.815  24.819  1.00  0.00     0.016 A 
ATOM     44  C   UNL A   1      45.901  23.662  26.844  1.00  0.00     0.010 A 
ATOM     45  C   UNL A   1      44.849  24.871  25.015  1.00  0.00     0.010 A 
ATOM     46  C   UNL A   1      45.787  24.815  26.058  1.00  0.00    -0.014 A 
BRANCH  46  47
ATOM     47  C   UNL A   1      46.480  26.058  26.454  1.00  0.00     0.031 A 
ATOM     48  C   UNL A   1      45.728  27.027  27.323  1.00  0.00     0.074 A 
ATOM     49  C   UNL A   1      47.716  26.338  26.007  1.00  0.00     0.049 A 
ATOM     50  N   UNL A   1      46.079  28.213  27.740  1.00  0.00    -0.248 NA
ATOM     51  C   UNL A   1      44.388  26.603  27.769  1.00  0.00     0.031 C 
ATOM     52  C   UNL A   1      48.519  25.474  25.144  1.00  0.00     0.029 A 
ATOM     53  N   UNL A   1      48.493  27.451  26.192  1.00  0.00    -0.354 N 
ATOM     54  C   UNL A   1      44.997  28.688  28.470  1.00  0.00     0.074 A 
ATOM     55  C   UNL A   1      43.968  27.674  28.425  1.00  0.00     0.031 C 
ATOM     56  C   UNL A   1      49.668  26.107  24.846  1.00  0.00     0.029 A 
ATOM     57  C   UNL A   1      49.669  27.423  25.480  1.00  0.00     0.049 A 
ATOM     58  H   UNL A   1      48.235  28.199  26.779  1.00  0.00     0.167 HD
ATOM     59  C   UNL A   1      44.878  29.858  29.137  1.00  0.00     0.034 A 
ATOM     60  C   UNL A   1      50.621  28.367  25.348  1.00  0.00     0.034 A 
ATOM     61  C   UNL A   1      45.913  30.852  29.185  1.00  0.00     0.049 A 
ATOM     62  C   UNL A   1      50.464  29.666  26.097  1.00  0.00     0.074 A 
ATOM     63  C   UNL A   1      45.921  32.055  29.867  1.00  0.00     0.029 A 
ATOM     64  N   UNL A   1      47.122  30.760  28.513  1.00  0.00    -0.354 N 
ATOM     65  N   UNL A   1      49.493  30.051  26.892  1.00  0.00    -0.248 NA
ATOM     66  C   UNL A   1      51.549  30.648  25.961  1.00  0.00     0.031 C 
ATOM     67  C   UNL A   1      47.130  32.700  29.589  1.00  0.00     0.029 A 
ATOM     68  C   UNL A   1      47.885  31.887  28.756  1.00  0.00     0.049 A 
ATOM     69  H   UNL A   1      47.396  30.004  27.945  1.00  0.00     0.167 HD
ATOM     70  C   UNL A   1      49.867  31.298  27.380  1.00  0.00     0.074 A 
ATOM     71  C   UNL A   1      51.164  31.596  26.805  1.00  0.00     0.031 C 
ATOM     72  C   UNL A   1      49.198  32.130  28.215  1.00  0.00     0.034 A 
BRANCH  59  73
ATOM     73  C   UNL A   1      43.597  30.103  29.889  1.00  0.00     0.023 A 
ATOM     74  C   UNL A   1      42.553  30.820  29.267  1.00  0.00     0.012 A 
ATOM     75  C   UNL A   1      43.413  29.605  31.192  1.00  0.00     0.148 A 
ATOM     76  C   UNL A   1      41.358  31.064  29.942  1.00  0.00     0.002 A 
ATOM     77  C   UNL A   1      42.203  29.815  31.843  1.00  0.00     0.091 A 
ATOM     78  F   UNL A   1      44.428  28.953  31.777  1.00  0.00    -0.205 F 
ATOM     79  C   UNL A   1      41.180  30.554  31.225  1.00  0.00     0.022 A 
BRANCH  77  80
ATOM     80  S   UNL A   1      41.846  29.138  33.468  1.00  0.00     0.127 S 
ATOM     81  O   UNL A   1      42.764  29.902  34.313  1.00  0.00    -0.237 OA
ATOM     82  O   UNL A   1      40.434  29.480  33.640  1.00  0.00    -0.237 OA
ATOM     83  O   UNL A   1      42.119  27.711  33.377  1.00  0.00    -0.744 OA
ENDBRANCH  77  80
ENDBRANCH  59  73
BRANCH  60  84
ATOM     84  C   UNL A   1      51.828  28.102  24.514  1.00  0.00     0.023 A 
ATOM     85  C   UNL A   1      51.887  28.608  23.201  1.00  0.00     0.012 A 
ATOM     86  C   UNL A   1      52.923  27.373  25.018  1.00  0.00     0.148 A 
ATOM     87  C   UNL A   1      52.998  28.366  22.393  1.00  0.00     0.002 A 
ATOM     88  C   UNL A   1      54.050  27.180  24.226  1.00  0.00     0.091 A 
ATOM     89  F   UNL A   1      52.842  26.885  26.264  1.00  0.00    -0.205 F 
ATOM     90  C   UNL A   1      54.083  27.661  22.908  1.00  0.00     0.022 A 
BRANCH  88  91
ATOM     91  S   UNL A   1      55.542  26.397  24.849  1.00  0.00     0.127 S 
ATOM     92  O   UNL A   1      55.096  25.021  25.050  1.00  0.00    -0.237 OA
ATOM     93  O   UNL A   1      56.471  26.588  23.735  1.00  0.00    -0.237 OA
ATOM     94  O   UNL A   1      55.895  27.133  26.055  1.00  0.00    -0.744 OA
ENDBRANCH  88  91
ENDBRANCH  60  84
BRANCH  72  95
ATOM     95  C   UNL A   1      49.868  33.424  28.597  1.00  0.00     0.023 A 
ATOM     96  C   UNL A   1      50.711  33.470  29.723  1.00  0.00     0.012 A 
ATOM     97  C   UNL A   1      49.726  34.569  27.788  1.00  0.00     0.148 A 
ATOM     98  C   UNL A   1      51.379  34.648  30.057  1.00  0.00     0.002 A 
ATOM     99  C   UNL A   1      50.434  35.722  28.098  1.00  0.00     0.091 A 
ATOM    100  F   UNL A   1      48.904  34.507  26.729  1.00  0.00    -0.205 F 
ATOM    101  C   UNL A   1      51.251  35.768  29.239  1.00  0.00     0.022 A 
BRANCH  99 102
ATOM    102  S   UNL A   1      50.407  37.177  27.044  1.00  0.00     0.127 S 
ATOM    103  O   UNL A   1      49.006  37.586  27.137  1.00  0.00    -0.237 OA
ATOM    104  O   UNL A   1      51.348  38.069  27.721  1.00  0.00    -0.237 OA
ATOM    105  O   UNL A   1      50.842  36.727  25.729  1.00  0.00    -0.744 OA
ENDBRANCH  99 102
ENDBRANCH  72  95
ENDBRANCH  46  47
ENDBRANCH  39  41
ENDBRANCH  38  39
ENDBRANCH  37  38
ENDBRANCH  36  37
ENDBRANCH   1  36
TORSDOF 22
ENDMDL
MODEL 3
REMARK VINA RESULT:      -9.7      1.825      2.185
REMARK SMILES O=C(OCCOCCOC(=O)c1ccc(-c2c3nc(c(-c4cccc(S(=O)(=O)[O-])c4F)c4ccc([nH]4)c(-c4cccc(S(=O)(=O)[O-])c4F)c4nc(c(-c5cccc(S(=O)(=O)[O-])c5F)c5ccc2[nH]5)C=C4)C=C3)cc1)c1ccc(/[NH+]=C2\S[C@@H](Cc3ccc(F)cc3)C(=O)N2Cc2ccccc2)cc1
REMARK SMILES IDX 6 1 5 2 4 3 3 4 2 5 1 6 75 7 76 8 102 9 77 10 101 11 78 12
REMARK SMILES IDX 79 13 80 14 81 16 93 17 82 18 91 19 92 20 94 21 95 22 96 23
REMARK SMILES IDX 100 24 97 25 99 26 98 27 83 28 84 29 85 30 90 31 86 32 89 33
REMARK SMILES IDX 87 34 88 35 7 36 8 37 9 38 10 39 11 40 12 41 13 42 74 43
REMARK SMILES IDX 14 44 73 45 15 46 16 47 17 48 67 49 18 50 72 51 66 52 68 53
REMARK SMILES IDX 19 54 71 55 65 56 64 57 20 59 52 60 32 61 51 62 33 63 36 64
REMARK SMILES IDX 50 65 69 66 34 67 35 68 49 70 70 71 37 72 21 73 22 74 30 75
REMARK SMILES IDX 23 76 25 77 31 78 24 79 26 80 27 81 28 82 29 83 53 84 54 85
REMARK SMILES IDX 62 86 55 87 57 88 63 89 56 90 58 91 59 92 60 93 61 94 38 95
REMARK SMILES IDX 39 96 47 97 40 98 42 99 48 100 41 101 43 102 44 103 45 104
REMARK SMILES IDX 46 105
REMARK H PARENT 79 15 68 58 36 69
REMARK Flexibility Score: inf
ROOT
ATOM      1  O   UNL A   1      33.919  28.931  25.588  1.00  0.00    -0.374 OA
ENDROOT
BRANCH   1   2
ATOM      2  C   UNL A   1      33.511  27.627  26.009  1.00  0.00     0.202 C 
BRANCH   2   3
ATOM      3  C   UNL A   1      32.841  26.807  24.904  1.00  0.00     0.261 C 
BRANCH   3   4
ATOM      4  O   UNL A   1      33.833  26.062  24.171  1.00  0.00    -0.460 OA
BRANCH   4   5
ATOM      5  C   UNL A   1      34.078  24.733  24.194  1.00  0.00     0.338 C 
ATOM      6  O   UNL A   1      33.226  23.955  23.767  1.00  0.00    -0.246 OA
BRANCH   5   7
ATOM      7  C   UNL A   1      35.346  24.145  24.709  1.00  0.00     0.060 A 
ATOM      8  C   UNL A   1      35.769  24.238  26.033  1.00  0.00     0.020 A 
ATOM      9  C   UNL A   1      36.087  23.335  23.832  1.00  0.00     0.020 A 
ATOM     10  C   UNL A   1      36.921  23.598  26.462  1.00  0.00     0.052 A 
ATOM     11  C   UNL A   1      37.241  22.671  24.267  1.00  0.00     0.052 A 
ATOM     12  C   UNL A   1      37.672  22.827  25.582  1.00  0.00     0.125 A 
BRANCH  12  13
ATOM     13  N   UNL A   1      38.841  22.248  26.078  1.00  0.00    -0.235 N 
ATOM     14  C   UNL A   1      39.785  23.031  26.482  1.00  0.00     0.320 C 
ATOM     15  H   UNL A   1      38.942  21.271  26.119  1.00  0.00     0.313 HD
ATOM     16  S   UNL A   1      39.899  24.756  26.225  1.00  0.00    -0.022 SA
ATOM     17  N   UNL A   1      40.844  22.584  27.219  1.00  0.00    -0.186 N 
ATOM     18  C   UNL A   1      41.676  24.726  26.559  1.00  0.00     0.178 C 
ATOM     19  C   UNL A   1      41.861  23.492  27.439  1.00  0.00     0.324 C 
ATOM     20  O   UNL A   1      42.827  23.292  28.164  1.00  0.00    -0.245 OA
BRANCH  17  21
ATOM     21  C   UNL A   1      40.874  21.253  27.812  1.00  0.00     0.283 C 
BRANCH  21  22
ATOM     22  C   UNL A   1      41.840  20.301  27.128  1.00  0.00    -0.006 A 
ATOM     23  C   UNL A   1      42.488  20.660  25.939  1.00  0.00     0.008 A 
ATOM     24  C   UNL A   1      42.083  19.021  27.653  1.00  0.00     0.008 A 
ATOM     25  C   UNL A   1      43.349  19.762  25.296  1.00  0.00     0.000 A 
ATOM     26  C   UNL A   1      42.966  18.137  27.031  1.00  0.00     0.000 A 
ATOM     27  C   UNL A   1      43.594  18.506  25.847  1.00  0.00     0.000 A 
ENDBRANCH  21  22
ENDBRANCH  17  21
BRANCH  18  28
ATOM     28  C   UNL A   1      42.146  26.048  27.153  1.00  0.00     0.063 C 
BRANCH  28  29
ATOM     29  C   UNL A   1      40.985  26.866  27.671  1.00  0.00    -0.046 A 
ATOM     30  C   UNL A   1      40.589  28.026  26.988  1.00  0.00     0.007 A 
ATOM     31  C   UNL A   1      40.254  26.444  28.792  1.00  0.00     0.007 A 
ATOM     32  C   UNL A   1      39.455  28.726  27.393  1.00  0.00     0.039 A 
ATOM     33  C   UNL A   1      39.116  27.142  29.191  1.00  0.00     0.039 A 
ATOM     34  C   UNL A   1      38.722  28.271  28.483  1.00  0.00     0.123 A 
ATOM     35  F   UNL A   1      37.614  28.927  28.852  1.00  0.00    -0.207 F 
ENDBRANCH  28  29
ENDBRANCH  18  28
ENDBRANCH  12  13
ENDBRANCH   5   7
ENDBRANCH   4   5
ENDBRANCH   3   4
ENDBRANCH   2   3
ENDBRANCH   1   2
BRANCH   1  36
ATOM     36  C   UNL A   1      33.230  30.024  26.211  1.00  0.00     0.202 C 
BRANCH  36  37
ATOM     37  C   UNL A   1      33.873  30.323  27.567  1.00  0.00     0.261 C 
BRANCH  37  38
ATOM     38  O   UNL A   1      34.885  31.316  27.365  1.00  0.00    -0.460 OA
BRANCH  38  39
ATOM     39  C   UNL A   1      34.705  32.450  28.088  1.00  0.00     0.338 C 
ATOM     40  O   UNL A   1      33.790  33.250  27.986  1.00  0.00    -0.246 OA
BRANCH  39  41
ATOM     41  C   UNL A   1      35.698  32.455  29.186  1.00  0.00     0.060 A 
ATOM     42  C   UNL A   1      36.535  33.572  29.317  1.00  0.00     0.016 A 
ATOM     43  C   UNL A   1      35.774  31.404  30.107  1.00  0.00     0.016 A 
ATOM     44  C   UNL A   1      37.486  33.616  30.333  1.00  0.00     0.010 A 
ATOM     45  C   UNL A   1      36.720  31.449  31.126  1.00  0.00     0.010 A 
ATOM     46  C   UNL A   1      37.607  32.533  31.213  1.00  0.00    -0.014 A 
BRANCH  46  47
ATOM     47  C   UNL A   1      38.796  32.407  32.080  1.00  0.00     0.031 A 
ATOM     48  C   UNL A   1      40.037  31.812  31.475  1.00  0.00     0.074 A 
ATOM     49  C   UNL A   1      38.753  32.758  33.375  1.00  0.00     0.049 A 
ATOM     50  N   UNL A   1      41.179  31.524  32.038  1.00  0.00    -0.248 NA
ATOM     51  C   UNL A   1      39.975  31.484  30.038  1.00  0.00     0.031 C 
ATOM     52  C   UNL A   1      37.591  33.324  34.060  1.00  0.00     0.029 A 
ATOM     53  N   UNL A   1      39.707  32.653  34.354  1.00  0.00    -0.354 N 
ATOM     54  C   UNL A   1      41.957  30.956  31.038  1.00  0.00     0.074 A 
ATOM     55  C   UNL A   1      41.156  30.920  29.836  1.00  0.00     0.031 C 
ATOM     56  C   UNL A   1      37.892  33.486  35.361  1.00  0.00     0.029 A 
ATOM     57  C   UNL A   1      39.255  33.018  35.600  1.00  0.00     0.049 A 
ATOM     58  H   UNL A   1      40.626  32.348  34.181  1.00  0.00     0.167 HD
ATOM     59  C   UNL A   1      43.236  30.520  31.109  1.00  0.00     0.034 A 
ATOM     60  C   UNL A   1      39.875  32.958  36.794  1.00  0.00     0.034 A 
ATOM     61  C   UNL A   1      44.026  30.573  32.306  1.00  0.00     0.049 A 
ATOM     62  C   UNL A   1      41.298  32.464  36.850  1.00  0.00     0.074 A 
ATOM     63  C   UNL A   1      45.346  30.202  32.484  1.00  0.00     0.029 A 
ATOM     64  N   UNL A   1      43.562  31.017  33.535  1.00  0.00    -0.354 N 
ATOM     65  N   UNL A   1      42.069  32.051  35.871  1.00  0.00    -0.248 NA
ATOM     66  C   UNL A   1      41.951  32.460  38.166  1.00  0.00     0.031 C 
ATOM     67  C   UNL A   1      45.674  30.404  33.829  1.00  0.00     0.029 A 
ATOM     68  C   UNL A   1      44.566  30.925  34.481  1.00  0.00     0.049 A 
ATOM     69  H   UNL A   1      42.651  31.348  33.709  1.00  0.00     0.167 HD
ATOM     70  C   UNL A   1      43.306  31.776  36.444  1.00  0.00     0.074 A 
ATOM     71  C   UNL A   1      43.186  32.088  37.855  1.00  0.00     0.031 C 
ATOM     72  C   UNL A   1      44.435  31.297  35.867  1.00  0.00     0.034 A 
BRANCH  59  73
ATOM     73  C   UNL A   1      43.857  29.981  29.849  1.00  0.00     0.023 A 
ATOM     74  C   UNL A   1      43.851  28.590  29.611  1.00  0.00     0.012 A 
ATOM     75  C   UNL A   1      44.420  30.844  28.890  1.00  0.00     0.148 A 
ATOM     76  C   UNL A   1      44.424  28.065  28.454  1.00  0.00     0.002 A 
ATOM     77  C   UNL A   1      44.951  30.315  27.719  1.00  0.00     0.091 A 
ATOM     78  F   UNL A   1      44.444  32.159  29.148  1.00  0.00    -0.205 F 
ATOM     79  C   UNL A   1      44.964  28.927  27.505  1.00  0.00     0.022 A 
BRANCH  77  80
ATOM     80  S   UNL A   1      45.606  31.346  26.401  1.00  0.00     0.127 S 
ATOM     81  O   UNL A   1      46.658  32.084  27.100  1.00  0.00    -0.237 OA
ATOM     82  O   UNL A   1      46.093  30.350  25.446  1.00  0.00    -0.237 OA
ATOM     83  O   UNL A   1      44.488  32.149  25.926  1.00  0.00    -0.744 OA
ENDBRANCH  77  80
ENDBRANCH  59  73
BRANCH  60  84
ATOM     84  C   UNL A   1      39.175  33.422  38.026  1.00  0.00     0.023 A 
ATOM     85  C   UNL A   1      39.517  34.667  38.590  1.00  0.00     0.012 A 
ATOM     86  C   UNL A   1      38.162  32.651  38.630  1.00  0.00     0.148 A 
ATOM     87  C   UNL A   1      38.888  35.121  39.750  1.00  0.00     0.002 A 
ATOM     88  C   UNL A   1      37.501  33.133  39.755  1.00  0.00     0.091 A 
ATOM     89  F   UNL A   1      37.862  31.462  38.089  1.00  0.00    -0.205 F 
ATOM     90  C   UNL A   1      37.874  34.359  40.326  1.00  0.00     0.022 A 
BRANCH  88  91
ATOM     91  S   UNL A   1      36.099  32.282  40.487  1.00  0.00     0.127 S 
ATOM     92  O   UNL A   1      35.731  33.189  41.571  1.00  0.00    -0.237 OA
ATOM     93  O   UNL A   1      35.155  32.240  39.370  1.00  0.00    -0.237 OA
ATOM     94  O   UNL A   1      36.603  30.977  40.894  1.00  0.00    -0.744 OA
ENDBRANCH  88  91
ENDBRANCH  60  84
BRANCH  72  95
ATOM     95  C   UNL A   1      45.646  31.119  36.742  1.00  0.00     0.023 A 
ATOM     96  C   UNL A   1      46.556  32.182  36.904  1.00  0.00     0.012 A 
ATOM     97  C   UNL A   1      45.834  29.927  37.470  1.00  0.00     0.148 A 
ATOM     98  C   UNL A   1      47.653  32.049  37.753  1.00  0.00     0.002 A 
ATOM     99  C   UNL A   1      46.902  29.821  38.352  1.00  0.00     0.091 A 
ATOM    100  F   UNL A   1      44.965  28.923  37.288  1.00  0.00    -0.205 F 
ATOM    101  C   UNL A   1      47.819  30.875  38.486  1.00  0.00     0.022 A 
BRANCH  99 102
ATOM    102  S   UNL A   1      47.134  28.387  39.409  1.00  0.00     0.127 S 
ATOM    103  O   UNL A   1      45.804  28.233  39.998  1.00  0.00    -0.237 OA
ATOM    104  O   UNL A   1      47.499  27.348  38.447  1.00  0.00    -0.237 OA
ATOM    105  O   UNL A   1      48.194  28.745  40.342  1.00  0.00    -0.744 OA
ENDBRANCH  99 102
ENDBRANCH  72  95
ENDBRANCH  46  47
ENDBRANCH  39  41
ENDBRANCH  38  39
ENDBRANCH  37  38
ENDBRANCH  36  37
ENDBRANCH   1  36
TORSDOF 22
ENDMDL
