MODEL 1
REMARK VINA RESULT:     -10.5      0.000      0.000
REMARK SMILES C=C(c1ccccc1)[C@@H](C(=O)OCCOCCOC(=O)c1ccc(-c2c3nc(c(-c4cccc(S(=O)(=O)[O-])c4F)c4ccc([nH]4)c(-c4cccc(S(=O)(=O)[O-])c4F)c4nc(c(-c5cccc(S(=O)(=O)[O-])c5F)c5ccc2[nH]5)C=C4)C=C3)cc1)S(C)(=O)=O
REMARK SMILES IDX 16 1 15 2 14 3 13 4 12 5 10 6 11 7 9 8 2 9 1 10 3 11 4 12
REMARK SMILES IDX 8 13 5 14 7 15 6 16 84 17 85 18 86 19 87 20 17 21 18 22
REMARK SMILES IDX 19 23 20 24 21 25 22 26 83 27 23 28 82 29 24 30 25 31 26 32
REMARK SMILES IDX 76 33 27 34 81 35 75 36 77 37 28 38 80 39 74 40 73 41 29 43
REMARK SMILES IDX 61 44 41 45 60 46 42 47 45 48 59 49 78 50 43 51 44 52 58 54
REMARK SMILES IDX 79 55 46 56 30 57 31 58 39 59 32 60 34 61 40 62 33 63 35 64
REMARK SMILES IDX 36 65 37 66 38 67 62 68 63 69 71 70 64 71 66 72 72 73 65 74
REMARK SMILES IDX 67 75 68 76 69 77 70 78 47 79 48 80 56 81 49 82 51 83 57 84
REMARK SMILES IDX 50 85 52 86 53 87 54 88 55 89
REMARK H PARENT 77 42 45 53
REMARK Flexibility Score: inf
ROOT
ATOM      1  C   UNL A   1      35.971  21.002  25.288  1.00  0.00     0.202 C 
ENDROOT
BRANCH   1   2
ATOM      2  O   UNL A   1      34.775  20.253  25.082  1.00  0.00    -0.374 OA
BRANCH   2   3
ATOM      3  C   UNL A   1      33.577  20.989  24.847  1.00  0.00     0.202 C 
BRANCH   3   4
ATOM      4  C   UNL A   1      32.932  21.707  26.038  1.00  0.00     0.261 C 
BRANCH   4   5
ATOM      5  O   UNL A   1      33.200  23.122  26.063  1.00  0.00    -0.462 OA
BRANCH   5   6
ATOM      6  C   UNL A   1      32.107  23.914  26.269  1.00  0.00     0.328 C 
ATOM      7  O   UNL A   1      31.257  23.669  27.118  1.00  0.00    -0.250 OA
BRANCH   6   8
ATOM      8  C   UNL A   1      32.001  25.075  25.289  1.00  0.00     0.247 C 
BRANCH   8   9
ATOM      9  C   UNL A   1      30.893  26.114  25.507  1.00  0.00    -0.019 C 
ATOM     10  C   UNL A   1      29.566  25.922  25.361  1.00  0.00     0.015 C 
BRANCH   9  11
ATOM     11  C   UNL A   1      31.312  27.508  25.806  1.00  0.00    -0.021 A 
ATOM     12  C   UNL A   1      31.615  27.911  27.114  1.00  0.00     0.008 A 
ATOM     13  C   UNL A   1      31.464  28.446  24.770  1.00  0.00     0.008 A 
ATOM     14  C   UNL A   1      32.065  29.207  27.378  1.00  0.00     0.001 A 
ATOM     15  C   UNL A   1      31.926  29.739  25.034  1.00  0.00     0.001 A 
ATOM     16  C   UNL A   1      32.226  30.117  26.338  1.00  0.00     0.000 A 
ENDBRANCH   9  11
ENDBRANCH   8   9
BRANCH   8  17
ATOM     17  S   UNL A   1      31.911  24.340  23.637  1.00  0.00     0.165 S 
ATOM     18  C   UNL A   1      31.367  25.666  22.588  1.00  0.00     0.159 C 
ATOM     19  O   UNL A   1      33.251  24.037  23.160  1.00  0.00    -0.228 OA
ATOM     20  O   UNL A   1      30.876  23.320  23.593  1.00  0.00    -0.228 OA
ENDBRANCH   8  17
ENDBRANCH   6   8
ENDBRANCH   5   6
ENDBRANCH   4   5
ENDBRANCH   3   4
ENDBRANCH   2   3
ENDBRANCH   1   2
BRANCH   1  21
ATOM     21  C   UNL A   1      37.305  20.274  25.072  1.00  0.00     0.261 C 
BRANCH  21  22
ATOM     22  O   UNL A   1      38.434  21.167  25.072  1.00  0.00    -0.460 OA
BRANCH  22  23
ATOM     23  C   UNL A   1      39.298  20.988  26.100  1.00  0.00     0.338 C 
ATOM     24  O   UNL A   1      39.795  19.930  26.471  1.00  0.00    -0.246 OA
BRANCH  23  25
ATOM     25  C   UNL A   1      39.743  22.290  26.626  1.00  0.00     0.060 A 
ATOM     26  C   UNL A   1      39.123  23.438  26.113  1.00  0.00     0.016 A 
ATOM     27  C   UNL A   1      40.780  22.398  27.554  1.00  0.00     0.016 A 
ATOM     28  C   UNL A   1      39.564  24.703  26.498  1.00  0.00     0.010 A 
ATOM     29  C   UNL A   1      41.228  23.669  27.931  1.00  0.00     0.010 A 
ATOM     30  C   UNL A   1      40.643  24.826  27.382  1.00  0.00    -0.014 A 
BRANCH  30  31
ATOM     31  C   UNL A   1      41.220  26.163  27.652  1.00  0.00     0.031 A 
ATOM     32  C   UNL A   1      42.617  26.472  27.197  1.00  0.00     0.074 A 
ATOM     33  C   UNL A   1      40.504  27.091  28.313  1.00  0.00     0.049 A 
ATOM     34  N   UNL A   1      43.314  27.568  27.351  1.00  0.00    -0.248 NA
ATOM     35  C   UNL A   1      43.326  25.403  26.476  1.00  0.00     0.031 C 
ATOM     36  C   UNL A   1      39.145  26.901  28.816  1.00  0.00     0.029 A 
ATOM     37  N   UNL A   1      40.836  28.364  28.701  1.00  0.00    -0.354 N 
ATOM     38  C   UNL A   1      44.551  27.314  26.772  1.00  0.00     0.074 A 
ATOM     39  C   UNL A   1      44.513  25.955  26.273  1.00  0.00     0.031 C 
ATOM     40  C   UNL A   1      38.775  28.003  29.490  1.00  0.00     0.029 A 
ATOM     41  C   UNL A   1      39.878  28.964  29.481  1.00  0.00     0.049 A 
ATOM     42  H   UNL A   1      41.679  28.804  28.447  1.00  0.00     0.167 HD
ATOM     43  C   UNL A   1      45.616  28.141  26.651  1.00  0.00     0.034 A 
ATOM     44  C   UNL A   1      39.897  30.140  30.141  1.00  0.00     0.034 A 
ATOM     45  C   UNL A   1      45.646  29.495  27.136  1.00  0.00     0.049 A 
ATOM     46  C   UNL A   1      41.097  31.038  30.010  1.00  0.00     0.074 A 
ATOM     47  C   UNL A   1      46.647  30.439  26.996  1.00  0.00     0.029 A 
ATOM     48  N   UNL A   1      44.637  30.091  27.879  1.00  0.00    -0.354 N 
ATOM     49  N   UNL A   1      42.201  30.846  29.328  1.00  0.00    -0.248 NA
ATOM     50  C   UNL A   1      41.043  32.330  30.711  1.00  0.00     0.031 C 
ATOM     51  C   UNL A   1      46.258  31.595  27.683  1.00  0.00     0.029 A 
ATOM     52  C   UNL A   1      45.002  31.380  28.229  1.00  0.00     0.049 A 
ATOM     53  H   UNL A   1      43.786  29.661  28.121  1.00  0.00     0.167 HD
ATOM     54  C   UNL A   1      42.965  31.994  29.503  1.00  0.00     0.074 A 
ATOM     55  C   UNL A   1      42.185  32.890  30.334  1.00  0.00     0.031 C 
ATOM     56  C   UNL A   1      44.206  32.275  29.032  1.00  0.00     0.034 A 
BRANCH  43  57
ATOM     57  C   UNL A   1      46.835  27.604  25.948  1.00  0.00     0.023 A 
ATOM     58  C   UNL A   1      46.986  27.801  24.561  1.00  0.00     0.012 A 
ATOM     59  C   UNL A   1      47.844  26.928  26.663  1.00  0.00     0.148 A 
ATOM     60  C   UNL A   1      48.101  27.301  23.888  1.00  0.00     0.002 A 
ATOM     61  C   UNL A   1      48.972  26.469  25.993  1.00  0.00     0.091 A 
ATOM     62  F   UNL A   1      47.671  26.724  27.976  1.00  0.00    -0.205 F 
ATOM     63  C   UNL A   1      49.096  26.643  24.605  1.00  0.00     0.022 A 
BRANCH  61  64
ATOM     64  S   UNL A   1      50.337  25.673  26.846  1.00  0.00     0.127 S 
ATOM     65  O   UNL A   1      49.704  24.453  27.344  1.00  0.00    -0.237 OA
ATOM     66  O   UNL A   1      51.300  25.462  25.764  1.00  0.00    -0.237 OA
ATOM     67  O   UNL A   1      50.774  26.619  27.864  1.00  0.00    -0.744 OA
ENDBRANCH  61  64
ENDBRANCH  43  57
BRANCH  44  68
ATOM     68  C   UNL A   1      38.725  30.524  30.974  1.00  0.00     0.023 A 
ATOM     69  C   UNL A   1      38.725  30.252  32.354  1.00  0.00     0.012 A 
ATOM     70  C   UNL A   1      37.640  31.225  30.410  1.00  0.00     0.148 A 
ATOM     71  C   UNL A   1      37.657  30.659  33.156  1.00  0.00     0.002 A 
ATOM     72  C   UNL A   1      36.608  31.676  31.221  1.00  0.00     0.091 A 
ATOM     73  F   UNL A   1      37.655  31.458  29.089  1.00  0.00    -0.205 F 
ATOM     74  C   UNL A   1      36.607  31.382  32.594  1.00  0.00     0.022 A 
BRANCH  72  75
ATOM     75  S   UNL A   1      35.291  32.734  30.609  1.00  0.00     0.127 S 
ATOM     76  O   UNL A   1      36.025  33.940  30.236  1.00  0.00    -0.237 OA
ATOM     77  O   UNL A   1      34.777  31.951  29.485  1.00  0.00    -0.237 OA
ATOM     78  O   UNL A   1      34.356  32.883  31.716  1.00  0.00    -0.744 OA
ENDBRANCH  72  75
ENDBRANCH  44  68
BRANCH  56  79
ATOM     79  C   UNL A   1      44.810  33.606  29.398  1.00  0.00     0.023 A 
ATOM     80  C   UNL A   1      45.603  33.713  30.559  1.00  0.00     0.012 A 
ATOM     81  C   UNL A   1      44.663  34.727  28.557  1.00  0.00     0.148 A 
ATOM     82  C   UNL A   1      46.218  34.920  30.889  1.00  0.00     0.002 A 
ATOM     83  C   UNL A   1      45.318  35.914  28.867  1.00  0.00     0.091 A 
ATOM     84  F   UNL A   1      43.892  34.609  27.466  1.00  0.00    -0.205 F 
ATOM     85  C   UNL A   1      46.086  36.016  30.038  1.00  0.00     0.022 A 
BRANCH  83  86
ATOM     86  S   UNL A   1      45.281  37.348  27.787  1.00  0.00     0.127 S 
ATOM     87  O   UNL A   1      46.289  38.211  28.401  1.00  0.00    -0.237 OA
ATOM     88  O   UNL A   1      45.671  36.776  26.497  1.00  0.00    -0.237 OA
ATOM     89  O   UNL A   1      43.916  37.854  27.835  1.00  0.00    -0.744 OA
ENDBRANCH  83  86
ENDBRANCH  56  79
ENDBRANCH  30  31
ENDBRANCH  23  25
ENDBRANCH  22  23
ENDBRANCH  21  22
ENDBRANCH   1  21
TORSDOF 20
ENDMDL
MODEL 2
REMARK VINA RESULT:     -10.5      1.291      1.927
REMARK SMILES C=C(c1ccccc1)[C@@H](C(=O)OCCOCCOC(=O)c1ccc(-c2c3nc(c(-c4cccc(S(=O)(=O)[O-])c4F)c4ccc([nH]4)c(-c4cccc(S(=O)(=O)[O-])c4F)c4nc(c(-c5cccc(S(=O)(=O)[O-])c5F)c5ccc2[nH]5)C=C4)C=C3)cc1)S(C)(=O)=O
REMARK SMILES IDX 16 1 15 2 14 3 13 4 12 5 10 6 11 7 9 8 2 9 1 10 3 11 4 12
REMARK SMILES IDX 8 13 5 14 7 15 6 16 84 17 85 18 86 19 87 20 17 21 18 22
REMARK SMILES IDX 19 23 20 24 21 25 22 26 83 27 23 28 82 29 24 30 25 31 26 32
REMARK SMILES IDX 76 33 27 34 81 35 75 36 77 37 28 38 80 39 74 40 73 41 29 43
REMARK SMILES IDX 61 44 41 45 60 46 42 47 45 48 59 49 78 50 43 51 44 52 58 54
REMARK SMILES IDX 79 55 46 56 30 57 31 58 39 59 32 60 34 61 40 62 33 63 35 64
REMARK SMILES IDX 36 65 37 66 38 67 62 68 63 69 71 70 64 71 66 72 72 73 65 74
REMARK SMILES IDX 67 75 68 76 69 77 70 78 47 79 48 80 56 81 49 82 51 83 57 84
REMARK SMILES IDX 50 85 52 86 53 87 54 88 55 89
REMARK H PARENT 77 42 45 53
REMARK Flexibility Score: inf
ROOT
ATOM      1  C   UNL A   1      35.525  20.781  25.040  1.00  0.00     0.202 C 
ENDROOT
BRANCH   1   2
ATOM      2  O   UNL A   1      35.311  22.113  25.504  1.00  0.00    -0.374 OA
BRANCH   2   3
ATOM      3  C   UNL A   1      34.060  22.720  25.189  1.00  0.00     0.202 C 
BRANCH   3   4
ATOM      4  C   UNL A   1      33.845  24.178  25.611  1.00  0.00     0.261 C 
BRANCH   4   5
ATOM      5  O   UNL A   1      32.665  24.769  25.032  1.00  0.00    -0.462 OA
BRANCH   5   6
ATOM      6  C   UNL A   1      31.797  25.323  25.929  1.00  0.00     0.328 C 
ATOM      7  O   UNL A   1      31.354  24.710  26.894  1.00  0.00    -0.250 OA
BRANCH   6   8
ATOM      8  C   UNL A   1      31.367  26.738  25.567  1.00  0.00     0.247 C 
BRANCH   8   9
ATOM      9  C   UNL A   1      31.600  27.226  24.131  1.00  0.00    -0.019 C 
ATOM     10  C   UNL A   1      32.753  27.167  23.434  1.00  0.00     0.015 C 
BRANCH   9  11
ATOM     11  C   UNL A   1      30.479  27.936  23.459  1.00  0.00    -0.021 A 
ATOM     12  C   UNL A   1      29.154  27.504  23.605  1.00  0.00     0.008 A 
ATOM     13  C   UNL A   1      30.721  29.095  22.701  1.00  0.00     0.008 A 
ATOM     14  C   UNL A   1      28.102  28.212  23.019  1.00  0.00     0.001 A 
ATOM     15  C   UNL A   1      29.666  29.809  22.126  1.00  0.00     0.001 A 
ATOM     16  C   UNL A   1      28.357  29.367  22.286  1.00  0.00     0.000 A 
ENDBRANCH   9  11
ENDBRANCH   8   9
BRANCH   8  17
ATOM     17  S   UNL A   1      32.148  27.834  26.778  1.00  0.00     0.165 S 
ATOM     18  C   UNL A   1      31.901  29.467  26.128  1.00  0.00     0.159 C 
ATOM     19  O   UNL A   1      31.384  27.824  28.014  1.00  0.00    -0.228 OA
ATOM     20  O   UNL A   1      33.584  27.609  26.810  1.00  0.00    -0.228 OA
ENDBRANCH   8  17
ENDBRANCH   6   8
ENDBRANCH   5   6
ENDBRANCH   4   5
ENDBRANCH   3   4
ENDBRANCH   2   3
ENDBRANCH   1   2
BRANCH   1  21
ATOM     21  C   UNL A   1      36.974  20.274  24.996  1.00  0.00     0.261 C 
BRANCH  21  22
ATOM     22  O   UNL A   1      37.939  21.338  25.087  1.00  0.00    -0.460 OA
BRANCH  22  23
ATOM     23  C   UNL A   1      38.973  21.094  25.928  1.00  0.00     0.338 C 
ATOM     24  O   UNL A   1      39.547  20.024  26.099  1.00  0.00    -0.246 OA
BRANCH  23  25
ATOM     25  C   UNL A   1      39.478  22.356  26.496  1.00  0.00     0.060 A 
ATOM     26  C   UNL A   1      38.795  23.533  26.159  1.00  0.00     0.016 A 
ATOM     27  C   UNL A   1      40.624  22.402  27.292  1.00  0.00     0.016 A 
ATOM     28  C   UNL A   1      39.279  24.768  26.586  1.00  0.00     0.010 A 
ATOM     29  C   UNL A   1      41.113  23.645  27.711  1.00  0.00     0.010 A 
ATOM     30  C   UNL A   1      40.460  24.834  27.334  1.00  0.00    -0.014 A 
BRANCH  30  31
ATOM     31  C   UNL A   1      41.064  26.153  27.636  1.00  0.00     0.031 A 
ATOM     32  C   UNL A   1      42.476  26.435  27.211  1.00  0.00     0.074 A 
ATOM     33  C   UNL A   1      40.359  27.087  28.300  1.00  0.00     0.049 A 
ATOM     34  N   UNL A   1      43.196  27.511  27.395  1.00  0.00    -0.248 NA
ATOM     35  C   UNL A   1      43.172  25.361  26.485  1.00  0.00     0.031 C 
ATOM     36  C   UNL A   1      38.987  26.921  28.776  1.00  0.00     0.029 A 
ATOM     37  N   UNL A   1      40.714  28.345  28.715  1.00  0.00    -0.354 N 
ATOM     38  C   UNL A   1      44.437  27.237  26.833  1.00  0.00     0.074 A 
ATOM     39  C   UNL A   1      44.375  25.888  26.312  1.00  0.00     0.031 C 
ATOM     40  C   UNL A   1      38.632  28.020  29.462  1.00  0.00     0.029 A 
ATOM     41  C   UNL A   1      39.756  28.955  29.488  1.00  0.00     0.049 A 
ATOM     42  H   UNL A   1      41.572  28.769  28.483  1.00  0.00     0.167 HD
ATOM     43  C   UNL A   1      45.523  28.040  26.745  1.00  0.00     0.034 A 
ATOM     44  C   UNL A   1      39.792  30.119  30.167  1.00  0.00     0.034 A 
ATOM     45  C   UNL A   1      45.576  29.385  27.253  1.00  0.00     0.049 A 
ATOM     46  C   UNL A   1      41.015  30.991  30.072  1.00  0.00     0.074 A 
ATOM     47  C   UNL A   1      46.602  30.307  27.145  1.00  0.00     0.029 A 
ATOM     48  N   UNL A   1      44.568  29.994  27.987  1.00  0.00    -0.354 N 
ATOM     49  N   UNL A   1      42.125  30.783  29.406  1.00  0.00    -0.248 NA
ATOM     50  C   UNL A   1      40.979  32.272  30.793  1.00  0.00     0.031 C 
ATOM     51  C   UNL A   1      46.228  31.461  27.844  1.00  0.00     0.029 A 
ATOM     52  C   UNL A   1      44.958  31.267  28.365  1.00  0.00     0.049 A 
ATOM     53  H   UNL A   1      43.703  29.580  28.207  1.00  0.00     0.167 HD
ATOM     54  C   UNL A   1      42.914  31.910  29.613  1.00  0.00     0.074 A 
ATOM     55  C   UNL A   1      42.141  32.810  30.445  1.00  0.00     0.031 C 
ATOM     56  C   UNL A   1      44.169  32.168  29.168  1.00  0.00     0.034 A 
BRANCH  43  57
ATOM     57  C   UNL A   1      46.741  27.485  26.054  1.00  0.00     0.023 A 
ATOM     58  C   UNL A   1      46.891  27.649  24.662  1.00  0.00     0.012 A 
ATOM     59  C   UNL A   1      47.750  26.827  26.784  1.00  0.00     0.148 A 
ATOM     60  C   UNL A   1      48.005  27.132  24.002  1.00  0.00     0.002 A 
ATOM     61  C   UNL A   1      48.877  26.351  26.125  1.00  0.00     0.091 A 
ATOM     62  F   UNL A   1      47.578  26.655  28.103  1.00  0.00    -0.205 F 
ATOM     63  C   UNL A   1      49.001  26.491  24.733  1.00  0.00     0.022 A 
BRANCH  61  64
ATOM     64  S   UNL A   1      50.243  25.575  26.997  1.00  0.00     0.127 S 
ATOM     65  O   UNL A   1      50.550  26.577  28.016  1.00  0.00    -0.237 OA
ATOM     66  O   UNL A   1      49.627  24.351  27.513  1.00  0.00    -0.237 OA
ATOM     67  O   UNL A   1      51.278  25.354  25.997  1.00  0.00    -0.744 OA
ENDBRANCH  61  64
ENDBRANCH  43  57
BRANCH  44  68
ATOM     68  C   UNL A   1      38.615  30.519  30.986  1.00  0.00     0.023 A 
ATOM     69  C   UNL A   1      38.606  30.271  32.371  1.00  0.00     0.012 A 
ATOM     70  C   UNL A   1      37.533  31.208  30.402  1.00  0.00     0.148 A 
ATOM     71  C   UNL A   1      37.533  30.692  33.159  1.00  0.00     0.002 A 
ATOM     72  C   UNL A   1      36.496  31.674  31.200  1.00  0.00     0.091 A 
ATOM     73  F   UNL A   1      37.556  31.418  29.078  1.00  0.00    -0.205 F 
ATOM     74  C   UNL A   1      36.486  31.404  32.577  1.00  0.00     0.022 A 
BRANCH  72  75
ATOM     75  S   UNL A   1      35.183  32.720  30.561  1.00  0.00     0.127 S 
ATOM     76  O   UNL A   1      34.272  32.787  31.700  1.00  0.00    -0.237 OA
ATOM     77  O   UNL A   1      35.902  33.960  30.271  1.00  0.00    -0.237 OA
ATOM     78  O   UNL A   1      34.668  32.034  29.383  1.00  0.00    -0.744 OA
ENDBRANCH  72  75
ENDBRANCH  44  68
BRANCH  56  79
ATOM     79  C   UNL A   1      44.798  33.479  29.567  1.00  0.00     0.023 A 
ATOM     80  C   UNL A   1      45.596  33.541  30.727  1.00  0.00     0.012 A 
ATOM     81  C   UNL A   1      44.669  34.623  28.755  1.00  0.00     0.148 A 
ATOM     82  C   UNL A   1      46.233  34.728  31.087  1.00  0.00     0.002 A 
ATOM     83  C   UNL A   1      45.345  35.790  29.094  1.00  0.00     0.091 A 
ATOM     84  F   UNL A   1      43.892  34.547  27.664  1.00  0.00    -0.205 F 
ATOM     85  C   UNL A   1      46.118  35.848  30.265  1.00  0.00     0.022 A 
BRANCH  83  86
ATOM     86  S   UNL A   1      45.331  37.252  28.051  1.00  0.00     0.127 S 
ATOM     87  O   UNL A   1      45.968  38.243  28.918  1.00  0.00    -0.237 OA
ATOM     88  O   UNL A   1      46.143  36.827  26.910  1.00  0.00    -0.237 OA
ATOM     89  O   UNL A   1      43.932  37.508  27.736  1.00  0.00    -0.744 OA
ENDBRANCH  83  86
ENDBRANCH  56  79
ENDBRANCH  30  31
ENDBRANCH  23  25
ENDBRANCH  22  23
ENDBRANCH  21  22
ENDBRANCH   1  21
TORSDOF 20
ENDMDL
MODEL 3
REMARK VINA RESULT:     -10.4      0.693      7.858
REMARK SMILES C=C(c1ccccc1)[C@@H](C(=O)OCCOCCOC(=O)c1ccc(-c2c3nc(c(-c4cccc(S(=O)(=O)[O-])c4F)c4ccc([nH]4)c(-c4cccc(S(=O)(=O)[O-])c4F)c4nc(c(-c5cccc(S(=O)(=O)[O-])c5F)c5ccc2[nH]5)C=C4)C=C3)cc1)S(C)(=O)=O
REMARK SMILES IDX 16 1 15 2 14 3 13 4 12 5 10 6 11 7 9 8 2 9 1 10 3 11 4 12
REMARK SMILES IDX 8 13 5 14 7 15 6 16 84 17 85 18 86 19 87 20 17 21 18 22
REMARK SMILES IDX 19 23 20 24 21 25 22 26 83 27 23 28 82 29 24 30 25 31 26 32
REMARK SMILES IDX 76 33 27 34 81 35 75 36 77 37 28 38 80 39 74 40 73 41 29 43
REMARK SMILES IDX 61 44 41 45 60 46 42 47 45 48 59 49 78 50 43 51 44 52 58 54
REMARK SMILES IDX 79 55 46 56 30 57 31 58 39 59 32 60 34 61 40 62 33 63 35 64
REMARK SMILES IDX 36 65 37 66 38 67 62 68 63 69 71 70 64 71 66 72 72 73 65 74
REMARK SMILES IDX 67 75 68 76 69 77 70 78 47 79 48 80 56 81 49 82 51 83 57 84
REMARK SMILES IDX 50 85 52 86 53 87 54 88 55 89
REMARK H PARENT 77 42 45 53
REMARK Flexibility Score: inf
ROOT
ATOM      1  C   UNL A   1      35.679  20.327  24.886  1.00  0.00     0.202 C 
ENDROOT
BRANCH   1   2
ATOM      2  O   UNL A   1      35.032  21.093  25.900  1.00  0.00    -0.374 OA
BRANCH   2   3
ATOM      3  C   UNL A   1      33.614  21.218  25.818  1.00  0.00     0.202 C 
BRANCH   3   4
ATOM      4  C   UNL A   1      32.902  22.032  26.905  1.00  0.00     0.261 C 
BRANCH   4   5
ATOM      5  O   UNL A   1      32.888  23.448  26.637  1.00  0.00    -0.462 OA
BRANCH   5   6
ATOM      6  C   UNL A   1      31.915  23.862  25.773  1.00  0.00     0.328 C 
ATOM      7  O   UNL A   1      30.903  23.209  25.546  1.00  0.00    -0.250 OA
BRANCH   6   8
ATOM      8  C   UNL A   1      32.249  25.165  25.058  1.00  0.00     0.247 C 
BRANCH   8   9
ATOM      9  C   UNL A   1      31.138  26.211  24.893  1.00  0.00    -0.019 C 
ATOM     10  C   UNL A   1      30.028  26.098  24.135  1.00  0.00     0.015 C 
BRANCH   9  11
ATOM     11  C   UNL A   1      31.341  27.533  25.543  1.00  0.00    -0.021 A 
ATOM     12  C   UNL A   1      31.520  27.641  26.929  1.00  0.00     0.008 A 
ATOM     13  C   UNL A   1      31.409  28.705  24.770  1.00  0.00     0.008 A 
ATOM     14  C   UNL A   1      31.769  28.880  27.524  1.00  0.00     0.001 A 
ATOM     15  C   UNL A   1      31.671  29.942  25.366  1.00  0.00     0.001 A 
ATOM     16  C   UNL A   1      31.851  30.028  26.742  1.00  0.00     0.000 A 
ENDBRANCH   9  11
ENDBRANCH   8   9
BRANCH   8  17
ATOM     17  S   UNL A   1      32.970  24.701  23.464  1.00  0.00     0.165 S 
ATOM     18  C   UNL A   1      33.438  26.243  22.719  1.00  0.00     0.159 C 
ATOM     19  O   UNL A   1      34.232  24.012  23.678  1.00  0.00    -0.228 OA
ATOM     20  O   UNL A   1      31.957  24.111  22.604  1.00  0.00    -0.228 OA
ENDBRANCH   8  17
ENDBRANCH   6   8
ENDBRANCH   5   6
ENDBRANCH   4   5
ENDBRANCH   3   4
ENDBRANCH   2   3
ENDBRANCH   1   2
BRANCH   1  21
ATOM     21  C   UNL A   1      37.214  20.332  24.871  1.00  0.00     0.261 C 
BRANCH  21  22
ATOM     22  O   UNL A   1      37.775  21.398  25.658  1.00  0.00    -0.460 OA
BRANCH  22  23
ATOM     23  C   UNL A   1      39.028  21.165  26.117  1.00  0.00     0.338 C 
ATOM     24  O   UNL A   1      39.686  20.140  25.977  1.00  0.00    -0.246 OA
BRANCH  23  25
ATOM     25  C   UNL A   1      39.611  22.403  26.661  1.00  0.00     0.060 A 
ATOM     26  C   UNL A   1      39.126  23.619  26.160  1.00  0.00     0.016 A 
ATOM     27  C   UNL A   1      40.647  22.384  27.597  1.00  0.00     0.016 A 
ATOM     28  C   UNL A   1      39.702  24.822  26.563  1.00  0.00     0.010 A 
ATOM     29  C   UNL A   1      41.231  23.593  27.993  1.00  0.00     0.010 A 
ATOM     30  C   UNL A   1      40.782  24.814  27.455  1.00  0.00    -0.014 A 
BRANCH  30  31
ATOM     31  C   UNL A   1      41.502  26.076  27.745  1.00  0.00     0.031 A 
ATOM     32  C   UNL A   1      40.800  27.172  28.495  1.00  0.00     0.074 A 
ATOM     33  C   UNL A   1      42.769  26.246  27.329  1.00  0.00     0.049 A 
ATOM     34  N   UNL A   1      41.240  28.356  28.831  1.00  0.00    -0.248 NA
ATOM     35  C   UNL A   1      39.417  26.899  28.918  1.00  0.00     0.031 C 
ATOM     36  C   UNL A   1      43.547  25.260  26.581  1.00  0.00     0.029 A 
ATOM     37  N   UNL A   1      43.611  27.323  27.449  1.00  0.00    -0.354 N 
ATOM     38  C   UNL A   1      40.183  28.982  29.480  1.00  0.00     0.074 A 
ATOM     39  C   UNL A   1      39.076  28.049  29.481  1.00  0.00     0.031 C 
ATOM     40  C   UNL A   1      44.738  25.796  26.266  1.00  0.00     0.029 A 
ATOM     41  C   UNL A   1      44.796  27.167  26.773  1.00  0.00     0.049 A 
ATOM     42  H   UNL A   1      43.386  28.130  27.967  1.00  0.00     0.167 HD
ATOM     43  C   UNL A   1      40.142  30.214  30.040  1.00  0.00     0.034 A 
ATOM     44  C   UNL A   1      45.802  28.039  26.559  1.00  0.00     0.034 A 
ATOM     45  C   UNL A   1      41.249  31.134  30.049  1.00  0.00     0.049 A 
ATOM     46  C   UNL A   1      45.731  29.411  27.173  1.00  0.00     0.074 A 
ATOM     47  C   UNL A   1      41.333  32.374  30.655  1.00  0.00     0.029 A 
ATOM     48  N   UNL A   1      42.456  30.925  29.399  1.00  0.00    -0.354 N 
ATOM     49  N   UNL A   1      44.786  29.933  27.918  1.00  0.00    -0.248 NA
ATOM     50  C   UNL A   1      46.878  30.303  26.948  1.00  0.00     0.031 C 
ATOM     51  C   UNL A   1      42.580  32.930  30.344  1.00  0.00     0.029 A 
ATOM     52  C   UNL A   1      43.282  32.023  29.565  1.00  0.00     0.049 A 
ATOM     53  H   UNL A   1      42.691  30.113  28.894  1.00  0.00     0.167 HD
ATOM     54  C   UNL A   1      45.228  31.206  28.263  1.00  0.00     0.074 A 
ATOM     55  C   UNL A   1      46.540  31.365  27.668  1.00  0.00     0.031 C 
ATOM     56  C   UNL A   1      44.598  32.161  28.993  1.00  0.00     0.034 A 
BRANCH  43  57
ATOM     57  C   UNL A   1      38.857  30.631  30.706  1.00  0.00     0.023 A 
ATOM     58  C   UNL A   1      38.690  30.428  32.092  1.00  0.00     0.012 A 
ATOM     59  C   UNL A   1      37.827  31.247  29.970  1.00  0.00     0.148 A 
ATOM     60  C   UNL A   1      37.504  30.795  32.726  1.00  0.00     0.002 A 
ATOM     61  C   UNL A   1      36.664  31.649  30.618  1.00  0.00     0.091 A 
ATOM     62  F   UNL A   1      37.990  31.408  28.650  1.00  0.00    -0.205 F 
ATOM     63  C   UNL A   1      36.495  31.412  31.992  1.00  0.00     0.022 A 
BRANCH  61  64
ATOM     64  S   UNL A   1      35.341  32.515  29.765  1.00  0.00     0.127 S 
ATOM     65  O   UNL A   1      34.977  31.551  28.728  1.00  0.00    -0.237 OA
ATOM     66  O   UNL A   1      34.343  32.677  30.823  1.00  0.00    -0.237 OA
ATOM     67  O   UNL A   1      35.924  33.762  29.291  1.00  0.00    -0.744 OA
ENDBRANCH  61  64
ENDBRANCH  43  57
BRANCH  44  68
ATOM     68  C   UNL A   1      46.963  27.619  25.727  1.00  0.00     0.023 A 
ATOM     69  C   UNL A   1      46.955  27.853  24.340  1.00  0.00     0.012 A 
ATOM     70  C   UNL A   1      48.106  27.050  26.324  1.00  0.00     0.148 A 
ATOM     71  C   UNL A   1      48.061  27.515  23.558  1.00  0.00     0.002 A 
ATOM     72  C   UNL A   1      49.225  26.769  25.551  1.00  0.00     0.091 A 
ATOM     73  F   UNL A   1      48.084  26.821  27.646  1.00  0.00    -0.205 F 
ATOM     74  C   UNL A   1      49.200  26.987  24.164  1.00  0.00     0.022 A 
BRANCH  72  75
ATOM     75  S   UNL A   1      50.779  26.222  26.266  1.00  0.00     0.127 S 
ATOM     76  O   UNL A   1      51.071  27.299  27.208  1.00  0.00    -0.237 OA
ATOM     77  O   UNL A   1      50.395  24.951  26.882  1.00  0.00    -0.237 OA
ATOM     78  O   UNL A   1      51.705  26.092  25.149  1.00  0.00    -0.744 OA
ENDBRANCH  72  75
ENDBRANCH  44  68
BRANCH  56  79
ATOM     79  C   UNL A   1      45.314  33.472  29.196  1.00  0.00     0.023 A 
ATOM     80  C   UNL A   1      46.177  33.627  30.299  1.00  0.00     0.012 A 
ATOM     81  C   UNL A   1      45.199  34.515  28.256  1.00  0.00     0.148 A 
ATOM     82  C   UNL A   1      46.893  34.811  30.478  1.00  0.00     0.002 A 
ATOM     83  C   UNL A   1      45.951  35.674  28.416  1.00  0.00     0.091 A 
ATOM     84  F   UNL A   1      44.359  34.354  27.223  1.00  0.00    -0.205 F 
ATOM     85  C   UNL A   1      46.790  35.828  29.531  1.00  0.00     0.022 A 
BRANCH  83  86
ATOM     86  S   UNL A   1      45.954  36.999  27.202  1.00  0.00     0.127 S 
ATOM     87  O   UNL A   1      46.880  37.955  27.807  1.00  0.00    -0.237 OA
ATOM     88  O   UNL A   1      46.466  36.325  26.008  1.00  0.00    -0.237 OA
ATOM     89  O   UNL A   1      44.573  37.450  27.097  1.00  0.00    -0.744 OA
ENDBRANCH  83  86
ENDBRANCH  56  79
ENDBRANCH  30  31
ENDBRANCH  23  25
ENDBRANCH  22  23
ENDBRANCH  21  22
ENDBRANCH   1  21
TORSDOF 20
ENDMDL
