MODEL 1
REMARK VINA RESULT:     -11.6      0.000      0.000
REMARK SMILES Cc1cc(Cl)ccc1Oc1cc(C)c(N)c(C(=O)OCCOCCOC(=O)c2ccc(-c3c4nc(c(-c5cccc(S(=O)(=O)[O-])c5F)c5ccc([nH]5)c(-c5cccc(S(=O)(=O)[O-])c5F)c5nc(c(-c6cccc(S(=O)(=O)[O-])c6F)c6ccc3[nH]6)C=C5)C=C4)cc2)c1
REMARK SMILES IDX 23 1 22 2 21 3 20 4 19 5 17 6 18 7 16 8 10 9 11 10 91 11
REMARK SMILES IDX 12 12 13 13 14 14 9 15 8 16 1 17 2 18 3 19 4 20 7 21 5 22
REMARK SMILES IDX 6 23 15 24 24 27 25 28 26 29 27 30 28 31 29 32 90 33 30 34
REMARK SMILES IDX 89 35 31 36 32 37 33 38 83 39 34 40 88 41 82 42 84 43 35 44
REMARK SMILES IDX 87 45 81 46 80 47 36 49 68 50 48 51 67 52 49 53 52 54 66 55
REMARK SMILES IDX 85 56 50 57 51 58 65 60 86 61 53 62 37 63 38 64 46 65 39 66
REMARK SMILES IDX 41 67 47 68 40 69 42 70 43 71 44 72 45 73 69 74 70 75 78 76
REMARK SMILES IDX 71 77 73 78 79 79 72 80 74 81 75 82 76 83 77 84 54 85 55 86
REMARK SMILES IDX 63 87 56 88 58 89 64 90 57 91 59 92 60 93 61 94 62 95
REMARK H PARENT 15 25 15 26 84 48 52 59
REMARK Flexibility Score: inf
ROOT
ATOM      1  C   UNL A   1      31.559  29.872  25.356  1.00  0.00     0.202 C 
ENDROOT
BRANCH   1   2
ATOM      2  O   UNL A   1      32.750  29.084  25.409  1.00  0.00    -0.374 OA
BRANCH   2   3
ATOM      3  C   UNL A   1      33.687  29.264  24.343  1.00  0.00     0.202 C 
BRANCH   3   4
ATOM      4  C   UNL A   1      33.187  28.896  22.942  1.00  0.00     0.261 C 
BRANCH   4   5
ATOM      5  O   UNL A   1      34.018  27.890  22.340  1.00  0.00    -0.460 OA
BRANCH   5   6
ATOM      6  C   UNL A   1      33.441  26.669  22.221  1.00  0.00     0.340 C 
ATOM      7  O   UNL A   1      33.345  26.014  21.192  1.00  0.00    -0.246 OA
BRANCH   6   8
ATOM      8  C   UNL A   1      33.066  26.128  23.557  1.00  0.00     0.086 A 
ATOM      9  C   UNL A   1      33.673  25.123  25.674  1.00  0.00     0.128 A 
ATOM     10  C   UNL A   1      32.356  25.252  26.110  1.00  0.00     0.052 A 
ATOM     11  C   UNL A   1      34.041  25.617  24.422  1.00  0.00     0.065 A 
ATOM     12  C   UNL A   1      31.353  25.692  25.227  1.00  0.00    -0.024 A 
ATOM     13  C   UNL A   1      29.917  25.633  25.673  1.00  0.00     0.047 C 
ATOM     14  C   UNL A   1      31.700  26.123  23.930  1.00  0.00     0.049 A 
BRANCH   9  15
ATOM     15  O   UNL A   1      34.685  24.577  26.418  1.00  0.00    -0.457 OA
BRANCH  15  16
ATOM     16  C   UNL A   1      35.285  23.374  26.105  1.00  0.00     0.130 A 
ATOM     17  C   UNL A   1      33.315  21.736  26.483  1.00  0.00     0.048 C 
ATOM     18  C   UNL A   1      34.725  22.083  26.093  1.00  0.00    -0.007 A 
ATOM     19  C   UNL A   1      35.537  21.000  25.684  1.00  0.00     0.027 A 
ATOM     20  C   UNL A   1      36.838  21.202  25.226  1.00  0.00     0.041 A 
ATOM     21  C   UNL A   1      36.596  23.556  25.624  1.00  0.00     0.049 A 
ATOM     22  Cl  UNL A   1      37.777  19.860  24.697  1.00  0.00    -0.084 Cl
ATOM     23  C   UNL A   1      37.368  22.482  25.180  1.00  0.00     0.024 A 
ENDBRANCH  15  16
ENDBRANCH   9  15
BRANCH  14  24
ATOM     24  N   UNL A   1      30.698  26.341  22.976  1.00  0.00    -0.398 N 
ATOM     25  H   UNL A   1      30.517  27.252  22.651  1.00  0.00     0.156 HD
ATOM     26  H   UNL A   1      30.175  25.582  22.629  1.00  0.00     0.156 HD
ENDBRANCH  14  24
ENDBRANCH   6   8
ENDBRANCH   5   6
ENDBRANCH   4   5
ENDBRANCH   3   4
ENDBRANCH   2   3
ENDBRANCH   1   2
BRANCH   1  27
ATOM     27  C   UNL A   1      31.586  31.201  26.120  1.00  0.00     0.261 C 
BRANCH  27  28
ATOM     28  O   UNL A   1      32.407  31.126  27.299  1.00  0.00    -0.460 OA
BRANCH  28  29
ATOM     29  C   UNL A   1      33.203  32.202  27.500  1.00  0.00     0.338 C 
ATOM     30  O   UNL A   1      32.853  33.376  27.543  1.00  0.00    -0.246 OA
BRANCH  29  31
ATOM     31  C   UNL A   1      34.573  31.778  27.845  1.00  0.00     0.060 A 
ATOM     32  C   UNL A   1      34.764  30.419  28.123  1.00  0.00     0.016 A 
ATOM     33  C   UNL A   1      35.632  32.681  27.966  1.00  0.00     0.016 A 
ATOM     34  C   UNL A   1      35.994  29.971  28.597  1.00  0.00     0.010 A 
ATOM     35  C   UNL A   1      36.869  32.227  28.442  1.00  0.00     0.010 A 
ATOM     36  C   UNL A   1      37.039  30.880  28.807  1.00  0.00    -0.014 A 
BRANCH  36  37
ATOM     37  C   UNL A   1      38.246  30.418  29.534  1.00  0.00     0.031 A 
ATOM     38  C   UNL A   1      38.464  30.854  30.958  1.00  0.00     0.074 A 
ATOM     39  C   UNL A   1      39.117  29.578  28.949  1.00  0.00     0.049 A 
ATOM     40  N   UNL A   1      39.384  30.474  31.807  1.00  0.00    -0.248 NA
ATOM     41  C   UNL A   1      37.524  31.850  31.497  1.00  0.00     0.031 C 
ATOM     42  C   UNL A   1      39.038  29.112  27.566  1.00  0.00     0.029 A 
ATOM     43  N   UNL A   1      40.248  28.979  29.444  1.00  0.00    -0.354 N 
ATOM     44  C   UNL A   1      39.151  31.198  32.969  1.00  0.00     0.074 A 
ATOM     45  C   UNL A   1      38.014  32.056  32.711  1.00  0.00     0.031 C 
ATOM     46  C   UNL A   1      40.090  28.313  27.315  1.00  0.00     0.029 A 
ATOM     47  C   UNL A   1      40.915  28.213  28.519  1.00  0.00     0.049 A 
ATOM     48  H   UNL A   1      40.553  29.087  30.374  1.00  0.00     0.167 HD
ATOM     49  C   UNL A   1      39.808  31.142  34.152  1.00  0.00     0.034 A 
ATOM     50  C   UNL A   1      42.061  27.511  28.628  1.00  0.00     0.034 A 
ATOM     51  C   UNL A   1      40.921  30.269  34.416  1.00  0.00     0.049 A 
ATOM     52  C   UNL A   1      42.754  27.431  29.962  1.00  0.00     0.074 A 
ATOM     53  C   UNL A   1      41.601  30.077  35.606  1.00  0.00     0.029 A 
ATOM     54  N   UNL A   1      41.528  29.454  33.473  1.00  0.00    -0.354 N 
ATOM     55  N   UNL A   1      42.418  27.989  31.100  1.00  0.00    -0.248 NA
ATOM     56  C   UNL A   1      43.953  26.584  30.040  1.00  0.00     0.031 C 
ATOM     57  C   UNL A   1      42.638  29.167  35.375  1.00  0.00     0.029 A 
ATOM     58  C   UNL A   1      42.586  28.770  34.048  1.00  0.00     0.049 A 
ATOM     59  H   UNL A   1      41.249  29.375  32.532  1.00  0.00     0.167 HD
ATOM     60  C   UNL A   1      43.342  27.537  32.036  1.00  0.00     0.074 A 
ATOM     61  C   UNL A   1      44.240  26.642  31.335  1.00  0.00     0.031 C 
ATOM     62  C   UNL A   1      43.444  27.844  33.353  1.00  0.00     0.034 A 
BRANCH  49  63
ATOM     63  C   UNL A   1      39.319  32.031  35.264  1.00  0.00     0.023 A 
ATOM     64  C   UNL A   1      38.350  31.551  36.169  1.00  0.00     0.012 A 
ATOM     65  C   UNL A   1      39.846  33.325  35.440  1.00  0.00     0.148 A 
ATOM     66  C   UNL A   1      37.888  32.356  37.210  1.00  0.00     0.002 A 
ATOM     67  C   UNL A   1      39.412  34.107  36.505  1.00  0.00     0.091 A 
ATOM     68  F   UNL A   1      40.746  33.776  34.554  1.00  0.00    -0.205 F 
ATOM     69  C   UNL A   1      38.427  33.629  37.384  1.00  0.00     0.022 A 
BRANCH  67  70
ATOM     70  S   UNL A   1      40.106  35.727  36.851  1.00  0.00     0.127 S 
ATOM     71  O   UNL A   1      39.666  36.492  35.685  1.00  0.00    -0.237 OA
ATOM     72  O   UNL A   1      39.441  36.089  38.104  1.00  0.00    -0.237 OA
ATOM     73  O   UNL A   1      41.543  35.527  36.968  1.00  0.00    -0.744 OA
ENDBRANCH  67  70
ENDBRANCH  49  63
BRANCH  50  74
ATOM     74  C   UNL A   1      42.584  26.782  27.439  1.00  0.00     0.023 A 
ATOM     75  C   UNL A   1      43.432  27.441  26.529  1.00  0.00     0.012 A 
ATOM     76  C   UNL A   1      42.289  25.419  27.242  1.00  0.00     0.148 A 
ATOM     77  C   UNL A   1      43.962  26.761  25.432  1.00  0.00     0.002 A 
ATOM     78  C   UNL A   1      42.864  24.733  26.179  1.00  0.00     0.091 A 
ATOM     79  F   UNL A   1      41.466  24.816  28.112  1.00  0.00    -0.205 F 
ATOM     80  C   UNL A   1      43.689  25.405  25.264  1.00  0.00     0.022 A 
BRANCH  78  81
ATOM     81  S   UNL A   1      42.681  22.959  25.969  1.00  0.00     0.127 S 
ATOM     82  O   UNL A   1      43.485  22.442  27.074  1.00  0.00    -0.237 OA
ATOM     83  O   UNL A   1      41.236  22.785  26.125  1.00  0.00    -0.237 OA
ATOM     84  O   UNL A   1      43.178  22.666  24.632  1.00  0.00    -0.744 OA
ENDBRANCH  78  81
ENDBRANCH  50  74
BRANCH  62  85
ATOM     85  C   UNL A   1      44.550  27.191  34.143  1.00  0.00     0.023 A 
ATOM     86  C   UNL A   1      45.787  27.848  34.293  1.00  0.00     0.012 A 
ATOM     87  C   UNL A   1      44.339  25.960  34.796  1.00  0.00     0.148 A 
ATOM     88  C   UNL A   1      46.808  27.274  35.052  1.00  0.00     0.002 A 
ATOM     89  C   UNL A   1      45.344  25.417  35.589  1.00  0.00     0.091 A 
ATOM     90  F   UNL A   1      43.164  25.338  34.626  1.00  0.00    -0.205 F 
ATOM     91  C   UNL A   1      46.582  26.066  35.708  1.00  0.00     0.022 A 
BRANCH  89  92
ATOM     92  S   UNL A   1      45.100  23.916  36.545  1.00  0.00     0.127 S 
ATOM     93  O   UNL A   1      46.461  23.385  36.619  1.00  0.00    -0.237 OA
ATOM     94  O   UNL A   1      44.577  24.430  37.811  1.00  0.00    -0.237 OA
ATOM     95  O   UNL A   1      44.151  23.112  35.786  1.00  0.00    -0.744 OA
ENDBRANCH  89  92
ENDBRANCH  62  85
ENDBRANCH  36  37
ENDBRANCH  29  31
ENDBRANCH  28  29
ENDBRANCH  27  28
ENDBRANCH   1  27
TORSDOF 20
ENDMDL
MODEL 2
REMARK VINA RESULT:     -11.5      1.394      1.882
REMARK SMILES Cc1cc(Cl)ccc1Oc1cc(C)c(N)c(C(=O)OCCOCCOC(=O)c2ccc(-c3c4nc(c(-c5cccc(S(=O)(=O)[O-])c5F)c5ccc([nH]5)c(-c5cccc(S(=O)(=O)[O-])c5F)c5nc(c(-c6cccc(S(=O)(=O)[O-])c6F)c6ccc3[nH]6)C=C5)C=C4)cc2)c1
REMARK SMILES IDX 23 1 22 2 21 3 20 4 19 5 17 6 18 7 16 8 10 9 11 10 91 11
REMARK SMILES IDX 12 12 13 13 14 14 9 15 8 16 1 17 2 18 3 19 4 20 7 21 5 22
REMARK SMILES IDX 6 23 15 24 24 27 25 28 26 29 27 30 28 31 29 32 90 33 30 34
REMARK SMILES IDX 89 35 31 36 32 37 33 38 83 39 34 40 88 41 82 42 84 43 35 44
REMARK SMILES IDX 87 45 81 46 80 47 36 49 68 50 48 51 67 52 49 53 52 54 66 55
REMARK SMILES IDX 85 56 50 57 51 58 65 60 86 61 53 62 37 63 38 64 46 65 39 66
REMARK SMILES IDX 41 67 47 68 40 69 42 70 43 71 44 72 45 73 69 74 70 75 78 76
REMARK SMILES IDX 71 77 73 78 79 79 72 80 74 81 75 82 76 83 77 84 54 85 55 86
REMARK SMILES IDX 63 87 56 88 58 89 64 90 57 91 59 92 60 93 61 94 62 95
REMARK H PARENT 15 25 15 26 84 48 52 59
REMARK Flexibility Score: inf
ROOT
ATOM      1  C   UNL A   1      32.166  29.241  25.806  1.00  0.00     0.202 C 
ENDROOT
BRANCH   1   2
ATOM      2  O   UNL A   1      32.156  28.952  24.406  1.00  0.00    -0.374 OA
BRANCH   2   3
ATOM      3  C   UNL A   1      33.355  29.242  23.682  1.00  0.00     0.202 C 
BRANCH   3   4
ATOM      4  C   UNL A   1      33.528  28.510  22.348  1.00  0.00     0.261 C 
BRANCH   4   5
ATOM      5  O   UNL A   1      34.215  27.260  22.524  1.00  0.00    -0.460 OA
BRANCH   5   6
ATOM      6  C   UNL A   1      33.455  26.156  22.323  1.00  0.00     0.340 C 
ATOM      7  O   UNL A   1      33.245  25.612  21.246  1.00  0.00    -0.246 OA
BRANCH   6   8
ATOM      8  C   UNL A   1      33.017  25.569  23.619  1.00  0.00     0.086 A 
ATOM      9  C   UNL A   1      33.456  24.218  25.580  1.00  0.00     0.128 A 
ATOM     10  C   UNL A   1      32.227  24.598  26.114  1.00  0.00     0.052 A 
ATOM     11  C   UNL A   1      33.878  24.751  24.361  1.00  0.00     0.065 A 
ATOM     12  C   UNL A   1      31.322  25.357  25.349  1.00  0.00    -0.024 A 
ATOM     13  C   UNL A   1      29.933  25.583  25.883  1.00  0.00     0.047 C 
ATOM     14  C   UNL A   1      31.706  25.839  24.082  1.00  0.00     0.049 A 
BRANCH   9  15
ATOM     15  O   UNL A   1      34.339  23.371  26.195  1.00  0.00    -0.457 OA
BRANCH  15  16
ATOM     16  C   UNL A   1      34.655  22.123  25.699  1.00  0.00     0.130 A 
ATOM     17  C   UNL A   1      37.237  22.290  25.575  1.00  0.00     0.048 C 
ATOM     18  C   UNL A   1      35.922  21.575  25.423  1.00  0.00    -0.007 A 
ATOM     19  C   UNL A   1      35.993  20.241  24.962  1.00  0.00     0.027 A 
ATOM     20  C   UNL A   1      34.852  19.449  24.853  1.00  0.00     0.041 A 
ATOM     21  C   UNL A   1      33.516  21.300  25.596  1.00  0.00     0.049 A 
ATOM     22  Cl  UNL A   1      34.989  17.816  24.328  1.00  0.00    -0.084 Cl
ATOM     23  C   UNL A   1      33.610  19.970  25.184  1.00  0.00     0.024 A 
ENDBRANCH  15  16
ENDBRANCH   9  15
BRANCH  14  24
ATOM     24  N   UNL A   1      30.746  26.390  23.223  1.00  0.00    -0.398 N 
ATOM     25  H   UNL A   1      30.566  27.358  23.243  1.00  0.00     0.156 HD
ATOM     26  H   UNL A   1      30.252  25.810  22.599  1.00  0.00     0.156 HD
ENDBRANCH  14  24
ENDBRANCH   6   8
ENDBRANCH   5   6
ENDBRANCH   4   5
ENDBRANCH   3   4
ENDBRANCH   2   3
ENDBRANCH   1   2
BRANCH   1  27
ATOM     27  C   UNL A   1      32.408  30.702  26.198  1.00  0.00     0.261 C 
BRANCH  27  28
ATOM     28  O   UNL A   1      32.903  30.822  27.544  1.00  0.00    -0.460 OA
BRANCH  28  29
ATOM     29  C   UNL A   1      33.725  31.877  27.749  1.00  0.00     0.338 C 
ATOM     30  O   UNL A   1      33.399  33.056  27.836  1.00  0.00    -0.246 OA
BRANCH  29  31
ATOM     31  C   UNL A   1      35.096  31.419  28.038  1.00  0.00     0.060 A 
ATOM     32  C   UNL A   1      35.271  30.051  28.275  1.00  0.00     0.016 A 
ATOM     33  C   UNL A   1      36.176  32.300  28.148  1.00  0.00     0.016 A 
ATOM     34  C   UNL A   1      36.506  29.568  28.697  1.00  0.00     0.010 A 
ATOM     35  C   UNL A   1      37.419  31.811  28.573  1.00  0.00     0.010 A 
ATOM     36  C   UNL A   1      37.574  30.451  28.897  1.00  0.00    -0.014 A 
BRANCH  36  37
ATOM     37  C   UNL A   1      38.795  29.949  29.572  1.00  0.00     0.031 A 
ATOM     38  C   UNL A   1      39.144  30.458  30.945  1.00  0.00     0.074 A 
ATOM     39  C   UNL A   1      39.561  29.009  28.990  1.00  0.00     0.049 A 
ATOM     40  N   UNL A   1      40.093  30.065  31.755  1.00  0.00    -0.248 NA
ATOM     41  C   UNL A   1      38.317  31.554  31.475  1.00  0.00     0.031 C 
ATOM     42  C   UNL A   1      39.351  28.462  27.652  1.00  0.00     0.029 A 
ATOM     43  N   UNL A   1      40.679  28.360  29.450  1.00  0.00    -0.354 N 
ATOM     44  C   UNL A   1      39.995  30.879  32.877  1.00  0.00     0.074 A 
ATOM     45  C   UNL A   1      38.906  31.801  32.636  1.00  0.00     0.031 C 
ATOM     46  C   UNL A   1      40.323  27.572  27.388  1.00  0.00     0.029 A 
ATOM     47  C   UNL A   1      41.223  27.489  28.538  1.00  0.00     0.049 A 
ATOM     48  H   UNL A   1      41.056  28.505  30.348  1.00  0.00     0.167 HD
ATOM     49  C   UNL A   1      40.730  30.850  34.014  1.00  0.00     0.034 A 
ATOM     50  C   UNL A   1      42.322  26.712  28.619  1.00  0.00     0.034 A 
ATOM     51  C   UNL A   1      41.795  29.916  34.264  1.00  0.00     0.049 A 
ATOM     52  C   UNL A   1      43.100  26.666  29.907  1.00  0.00     0.074 A 
ATOM     53  C   UNL A   1      42.543  29.751  35.417  1.00  0.00     0.029 A 
ATOM     54  N   UNL A   1      42.274  28.999  33.342  1.00  0.00    -0.354 N 
ATOM     55  N   UNL A   1      42.887  27.320  31.023  1.00  0.00    -0.248 NA
ATOM     56  C   UNL A   1      44.240  25.738  29.964  1.00  0.00     0.031 C 
ATOM     57  C   UNL A   1      43.494  28.753  35.181  1.00  0.00     0.029 A 
ATOM     58  C   UNL A   1      43.319  28.275  33.891  1.00  0.00     0.049 A 
ATOM     59  H   UNL A   1      41.924  28.880  32.429  1.00  0.00     0.167 HD
ATOM     60  C   UNL A   1      43.842  26.861  31.924  1.00  0.00     0.074 A 
ATOM     61  C   UNL A   1      44.622  25.858  31.229  1.00  0.00     0.031 C 
ATOM     62  C   UNL A   1      44.059  27.245  33.207  1.00  0.00     0.034 A 
BRANCH  49  63
ATOM     63  C   UNL A   1      40.385  31.844  35.092  1.00  0.00     0.023 A 
ATOM     64  C   UNL A   1      41.128  33.037  35.208  1.00  0.00     0.012 A 
ATOM     65  C   UNL A   1      39.301  31.619  35.962  1.00  0.00     0.148 A 
ATOM     66  C   UNL A   1      40.820  33.973  36.195  1.00  0.00     0.002 A 
ATOM     67  C   UNL A   1      38.974  32.576  36.917  1.00  0.00     0.091 A 
ATOM     68  F   UNL A   1      38.623  30.467  35.856  1.00  0.00    -0.205 F 
ATOM     69  C   UNL A   1      39.738  33.747  37.041  1.00  0.00     0.022 A 
BRANCH  67  70
ATOM     70  S   UNL A   1      37.549  32.405  37.997  1.00  0.00     0.127 S 
ATOM     71  O   UNL A   1      37.989  33.137  39.184  1.00  0.00    -0.237 OA
ATOM     72  O   UNL A   1      36.494  33.068  37.228  1.00  0.00    -0.237 OA
ATOM     73  O   UNL A   1      37.355  30.973  38.175  1.00  0.00    -0.744 OA
ENDBRANCH  67  70
ENDBRANCH  49  63
BRANCH  50  74
ATOM     74  C   UNL A   1      42.706  25.870  27.452  1.00  0.00     0.023 A 
ATOM     75  C   UNL A   1      43.598  26.374  26.487  1.00  0.00     0.012 A 
ATOM     76  C   UNL A   1      42.234  24.548  27.329  1.00  0.00     0.148 A 
ATOM     77  C   UNL A   1      43.998  25.584  25.409  1.00  0.00     0.002 A 
ATOM     78  C   UNL A   1      42.679  23.748  26.285  1.00  0.00     0.091 A 
ATOM     79  F   UNL A   1      41.372  24.095  28.251  1.00  0.00    -0.205 F 
ATOM     80  C   UNL A   1      43.550  24.269  25.314  1.00  0.00     0.022 A 
BRANCH  78  81
ATOM     81  S   UNL A   1      42.265  22.005  26.165  1.00  0.00     0.127 S 
ATOM     82  O   UNL A   1      40.827  22.055  25.916  1.00  0.00    -0.237 OA
ATOM     83  O   UNL A   1      43.075  21.581  25.022  1.00  0.00    -0.237 OA
ATOM     84  O   UNL A   1      42.667  21.416  27.435  1.00  0.00    -0.744 OA
ENDBRANCH  78  81
ENDBRANCH  50  74
BRANCH  62  85
ATOM     85  C   UNL A   1      45.170  26.563  33.965  1.00  0.00     0.023 A 
ATOM     86  C   UNL A   1      46.490  27.044  33.859  1.00  0.00     0.012 A 
ATOM     87  C   UNL A   1      44.894  25.492  34.839  1.00  0.00     0.148 A 
ATOM     88  C   UNL A   1      47.523  26.448  34.582  1.00  0.00     0.002 A 
ATOM     89  C   UNL A   1      45.920  24.933  35.593  1.00  0.00     0.091 A 
ATOM     90  F   UNL A   1      43.637  25.033  34.913  1.00  0.00    -0.205 F 
ATOM     91  C   UNL A   1      47.237  25.402  35.456  1.00  0.00     0.022 A 
BRANCH  89  92
ATOM     92  S   UNL A   1      45.620  23.649  36.812  1.00  0.00     0.127 S 
ATOM     93  O   UNL A   1      44.650  24.296  37.693  1.00  0.00    -0.237 OA
ATOM     94  O   UNL A   1      45.075  22.563  35.998  1.00  0.00    -0.237 OA
ATOM     95  O   UNL A   1      46.917  23.358  37.409  1.00  0.00    -0.744 OA
ENDBRANCH  89  92
ENDBRANCH  62  85
ENDBRANCH  36  37
ENDBRANCH  29  31
ENDBRANCH  28  29
ENDBRANCH  27  28
ENDBRANCH   1  27
TORSDOF 20
ENDMDL
MODEL 3
REMARK VINA RESULT:     -11.4      4.765     10.184
REMARK SMILES Cc1cc(Cl)ccc1Oc1cc(C)c(N)c(C(=O)OCCOCCOC(=O)c2ccc(-c3c4nc(c(-c5cccc(S(=O)(=O)[O-])c5F)c5ccc([nH]5)c(-c5cccc(S(=O)(=O)[O-])c5F)c5nc(c(-c6cccc(S(=O)(=O)[O-])c6F)c6ccc3[nH]6)C=C5)C=C4)cc2)c1
REMARK SMILES IDX 23 1 22 2 21 3 20 4 19 5 17 6 18 7 16 8 10 9 11 10 91 11
REMARK SMILES IDX 12 12 13 13 14 14 9 15 8 16 1 17 2 18 3 19 4 20 7 21 5 22
REMARK SMILES IDX 6 23 15 24 24 27 25 28 26 29 27 30 28 31 29 32 90 33 30 34
REMARK SMILES IDX 89 35 31 36 32 37 33 38 83 39 34 40 88 41 82 42 84 43 35 44
REMARK SMILES IDX 87 45 81 46 80 47 36 49 68 50 48 51 67 52 49 53 52 54 66 55
REMARK SMILES IDX 85 56 50 57 51 58 65 60 86 61 53 62 37 63 38 64 46 65 39 66
REMARK SMILES IDX 41 67 47 68 40 69 42 70 43 71 44 72 45 73 69 74 70 75 78 76
REMARK SMILES IDX 71 77 73 78 79 79 72 80 74 81 75 82 76 83 77 84 54 85 55 86
REMARK SMILES IDX 63 87 56 88 58 89 64 90 57 91 59 92 60 93 61 94 62 95
REMARK H PARENT 15 25 15 26 84 48 52 59
REMARK Flexibility Score: inf
ROOT
ATOM      1  C   UNL A   1      35.768  20.904  24.817  1.00  0.00     0.202 C 
ENDROOT
BRANCH   1   2
ATOM      2  O   UNL A   1      35.020  21.141  26.011  1.00  0.00    -0.374 OA
BRANCH   2   3
ATOM      3  C   UNL A   1      35.310  22.347  26.722  1.00  0.00     0.202 C 
BRANCH   3   4
ATOM      4  C   UNL A   1      34.196  22.875  27.632  1.00  0.00     0.261 C 
BRANCH   4   5
ATOM      5  O   UNL A   1      32.964  22.167  27.413  1.00  0.00    -0.460 OA
BRANCH   5   6
ATOM      6  C   UNL A   1      31.958  22.916  26.899  1.00  0.00     0.340 C 
ATOM      7  O   UNL A   1      31.183  23.617  27.537  1.00  0.00    -0.246 OA
BRANCH   6   8
ATOM      8  C   UNL A   1      32.001  22.914  25.411  1.00  0.00     0.086 A 
ATOM      9  C   UNL A   1      32.002  24.095  23.298  1.00  0.00     0.128 A 
ATOM     10  C   UNL A   1      32.226  22.893  22.629  1.00  0.00     0.052 A 
ATOM     11  C   UNL A   1      31.951  24.114  24.692  1.00  0.00     0.065 A 
ATOM     12  C   UNL A   1      32.204  21.673  23.330  1.00  0.00    -0.024 A 
ATOM     13  C   UNL A   1      32.256  20.388  22.549  1.00  0.00     0.047 C 
ATOM     14  C   UNL A   1      32.075  21.673  24.734  1.00  0.00     0.049 A 
BRANCH   9  15
ATOM     15  O   UNL A   1      31.872  25.310  22.681  1.00  0.00    -0.457 OA
BRANCH  15  16
ATOM     16  C   UNL A   1      31.851  26.506  23.371  1.00  0.00     0.130 A 
ATOM     17  C   UNL A   1      29.309  26.783  23.785  1.00  0.00     0.048 C 
ATOM     18  C   UNL A   1      30.749  27.200  23.906  1.00  0.00    -0.007 A 
ATOM     19  C   UNL A   1      30.989  28.394  24.622  1.00  0.00     0.027 A 
ATOM     20  C   UNL A   1      32.285  28.845  24.869  1.00  0.00     0.041 A 
ATOM     21  C   UNL A   1      33.152  26.972  23.645  1.00  0.00     0.049 A 
ATOM     22  Cl  UNL A   1      32.533  30.282  25.783  1.00  0.00    -0.084 Cl
ATOM     23  C   UNL A   1      33.372  28.128  24.394  1.00  0.00     0.024 A 
ENDBRANCH  15  16
ENDBRANCH   9  15
BRANCH  14  24
ATOM     24  N   UNL A   1      31.821  20.473  25.411  1.00  0.00    -0.398 N 
ATOM     25  H   UNL A   1      31.821  19.620  24.920  1.00  0.00     0.156 HD
ATOM     26  H   UNL A   1      31.643  20.483  26.380  1.00  0.00     0.156 HD
ENDBRANCH  14  24
ENDBRANCH   6   8
ENDBRANCH   5   6
ENDBRANCH   4   5
ENDBRANCH   3   4
ENDBRANCH   2   3
ENDBRANCH   1   2
BRANCH   1  27
ATOM     27  C   UNL A   1      37.147  20.260  24.993  1.00  0.00     0.261 C 
BRANCH  27  28
ATOM     28  O   UNL A   1      38.197  21.243  25.041  1.00  0.00    -0.460 OA
BRANCH  28  29
ATOM     29  C   UNL A   1      39.211  20.942  25.885  1.00  0.00     0.338 C 
ATOM     30  O   UNL A   1      39.802  19.871  25.969  1.00  0.00    -0.246 OA
BRANCH  29  31
ATOM     31  C   UNL A   1      39.661  22.146  26.606  1.00  0.00     0.060 A 
ATOM     32  C   UNL A   1      39.128  23.371  26.189  1.00  0.00     0.016 A 
ATOM     33  C   UNL A   1      40.627  22.102  27.615  1.00  0.00     0.016 A 
ATOM     34  C   UNL A   1      39.614  24.561  26.723  1.00  0.00     0.010 A 
ATOM     35  C   UNL A   1      41.114  23.301  28.152  1.00  0.00     0.010 A 
ATOM     36  C   UNL A   1      40.645  24.537  27.671  1.00  0.00    -0.014 A 
BRANCH  36  37
ATOM     37  C   UNL A   1      41.302  25.814  28.039  1.00  0.00     0.031 A 
ATOM     38  C   UNL A   1      42.710  26.080  27.579  1.00  0.00     0.074 A 
ATOM     39  C   UNL A   1      40.635  26.751  28.735  1.00  0.00     0.049 A 
ATOM     40  N   UNL A   1      43.422  27.172  27.689  1.00  0.00    -0.248 NA
ATOM     41  C   UNL A   1      43.409  24.972  26.910  1.00  0.00     0.031 C 
ATOM     42  C   UNL A   1      39.282  26.601  29.267  1.00  0.00     0.029 A 
ATOM     43  N   UNL A   1      41.013  28.012  29.123  1.00  0.00    -0.354 N 
ATOM     44  C   UNL A   1      44.658  26.877  27.127  1.00  0.00     0.074 A 
ATOM     45  C   UNL A   1      44.606  25.497  26.695  1.00  0.00     0.031 C 
ATOM     46  C   UNL A   1      38.950  27.720  29.933  1.00  0.00     0.029 A 
ATOM     47  C   UNL A   1      40.066  28.664  29.874  1.00  0.00     0.049 A 
ATOM     48  H   UNL A   1      41.882  28.411  28.886  1.00  0.00     0.167 HD
ATOM     49  C   UNL A   1      45.733  27.685  26.966  1.00  0.00     0.034 A 
ATOM     50  C   UNL A   1      40.093  29.883  30.449  1.00  0.00     0.034 A 
ATOM     51  C   UNL A   1      45.774  29.064  27.372  1.00  0.00     0.049 A 
ATOM     52  C   UNL A   1      41.281  30.779  30.224  1.00  0.00     0.074 A 
ATOM     53  C   UNL A   1      46.785  29.989  27.178  1.00  0.00     0.029 A 
ATOM     54  N   UNL A   1      44.767  29.713  28.070  1.00  0.00    -0.354 N 
ATOM     55  N   UNL A   1      42.375  30.542  29.539  1.00  0.00    -0.248 NA
ATOM     56  C   UNL A   1      41.219  32.127  30.806  1.00  0.00     0.031 C 
ATOM     57  C   UNL A   1      46.400  31.191  27.784  1.00  0.00     0.029 A 
ATOM     58  C   UNL A   1      45.138  31.022  28.330  1.00  0.00     0.049 A 
ATOM     59  H   UNL A   1      43.915  29.304  28.343  1.00  0.00     0.167 HD
ATOM     60  C   UNL A   1      43.115  31.719  29.580  1.00  0.00     0.074 A 
ATOM     61  C   UNL A   1      42.336  32.674  30.341  1.00  0.00     0.031 C 
ATOM     62  C   UNL A   1      44.334  31.980  29.046  1.00  0.00     0.034 A 
BRANCH  49  63
ATOM     63  C   UNL A   1      46.947  27.103  26.292  1.00  0.00     0.023 A 
ATOM     64  C   UNL A   1      47.076  27.186  24.890  1.00  0.00     0.012 A 
ATOM     65  C   UNL A   1      47.979  26.513  27.047  1.00  0.00     0.148 A 
ATOM     66  C   UNL A   1      48.196  26.659  24.247  1.00  0.00     0.002 A 
ATOM     67  C   UNL A   1      49.112  26.027  26.403  1.00  0.00     0.091 A 
ATOM     68  F   UNL A   1      47.828  26.418  28.376  1.00  0.00    -0.205 F 
ATOM     69  C   UNL A   1      49.218  26.090  25.004  1.00  0.00     0.022 A 
BRANCH  67  70
ATOM     70  S   UNL A   1      50.511  25.349  27.302  1.00  0.00     0.127 S 
ATOM     71  O   UNL A   1      49.902  24.204  27.977  1.00  0.00    -0.237 OA
ATOM     72  O   UNL A   1      51.436  24.999  26.223  1.00  0.00    -0.237 OA
ATOM     73  O   UNL A   1      50.979  26.418  28.173  1.00  0.00    -0.744 OA
ENDBRANCH  67  70
ENDBRANCH  49  63
BRANCH  50  74
ATOM     74  C   UNL A   1      38.920  30.339  31.246  1.00  0.00     0.023 A 
ATOM     75  C   UNL A   1      38.854  30.054  32.623  1.00  0.00     0.012 A 
ATOM     76  C   UNL A   1      37.899  31.105  30.651  1.00  0.00     0.148 A 
ATOM     77  C   UNL A   1      37.781  30.508  33.391  1.00  0.00     0.002 A 
ATOM     78  C   UNL A   1      36.862  31.601  31.432  1.00  0.00     0.091 A 
ATOM     79  F   UNL A   1      37.974  31.350  29.335  1.00  0.00    -0.205 F 
ATOM     80  C   UNL A   1      36.792  31.291  32.799  1.00  0.00     0.022 A 
BRANCH  78  81
ATOM     81  S   UNL A   1      35.627  32.732  30.783  1.00  0.00     0.127 S 
ATOM     82  O   UNL A   1      34.877  33.079  31.988  1.00  0.00    -0.237 OA
ATOM     83  O   UNL A   1      36.459  33.808  30.243  1.00  0.00    -0.237 OA
ATOM     84  O   UNL A   1      34.892  31.980  29.776  1.00  0.00    -0.744 OA
ENDBRANCH  78  81
ENDBRANCH  50  74
BRANCH  62  85
ATOM     85  C   UNL A   1      44.902  33.364  29.236  1.00  0.00     0.023 A 
ATOM     86  C   UNL A   1      45.622  33.672  30.408  1.00  0.00     0.012 A 
ATOM     87  C   UNL A   1      44.785  34.337  28.223  1.00  0.00     0.148 A 
ATOM     88  C   UNL A   1      46.186  34.936  30.583  1.00  0.00     0.002 A 
ATOM     89  C   UNL A   1      45.389  35.578  28.384  1.00  0.00     0.091 A 
ATOM     90  F   UNL A   1      44.079  34.034  27.124  1.00  0.00    -0.205 F 
ATOM     91  C   UNL A   1      46.079  35.884  29.568  1.00  0.00     0.022 A 
BRANCH  89  92
ATOM     92  S   UNL A   1      45.383  36.819  27.085  1.00  0.00     0.127 S 
ATOM     93  O   UNL A   1      46.001  36.094  25.977  1.00  0.00    -0.237 OA
ATOM     94  O   UNL A   1      43.955  37.090  26.915  1.00  0.00    -0.237 OA
ATOM     95  O   UNL A   1      46.148  37.944  27.607  1.00  0.00    -0.744 OA
ENDBRANCH  89  92
ENDBRANCH  62  85
ENDBRANCH  36  37
ENDBRANCH  29  31
ENDBRANCH  28  29
ENDBRANCH  27  28
ENDBRANCH   1  27
TORSDOF 20
ENDMDL
