MODEL 1
REMARK VINA RESULT:      -9.8      0.000      0.000
REMARK SMILES CS(=O)(=O)c1ccc(/C=C(/C(=O)OCCOCCOC(=O)c2ccc(-c3c4nc(c(-c5cccc(S(=O)(=O)[O-])c5F)c5ccc([nH]5)c(-c5cccc(S(=O)(=O)[O-])c5F)c5nc(c(-c6cccc(S(=O)(=O)[O-])c6F)c6ccc3[nH]6)C=C5)C=C4)cc2)c2ccc(-c3ccc(S(C)(=O)=O)cc3)cc2)cc1
REMARK SMILES IDX 16 1 15 2 14 3 13 4 11 5 12 6 10 7 9 8 8 9 5 10 6 11 102 12
REMARK SMILES IDX 7 13 101 14 2 15 1 16 3 17 4 18 85 19 86 20 100 21 87 22
REMARK SMILES IDX 99 23 88 24 89 25 90 26 98 27 91 28 97 29 92 30 93 31 94 32
REMARK SMILES IDX 95 33 96 34 17 35 18 36 19 37 20 38 21 39 22 40 23 41 84 42
REMARK SMILES IDX 24 43 83 44 25 45 26 46 27 47 77 48 28 49 82 50 76 51 78 52
REMARK SMILES IDX 29 53 81 54 75 55 74 56 30 58 62 59 42 60 61 61 43 62 46 63
REMARK SMILES IDX 60 64 79 65 44 66 45 67 59 69 80 70 47 71 31 72 32 73 40 74
REMARK SMILES IDX 33 75 35 76 41 77 34 78 36 79 37 80 38 81 39 82 63 83 64 84
REMARK SMILES IDX 72 85 65 86 67 87 73 88 66 89 68 90 69 91 70 92 71 93 48 94
REMARK SMILES IDX 49 95 57 96 50 97 52 98 58 99 51 100 53 101 54 102 55 103
REMARK SMILES IDX 56 104
REMARK H PARENT 78 57 46 68
REMARK Flexibility Score: inf
ROOT
ATOM      1  O   UNL A   1      36.390  34.769  33.261  1.00  0.00    -0.374 OA
ENDROOT
BRANCH   1   2
ATOM      2  C   UNL A   1      35.376  34.751  32.254  1.00  0.00     0.202 C 
BRANCH   2   3
ATOM      3  C   UNL A   1      35.741  34.153  30.891  1.00  0.00     0.261 C 
BRANCH   3   4
ATOM      4  O   UNL A   1      36.767  33.149  31.006  1.00  0.00    -0.460 OA
BRANCH   4   5
ATOM      5  C   UNL A   1      36.304  31.876  31.085  1.00  0.00     0.338 C 
ATOM      6  O   UNL A   1      35.462  31.471  31.877  1.00  0.00    -0.246 OA
BRANCH   5   7
ATOM      7  C   UNL A   1      36.826  31.013  29.977  1.00  0.00     0.067 C 
ATOM      8  C   UNL A   1      38.103  30.559  29.989  1.00  0.00     0.024 C 
BRANCH   8   9
ATOM      9  C   UNL A   1      38.705  29.495  29.138  1.00  0.00    -0.025 A 
ATOM     10  C   UNL A   1      40.275  27.774  27.559  1.00  0.00     0.067 A 
ATOM     11  C   UNL A   1      39.884  27.378  28.833  1.00  0.00     0.021 A 
ATOM     12  C   UNL A   1      39.787  28.961  27.011  1.00  0.00     0.021 A 
ATOM     13  C   UNL A   1      39.071  28.221  29.596  1.00  0.00     0.009 A 
ATOM     14  C   UNL A   1      39.011  29.817  27.804  1.00  0.00     0.009 A 
BRANCH  10  15
ATOM     15  S   UNL A   1      41.438  26.793  26.645  1.00  0.00     0.175 S 
ATOM     16  C   UNL A   1      40.524  25.322  26.249  1.00  0.00     0.163 C 
ATOM     17  O   UNL A   1      42.514  26.439  27.549  1.00  0.00    -0.224 OA
ATOM     18  O   UNL A   1      41.712  27.476  25.393  1.00  0.00    -0.224 OA
ENDBRANCH  10  15
ENDBRANCH   8   9
BRANCH   7  19
ATOM     19  C   UNL A   1      35.835  30.631  28.955  1.00  0.00    -0.011 A 
ATOM     20  C   UNL A   1      34.992  31.609  28.410  1.00  0.00     0.009 A 
ATOM     21  C   UNL A   1      35.755  29.321  28.485  1.00  0.00     0.009 A 
ATOM     22  C   UNL A   1      34.098  31.287  27.390  1.00  0.00     0.009 A 
ATOM     23  C   UNL A   1      34.873  29.009  27.449  1.00  0.00     0.009 A 
ATOM     24  C   UNL A   1      34.035  29.984  26.878  1.00  0.00    -0.018 A 
BRANCH  24  25
ATOM     25  C   UNL A   1      33.133  29.649  25.764  1.00  0.00    -0.018 A 
ATOM     26  C   UNL A   1      33.548  28.802  24.719  1.00  0.00     0.010 A 
ATOM     27  C   UNL A   1      31.818  30.146  25.730  1.00  0.00     0.010 A 
ATOM     28  C   UNL A   1      32.678  28.453  23.683  1.00  0.00     0.021 A 
ATOM     29  C   UNL A   1      30.941  29.803  24.701  1.00  0.00     0.021 A 
ATOM     30  C   UNL A   1      31.379  28.960  23.681  1.00  0.00     0.067 A 
BRANCH  30  31
ATOM     31  S   UNL A   1      30.267  28.493  22.380  1.00  0.00     0.175 S 
ATOM     32  C   UNL A   1      28.821  27.942  23.246  1.00  0.00     0.163 C 
ATOM     33  O   UNL A   1      29.929  29.699  21.650  1.00  0.00    -0.224 OA
ATOM     34  O   UNL A   1      30.834  27.343  21.701  1.00  0.00    -0.224 OA
ENDBRANCH  30  31
ENDBRANCH  24  25
ENDBRANCH   7  19
ENDBRANCH   5   7
ENDBRANCH   4   5
ENDBRANCH   3   4
ENDBRANCH   2   3
ENDBRANCH   1   2
BRANCH   1  35
ATOM     35  C   UNL A   1      36.068  34.202  34.526  1.00  0.00     0.202 C 
BRANCH  35  36
ATOM     36  C   UNL A   1      37.189  33.538  35.335  1.00  0.00     0.261 C 
BRANCH  36  37
ATOM     37  O   UNL A   1      37.035  32.118  35.447  1.00  0.00    -0.460 OA
BRANCH  37  38
ATOM     38  C   UNL A   1      38.121  31.482  35.945  1.00  0.00     0.338 C 
ATOM     39  O   UNL A   1      38.238  30.977  37.056  1.00  0.00    -0.246 OA
BRANCH  38  40
ATOM     40  C   UNL A   1      39.121  31.298  34.881  1.00  0.00     0.060 A 
ATOM     41  C   UNL A   1      38.730  30.576  33.747  1.00  0.00     0.016 A 
ATOM     42  C   UNL A   1      40.425  31.782  35.007  1.00  0.00     0.016 A 
ATOM     43  C   UNL A   1      39.658  30.289  32.751  1.00  0.00     0.010 A 
ATOM     44  C   UNL A   1      41.358  31.484  34.011  1.00  0.00     0.010 A 
ATOM     45  C   UNL A   1      40.987  30.705  32.900  1.00  0.00    -0.014 A 
BRANCH  45  46
ATOM     46  C   UNL A   1      42.015  30.198  31.963  1.00  0.00     0.031 A 
ATOM     47  C   UNL A   1      42.644  28.860  32.228  1.00  0.00     0.074 A 
ATOM     48  C   UNL A   1      42.379  30.922  30.891  1.00  0.00     0.049 A 
ATOM     49  N   UNL A   1      43.567  28.232  31.551  1.00  0.00    -0.248 NA
ATOM     50  C   UNL A   1      42.171  28.135  33.420  1.00  0.00     0.031 C 
ATOM     51  C   UNL A   1      41.841  32.233  30.536  1.00  0.00     0.029 A 
ATOM     52  N   UNL A   1      43.312  30.662  29.918  1.00  0.00    -0.354 N 
ATOM     53  C   UNL A   1      43.812  27.055  32.247  1.00  0.00     0.074 A 
ATOM     54  C   UNL A   1      42.949  27.063  33.409  1.00  0.00     0.031 C 
ATOM     55  C   UNL A   1      42.475  32.680  29.440  1.00  0.00     0.029 A 
ATOM     56  C   UNL A   1      43.478  31.698  29.031  1.00  0.00     0.049 A 
ATOM     57  H   UNL A   1      43.813  29.817  29.862  1.00  0.00     0.167 HD
ATOM     58  C   UNL A   1      44.669  26.052  31.942  1.00  0.00     0.034 A 
ATOM     59  C   UNL A   1      44.355  31.845  28.019  1.00  0.00     0.034 A 
ATOM     60  C   UNL A   1      45.513  26.043  30.778  1.00  0.00     0.049 A 
ATOM     61  C   UNL A   1      45.309  30.723  27.704  1.00  0.00     0.074 A 
ATOM     62  C   UNL A   1      46.370  25.047  30.344  1.00  0.00     0.029 A 
ATOM     63  N   UNL A   1      45.624  27.089  29.874  1.00  0.00    -0.354 N 
ATOM     64  N   UNL A   1      45.436  29.558  28.294  1.00  0.00    -0.248 NA
ATOM     65  C   UNL A   1      46.213  30.919  26.561  1.00  0.00     0.031 C 
ATOM     66  C   UNL A   1      47.025  25.506  29.195  1.00  0.00     0.029 A 
ATOM     67  C   UNL A   1      46.548  26.773  28.894  1.00  0.00     0.049 A 
ATOM     68  H   UNL A   1      45.118  27.932  29.922  1.00  0.00     0.167 HD
ATOM     69  C   UNL A   1      46.411  28.871  27.579  1.00  0.00     0.074 A 
ATOM     70  C   UNL A   1      46.826  29.744  26.499  1.00  0.00     0.031 C 
ATOM     71  C   UNL A   1      46.923  27.635  27.800  1.00  0.00     0.034 A 
BRANCH  58  72
ATOM     72  C   UNL A   1      44.722  24.875  32.881  1.00  0.00     0.023 A 
ATOM     73  C   UNL A   1      43.782  23.831  32.753  1.00  0.00     0.012 A 
ATOM     74  C   UNL A   1      45.716  24.790  33.874  1.00  0.00     0.148 A 
ATOM     75  C   UNL A   1      43.805  22.743  33.624  1.00  0.00     0.002 A 
ATOM     76  C   UNL A   1      45.762  23.680  34.709  1.00  0.00     0.091 A 
ATOM     77  F   UNL A   1      46.583  25.804  34.000  1.00  0.00    -0.205 F 
ATOM     78  C   UNL A   1      44.800  22.662  34.595  1.00  0.00     0.022 A 
BRANCH  76  79
ATOM     79  S   UNL A   1      47.052  23.451  35.938  1.00  0.00     0.127 S 
ATOM     80  O   UNL A   1      46.621  22.217  36.592  1.00  0.00    -0.237 OA
ATOM     81  O   UNL A   1      48.249  23.314  35.108  1.00  0.00    -0.237 OA
ATOM     82  O   UNL A   1      47.027  24.646  36.770  1.00  0.00    -0.744 OA
ENDBRANCH  76  79
ENDBRANCH  58  72
BRANCH  59  83
ATOM     83  C   UNL A   1      44.341  33.098  27.214  1.00  0.00     0.023 A 
ATOM     84  C   UNL A   1      43.765  33.095  25.930  1.00  0.00     0.012 A 
ATOM     85  C   UNL A   1      44.851  34.302  27.738  1.00  0.00     0.148 A 
ATOM     86  C   UNL A   1      43.713  34.267  25.173  1.00  0.00     0.002 A 
ATOM     87  C   UNL A   1      44.745  35.476  27.004  1.00  0.00     0.091 A 
ATOM     88  F   UNL A   1      45.406  34.276  28.957  1.00  0.00    -0.205 F 
ATOM     89  C   UNL A   1      44.191  35.458  25.714  1.00  0.00     0.022 A 
BRANCH  87  90
ATOM     90  S   UNL A   1      45.207  37.077  27.672  1.00  0.00     0.127 S 
ATOM     91  O   UNL A   1      46.665  36.986  27.692  1.00  0.00    -0.237 OA
ATOM     92  O   UNL A   1      44.660  37.989  26.666  1.00  0.00    -0.237 OA
ATOM     93  O   UNL A   1      44.564  37.165  28.976  1.00  0.00    -0.744 OA
ENDBRANCH  87  90
ENDBRANCH  59  83
BRANCH  71  94
ATOM     94  C   UNL A   1      47.971  27.128  26.843  1.00  0.00     0.023 A 
ATOM     95  C   UNL A   1      47.581  26.481  25.653  1.00  0.00     0.012 A 
ATOM     96  C   UNL A   1      49.339  27.363  27.085  1.00  0.00     0.148 A 
ATOM     97  C   UNL A   1      48.538  26.048  24.735  1.00  0.00     0.002 A 
ATOM     98  C   UNL A   1      50.285  26.974  26.143  1.00  0.00     0.091 A 
ATOM     99  F   UNL A   1      49.691  27.964  28.230  1.00  0.00    -0.205 F 
ATOM    100  C   UNL A   1      49.887  26.305  24.974  1.00  0.00     0.022 A 
BRANCH  98 101
ATOM    101  S   UNL A   1      52.032  27.350  26.319  1.00  0.00     0.127 S 
ATOM    102  O   UNL A   1      52.363  26.650  27.559  1.00  0.00    -0.237 OA
ATOM    103  O   UNL A   1      52.602  26.754  25.110  1.00  0.00    -0.237 OA
ATOM    104  O   UNL A   1      52.126  28.803  26.377  1.00  0.00    -0.744 OA
ENDBRANCH  98 101
ENDBRANCH  71  94
ENDBRANCH  45  46
ENDBRANCH  38  40
ENDBRANCH  37  38
ENDBRANCH  36  37
ENDBRANCH  35  36
ENDBRANCH   1  35
TORSDOF 22
ENDMDL
MODEL 2
REMARK VINA RESULT:      -9.0      4.284      9.872
REMARK SMILES CS(=O)(=O)c1ccc(/C=C(/C(=O)OCCOCCOC(=O)c2ccc(-c3c4nc(c(-c5cccc(S(=O)(=O)[O-])c5F)c5ccc([nH]5)c(-c5cccc(S(=O)(=O)[O-])c5F)c5nc(c(-c6cccc(S(=O)(=O)[O-])c6F)c6ccc3[nH]6)C=C5)C=C4)cc2)c2ccc(-c3ccc(S(C)(=O)=O)cc3)cc2)cc1
REMARK SMILES IDX 16 1 15 2 14 3 13 4 11 5 12 6 10 7 9 8 8 9 5 10 6 11 102 12
REMARK SMILES IDX 7 13 101 14 2 15 1 16 3 17 4 18 85 19 86 20 100 21 87 22
REMARK SMILES IDX 99 23 88 24 89 25 90 26 98 27 91 28 97 29 92 30 93 31 94 32
REMARK SMILES IDX 95 33 96 34 17 35 18 36 19 37 20 38 21 39 22 40 23 41 84 42
REMARK SMILES IDX 24 43 83 44 25 45 26 46 27 47 77 48 28 49 82 50 76 51 78 52
REMARK SMILES IDX 29 53 81 54 75 55 74 56 30 58 62 59 42 60 61 61 43 62 46 63
REMARK SMILES IDX 60 64 79 65 44 66 45 67 59 69 80 70 47 71 31 72 32 73 40 74
REMARK SMILES IDX 33 75 35 76 41 77 34 78 36 79 37 80 38 81 39 82 63 83 64 84
REMARK SMILES IDX 72 85 65 86 67 87 73 88 66 89 68 90 69 91 70 92 71 93 48 94
REMARK SMILES IDX 49 95 57 96 50 97 52 98 58 99 51 100 53 101 54 102 55 103
REMARK SMILES IDX 56 104
REMARK H PARENT 78 57 46 68
REMARK Flexibility Score: inf
ROOT
ATOM      1  O   UNL A   1      38.782  34.737  38.099  1.00  0.00    -0.374 OA
ENDROOT
BRANCH   1   2
ATOM      2  C   UNL A   1      38.802  33.368  38.508  1.00  0.00     0.202 C 
BRANCH   2   3
ATOM      3  C   UNL A   1      38.123  32.343  37.593  1.00  0.00     0.261 C 
BRANCH   3   4
ATOM      4  O   UNL A   1      37.859  32.888  36.286  1.00  0.00    -0.460 OA
BRANCH   4   5
ATOM      5  C   UNL A   1      37.866  31.974  35.282  1.00  0.00     0.338 C 
ATOM      6  O   UNL A   1      38.083  30.776  35.410  1.00  0.00    -0.246 OA
BRANCH   5   7
ATOM      7  C   UNL A   1      37.422  32.563  33.978  1.00  0.00     0.067 C 
ATOM      8  C   UNL A   1      36.115  32.832  33.743  1.00  0.00     0.024 C 
BRANCH   8   9
ATOM      9  C   UNL A   1      35.531  33.648  32.642  1.00  0.00    -0.025 A 
ATOM     10  C   UNL A   1      33.980  34.960  30.694  1.00  0.00     0.067 A 
ATOM     11  C   UNL A   1      34.477  35.676  31.778  1.00  0.00     0.021 A 
ATOM     12  C   UNL A   1      34.351  33.629  30.500  1.00  0.00     0.021 A 
ATOM     13  C   UNL A   1      35.280  35.027  32.720  1.00  0.00     0.009 A 
ATOM     14  C   UNL A   1      35.119  32.979  31.477  1.00  0.00     0.009 A 
BRANCH  10  15
ATOM     15  S   UNL A   1      32.828  35.726  29.582  1.00  0.00     0.175 S 
ATOM     16  C   UNL A   1      33.806  36.950  28.745  1.00  0.00     0.163 C 
ATOM     17  O   UNL A   1      31.830  36.402  30.386  1.00  0.00    -0.224 OA
ATOM     18  O   UNL A   1      32.441  34.738  28.591  1.00  0.00    -0.224 OA
ENDBRANCH  10  15
ENDBRANCH   8   9
BRANCH   7  19
ATOM     19  C   UNL A   1      38.506  32.907  33.040  1.00  0.00    -0.011 A 
ATOM     20  C   UNL A   1      39.003  31.927  32.169  1.00  0.00     0.009 A 
ATOM     21  C   UNL A   1      39.013  34.204  32.970  1.00  0.00     0.009 A 
ATOM     22  C   UNL A   1      39.975  32.247  31.222  1.00  0.00     0.009 A 
ATOM     23  C   UNL A   1      39.971  34.523  32.006  1.00  0.00     0.009 A 
ATOM     24  C   UNL A   1      40.465  33.555  31.111  1.00  0.00    -0.018 A 
BRANCH  24  25
ATOM     25  C   UNL A   1      41.451  33.912  30.079  1.00  0.00    -0.018 A 
ATOM     26  C   UNL A   1      41.242  35.007  29.218  1.00  0.00     0.010 A 
ATOM     27  C   UNL A   1      42.645  33.183  29.944  1.00  0.00     0.010 A 
ATOM     28  C   UNL A   1      42.197  35.369  28.265  1.00  0.00     0.021 A 
ATOM     29  C   UNL A   1      43.606  33.536  28.997  1.00  0.00     0.021 A 
ATOM     30  C   UNL A   1      43.374  34.626  28.160  1.00  0.00     0.067 A 
BRANCH  30  31
ATOM     31  S   UNL A   1      44.598  35.105  26.968  1.00  0.00     0.175 S 
ATOM     32  C   UNL A   1      46.125  34.604  27.717  1.00  0.00     0.163 C 
ATOM     33  O   UNL A   1      44.384  34.297  25.784  1.00  0.00    -0.224 OA
ATOM     34  O   UNL A   1      44.603  36.554  26.892  1.00  0.00    -0.224 OA
ENDBRANCH  30  31
ENDBRANCH  24  25
ENDBRANCH   7  19
ENDBRANCH   5   7
ENDBRANCH   4   5
ENDBRANCH   3   4
ENDBRANCH   2   3
ENDBRANCH   1   2
BRANCH   1  35
ATOM     35  C   UNL A   1      39.854  35.566  38.531  1.00  0.00     0.202 C 
BRANCH  35  36
ATOM     36  C   UNL A   1      40.551  36.458  37.496  1.00  0.00     0.261 C 
BRANCH  36  37
ATOM     37  O   UNL A   1      40.309  36.046  36.146  1.00  0.00    -0.460 OA
BRANCH  37  38
ATOM     38  C   UNL A   1      41.395  36.120  35.342  1.00  0.00     0.338 C 
ATOM     39  O   UNL A   1      42.010  37.131  35.021  1.00  0.00    -0.246 OA
BRANCH  38  40
ATOM     40  C   UNL A   1      41.882  34.765  35.036  1.00  0.00     0.060 A 
ATOM     41  C   UNL A   1      41.109  33.687  35.486  1.00  0.00     0.016 A 
ATOM     42  C   UNL A   1      43.087  34.551  34.365  1.00  0.00     0.016 A 
ATOM     43  C   UNL A   1      41.564  32.384  35.311  1.00  0.00     0.010 A 
ATOM     44  C   UNL A   1      43.547  33.242  34.199  1.00  0.00     0.010 A 
ATOM     45  C   UNL A   1      42.807  32.159  34.705  1.00  0.00    -0.014 A 
BRANCH  45  46
ATOM     46  C   UNL A   1      43.392  30.799  34.733  1.00  0.00     0.031 A 
ATOM     47  C   UNL A   1      43.298  29.942  33.503  1.00  0.00     0.074 A 
ATOM     48  C   UNL A   1      43.999  30.339  35.840  1.00  0.00     0.049 A 
ATOM     49  N   UNL A   1      43.727  28.723  33.310  1.00  0.00    -0.248 NA
ATOM     50  C   UNL A   1      42.625  30.537  32.336  1.00  0.00     0.031 C 
ATOM     51  C   UNL A   1      44.146  31.079  37.091  1.00  0.00     0.029 A 
ATOM     52  N   UNL A   1      44.582  29.123  36.093  1.00  0.00    -0.354 N 
ATOM     53  C   UNL A   1      43.350  28.391  32.015  1.00  0.00     0.074 A 
ATOM     54  C   UNL A   1      42.645  29.533  31.473  1.00  0.00     0.031 C 
ATOM     55  C   UNL A   1      44.752  30.290  37.993  1.00  0.00     0.029 A 
ATOM     56  C   UNL A   1      45.013  28.984  37.390  1.00  0.00     0.049 A 
ATOM     57  H   UNL A   1      44.681  28.418  35.413  1.00  0.00     0.167 HD
ATOM     58  C   UNL A   1      43.580  27.244  31.333  1.00  0.00     0.034 A 
ATOM     59  C   UNL A   1      45.537  27.916  38.024  1.00  0.00     0.034 A 
ATOM     60  C   UNL A   1      44.294  26.119  31.872  1.00  0.00     0.049 A 
ATOM     61  C   UNL A   1      45.773  26.646  37.251  1.00  0.00     0.074 A 
ATOM     62  C   UNL A   1      44.637  24.935  31.243  1.00  0.00     0.029 A 
ATOM     63  N   UNL A   1      44.758  26.028  33.176  1.00  0.00    -0.354 N 
ATOM     64  N   UNL A   1      45.531  26.392  35.987  1.00  0.00    -0.248 NA
ATOM     65  C   UNL A   1      46.389  25.527  37.980  1.00  0.00     0.031 C 
ATOM     66  C   UNL A   1      45.277  24.114  32.178  1.00  0.00     0.029 A 
ATOM     67  C   UNL A   1      45.367  24.802  33.379  1.00  0.00     0.049 A 
ATOM     68  H   UNL A   1      44.669  26.733  33.857  1.00  0.00     0.167 HD
ATOM     69  C   UNL A   1      45.991  25.099  35.761  1.00  0.00     0.074 A 
ATOM     70  C   UNL A   1      46.544  24.630  37.015  1.00  0.00     0.031 C 
ATOM     71  C   UNL A   1      45.950  24.363  34.622  1.00  0.00     0.034 A 
BRANCH  58  72
ATOM     72  C   UNL A   1      43.061  27.161  29.921  1.00  0.00     0.023 A 
ATOM     73  C   UNL A   1      41.716  26.811  29.687  1.00  0.00     0.012 A 
ATOM     74  C   UNL A   1      43.900  27.452  28.827  1.00  0.00     0.148 A 
ATOM     75  C   UNL A   1      41.223  26.712  28.386  1.00  0.00     0.002 A 
ATOM     76  C   UNL A   1      43.389  27.396  27.536  1.00  0.00     0.091 A 
ATOM     77  F   UNL A   1      45.183  27.754  29.067  1.00  0.00    -0.205 F 
ATOM     78  C   UNL A   1      42.056  27.013  27.312  1.00  0.00     0.022 A 
BRANCH  76  79
ATOM     79  S   UNL A   1      44.364  27.843  26.095  1.00  0.00     0.127 S 
ATOM     80  O   UNL A   1      43.343  27.892  25.050  1.00  0.00    -0.237 OA
ATOM     81  O   UNL A   1      44.906  29.146  26.479  1.00  0.00    -0.237 OA
ATOM     82  O   UNL A   1      45.363  26.793  25.949  1.00  0.00    -0.744 OA
ENDBRANCH  76  79
ENDBRANCH  58  72
BRANCH  59  83
ATOM     83  C   UNL A   1      45.902  28.025  39.464  1.00  0.00     0.023 A 
ATOM     84  C   UNL A   1      45.003  27.569  40.447  1.00  0.00     0.012 A 
ATOM     85  C   UNL A   1      47.156  28.531  39.857  1.00  0.00     0.148 A 
ATOM     86  C   UNL A   1      45.341  27.633  41.800  1.00  0.00     0.002 A 
ATOM     87  C   UNL A   1      47.508  28.539  41.201  1.00  0.00     0.091 A 
ATOM     88  F   UNL A   1      47.989  28.971  38.904  1.00  0.00    -0.205 F 
ATOM     89  C   UNL A   1      46.596  28.106  42.176  1.00  0.00     0.022 A 
BRANCH  87  90
ATOM     90  S   UNL A   1      49.149  29.001  41.766  1.00  0.00     0.127 S 
ATOM     91  O   UNL A   1      49.033  28.816  43.210  1.00  0.00    -0.237 OA
ATOM     92  O   UNL A   1      49.988  28.015  41.083  1.00  0.00    -0.237 OA
ATOM     93  O   UNL A   1      49.351  30.373  41.321  1.00  0.00    -0.744 OA
ENDBRANCH  87  90
ENDBRANCH  59  83
BRANCH  71  94
ATOM     94  C   UNL A   1      46.546  22.979  34.660  1.00  0.00     0.023 A 
ATOM     95  C   UNL A   1      45.704  21.854  34.779  1.00  0.00     0.012 A 
ATOM     96  C   UNL A   1      47.933  22.789  34.499  1.00  0.00     0.148 A 
ATOM     97  C   UNL A   1      46.237  20.566  34.768  1.00  0.00     0.002 A 
ATOM     98  C   UNL A   1      48.452  21.501  34.439  1.00  0.00     0.091 A 
ATOM     99  F   UNL A   1      48.720  23.871  34.405  1.00  0.00    -0.205 F 
ATOM    100  C   UNL A   1      47.608  20.389  34.586  1.00  0.00     0.022 A 
BRANCH  98 101
ATOM    101  S   UNL A   1      50.188  21.176  34.109  1.00  0.00     0.127 S 
ATOM    102  O   UNL A   1      50.462  22.107  33.016  1.00  0.00    -0.237 OA
ATOM    103  O   UNL A   1      50.817  21.527  35.383  1.00  0.00    -0.237 OA
ATOM    104  O   UNL A   1      50.273  19.763  33.764  1.00  0.00    -0.744 OA
ENDBRANCH  98 101
ENDBRANCH  71  94
ENDBRANCH  45  46
ENDBRANCH  38  40
ENDBRANCH  37  38
ENDBRANCH  36  37
ENDBRANCH  35  36
ENDBRANCH   1  35
TORSDOF 22
ENDMDL
MODEL 3
REMARK VINA RESULT:      -8.5      3.290     11.476
REMARK SMILES CS(=O)(=O)c1ccc(/C=C(/C(=O)OCCOCCOC(=O)c2ccc(-c3c4nc(c(-c5cccc(S(=O)(=O)[O-])c5F)c5ccc([nH]5)c(-c5cccc(S(=O)(=O)[O-])c5F)c5nc(c(-c6cccc(S(=O)(=O)[O-])c6F)c6ccc3[nH]6)C=C5)C=C4)cc2)c2ccc(-c3ccc(S(C)(=O)=O)cc3)cc2)cc1
REMARK SMILES IDX 16 1 15 2 14 3 13 4 11 5 12 6 10 7 9 8 8 9 5 10 6 11 102 12
REMARK SMILES IDX 7 13 101 14 2 15 1 16 3 17 4 18 85 19 86 20 100 21 87 22
REMARK SMILES IDX 99 23 88 24 89 25 90 26 98 27 91 28 97 29 92 30 93 31 94 32
REMARK SMILES IDX 95 33 96 34 17 35 18 36 19 37 20 38 21 39 22 40 23 41 84 42
REMARK SMILES IDX 24 43 83 44 25 45 26 46 27 47 77 48 28 49 82 50 76 51 78 52
REMARK SMILES IDX 29 53 81 54 75 55 74 56 30 58 62 59 42 60 61 61 43 62 46 63
REMARK SMILES IDX 60 64 79 65 44 66 45 67 59 69 80 70 47 71 31 72 32 73 40 74
REMARK SMILES IDX 33 75 35 76 41 77 34 78 36 79 37 80 38 81 39 82 63 83 64 84
REMARK SMILES IDX 72 85 65 86 67 87 73 88 66 89 68 90 69 91 70 92 71 93 48 94
REMARK SMILES IDX 49 95 57 96 50 97 52 98 58 99 51 100 53 101 54 102 55 103
REMARK SMILES IDX 56 104
REMARK H PARENT 78 57 46 68
REMARK Flexibility Score: inf
ROOT
ATOM      1  O   UNL A   1      47.383  25.115  27.263  1.00  0.00    -0.374 OA
ENDROOT
BRANCH   1   2
ATOM      2  C   UNL A   1      46.189  24.356  27.465  1.00  0.00     0.202 C 
BRANCH   2   3
ATOM      3  C   UNL A   1      45.190  24.869  28.507  1.00  0.00     0.261 C 
BRANCH   3   4
ATOM      4  O   UNL A   1      43.836  24.514  28.168  1.00  0.00    -0.460 OA
BRANCH   4   5
ATOM      5  C   UNL A   1      42.899  25.404  28.582  1.00  0.00     0.338 C 
ATOM      6  O   UNL A   1      43.104  26.371  29.305  1.00  0.00    -0.246 OA
BRANCH   5   7
ATOM      7  C   UNL A   1      41.570  25.171  27.931  1.00  0.00     0.067 C 
ATOM      8  C   UNL A   1      41.281  23.987  27.338  1.00  0.00     0.024 C 
BRANCH   8   9
ATOM      9  C   UNL A   1      39.952  23.487  26.889  1.00  0.00    -0.025 A 
ATOM     10  C   UNL A   1      37.546  22.798  25.602  1.00  0.00     0.067 A 
ATOM     11  C   UNL A   1      38.514  21.824  25.824  1.00  0.00     0.021 A 
ATOM     12  C   UNL A   1      37.706  24.080  26.126  1.00  0.00     0.021 A 
ATOM     13  C   UNL A   1      39.688  22.165  26.500  1.00  0.00     0.009 A 
ATOM     14  C   UNL A   1      38.908  24.420  26.761  1.00  0.00     0.009 A 
BRANCH  10  15
ATOM     15  S   UNL A   1      36.127  22.422  24.604  1.00  0.00     0.175 S 
ATOM     16  C   UNL A   1      35.823  20.704  24.938  1.00  0.00     0.163 C 
ATOM     17  O   UNL A   1      36.520  22.560  23.217  1.00  0.00    -0.224 OA
ATOM     18  O   UNL A   1      34.998  23.167  25.136  1.00  0.00    -0.224 OA
ENDBRANCH  10  15
ENDBRANCH   8   9
BRANCH   7  19
ATOM     19  C   UNL A   1      40.597  26.270  28.072  1.00  0.00    -0.011 A 
ATOM     20  C   UNL A   1      39.757  26.308  29.194  1.00  0.00     0.009 A 
ATOM     21  C   UNL A   1      40.532  27.298  27.134  1.00  0.00     0.009 A 
ATOM     22  C   UNL A   1      38.881  27.376  29.387  1.00  0.00     0.009 A 
ATOM     23  C   UNL A   1      39.669  28.375  27.343  1.00  0.00     0.009 A 
ATOM     24  C   UNL A   1      38.834  28.438  28.474  1.00  0.00    -0.018 A 
BRANCH  24  25
ATOM     25  C   UNL A   1      37.952  29.595  28.701  1.00  0.00    -0.018 A 
ATOM     26  C   UNL A   1      36.950  29.941  27.773  1.00  0.00     0.010 A 
ATOM     27  C   UNL A   1      38.069  30.369  29.868  1.00  0.00     0.010 A 
ATOM     28  C   UNL A   1      36.088  31.014  28.008  1.00  0.00     0.021 A 
ATOM     29  C   UNL A   1      37.212  31.443  30.114  1.00  0.00     0.021 A 
ATOM     30  C   UNL A   1      36.229  31.761  29.179  1.00  0.00     0.067 A 
BRANCH  30  31
ATOM     31  S   UNL A   1      35.114  33.105  29.489  1.00  0.00     0.175 S 
ATOM     32  C   UNL A   1      33.971  33.019  28.136  1.00  0.00     0.163 C 
ATOM     33  O   UNL A   1      34.399  32.798  30.711  1.00  0.00    -0.224 OA
ATOM     34  O   UNL A   1      35.859  34.343  29.352  1.00  0.00    -0.224 OA
ENDBRANCH  30  31
ENDBRANCH  24  25
ENDBRANCH   7  19
ENDBRANCH   5   7
ENDBRANCH   4   5
ENDBRANCH   3   4
ENDBRANCH   2   3
ENDBRANCH   1   2
BRANCH   1  35
ATOM     35  C   UNL A   1      48.033  24.992  26.004  1.00  0.00     0.202 C 
BRANCH  35  36
ATOM     36  C   UNL A   1      49.313  25.803  25.761  1.00  0.00     0.261 C 
BRANCH  36  37
ATOM     37  O   UNL A   1      49.077  27.027  25.054  1.00  0.00    -0.460 OA
BRANCH  37  38
ATOM     38  C   UNL A   1      49.555  28.127  25.680  1.00  0.00     0.338 C 
ATOM     39  O   UNL A   1      50.629  28.683  25.482  1.00  0.00    -0.246 OA
BRANCH  38  40
ATOM     40  C   UNL A   1      48.506  28.709  26.532  1.00  0.00     0.060 A 
ATOM     41  C   UNL A   1      48.916  29.371  27.697  1.00  0.00     0.016 A 
ATOM     42  C   UNL A   1      47.150  28.574  26.225  1.00  0.00     0.016 A 
ATOM     43  C   UNL A   1      47.967  29.859  28.590  1.00  0.00     0.010 A 
ATOM     44  C   UNL A   1      46.200  29.056  27.129  1.00  0.00     0.010 A 
ATOM     45  C   UNL A   1      46.604  29.664  28.330  1.00  0.00    -0.014 A 
BRANCH  45  46
ATOM     46  C   UNL A   1      45.614  29.970  29.387  1.00  0.00     0.031 A 
ATOM     47  C   UNL A   1      44.885  31.283  29.341  1.00  0.00     0.074 A 
ATOM     48  C   UNL A   1      45.367  29.088  30.370  1.00  0.00     0.049 A 
ATOM     49  N   UNL A   1      43.991  31.762  30.164  1.00  0.00    -0.248 NA
ATOM     50  C   UNL A   1      45.212  32.179  28.219  1.00  0.00     0.031 C 
ATOM     51  C   UNL A   1      46.016  27.787  30.517  1.00  0.00     0.029 A 
ATOM     52  N   UNL A   1      44.521  29.171  31.446  1.00  0.00    -0.354 N 
ATOM     53  C   UNL A   1      43.671  33.025  29.683  1.00  0.00     0.074 A 
ATOM     54  C   UNL A   1      44.478  33.245  28.502  1.00  0.00     0.031 C 
ATOM     55  C   UNL A   1      45.567  27.203  31.640  1.00  0.00     0.029 A 
ATOM     56  C   UNL A   1      44.619  28.099  32.301  1.00  0.00     0.049 A 
ATOM     57  H   UNL A   1      43.905  29.924  31.593  1.00  0.00     0.167 HD
ATOM     58  C   UNL A   1      42.777  33.917  30.172  1.00  0.00     0.034 A 
ATOM     59  C   UNL A   1      44.028  27.878  33.492  1.00  0.00     0.034 A 
ATOM     60  C   UNL A   1      41.968  33.686  31.337  1.00  0.00     0.049 A 
ATOM     61  C   UNL A   1      43.047  28.890  34.024  1.00  0.00     0.074 A 
ATOM     62  C   UNL A   1      40.988  34.499  31.878  1.00  0.00     0.029 A 
ATOM     63  N   UNL A   1      42.059  32.570  32.154  1.00  0.00    -0.354 N 
ATOM     64  N   UNL A   1      42.656  30.021  33.488  1.00  0.00    -0.248 NA
ATOM     65  C   UNL A   1      42.397  28.576  35.305  1.00  0.00     0.031 C 
ATOM     66  C   UNL A   1      40.510  33.888  33.044  1.00  0.00     0.029 A 
ATOM     67  C   UNL A   1      41.168  32.679  33.208  1.00  0.00     0.049 A 
ATOM     68  H   UNL A   1      42.668  31.811  32.007  1.00  0.00     0.167 HD
ATOM     69  C   UNL A   1      41.695  30.541  34.349  1.00  0.00     0.074 A 
ATOM     70  C   UNL A   1      41.549  29.589  35.432  1.00  0.00     0.031 C 
ATOM     71  C   UNL A   1      41.003  31.704  34.257  1.00  0.00     0.034 A 
BRANCH  58  72
ATOM     72  C   UNL A   1      42.624  35.221  29.433  1.00  0.00     0.023 A 
ATOM     73  C   UNL A   1      41.673  35.334  28.397  1.00  0.00     0.012 A 
ATOM     74  C   UNL A   1      43.405  36.341  29.779  1.00  0.00     0.148 A 
ATOM     75  C   UNL A   1      41.530  36.529  27.691  1.00  0.00     0.002 A 
ATOM     76  C   UNL A   1      43.224  37.541  29.102  1.00  0.00     0.091 A 
ATOM     77  F   UNL A   1      44.323  36.207  30.746  1.00  0.00    -0.205 F 
ATOM     78  C   UNL A   1      42.297  37.634  28.050  1.00  0.00     0.022 A 
BRANCH  76  79
ATOM     79  S   UNL A   1      44.111  39.039  29.544  1.00  0.00     0.127 S 
ATOM     80  O   UNL A   1      43.712  39.218  30.939  1.00  0.00    -0.237 OA
ATOM     81  O   UNL A   1      45.505  38.640  29.356  1.00  0.00    -0.237 OA
ATOM     82  O   UNL A   1      43.646  40.065  28.620  1.00  0.00    -0.744 OA
ENDBRANCH  76  79
ENDBRANCH  58  72
BRANCH  59  83
ATOM     83  C   UNL A   1      44.331  26.626  34.239  1.00  0.00     0.023 A 
ATOM     84  C   UNL A   1      43.573  25.466  33.991  1.00  0.00     0.012 A 
ATOM     85  C   UNL A   1      45.399  26.569  35.154  1.00  0.00     0.148 A 
ATOM     86  C   UNL A   1      43.863  24.274  34.657  1.00  0.00     0.002 A 
ATOM     87  C   UNL A   1      45.718  25.367  35.771  1.00  0.00     0.091 A 
ATOM     88  F   UNL A   1      46.097  27.690  35.383  1.00  0.00    -0.205 F 
ATOM     89  C   UNL A   1      44.942  24.221  35.537  1.00  0.00     0.022 A 
BRANCH  87  90
ATOM     90  S   UNL A   1      47.169  25.170  36.811  1.00  0.00     0.127 S 
ATOM     91  O   UNL A   1      47.365  23.723  36.785  1.00  0.00    -0.237 OA
ATOM     92  O   UNL A   1      48.171  25.942  36.075  1.00  0.00    -0.237 OA
ATOM     93  O   UNL A   1      46.810  25.733  38.106  1.00  0.00    -0.744 OA
ENDBRANCH  87  90
ENDBRANCH  59  83
BRANCH  71  94
ATOM     94  C   UNL A   1      39.998  32.009  35.338  1.00  0.00     0.023 A 
ATOM     95  C   UNL A   1      38.662  31.581  35.197  1.00  0.00     0.012 A 
ATOM     96  C   UNL A   1      40.395  32.650  36.528  1.00  0.00     0.148 A 
ATOM     97  C   UNL A   1      37.732  31.815  36.209  1.00  0.00     0.002 A 
ATOM     98  C   UNL A   1      39.475  32.835  37.554  1.00  0.00     0.091 A 
ATOM     99  F   UNL A   1      41.665  33.065  36.637  1.00  0.00    -0.205 F 
ATOM    100  C   UNL A   1      38.141  32.430  37.391  1.00  0.00     0.022 A 
BRANCH  98 101
ATOM    101  S   UNL A   1      39.934  33.528  39.147  1.00  0.00     0.127 S 
ATOM    102  O   UNL A   1      41.036  32.653  39.545  1.00  0.00    -0.237 OA
ATOM    103  O   UNL A   1      40.335  34.890  38.789  1.00  0.00    -0.237 OA
ATOM    104  O   UNL A   1      38.741  33.449  39.978  1.00  0.00    -0.744 OA
ENDBRANCH  98 101
ENDBRANCH  71  94
ENDBRANCH  45  46
ENDBRANCH  38  40
ENDBRANCH  37  38
ENDBRANCH  36  37
ENDBRANCH  35  36
ENDBRANCH   1  35
TORSDOF 22
ENDMDL
