MODEL 1
REMARK VINA RESULT:     -11.6      0.000      0.000
REMARK SMILES O=C(OCCOCCOC(=O)c1nn(Cc2ccc(F)cc2)c2c1CN(C(=O)[C@H]1CC1(F)F)CC2)c1ccc(-c2c3nc(c(-c4cccc(S(=O)(=O)[O-])c4F)c4ccc([nH]4)c(-c4cccc(S(=O)(=O)[O-])c4F)c4nc(c(-c5cccc(S(=O)(=O)[O-])c5F)c5ccc2[nH]5)C=C4)C=C3)cc1
REMARK SMILES IDX 5 1 4 2 3 3 2 4 1 5 36 6 37 7 98 8 38 9 97 10 39 11 40 12
REMARK SMILES IDX 41 13 91 14 42 15 96 16 90 17 92 18 43 19 95 20 89 21 88 22
REMARK SMILES IDX 44 24 76 25 56 26 75 27 57 28 60 29 74 30 93 31 58 32 59 33
REMARK SMILES IDX 73 35 94 36 61 37 45 38 46 39 54 40 47 41 49 42 55 43 48 44
REMARK SMILES IDX 50 45 51 46 52 47 53 48 77 49 78 50 86 51 79 52 81 53 87 54
REMARK SMILES IDX 80 55 82 56 83 57 84 58 85 59 62 60 63 61 71 62 64 63 66 64
REMARK SMILES IDX 72 65 65 66 67 67 68 68 69 69 70 70 6 71 7 72 8 73 9 74
REMARK SMILES IDX 10 75 11 76 12 77 13 78 24 79 14 80 23 81 25 82 35 83 26 84
REMARK SMILES IDX 34 85 15 86 16 87 17 88 22 89 18 90 21 91 19 92 20 93 27 94
REMARK SMILES IDX 28 95 29 96 30 97 31 98 32 99 33 100
REMARK H PARENT 92 23 60 34
REMARK Flexibility Score: inf
ROOT
ATOM      1  C   UNL A   1      38.240  21.807  25.755  1.00  0.00     0.202 C 
ENDROOT
BRANCH   1   2
ATOM      2  C   UNL A   1      39.528  21.947  26.566  1.00  0.00     0.261 C 
BRANCH   2   3
ATOM      3  O   UNL A   1      40.004  23.304  26.604  1.00  0.00    -0.460 OA
BRANCH   3   4
ATOM      4  C   UNL A   1      41.307  23.669  26.657  1.00  0.00     0.338 C 
ATOM      5  O   UNL A   1      42.169  22.951  26.157  1.00  0.00    -0.246 OA
BRANCH   4   6
ATOM      6  C   UNL A   1      41.649  25.053  27.056  1.00  0.00     0.060 A 
ATOM      7  C   UNL A   1      42.722  25.410  27.872  1.00  0.00     0.016 A 
ATOM      8  C   UNL A   1      40.748  26.040  26.630  1.00  0.00     0.016 A 
ATOM      9  C   UNL A   1      42.728  26.643  28.492  1.00  0.00     0.010 A 
ATOM     10  C   UNL A   1      40.805  27.309  27.173  1.00  0.00     0.010 A 
ATOM     11  C   UNL A   1      41.729  27.563  28.180  1.00  0.00    -0.014 A 
BRANCH  11  12
ATOM     12  C   UNL A   1      41.761  28.840  28.870  1.00  0.00     0.031 A 
ATOM     13  C   UNL A   1      42.857  29.742  28.427  1.00  0.00     0.074 A 
ATOM     14  C   UNL A   1      40.812  29.193  29.756  1.00  0.00     0.049 A 
ATOM     15  N   UNL A   1      43.824  30.234  29.132  1.00  0.00    -0.248 NA
ATOM     16  C   UNL A   1      42.976  29.999  26.983  1.00  0.00     0.031 C 
ATOM     17  C   UNL A   1      39.556  28.494  30.051  1.00  0.00     0.029 A 
ATOM     18  N   UNL A   1      40.694  30.349  30.463  1.00  0.00    -0.354 N 
ATOM     19  C   UNL A   1      44.548  31.044  28.257  1.00  0.00     0.074 A 
ATOM     20  C   UNL A   1      44.099  30.712  26.931  1.00  0.00     0.031 C 
ATOM     21  C   UNL A   1      38.697  29.361  30.629  1.00  0.00     0.029 A 
ATOM     22  C   UNL A   1      39.389  30.614  30.868  1.00  0.00     0.049 A 
ATOM     23  H   UNL A   1      41.455  30.940  30.666  1.00  0.00     0.167 HD
ATOM     24  C   UNL A   1      45.284  32.097  28.705  1.00  0.00     0.034 A 
ATOM     25  C   UNL A   1      38.904  31.817  31.256  1.00  0.00     0.034 A 
ATOM     26  C   UNL A   1      45.571  31.975  30.110  1.00  0.00     0.049 A 
ATOM     27  C   UNL A   1      40.062  32.657  31.642  1.00  0.00     0.074 A 
ATOM     28  C   UNL A   1      46.236  31.058  30.898  1.00  0.00     0.029 A 
ATOM     29  N   UNL A   1      44.826  32.744  30.969  1.00  0.00    -0.354 N 
ATOM     30  N   UNL A   1      40.825  32.409  32.669  1.00  0.00    -0.248 NA
ATOM     31  C   UNL A   1      40.628  33.543  30.638  1.00  0.00     0.031 C 
ATOM     32  C   UNL A   1      45.499  31.019  32.117  1.00  0.00     0.029 A 
ATOM     33  C   UNL A   1      44.459  31.948  32.019  1.00  0.00     0.049 A 
ATOM     34  H   UNL A   1      44.598  33.695  30.851  1.00  0.00     0.167 HD
ATOM     35  C   UNL A   1      42.104  32.728  32.233  1.00  0.00     0.074 A 
ATOM     36  C   UNL A   1      41.906  33.528  31.027  1.00  0.00     0.031 C 
ATOM     37  C   UNL A   1      43.199  32.071  32.718  1.00  0.00     0.034 A 
BRANCH  24  38
ATOM     38  C   UNL A   1      45.420  33.423  27.985  1.00  0.00     0.023 A 
ATOM     39  C   UNL A   1      46.732  33.852  27.674  1.00  0.00     0.012 A 
ATOM     40  C   UNL A   1      44.394  34.390  27.867  1.00  0.00     0.148 A 
ATOM     41  C   UNL A   1      47.018  35.183  27.353  1.00  0.00     0.002 A 
ATOM     42  C   UNL A   1      44.671  35.693  27.473  1.00  0.00     0.091 A 
ATOM     43  F   UNL A   1      43.149  34.105  28.256  1.00  0.00    -0.205 F 
ATOM     44  C   UNL A   1      45.986  36.105  27.253  1.00  0.00     0.022 A 
BRANCH  42  45
ATOM     45  S   UNL A   1      43.366  36.914  27.278  1.00  0.00     0.127 S 
ATOM     46  O   UNL A   1      42.857  37.018  28.641  1.00  0.00    -0.237 OA
ATOM     47  O   UNL A   1      44.115  38.078  26.802  1.00  0.00    -0.237 OA
ATOM     48  O   UNL A   1      42.451  36.353  26.290  1.00  0.00    -0.744 OA
ENDBRANCH  42  45
ENDBRANCH  24  38
BRANCH  25  49
ATOM     49  C   UNL A   1      37.564  32.401  31.007  1.00  0.00     0.023 A 
ATOM     50  C   UNL A   1      36.831  31.986  29.878  1.00  0.00     0.012 A 
ATOM     51  C   UNL A   1      36.888  33.134  32.010  1.00  0.00     0.148 A 
ATOM     52  C   UNL A   1      35.461  32.255  29.771  1.00  0.00     0.002 A 
ATOM     53  C   UNL A   1      35.528  33.405  31.893  1.00  0.00     0.091 A 
ATOM     54  F   UNL A   1      37.551  33.480  33.120  1.00  0.00    -0.205 F 
ATOM     55  C   UNL A   1      34.808  32.955  30.781  1.00  0.00     0.022 A 
BRANCH  53  56
ATOM     56  S   UNL A   1      34.613  34.277  33.174  1.00  0.00     0.127 S 
ATOM     57  O   UNL A   1      33.267  34.330  32.600  1.00  0.00    -0.237 OA
ATOM     58  O   UNL A   1      34.758  33.376  34.313  1.00  0.00    -0.237 OA
ATOM     59  O   UNL A   1      35.257  35.577  33.308  1.00  0.00    -0.744 OA
ENDBRANCH  53  56
ENDBRANCH  25  49
BRANCH  37  60
ATOM     60  C   UNL A   1      43.024  31.165  33.911  1.00  0.00     0.023 A 
ATOM     61  C   UNL A   1      42.992  31.661  35.230  1.00  0.00     0.012 A 
ATOM     62  C   UNL A   1      42.662  29.828  33.678  1.00  0.00     0.148 A 
ATOM     63  C   UNL A   1      42.617  30.838  36.296  1.00  0.00     0.002 A 
ATOM     64  C   UNL A   1      42.238  29.028  34.732  1.00  0.00     0.091 A 
ATOM     65  F   UNL A   1      42.696  29.372  32.417  1.00  0.00    -0.205 F 
ATOM     66  C   UNL A   1      42.223  29.526  36.044  1.00  0.00     0.022 A 
BRANCH  64  67
ATOM     67  S   UNL A   1      41.572  27.385  34.453  1.00  0.00     0.127 S 
ATOM     68  O   UNL A   1      40.443  27.659  33.567  1.00  0.00    -0.237 OA
ATOM     69  O   UNL A   1      42.695  26.694  33.817  1.00  0.00    -0.237 OA
ATOM     70  O   UNL A   1      41.224  26.865  35.770  1.00  0.00    -0.744 OA
ENDBRANCH  64  67
ENDBRANCH  37  60
ENDBRANCH  11  12
ENDBRANCH   4   6
ENDBRANCH   3   4
ENDBRANCH   2   3
ENDBRANCH   1   2
BRANCH   1  71
ATOM     71  O   UNL A   1      37.601  23.012  25.345  1.00  0.00    -0.374 OA
BRANCH  71  72
ATOM     72  C   UNL A   1      37.066  23.023  24.016  1.00  0.00     0.202 C 
BRANCH  72  73
ATOM     73  C   UNL A   1      35.730  23.749  23.795  1.00  0.00     0.261 C 
BRANCH  73  74
ATOM     74  O   UNL A   1      35.231  23.594  22.455  1.00  0.00    -0.458 OA
BRANCH  74  75
ATOM     75  C   UNL A   1      33.896  23.856  22.280  1.00  0.00     0.359 C 
ATOM     76  O   UNL A   1      33.415  24.377  21.296  1.00  0.00    -0.244 OA
BRANCH  75  77
ATOM     77  C   UNL A   1      33.075  23.276  23.358  1.00  0.00     0.175 A 
ATOM     78  N   UNL A   1      33.039  21.954  23.615  1.00  0.00    -0.165 NA
ATOM     79  C   UNL A   1      32.234  23.987  24.261  1.00  0.00     0.028 A 
ATOM     80  N   UNL A   1      32.215  21.825  24.679  1.00  0.00    -0.264 N 
ATOM     81  C   UNL A   1      31.707  23.020  25.092  1.00  0.00     0.046 A 
ATOM     82  C   UNL A   1      31.904  25.442  24.362  1.00  0.00     0.159 C 
ATOM     83  C   UNL A   1      30.812  23.295  26.245  1.00  0.00     0.078 C 
ATOM     84  N   UNL A   1      31.232  25.687  25.653  1.00  0.00    -0.337 N 
ATOM     85  C   UNL A   1      30.206  24.704  26.065  1.00  0.00     0.126 C 
BRANCH  80  86
ATOM     86  C   UNL A   1      32.115  20.536  25.350  1.00  0.00     0.180 C 
BRANCH  86  87
ATOM     87  C   UNL A   1      32.766  19.409  24.585  1.00  0.00    -0.026 A 
ATOM     88  C   UNL A   1      34.001  18.884  25.005  1.00  0.00     0.008 A 
ATOM     89  C   UNL A   1      32.123  18.829  23.480  1.00  0.00     0.008 A 
ATOM     90  C   UNL A   1      34.570  17.793  24.347  1.00  0.00     0.039 A 
ATOM     91  C   UNL A   1      32.693  17.735  22.825  1.00  0.00     0.039 A 
ATOM     92  C   UNL A   1      33.908  17.223  23.269  1.00  0.00     0.123 A 
ATOM     93  F   UNL A   1      34.439  16.160  22.651  1.00  0.00    -0.207 F 
ENDBRANCH  86  87
ENDBRANCH  80  86
BRANCH  84  94
ATOM     94  C   UNL A   1      31.550  26.846  26.347  1.00  0.00     0.232 C 
ATOM     95  O   UNL A   1      31.108  27.116  27.454  1.00  0.00    -0.274 OA
BRANCH  94  96
ATOM     96  C   UNL A   1      32.484  27.781  25.690  1.00  0.00     0.154 C 
ATOM     97  C   UNL A   1      32.298  29.279  25.883  1.00  0.00     0.097 C 
ATOM     98  C   UNL A   1      33.450  28.570  26.491  1.00  0.00     0.260 C 
ATOM     99  F   UNL A   1      33.539  28.512  27.860  1.00  0.00    -0.206 F 
ATOM    100  F   UNL A   1      34.712  28.843  26.011  1.00  0.00    -0.206 F 
ENDBRANCH  94  96
ENDBRANCH  84  94
ENDBRANCH  75  77
ENDBRANCH  74  75
ENDBRANCH  73  74
ENDBRANCH  72  73
ENDBRANCH  71  72
ENDBRANCH   1  71
TORSDOF 21
ENDMDL
MODEL 2
REMARK VINA RESULT:     -11.5      3.228      9.224
REMARK SMILES O=C(OCCOCCOC(=O)c1nn(Cc2ccc(F)cc2)c2c1CN(C(=O)[C@H]1CC1(F)F)CC2)c1ccc(-c2c3nc(c(-c4cccc(S(=O)(=O)[O-])c4F)c4ccc([nH]4)c(-c4cccc(S(=O)(=O)[O-])c4F)c4nc(c(-c5cccc(S(=O)(=O)[O-])c5F)c5ccc2[nH]5)C=C4)C=C3)cc1
REMARK SMILES IDX 5 1 4 2 3 3 2 4 1 5 36 6 37 7 98 8 38 9 97 10 39 11 40 12
REMARK SMILES IDX 41 13 91 14 42 15 96 16 90 17 92 18 43 19 95 20 89 21 88 22
REMARK SMILES IDX 44 24 76 25 56 26 75 27 57 28 60 29 74 30 93 31 58 32 59 33
REMARK SMILES IDX 73 35 94 36 61 37 45 38 46 39 54 40 47 41 49 42 55 43 48 44
REMARK SMILES IDX 50 45 51 46 52 47 53 48 77 49 78 50 86 51 79 52 81 53 87 54
REMARK SMILES IDX 80 55 82 56 83 57 84 58 85 59 62 60 63 61 71 62 64 63 66 64
REMARK SMILES IDX 72 65 65 66 67 67 68 68 69 69 70 70 6 71 7 72 8 73 9 74
REMARK SMILES IDX 10 75 11 76 12 77 13 78 24 79 14 80 23 81 25 82 35 83 26 84
REMARK SMILES IDX 34 85 15 86 16 87 17 88 22 89 18 90 21 91 19 92 20 93 27 94
REMARK SMILES IDX 28 95 29 96 30 97 31 98 32 99 33 100
REMARK H PARENT 92 23 60 34
REMARK Flexibility Score: inf
ROOT
ATOM      1  C   UNL A   1      34.420  31.975  28.077  1.00  0.00     0.202 C 
ENDROOT
BRANCH   1   2
ATOM      2  C   UNL A   1      34.468  33.401  28.624  1.00  0.00     0.261 C 
BRANCH   2   3
ATOM      3  O   UNL A   1      34.017  33.478  29.988  1.00  0.00    -0.460 OA
BRANCH   3   4
ATOM      4  C   UNL A   1      34.766  33.914  31.030  1.00  0.00     0.338 C 
ATOM      5  O   UNL A   1      34.298  34.719  31.830  1.00  0.00    -0.246 OA
BRANCH   4   6
ATOM      6  C   UNL A   1      36.023  33.204  31.356  1.00  0.00     0.060 A 
ATOM      7  C   UNL A   1      37.290  33.786  31.375  1.00  0.00     0.016 A 
ATOM      8  C   UNL A   1      35.895  31.824  31.571  1.00  0.00     0.016 A 
ATOM      9  C   UNL A   1      38.411  32.984  31.304  1.00  0.00     0.010 A 
ATOM     10  C   UNL A   1      37.018  31.021  31.600  1.00  0.00     0.010 A 
ATOM     11  C   UNL A   1      38.259  31.600  31.357  1.00  0.00    -0.014 A 
BRANCH  11  12
ATOM     12  C   UNL A   1      39.462  30.793  31.259  1.00  0.00     0.031 A 
ATOM     13  C   UNL A   1      40.227  30.688  32.529  1.00  0.00     0.074 A 
ATOM     14  C   UNL A   1      39.781  30.127  30.134  1.00  0.00     0.049 A 
ATOM     15  N   UNL A   1      41.445  31.056  32.764  1.00  0.00    -0.248 NA
ATOM     16  C   UNL A   1      39.487  30.263  33.729  1.00  0.00     0.031 C 
ATOM     17  C   UNL A   1      38.958  29.948  28.934  1.00  0.00     0.029 A 
ATOM     18  N   UNL A   1      40.852  29.323  29.896  1.00  0.00    -0.354 N 
ATOM     19  C   UNL A   1      41.692  30.702  34.090  1.00  0.00     0.074 A 
ATOM     20  C   UNL A   1      40.413  30.400  34.675  1.00  0.00     0.031 C 
ATOM     21  C   UNL A   1      39.415  28.882  28.243  1.00  0.00     0.029 A 
ATOM     22  C   UNL A   1      40.632  28.405  28.874  1.00  0.00     0.049 A 
ATOM     23  H   UNL A   1      41.698  29.384  30.396  1.00  0.00     0.167 HD
ATOM     24  C   UNL A   1      42.952  30.448  34.537  1.00  0.00     0.034 A 
ATOM     25  C   UNL A   1      41.342  27.273  28.653  1.00  0.00     0.034 A 
ATOM     26  C   UNL A   1      43.943  31.012  33.658  1.00  0.00     0.049 A 
ATOM     27  C   UNL A   1      42.644  27.427  29.341  1.00  0.00     0.074 A 
ATOM     28  C   UNL A   1      44.256  32.283  33.222  1.00  0.00     0.029 A 
ATOM     29  N   UNL A   1      44.584  30.148  32.804  1.00  0.00    -0.354 N 
ATOM     30  N   UNL A   1      43.548  28.300  28.994  1.00  0.00    -0.248 NA
ATOM     31  C   UNL A   1      42.774  26.891  30.686  1.00  0.00     0.031 C 
ATOM     32  C   UNL A   1      44.672  32.114  31.869  1.00  0.00     0.029 A 
ATOM     33  C   UNL A   1      44.634  30.748  31.576  1.00  0.00     0.049 A 
ATOM     34  H   UNL A   1      44.943  29.261  33.034  1.00  0.00     0.167 HD
ATOM     35  C   UNL A   1      44.071  28.752  30.197  1.00  0.00     0.074 A 
ATOM     36  C   UNL A   1      43.645  27.769  31.191  1.00  0.00     0.031 C 
ATOM     37  C   UNL A   1      44.546  30.027  30.326  1.00  0.00     0.034 A 
BRANCH  24  38
ATOM     38  C   UNL A   1      43.311  29.372  35.542  1.00  0.00     0.023 A 
ATOM     39  C   UNL A   1      44.179  29.744  36.595  1.00  0.00     0.012 A 
ATOM     40  C   UNL A   1      43.100  27.986  35.354  1.00  0.00     0.148 A 
ATOM     41  C   UNL A   1      44.865  28.792  37.358  1.00  0.00     0.002 A 
ATOM     42  C   UNL A   1      43.724  27.044  36.164  1.00  0.00     0.091 A 
ATOM     43  F   UNL A   1      42.394  27.544  34.311  1.00  0.00    -0.205 F 
ATOM     44  C   UNL A   1      44.638  27.441  37.142  1.00  0.00     0.022 A 
BRANCH  42  45
ATOM     45  S   UNL A   1      43.426  25.284  35.960  1.00  0.00     0.127 S 
ATOM     46  O   UNL A   1      44.128  25.011  34.710  1.00  0.00    -0.237 OA
ATOM     47  O   UNL A   1      44.055  24.733  37.161  1.00  0.00    -0.237 OA
ATOM     48  O   UNL A   1      41.975  25.134  35.928  1.00  0.00    -0.744 OA
ENDBRANCH  42  45
ENDBRANCH  24  38
BRANCH  25  49
ATOM     49  C   UNL A   1      40.860  25.953  28.180  1.00  0.00     0.023 A 
ATOM     50  C   UNL A   1      39.475  25.734  28.043  1.00  0.00     0.012 A 
ATOM     51  C   UNL A   1      41.744  25.019  27.592  1.00  0.00     0.148 A 
ATOM     52  C   UNL A   1      38.987  24.645  27.312  1.00  0.00     0.002 A 
ATOM     53  C   UNL A   1      41.253  23.934  26.874  1.00  0.00     0.091 A 
ATOM     54  F   UNL A   1      43.063  25.245  27.654  1.00  0.00    -0.205 F 
ATOM     55  C   UNL A   1      39.874  23.751  26.719  1.00  0.00     0.022 A 
BRANCH  53  56
ATOM     56  S   UNL A   1      42.340  22.757  26.055  1.00  0.00     0.127 S 
ATOM     57  O   UNL A   1      41.395  21.735  25.604  1.00  0.00    -0.237 OA
ATOM     58  O   UNL A   1      42.917  23.571  24.989  1.00  0.00    -0.237 OA
ATOM     59  O   UNL A   1      43.273  22.299  27.077  1.00  0.00    -0.744 OA
ENDBRANCH  53  56
ENDBRANCH  25  49
BRANCH  37  60
ATOM     60  C   UNL A   1      44.720  30.858  29.079  1.00  0.00     0.023 A 
ATOM     61  C   UNL A   1      43.673  31.638  28.546  1.00  0.00     0.012 A 
ATOM     62  C   UNL A   1      46.019  31.027  28.572  1.00  0.00     0.148 A 
ATOM     63  C   UNL A   1      43.915  32.559  27.524  1.00  0.00     0.002 A 
ATOM     64  C   UNL A   1      46.266  31.982  27.595  1.00  0.00     0.091 A 
ATOM     65  F   UNL A   1      47.004  30.278  29.092  1.00  0.00    -0.205 F 
ATOM     66  C   UNL A   1      45.215  32.743  27.060  1.00  0.00     0.022 A 
BRANCH  64  67
ATOM     67  S   UNL A   1      47.936  32.375  27.068  1.00  0.00     0.127 S 
ATOM     68  O   UNL A   1      48.389  31.102  26.512  1.00  0.00    -0.237 OA
ATOM     69  O   UNL A   1      47.714  33.430  26.078  1.00  0.00    -0.237 OA
ATOM     70  O   UNL A   1      48.638  32.822  28.265  1.00  0.00    -0.744 OA
ENDBRANCH  64  67
ENDBRANCH  37  60
ENDBRANCH  11  12
ENDBRANCH   4   6
ENDBRANCH   3   4
ENDBRANCH   2   3
ENDBRANCH   1   2
BRANCH   1  71
ATOM     71  O   UNL A   1      33.279  31.618  27.303  1.00  0.00    -0.374 OA
BRANCH  71  72
ATOM     72  C   UNL A   1      33.312  30.325  26.688  1.00  0.00     0.202 C 
BRANCH  72  73
ATOM     73  C   UNL A   1      33.969  29.181  27.474  1.00  0.00     0.261 C 
BRANCH  73  74
ATOM     74  O   UNL A   1      33.648  27.885  26.939  1.00  0.00    -0.458 OA
BRANCH  74  75
ATOM     75  C   UNL A   1      32.330  27.514  27.022  1.00  0.00     0.359 C 
ATOM     76  O   UNL A   1      31.602  27.747  27.963  1.00  0.00    -0.244 OA
BRANCH  75  77
ATOM     77  C   UNL A   1      31.839  26.941  25.756  1.00  0.00     0.175 A 
ATOM     78  N   UNL A   1      31.215  27.678  24.816  1.00  0.00    -0.165 NA
ATOM     79  C   UNL A   1      31.947  25.583  25.340  1.00  0.00     0.028 A 
ATOM     80  N   UNL A   1      30.956  26.816  23.808  1.00  0.00    -0.264 N 
ATOM     81  C   UNL A   1      31.372  25.549  24.085  1.00  0.00     0.046 A 
ATOM     82  C   UNL A   1      32.509  24.383  26.031  1.00  0.00     0.159 C 
ATOM     83  C   UNL A   1      31.308  24.343  23.220  1.00  0.00     0.078 C 
ATOM     84  N   UNL A   1      32.651  23.291  25.048  1.00  0.00    -0.337 N 
ATOM     85  C   UNL A   1      31.528  23.097  24.105  1.00  0.00     0.126 C 
BRANCH  80  86
ATOM     86  C   UNL A   1      30.467  27.333  22.536  1.00  0.00     0.180 C 
BRANCH  86  87
ATOM     87  C   UNL A   1      29.540  28.515  22.687  1.00  0.00    -0.026 A 
ATOM     88  C   UNL A   1      28.207  28.328  23.094  1.00  0.00     0.008 A 
ATOM     89  C   UNL A   1      30.010  29.823  22.481  1.00  0.00     0.008 A 
ATOM     90  C   UNL A   1      27.369  29.423  23.309  1.00  0.00     0.039 A 
ATOM     91  C   UNL A   1      29.170  30.917  22.699  1.00  0.00     0.039 A 
ATOM     92  C   UNL A   1      27.860  30.707  23.117  1.00  0.00     0.123 A 
ATOM     93  F   UNL A   1      27.065  31.761  23.346  1.00  0.00    -0.207 F 
ENDBRANCH  86  87
ENDBRANCH  80  86
BRANCH  84  94
ATOM     94  C   UNL A   1      33.779  22.487  25.120  1.00  0.00     0.232 C 
ATOM     95  O   UNL A   1      33.818  21.426  25.726  1.00  0.00    -0.274 OA
BRANCH  94  96
ATOM     96  C   UNL A   1      34.983  22.961  24.408  1.00  0.00     0.154 C 
ATOM     97  C   UNL A   1      35.855  24.031  25.049  1.00  0.00     0.097 C 
ATOM     98  C   UNL A   1      36.337  22.636  24.915  1.00  0.00     0.260 C 
ATOM     99  F   UNL A   1      36.575  21.909  26.057  1.00  0.00    -0.206 F 
ATOM    100  F   UNL A   1      37.377  22.384  24.047  1.00  0.00    -0.206 F 
ENDBRANCH  94  96
ENDBRANCH  84  94
ENDBRANCH  75  77
ENDBRANCH  74  75
ENDBRANCH  73  74
ENDBRANCH  72  73
ENDBRANCH  71  72
ENDBRANCH   1  71
TORSDOF 21
ENDMDL
MODEL 3
REMARK VINA RESULT:     -11.4      4.424      9.394
REMARK SMILES O=C(OCCOCCOC(=O)c1nn(Cc2ccc(F)cc2)c2c1CN(C(=O)[C@H]1CC1(F)F)CC2)c1ccc(-c2c3nc(c(-c4cccc(S(=O)(=O)[O-])c4F)c4ccc([nH]4)c(-c4cccc(S(=O)(=O)[O-])c4F)c4nc(c(-c5cccc(S(=O)(=O)[O-])c5F)c5ccc2[nH]5)C=C4)C=C3)cc1
REMARK SMILES IDX 5 1 4 2 3 3 2 4 1 5 36 6 37 7 98 8 38 9 97 10 39 11 40 12
REMARK SMILES IDX 41 13 91 14 42 15 96 16 90 17 92 18 43 19 95 20 89 21 88 22
REMARK SMILES IDX 44 24 76 25 56 26 75 27 57 28 60 29 74 30 93 31 58 32 59 33
REMARK SMILES IDX 73 35 94 36 61 37 45 38 46 39 54 40 47 41 49 42 55 43 48 44
REMARK SMILES IDX 50 45 51 46 52 47 53 48 77 49 78 50 86 51 79 52 81 53 87 54
REMARK SMILES IDX 80 55 82 56 83 57 84 58 85 59 62 60 63 61 71 62 64 63 66 64
REMARK SMILES IDX 72 65 65 66 67 67 68 68 69 69 70 70 6 71 7 72 8 73 9 74
REMARK SMILES IDX 10 75 11 76 12 77 13 78 24 79 14 80 23 81 25 82 35 83 26 84
REMARK SMILES IDX 34 85 15 86 16 87 17 88 22 89 18 90 21 91 19 92 20 93 27 94
REMARK SMILES IDX 28 95 29 96 30 97 31 98 32 99 33 100
REMARK H PARENT 92 23 60 34
REMARK Flexibility Score: inf
ROOT
ATOM      1  C   UNL A   1      35.976  31.822  28.143  1.00  0.00     0.202 C 
ENDROOT
BRANCH   1   2
ATOM      2  C   UNL A   1      36.330  33.264  28.509  1.00  0.00     0.261 C 
BRANCH   2   3
ATOM      3  O   UNL A   1      37.415  33.336  29.450  1.00  0.00    -0.460 OA
BRANCH   3   4
ATOM      4  C   UNL A   1      37.429  32.742  30.668  1.00  0.00     0.338 C 
ATOM      5  O   UNL A   1      36.464  32.857  31.420  1.00  0.00    -0.246 OA
BRANCH   4   6
ATOM      6  C   UNL A   1      38.471  31.733  30.963  1.00  0.00     0.060 A 
ATOM      7  C   UNL A   1      39.843  31.983  30.993  1.00  0.00     0.016 A 
ATOM      8  C   UNL A   1      38.005  30.422  31.135  1.00  0.00     0.016 A 
ATOM      9  C   UNL A   1      40.731  30.932  30.889  1.00  0.00     0.010 A 
ATOM     10  C   UNL A   1      38.895  29.366  31.131  1.00  0.00     0.010 A 
ATOM     11  C   UNL A   1      40.240  29.627  30.898  1.00  0.00    -0.014 A 
BRANCH  11  12
ATOM     12  C   UNL A   1      41.206  28.552  30.767  1.00  0.00     0.031 A 
ATOM     13  C   UNL A   1      41.987  28.282  32.003  1.00  0.00     0.074 A 
ATOM     14  C   UNL A   1      41.298  27.812  29.646  1.00  0.00     0.049 A 
ATOM     15  N   UNL A   1      43.267  28.348  32.173  1.00  0.00    -0.248 NA
ATOM     16  C   UNL A   1      41.227  28.067  33.245  1.00  0.00     0.031 C 
ATOM     17  C   UNL A   1      40.397  27.822  28.489  1.00  0.00     0.029 A 
ATOM     18  N   UNL A   1      42.131  26.770  29.380  1.00  0.00    -0.354 N 
ATOM     19  C   UNL A   1      43.488  27.963  33.495  1.00  0.00     0.074 A 
ATOM     20  C   UNL A   1      42.205  27.988  34.145  1.00  0.00     0.031 C 
ATOM     21  C   UNL A   1      40.549  26.667  27.806  1.00  0.00     0.029 A 
ATOM     22  C   UNL A   1      41.644  25.918  28.393  1.00  0.00     0.049 A 
ATOM     23  H   UNL A   1      42.990  26.631  29.840  1.00  0.00     0.167 HD
ATOM     24  C   UNL A   1      44.670  27.417  33.890  1.00  0.00     0.034 A 
ATOM     25  C   UNL A   1      42.048  24.645  28.169  1.00  0.00     0.034 A 
ATOM     26  C   UNL A   1      45.723  27.711  32.953  1.00  0.00     0.049 A 
ATOM     27  C   UNL A   1      43.382  24.488  28.794  1.00  0.00     0.074 A 
ATOM     28  C   UNL A   1      46.311  28.863  32.471  1.00  0.00     0.029 A 
ATOM     29  N   UNL A   1      46.093  26.707  32.093  1.00  0.00    -0.354 N 
ATOM     30  N   UNL A   1      44.451  25.112  28.383  1.00  0.00    -0.248 NA
ATOM     31  C   UNL A   1      43.446  23.956  30.145  1.00  0.00     0.031 C 
ATOM     32  C   UNL A   1      46.605  28.580  31.105  1.00  0.00     0.029 A 
ATOM     33  C   UNL A   1      46.224  27.259  30.850  1.00  0.00     0.049 A 
ATOM     34  H   UNL A   1      46.238  25.762  32.330  1.00  0.00     0.167 HD
ATOM     35  C   UNL A   1      45.128  25.440  29.550  1.00  0.00     0.074 A 
ATOM     36  C   UNL A   1      44.528  24.604  30.586  1.00  0.00     0.031 C 
ATOM     37  C   UNL A   1      45.902  26.564  29.624  1.00  0.00     0.034 A 
BRANCH  24  38
ATOM     38  C   UNL A   1      44.809  26.300  34.906  1.00  0.00     0.023 A 
ATOM     39  C   UNL A   1      45.199  26.670  36.215  1.00  0.00     0.012 A 
ATOM     40  C   UNL A   1      44.873  24.923  34.590  1.00  0.00     0.148 A 
ATOM     41  C   UNL A   1      45.707  25.737  37.125  1.00  0.00     0.002 A 
ATOM     42  C   UNL A   1      45.306  23.988  35.524  1.00  0.00     0.091 A 
ATOM     43  F   UNL A   1      44.640  24.502  33.345  1.00  0.00    -0.205 F 
ATOM     44  C   UNL A   1      45.762  24.394  36.779  1.00  0.00     0.022 A 
BRANCH  42  45
ATOM     45  S   UNL A   1      45.348  22.232  35.145  1.00  0.00     0.127 S 
ATOM     46  O   UNL A   1      46.548  22.139  34.320  1.00  0.00    -0.237 OA
ATOM     47  O   UNL A   1      45.462  21.641  36.478  1.00  0.00    -0.237 OA
ATOM     48  O   UNL A   1      44.084  21.946  34.475  1.00  0.00    -0.744 OA
ENDBRANCH  42  45
ENDBRANCH  24  38
BRANCH  25  49
ATOM     49  C   UNL A   1      41.239  23.475  27.753  1.00  0.00     0.023 A 
ATOM     50  C   UNL A   1      39.880  23.658  27.426  1.00  0.00     0.012 A 
ATOM     51  C   UNL A   1      41.851  22.251  27.397  1.00  0.00     0.148 A 
ATOM     52  C   UNL A   1      39.167  22.673  26.734  1.00  0.00     0.002 A 
ATOM     53  C   UNL A   1      41.135  21.272  26.715  1.00  0.00     0.091 A 
ATOM     54  F   UNL A   1      43.157  22.084  27.638  1.00  0.00    -0.205 F 
ATOM     55  C   UNL A   1      39.796  21.485  26.370  1.00  0.00     0.022 A 
BRANCH  53  56
ATOM     56  S   UNL A   1      41.890  19.728  26.185  1.00  0.00     0.127 S 
ATOM     57  O   UNL A   1      40.753  19.023  25.592  1.00  0.00    -0.237 OA
ATOM     58  O   UNL A   1      42.889  20.194  25.228  1.00  0.00    -0.237 OA
ATOM     59  O   UNL A   1      42.413  19.105  27.395  1.00  0.00    -0.744 OA
ENDBRANCH  53  56
ENDBRANCH  25  49
BRANCH  37  60
ATOM     60  C   UNL A   1      46.208  27.310  28.350  1.00  0.00     0.023 A 
ATOM     61  C   UNL A   1      45.385  28.352  27.875  1.00  0.00     0.012 A 
ATOM     62  C   UNL A   1      47.461  27.107  27.749  1.00  0.00     0.148 A 
ATOM     63  C   UNL A   1      45.798  29.166  26.817  1.00  0.00     0.002 A 
ATOM     64  C   UNL A   1      47.892  27.952  26.734  1.00  0.00     0.091 A 
ATOM     65  F   UNL A   1      48.234  26.113  28.213  1.00  0.00    -0.205 F 
ATOM     66  C   UNL A   1      47.060  28.977  26.258  1.00  0.00     0.022 A 
BRANCH  64  67
ATOM     67  S   UNL A   1      49.562  27.859  26.083  1.00  0.00     0.127 S 
ATOM     68  O   UNL A   1      50.313  27.360  27.233  1.00  0.00    -0.237 OA
ATOM     69  O   UNL A   1      49.418  26.902  24.985  1.00  0.00    -0.237 OA
ATOM     70  O   UNL A   1      49.899  29.211  25.652  1.00  0.00    -0.744 OA
ENDBRANCH  64  67
ENDBRANCH  37  60
ENDBRANCH  11  12
ENDBRANCH   4   6
ENDBRANCH   3   4
ENDBRANCH   2   3
ENDBRANCH   1   2
BRANCH   1  71
ATOM     71  O   UNL A   1      34.787  31.622  27.386  1.00  0.00    -0.374 OA
BRANCH  71  72
ATOM     72  C   UNL A   1      34.518  30.276  26.975  1.00  0.00     0.202 C 
BRANCH  72  73
ATOM     73  C   UNL A   1      33.115  29.716  27.251  1.00  0.00     0.261 C 
BRANCH  73  74
ATOM     74  O   UNL A   1      33.123  28.301  27.506  1.00  0.00    -0.458 OA
BRANCH  74  75
ATOM     75  C   UNL A   1      31.906  27.672  27.430  1.00  0.00     0.359 C 
ATOM     76  O   UNL A   1      30.960  27.904  28.154  1.00  0.00    -0.244 OA
BRANCH  75  77
ATOM     77  C   UNL A   1      31.812  26.793  26.251  1.00  0.00     0.175 A 
ATOM     78  N   UNL A   1      32.182  25.498  26.277  1.00  0.00    -0.165 NA
ATOM     79  C   UNL A   1      31.331  27.153  24.960  1.00  0.00     0.028 A 
ATOM     80  N   UNL A   1      31.916  25.031  25.037  1.00  0.00    -0.264 N 
ATOM     81  C   UNL A   1      31.411  25.994  24.215  1.00  0.00     0.046 A 
ATOM     82  C   UNL A   1      30.849  28.460  24.418  1.00  0.00     0.159 C 
ATOM     83  C   UNL A   1      30.955  25.863  22.808  1.00  0.00     0.078 C 
ATOM     84  N   UNL A   1      30.182  28.219  23.123  1.00  0.00    -0.337 N 
ATOM     85  C   UNL A   1      30.849  27.277  22.198  1.00  0.00     0.126 C 
BRANCH  80  86
ATOM     86  C   UNL A   1      32.007  23.600  24.779  1.00  0.00     0.180 C 
BRANCH  86  87
ATOM     87  C   UNL A   1      33.413  23.131  24.490  1.00  0.00    -0.026 A 
ATOM     88  C   UNL A   1      34.335  23.990  23.867  1.00  0.00     0.008 A 
ATOM     89  C   UNL A   1      33.839  21.855  24.893  1.00  0.00     0.008 A 
ATOM     90  C   UNL A   1      35.657  23.589  23.667  1.00  0.00     0.039 A 
ATOM     91  C   UNL A   1      35.163  21.457  24.695  1.00  0.00     0.039 A 
ATOM     92  C   UNL A   1      36.061  22.330  24.090  1.00  0.00     0.123 A 
ATOM     93  F   UNL A   1      37.335  21.952  23.923  1.00  0.00    -0.207 F 
ENDBRANCH  86  87
ENDBRANCH  80  86
BRANCH  84  94
ATOM     94  C   UNL A   1      29.031  28.938  22.836  1.00  0.00     0.232 C 
ATOM     95  O   UNL A   1      27.902  28.479  22.935  1.00  0.00    -0.274 OA
BRANCH  94  96
ATOM     96  C   UNL A   1      29.210  30.336  22.397  1.00  0.00     0.154 C 
ATOM     97  C   UNL A   1      28.135  30.993  21.543  1.00  0.00     0.097 C 
ATOM     98  C   UNL A   1      28.355  31.415  22.947  1.00  0.00     0.260 C 
ATOM     99  F   UNL A   1      27.351  31.208  23.862  1.00  0.00    -0.206 F 
ATOM    100  F   UNL A   1      28.865  32.674  23.179  1.00  0.00    -0.206 F 
ENDBRANCH  94  96
ENDBRANCH  84  94
ENDBRANCH  75  77
ENDBRANCH  74  75
ENDBRANCH  73  74
ENDBRANCH  72  73
ENDBRANCH  71  72
ENDBRANCH   1  71
TORSDOF 21
ENDMDL
