MODEL 1
REMARK VINA RESULT:      -9.1      0.000      0.000
REMARK SMILES COC[C@@H](C)N(C)c1nc(C(C)C)c(C(=O)OCCOCCOC(=O)c2ccc(-c3c4nc(c(-c5cccc(S(=O)(=O)[O-])c5F)c5ccc([nH]5)c(-c5cccc(S(=O)(=O)[O-])c5F)c5nc(c(-c6cccc(S(=O)(=O)[O-])c6F)c6ccc3[nH]6)C=C5)C=C4)cc2)s1
REMARK SMILES IDX 19 1 18 2 17 3 15 4 16 5 14 6 8 7 9 8 89 9 10 10 6 11 7 12
REMARK SMILES IDX 4 13 5 14 3 15 2 16 1 17 11 18 12 19 13 20 20 21 21 22 22 23
REMARK SMILES IDX 23 24 24 25 25 26 26 27 27 28 88 29 28 30 87 31 29 32 30 33
REMARK SMILES IDX 31 34 81 35 32 36 86 37 80 38 82 39 33 40 85 41 79 42 78 43
REMARK SMILES IDX 34 45 66 46 46 47 65 48 47 49 50 50 64 51 83 52 48 53 49 54
REMARK SMILES IDX 63 56 84 57 51 58 35 59 36 60 44 61 37 62 39 63 45 64 38 65
REMARK SMILES IDX 40 66 41 67 42 68 43 69 67 70 68 71 76 72 69 73 71 74 77 75
REMARK SMILES IDX 70 76 72 77 73 78 74 79 75 80 52 81 53 82 61 83 54 84 56 85
REMARK SMILES IDX 62 86 55 87 57 88 58 89 59 90 60 91
REMARK H PARENT 82 44 50 55
REMARK Flexibility Score: inf
ROOT
ATOM      1  C   UNL A   1      31.744  28.584  27.483  1.00  0.00     0.202 C 
ENDROOT
BRANCH   1   2
ATOM      2  C   UNL A   1      31.742  27.137  26.988  1.00  0.00     0.261 C 
BRANCH   2   3
ATOM      3  O   UNL A   1      30.985  27.070  25.768  1.00  0.00    -0.459 OA
BRANCH   3   4
ATOM      4  C   UNL A   1      30.371  25.891  25.501  1.00  0.00     0.350 C 
ATOM      5  O   UNL A   1      29.161  25.766  25.347  1.00  0.00    -0.245 OA
BRANCH   4   6
ATOM      6  C   UNL A   1      31.352  24.849  25.305  1.00  0.00     0.137 A 
ATOM      7  C   UNL A   1      32.761  22.895  25.746  1.00  0.00     0.186 A 
ATOM      8  N   UNL A   1      33.057  23.434  24.589  1.00  0.00    -0.224 NA
ATOM      9  S   UNL A   1      31.443  23.653  26.543  1.00  0.00    -0.089 S 
ATOM     10  C   UNL A   1      32.242  24.526  24.288  1.00  0.00     0.071 A 
BRANCH   7  11
ATOM     11  N   UNL A   1      33.480  21.889  26.314  1.00  0.00    -0.346 N 
ATOM     12  C   UNL A   1      34.294  22.152  27.486  1.00  0.00     0.146 C 
BRANCH  11  13
ATOM     13  C   UNL A   1      33.797  20.701  25.496  1.00  0.00     0.107 C 
ATOM     14  C   UNL A   1      35.199  20.838  24.890  1.00  0.00     0.033 C 
BRANCH  13  15
ATOM     15  C   UNL A   1      32.706  20.409  24.441  1.00  0.00     0.184 C 
BRANCH  15  16
ATOM     16  O   UNL A   1      31.927  19.246  24.758  1.00  0.00    -0.383 OA
ATOM     17  C   UNL A   1      32.526  18.030  24.329  1.00  0.00     0.194 C 
ENDBRANCH  15  16
ENDBRANCH  13  15
ENDBRANCH  11  13
ENDBRANCH   7  11
BRANCH  10  18
ATOM     18  C   UNL A   1      32.511  25.160  22.939  1.00  0.00     0.034 C 
ATOM     19  C   UNL A   1      33.212  26.514  23.052  1.00  0.00     0.014 C 
ATOM     20  C   UNL A   1      33.196  24.237  21.936  1.00  0.00     0.014 C 
ENDBRANCH  10  18
ENDBRANCH   4   6
ENDBRANCH   3   4
ENDBRANCH   2   3
ENDBRANCH   1   2
BRANCH   1  21
ATOM     21  O   UNL A   1      31.280  29.514  26.499  1.00  0.00    -0.374 OA
BRANCH  21  22
ATOM     22  C   UNL A   1      32.146  30.621  26.231  1.00  0.00     0.202 C 
BRANCH  22  23
ATOM     23  C   UNL A   1      33.618  30.360  26.562  1.00  0.00     0.261 C 
BRANCH  23  24
ATOM     24  O   UNL A   1      33.946  30.876  27.865  1.00  0.00    -0.460 OA
BRANCH  24  25
ATOM     25  C   UNL A   1      34.945  31.791  27.889  1.00  0.00     0.338 C 
ATOM     26  O   UNL A   1      34.880  32.957  27.537  1.00  0.00    -0.246 OA
BRANCH  25  27
ATOM     27  C   UNL A   1      36.121  31.226  28.585  1.00  0.00     0.060 A 
ATOM     28  C   UNL A   1      37.358  31.848  28.366  1.00  0.00     0.016 A 
ATOM     29  C   UNL A   1      36.035  30.102  29.412  1.00  0.00     0.016 A 
ATOM     30  C   UNL A   1      38.517  31.321  28.934  1.00  0.00     0.010 A 
ATOM     31  C   UNL A   1      37.201  29.572  29.977  1.00  0.00     0.010 A 
ATOM     32  C   UNL A   1      38.450  30.161  29.715  1.00  0.00    -0.014 A 
BRANCH  32  33
ATOM     33  C   UNL A   1      39.703  29.504  30.160  1.00  0.00     0.031 A 
ATOM     34  C   UNL A   1      40.441  30.056  31.350  1.00  0.00     0.074 A 
ATOM     35  C   UNL A   1      40.177  28.422  29.515  1.00  0.00     0.049 A 
ATOM     36  N   UNL A   1      41.534  29.618  31.918  1.00  0.00    -0.248 NA
ATOM     37  C   UNL A   1      39.872  31.256  31.984  1.00  0.00     0.031 C 
ATOM     38  C   UNL A   1      39.559  27.797  28.346  1.00  0.00     0.029 A 
ATOM     39  N   UNL A   1      41.301  27.669  29.745  1.00  0.00    -0.354 N 
ATOM     40  C   UNL A   1      41.799  30.500  32.958  1.00  0.00     0.074 A 
ATOM     41  C   UNL A   1      40.756  31.502  32.940  1.00  0.00     0.031 C 
ATOM     42  C   UNL A   1      40.325  26.769  27.946  1.00  0.00     0.029 A 
ATOM     43  C   UNL A   1      41.493  26.669  28.821  1.00  0.00     0.049 A 
ATOM     44  H   UNL A   1      41.913  27.830  30.499  1.00  0.00     0.167 HD
ATOM     45  C   UNL A   1      42.807  30.465  33.861  1.00  0.00     0.034 A 
ATOM     46  C   UNL A   1      42.500  25.783  28.691  1.00  0.00     0.034 A 
ATOM     47  C   UNL A   1      43.825  29.451  33.903  1.00  0.00     0.049 A 
ATOM     48  C   UNL A   1      43.621  25.784  29.698  1.00  0.00     0.074 A 
ATOM     49  C   UNL A   1      44.840  29.290  34.830  1.00  0.00     0.029 A 
ATOM     50  N   UNL A   1      43.968  28.435  32.972  1.00  0.00    -0.354 N 
ATOM     51  N   UNL A   1      43.766  26.522  30.772  1.00  0.00    -0.248 NA
ATOM     52  C   UNL A   1      44.703  24.808  29.493  1.00  0.00     0.031 C 
ATOM     53  C   UNL A   1      45.610  28.187  34.448  1.00  0.00     0.029 A 
ATOM     54  C   UNL A   1      45.067  27.656  33.289  1.00  0.00     0.049 A 
ATOM     55  H   UNL A   1      43.377  28.290  32.199  1.00  0.00     0.167 HD
ATOM     56  C   UNL A   1      44.932  26.078  31.386  1.00  0.00     0.074 A 
ATOM     57  C   UNL A   1      45.444  24.992  30.577  1.00  0.00     0.031 C 
ATOM     58  C   UNL A   1      45.534  26.539  32.510  1.00  0.00     0.034 A 
BRANCH  45  59
ATOM     59  C   UNL A   1      42.840  31.536  34.917  1.00  0.00     0.023 A 
ATOM     60  C   UNL A   1      43.800  32.563  34.827  1.00  0.00     0.012 A 
ATOM     61  C   UNL A   1      41.878  31.571  35.943  1.00  0.00     0.148 A 
ATOM     62  C   UNL A   1      43.812  33.603  35.754  1.00  0.00     0.002 A 
ATOM     63  C   UNL A   1      41.875  32.628  36.845  1.00  0.00     0.091 A 
ATOM     64  F   UNL A   1      40.991  30.569  36.023  1.00  0.00    -0.205 F 
ATOM     65  C   UNL A   1      42.844  33.642  36.756  1.00  0.00     0.022 A 
BRANCH  63  66
ATOM     66  S   UNL A   1      40.631  32.802  38.129  1.00  0.00     0.127 S 
ATOM     67  O   UNL A   1      39.585  31.901  37.649  1.00  0.00    -0.237 OA
ATOM     68  O   UNL A   1      41.345  32.333  39.317  1.00  0.00    -0.237 OA
ATOM     69  O   UNL A   1      40.277  34.215  38.154  1.00  0.00    -0.744 OA
ENDBRANCH  63  66
ENDBRANCH  45  59
BRANCH  46  70
ATOM     70  C   UNL A   1      42.478  24.782  27.587  1.00  0.00     0.023 A 
ATOM     71  C   UNL A   1      43.098  25.091  26.361  1.00  0.00     0.012 A 
ATOM     72  C   UNL A   1      41.855  23.529  27.743  1.00  0.00     0.148 A 
ATOM     73  C   UNL A   1      43.073  24.184  25.301  1.00  0.00     0.002 A 
ATOM     74  C   UNL A   1      41.879  22.608  26.702  1.00  0.00     0.091 A 
ATOM     75  F   UNL A   1      41.246  23.261  28.907  1.00  0.00    -0.205 F 
ATOM     76  C   UNL A   1      42.474  22.939  25.474  1.00  0.00     0.022 A 
BRANCH  74  77
ATOM     77  S   UNL A   1      41.244  20.940  26.897  1.00  0.00     0.127 S 
ATOM     78  O   UNL A   1      40.750  20.965  28.271  1.00  0.00    -0.237 OA
ATOM     79  O   UNL A   1      40.204  20.881  25.869  1.00  0.00    -0.237 OA
ATOM     80  O   UNL A   1      42.382  20.065  26.640  1.00  0.00    -0.744 OA
ENDBRANCH  74  77
ENDBRANCH  46  70
BRANCH  58  81
ATOM     81  C   UNL A   1      46.806  25.864  32.954  1.00  0.00     0.023 A 
ATOM     82  C   UNL A   1      48.048  26.412  32.581  1.00  0.00     0.012 A 
ATOM     83  C   UNL A   1      46.773  24.743  33.807  1.00  0.00     0.148 A 
ATOM     84  C   UNL A   1      49.239  25.841  33.027  1.00  0.00     0.002 A 
ATOM     85  C   UNL A   1      47.963  24.204  34.283  1.00  0.00     0.091 A 
ATOM     86  F   UNL A   1      45.581  24.222  34.136  1.00  0.00    -0.205 F 
ATOM     87  C   UNL A   1      49.197  24.746  33.887  1.00  0.00     0.022 A 
BRANCH  85  88
ATOM     88  S   UNL A   1      47.995  22.852  35.467  1.00  0.00     0.127 S 
ATOM     89  O   UNL A   1      48.957  23.342  36.452  1.00  0.00    -0.237 OA
ATOM     90  O   UNL A   1      46.610  22.810  35.936  1.00  0.00    -0.237 OA
ATOM     91  O   UNL A   1      48.409  21.676  34.713  1.00  0.00    -0.744 OA
ENDBRANCH  85  88
ENDBRANCH  58  81
ENDBRANCH  32  33
ENDBRANCH  25  27
ENDBRANCH  24  25
ENDBRANCH  23  24
ENDBRANCH  22  23
ENDBRANCH  21  22
ENDBRANCH   1  21
TORSDOF 22
ENDMDL
MODEL 2
REMARK VINA RESULT:      -9.0      1.975      2.686
REMARK SMILES COC[C@@H](C)N(C)c1nc(C(C)C)c(C(=O)OCCOCCOC(=O)c2ccc(-c3c4nc(c(-c5cccc(S(=O)(=O)[O-])c5F)c5ccc([nH]5)c(-c5cccc(S(=O)(=O)[O-])c5F)c5nc(c(-c6cccc(S(=O)(=O)[O-])c6F)c6ccc3[nH]6)C=C5)C=C4)cc2)s1
REMARK SMILES IDX 19 1 18 2 17 3 15 4 16 5 14 6 8 7 9 8 89 9 10 10 6 11 7 12
REMARK SMILES IDX 4 13 5 14 3 15 2 16 1 17 11 18 12 19 13 20 20 21 21 22 22 23
REMARK SMILES IDX 23 24 24 25 25 26 26 27 27 28 88 29 28 30 87 31 29 32 30 33
REMARK SMILES IDX 31 34 81 35 32 36 86 37 80 38 82 39 33 40 85 41 79 42 78 43
REMARK SMILES IDX 34 45 66 46 46 47 65 48 47 49 50 50 64 51 83 52 48 53 49 54
REMARK SMILES IDX 63 56 84 57 51 58 35 59 36 60 44 61 37 62 39 63 45 64 38 65
REMARK SMILES IDX 40 66 41 67 42 68 43 69 67 70 68 71 76 72 69 73 71 74 77 75
REMARK SMILES IDX 70 76 72 77 73 78 74 79 75 80 52 81 53 82 61 83 54 84 56 85
REMARK SMILES IDX 62 86 55 87 57 88 58 89 59 90 60 91
REMARK H PARENT 82 44 50 55
REMARK Flexibility Score: inf
ROOT
ATOM      1  C   UNL A   1      32.470  30.551  26.771  1.00  0.00     0.202 C 
ENDROOT
BRANCH   1   2
ATOM      2  C   UNL A   1      32.209  29.251  26.010  1.00  0.00     0.261 C 
BRANCH   2   3
ATOM      3  O   UNL A   1      32.148  29.545  24.605  1.00  0.00    -0.459 OA
BRANCH   3   4
ATOM      4  C   UNL A   1      32.870  28.740  23.787  1.00  0.00     0.350 C 
ATOM      5  O   UNL A   1      33.893  29.088  23.209  1.00  0.00    -0.245 OA
BRANCH   4   6
ATOM      6  C   UNL A   1      32.328  27.401  23.797  1.00  0.00     0.137 A 
ATOM      7  C   UNL A   1      32.227  24.954  23.800  1.00  0.00     0.186 A 
ATOM      8  N   UNL A   1      31.026  25.472  23.728  1.00  0.00    -0.224 NA
ATOM      9  S   UNL A   1      33.474  26.123  23.957  1.00  0.00    -0.089 S 
ATOM     10  C   UNL A   1      31.046  26.867  23.767  1.00  0.00     0.071 A 
BRANCH   7  11
ATOM     11  N   UNL A   1      32.482  23.623  23.671  1.00  0.00    -0.346 N 
ATOM     12  C   UNL A   1      32.954  23.094  22.405  1.00  0.00     0.146 C 
BRANCH  11  13
ATOM     13  C   UNL A   1      31.851  22.689  24.626  1.00  0.00     0.107 C 
ATOM     14  C   UNL A   1      31.545  23.411  25.944  1.00  0.00     0.033 C 
BRANCH  13  15
ATOM     15  C   UNL A   1      32.683  21.402  24.819  1.00  0.00     0.184 C 
BRANCH  15  16
ATOM     16  O   UNL A   1      34.090  21.664  24.934  1.00  0.00    -0.383 OA
ATOM     17  C   UNL A   1      34.886  20.485  24.951  1.00  0.00     0.194 C 
ENDBRANCH  15  16
ENDBRANCH  13  15
ENDBRANCH  11  13
ENDBRANCH   7  11
BRANCH  10  18
ATOM     18  C   UNL A   1      29.679  27.518  23.733  1.00  0.00     0.034 C 
ATOM     19  C   UNL A   1      29.518  28.494  22.567  1.00  0.00     0.014 C 
ATOM     20  C   UNL A   1      28.514  26.538  23.831  1.00  0.00     0.014 C 
ENDBRANCH  10  18
ENDBRANCH   4   6
ENDBRANCH   3   4
ENDBRANCH   2   3
ENDBRANCH   1   2
BRANCH   1  21
ATOM     21  O   UNL A   1      33.577  30.461  27.675  1.00  0.00    -0.374 OA
BRANCH  21  22
ATOM     22  C   UNL A   1      34.495  31.557  27.647  1.00  0.00     0.202 C 
BRANCH  22  23
ATOM     23  C   UNL A   1      34.017  32.796  28.409  1.00  0.00     0.261 C 
BRANCH  23  24
ATOM     24  O   UNL A   1      34.165  32.609  29.828  1.00  0.00    -0.460 OA
BRANCH  24  25
ATOM     25  C   UNL A   1      35.158  33.328  30.405  1.00  0.00     0.338 C 
ATOM     26  O   UNL A   1      35.054  34.414  30.952  1.00  0.00    -0.246 OA
BRANCH  25  27
ATOM     27  C   UNL A   1      36.398  32.523  30.446  1.00  0.00     0.060 A 
ATOM     28  C   UNL A   1      36.340  31.285  31.100  1.00  0.00     0.016 A 
ATOM     29  C   UNL A   1      37.599  32.968  29.886  1.00  0.00     0.016 A 
ATOM     30  C   UNL A   1      37.491  30.511  31.236  1.00  0.00     0.010 A 
ATOM     31  C   UNL A   1      38.755  32.191  30.028  1.00  0.00     0.010 A 
ATOM     32  C   UNL A   1      38.712  30.975  30.731  1.00  0.00    -0.014 A 
BRANCH  32  33
ATOM     33  C   UNL A   1      39.962  30.238  31.041  1.00  0.00     0.031 A 
ATOM     34  C   UNL A   1      40.739  30.596  32.278  1.00  0.00     0.074 A 
ATOM     35  C   UNL A   1      40.397  29.255  30.231  1.00  0.00     0.049 A 
ATOM     36  N   UNL A   1      41.837  30.061  32.746  1.00  0.00    -0.248 NA
ATOM     37  C   UNL A   1      40.211  31.699  33.097  1.00  0.00     0.031 C 
ATOM     38  C   UNL A   1      39.738  28.819  29.000  1.00  0.00     0.029 A 
ATOM     39  N   UNL A   1      41.510  28.457  30.318  1.00  0.00    -0.354 N 
ATOM     40  C   UNL A   1      42.144  30.775  33.897  1.00  0.00     0.074 A 
ATOM     41  C   UNL A   1      41.123  31.787  34.055  1.00  0.00     0.031 C 
ATOM     42  C   UNL A   1      40.473  27.848  28.433  1.00  0.00     0.029 A 
ATOM     43  C   UNL A   1      41.659  27.601  29.253  1.00  0.00     0.049 A 
ATOM     44  H   UNL A   1      42.143  28.494  31.071  1.00  0.00     0.167 HD
ATOM     45  C   UNL A   1      43.173  30.590  34.758  1.00  0.00     0.034 A 
ATOM     46  C   UNL A   1      42.644  26.725  28.967  1.00  0.00     0.034 A 
ATOM     47  C   UNL A   1      44.170  29.563  34.624  1.00  0.00     0.049 A 
ATOM     48  C   UNL A   1      43.788  26.559  29.933  1.00  0.00     0.074 A 
ATOM     49  C   UNL A   1      45.203  29.250  35.490  1.00  0.00     0.029 A 
ATOM     50  N   UNL A   1      44.269  28.693  33.551  1.00  0.00    -0.354 N 
ATOM     51  N   UNL A   1      43.974  27.128  31.100  1.00  0.00    -0.248 NA
ATOM     52  C   UNL A   1      44.844  25.605  29.559  1.00  0.00     0.031 C 
ATOM     53  C   UNL A   1      45.940  28.202  34.930  1.00  0.00     0.029 A 
ATOM     54  C   UNL A   1      45.359  27.857  33.721  1.00  0.00     0.049 A 
ATOM     55  H   UNL A   1      43.657  28.674  32.781  1.00  0.00     0.167 HD
ATOM     56  C   UNL A   1      45.145  26.578  31.611  1.00  0.00     0.074 A 
ATOM     57  C   UNL A   1      45.614  25.615  30.638  1.00  0.00     0.031 C 
ATOM     58  C   UNL A   1      45.783  26.859  32.774  1.00  0.00     0.034 A 
BRANCH  45  59
ATOM     59  C   UNL A   1      43.254  31.493  35.958  1.00  0.00     0.023 A 
ATOM     60  C   UNL A   1      42.579  31.131  37.141  1.00  0.00     0.012 A 
ATOM     61  C   UNL A   1      44.056  32.649  35.940  1.00  0.00     0.148 A 
ATOM     62  C   UNL A   1      42.690  31.917  38.287  1.00  0.00     0.002 A 
ATOM     63  C   UNL A   1      44.188  33.410  37.097  1.00  0.00     0.091 A 
ATOM     64  F   UNL A   1      44.667  32.987  34.796  1.00  0.00    -0.205 F 
ATOM     65  C   UNL A   1      43.502  33.048  38.268  1.00  0.00     0.022 A 
BRANCH  63  66
ATOM     66  S   UNL A   1      45.262  34.847  37.192  1.00  0.00     0.127 S 
ATOM     67  O   UNL A   1      45.220  35.151  38.621  1.00  0.00    -0.237 OA
ATOM     68  O   UNL A   1      46.538  34.311  36.718  1.00  0.00    -0.237 OA
ATOM     69  O   UNL A   1      44.665  35.850  36.321  1.00  0.00    -0.744 OA
ENDBRANCH  63  66
ENDBRANCH  45  59
BRANCH  46  70
ATOM     70  C   UNL A   1      42.574  25.898  27.730  1.00  0.00     0.023 A 
ATOM     71  C   UNL A   1      42.945  26.467  26.497  1.00  0.00     0.012 A 
ATOM     72  C   UNL A   1      42.150  24.556  27.765  1.00  0.00     0.148 A 
ATOM     73  C   UNL A   1      42.867  25.725  25.317  1.00  0.00     0.002 A 
ATOM     74  C   UNL A   1      42.125  23.805  26.595  1.00  0.00     0.091 A 
ATOM     75  F   UNL A   1      41.774  24.038  28.944  1.00  0.00    -0.205 F 
ATOM     76  C   UNL A   1      42.468  24.392  25.367  1.00  0.00     0.022 A 
BRANCH  74  77
ATOM     77  S   UNL A   1      41.749  22.049  26.604  1.00  0.00     0.127 S 
ATOM     78  O   UNL A   1      42.350  21.607  25.349  1.00  0.00    -0.237 OA
ATOM     79  O   UNL A   1      42.436  21.590  27.812  1.00  0.00    -0.237 OA
ATOM     80  O   UNL A   1      40.295  21.971  26.683  1.00  0.00    -0.744 OA
ENDBRANCH  74  77
ENDBRANCH  46  70
BRANCH  58  81
ATOM     81  C   UNL A   1      47.051  26.104  33.079  1.00  0.00     0.023 A 
ATOM     82  C   UNL A   1      48.296  26.692  32.787  1.00  0.00     0.012 A 
ATOM     83  C   UNL A   1      47.012  24.855  33.732  1.00  0.00     0.148 A 
ATOM     84  C   UNL A   1      49.484  26.040  33.113  1.00  0.00     0.002 A 
ATOM     85  C   UNL A   1      48.201  24.230  34.094  1.00  0.00     0.091 A 
ATOM     86  F   UNL A   1      45.817  24.301  33.986  1.00  0.00    -0.205 F 
ATOM     87  C   UNL A   1      49.437  24.816  33.777  1.00  0.00     0.022 A 
BRANCH  85  88
ATOM     88  S   UNL A   1      48.228  22.698  35.033  1.00  0.00     0.127 S 
ATOM     89  O   UNL A   1      49.503  22.117  34.619  1.00  0.00    -0.237 OA
ATOM     90  O   UNL A   1      48.197  23.175  36.416  1.00  0.00    -0.237 OA
ATOM     91  O   UNL A   1      47.038  21.963  34.625  1.00  0.00    -0.744 OA
ENDBRANCH  85  88
ENDBRANCH  58  81
ENDBRANCH  32  33
ENDBRANCH  25  27
ENDBRANCH  24  25
ENDBRANCH  23  24
ENDBRANCH  22  23
ENDBRANCH  21  22
ENDBRANCH   1  21
TORSDOF 22
ENDMDL
MODEL 3
REMARK VINA RESULT:      -9.0      3.966      9.265
REMARK SMILES COC[C@@H](C)N(C)c1nc(C(C)C)c(C(=O)OCCOCCOC(=O)c2ccc(-c3c4nc(c(-c5cccc(S(=O)(=O)[O-])c5F)c5ccc([nH]5)c(-c5cccc(S(=O)(=O)[O-])c5F)c5nc(c(-c6cccc(S(=O)(=O)[O-])c6F)c6ccc3[nH]6)C=C5)C=C4)cc2)s1
REMARK SMILES IDX 19 1 18 2 17 3 15 4 16 5 14 6 8 7 9 8 89 9 10 10 6 11 7 12
REMARK SMILES IDX 4 13 5 14 3 15 2 16 1 17 11 18 12 19 13 20 20 21 21 22 22 23
REMARK SMILES IDX 23 24 24 25 25 26 26 27 27 28 88 29 28 30 87 31 29 32 30 33
REMARK SMILES IDX 31 34 81 35 32 36 86 37 80 38 82 39 33 40 85 41 79 42 78 43
REMARK SMILES IDX 34 45 66 46 46 47 65 48 47 49 50 50 64 51 83 52 48 53 49 54
REMARK SMILES IDX 63 56 84 57 51 58 35 59 36 60 44 61 37 62 39 63 45 64 38 65
REMARK SMILES IDX 40 66 41 67 42 68 43 69 67 70 68 71 76 72 69 73 71 74 77 75
REMARK SMILES IDX 70 76 72 77 73 78 74 79 75 80 52 81 53 82 61 83 54 84 56 85
REMARK SMILES IDX 62 86 55 87 57 88 58 89 59 90 60 91
REMARK H PARENT 82 44 50 55
REMARK Flexibility Score: inf
ROOT
ATOM      1  C   UNL A   1      32.619  29.781  27.250  1.00  0.00     0.202 C 
ENDROOT
BRANCH   1   2
ATOM      2  C   UNL A   1      33.612  28.621  27.173  1.00  0.00     0.261 C 
BRANCH   2   3
ATOM      3  O   UNL A   1      33.075  27.613  26.301  1.00  0.00    -0.459 OA
BRANCH   3   4
ATOM      4  C   UNL A   1      33.279  27.790  24.972  1.00  0.00     0.350 C 
ATOM      5  O   UNL A   1      34.384  27.808  24.443  1.00  0.00    -0.245 OA
BRANCH   4   6
ATOM      6  C   UNL A   1      32.014  27.830  24.273  1.00  0.00     0.137 A 
ATOM      7  C   UNL A   1      29.853  28.645  23.461  1.00  0.00     0.186 A 
ATOM      8  N   UNL A   1      30.066  27.413  23.070  1.00  0.00    -0.224 NA
ATOM      9  S   UNL A   1      31.165  29.329  24.331  1.00  0.00    -0.089 S 
ATOM     10  C   UNL A   1      31.310  26.933  23.481  1.00  0.00     0.071 A 
BRANCH   7  11
ATOM     11  N   UNL A   1      28.673  29.299  23.281  1.00  0.00    -0.346 N 
ATOM     12  C   UNL A   1      27.478  28.555  22.927  1.00  0.00     0.146 C 
BRANCH  11  13
ATOM     13  C   UNL A   1      28.707  30.745  22.988  1.00  0.00     0.107 C 
ATOM     14  C   UNL A   1      27.422  31.415  23.492  1.00  0.00     0.033 C 
BRANCH  13  15
ATOM     15  C   UNL A   1      28.996  31.032  21.497  1.00  0.00     0.184 C 
BRANCH  15  16
ATOM     16  O   UNL A   1      27.801  31.275  20.739  1.00  0.00    -0.383 OA
ATOM     17  C   UNL A   1      27.833  32.493  20.006  1.00  0.00     0.194 C 
ENDBRANCH  15  16
ENDBRANCH  13  15
ENDBRANCH  11  13
ENDBRANCH   7  11
BRANCH  10  18
ATOM     18  C   UNL A   1      31.628  25.527  23.016  1.00  0.00     0.034 C 
ATOM     19  C   UNL A   1      30.539  24.520  23.389  1.00  0.00     0.014 C 
ATOM     20  C   UNL A   1      32.029  25.426  21.547  1.00  0.00     0.014 C 
ENDBRANCH  10  18
ENDBRANCH   4   6
ENDBRANCH   3   4
ENDBRANCH   2   3
ENDBRANCH   1   2
BRANCH   1  21
ATOM     21  O   UNL A   1      33.244  31.037  27.534  1.00  0.00    -0.374 OA
BRANCH  21  22
ATOM     22  C   UNL A   1      34.642  30.983  27.832  1.00  0.00     0.202 C 
BRANCH  22  23
ATOM     23  C   UNL A   1      35.322  32.354  27.901  1.00  0.00     0.261 C 
BRANCH  23  24
ATOM     24  O   UNL A   1      34.345  33.409  27.863  1.00  0.00    -0.460 OA
BRANCH  24  25
ATOM     25  C   UNL A   1      33.935  33.860  29.073  1.00  0.00     0.338 C 
ATOM     26  O   UNL A   1      32.826  34.279  29.362  1.00  0.00    -0.246 OA
BRANCH  25  27
ATOM     27  C   UNL A   1      34.987  33.610  30.082  1.00  0.00     0.060 A 
ATOM     28  C   UNL A   1      36.194  34.308  29.939  1.00  0.00     0.016 A 
ATOM     29  C   UNL A   1      34.821  32.699  31.129  1.00  0.00     0.016 A 
ATOM     30  C   UNL A   1      37.252  34.064  30.813  1.00  0.00     0.010 A 
ATOM     31  C   UNL A   1      35.886  32.451  32.002  1.00  0.00     0.010 A 
ATOM     32  C   UNL A   1      37.116  33.110  31.829  1.00  0.00    -0.014 A 
BRANCH  32  33
ATOM     33  C   UNL A   1      38.300  32.723  32.635  1.00  0.00     0.031 A 
ATOM     34  C   UNL A   1      39.401  31.927  31.988  1.00  0.00     0.074 A 
ATOM     35  C   UNL A   1      38.397  33.081  33.928  1.00  0.00     0.049 A 
ATOM     36  N   UNL A   1      40.529  31.511  32.501  1.00  0.00    -0.248 NA
ATOM     37  C   UNL A   1      39.207  31.552  30.577  1.00  0.00     0.031 C 
ATOM     38  C   UNL A   1      37.395  33.845  34.671  1.00  0.00     0.029 A 
ATOM     39  N   UNL A   1      39.382  32.831  34.850  1.00  0.00    -0.354 N 
ATOM     40  C   UNL A   1      41.168  30.806  31.489  1.00  0.00     0.074 A 
ATOM     41  C   UNL A   1      40.301  30.844  30.333  1.00  0.00     0.031 C 
ATOM     42  C   UNL A   1      37.807  33.982  35.942  1.00  0.00     0.029 A 
ATOM     43  C   UNL A   1      39.093  33.306  36.108  1.00  0.00     0.049 A 
ATOM     44  H   UNL A   1      40.217  32.357  34.632  1.00  0.00     0.167 HD
ATOM     45  C   UNL A   1      42.379  30.202  31.513  1.00  0.00     0.034 A 
ATOM     46  C   UNL A   1      39.783  33.199  37.261  1.00  0.00     0.034 A 
ATOM     47  C   UNL A   1      43.260  30.192  32.650  1.00  0.00     0.049 A 
ATOM     48  C   UNL A   1      41.118  32.499  37.262  1.00  0.00     0.074 A 
ATOM     49  C   UNL A   1      44.539  29.673  32.742  1.00  0.00     0.029 A 
ATOM     50  N   UNL A   1      42.948  30.711  33.896  1.00  0.00    -0.354 N 
ATOM     51  N   UNL A   1      41.781  31.983  36.255  1.00  0.00    -0.248 NA
ATOM     52  C   UNL A   1      41.815  32.394  38.553  1.00  0.00     0.031 C 
ATOM     53  C   UNL A   1      44.994  29.861  34.051  1.00  0.00     0.029 A 
ATOM     54  C   UNL A   1      44.002  30.507  34.770  1.00  0.00     0.049 A 
ATOM     55  H   UNL A   1      42.102  31.159  34.126  1.00  0.00     0.167 HD
ATOM     56  C   UNL A   1      42.983  31.525  36.784  1.00  0.00     0.074 A 
ATOM     57  C   UNL A   1      42.968  31.843  38.195  1.00  0.00     0.031 C 
ATOM     58  C   UNL A   1      44.001  30.882  36.159  1.00  0.00     0.034 A 
BRANCH  45  59
ATOM     59  C   UNL A   1      42.853  29.530  30.254  1.00  0.00     0.023 A 
ATOM     60  C   UNL A   1      43.611  30.268  29.322  1.00  0.00     0.012 A 
ATOM     61  C   UNL A   1      42.621  28.160  30.033  1.00  0.00     0.148 A 
ATOM     62  C   UNL A   1      44.117  29.653  28.178  1.00  0.00     0.002 A 
ATOM     63  C   UNL A   1      43.157  27.546  28.907  1.00  0.00     0.091 A 
ATOM     64  F   UNL A   1      41.876  27.486  30.920  1.00  0.00    -0.205 F 
ATOM     65  C   UNL A   1      43.900  28.292  27.976  1.00  0.00     0.022 A 
BRANCH  63  66
ATOM     66  S   UNL A   1      42.989  25.786  28.591  1.00  0.00     0.127 S 
ATOM     67  O   UNL A   1      41.538  25.645  28.478  1.00  0.00    -0.237 OA
ATOM     68  O   UNL A   1      43.719  25.626  27.333  1.00  0.00    -0.237 OA
ATOM     69  O   UNL A   1      43.596  25.115  29.733  1.00  0.00    -0.744 OA
ENDBRANCH  63  66
ENDBRANCH  45  59
BRANCH  46  70
ATOM     70  C   UNL A   1      39.250  33.809  38.511  1.00  0.00     0.023 A 
ATOM     71  C   UNL A   1      39.710  35.077  38.912  1.00  0.00     0.012 A 
ATOM     72  C   UNL A   1      38.291  33.146  39.301  1.00  0.00     0.148 A 
ATOM     73  C   UNL A   1      39.248  35.663  40.092  1.00  0.00     0.002 A 
ATOM     74  C   UNL A   1      37.794  33.757  40.447  1.00  0.00     0.091 A 
ATOM     75  F   UNL A   1      37.884  31.927  38.920  1.00  0.00    -0.205 F 
ATOM     76  C   UNL A   1      38.282  35.009  40.853  1.00  0.00     0.022 A 
BRANCH  74  77
ATOM     77  S   UNL A   1      36.457  33.034  41.402  1.00  0.00     0.127 S 
ATOM     78  O   UNL A   1      35.632  32.434  40.358  1.00  0.00    -0.237 OA
ATOM     79  O   UNL A   1      37.166  32.078  42.254  1.00  0.00    -0.237 OA
ATOM     80  O   UNL A   1      35.862  34.149  42.130  1.00  0.00    -0.744 OA
ENDBRANCH  74  77
ENDBRANCH  46  70
BRANCH  58  81
ATOM     81  C   UNL A   1      45.199  30.494  36.986  1.00  0.00     0.023 A 
ATOM     82  C   UNL A   1      46.273  31.396  37.117  1.00  0.00     0.012 A 
ATOM     83  C   UNL A   1      45.225  29.280  37.700  1.00  0.00     0.148 A 
ATOM     84  C   UNL A   1      47.366  31.085  37.924  1.00  0.00     0.002 A 
ATOM     85  C   UNL A   1      46.299  28.995  38.537  1.00  0.00     0.091 A 
ATOM     86  F   UNL A   1      44.203  28.424  37.549  1.00  0.00    -0.205 F 
ATOM     87  C   UNL A   1      47.374  29.892  38.643  1.00  0.00     0.022 A 
BRANCH  85  88
ATOM     88  S   UNL A   1      46.344  27.524  39.569  1.00  0.00     0.127 S 
ATOM     89  O   UNL A   1      44.946  27.403  39.977  1.00  0.00    -0.237 OA
ATOM     90  O   UNL A   1      46.797  26.495  38.632  1.00  0.00    -0.237 OA
ATOM     91  O   UNL A   1      47.289  27.820  40.638  1.00  0.00    -0.744 OA
ENDBRANCH  85  88
ENDBRANCH  58  81
ENDBRANCH  32  33
ENDBRANCH  25  27
ENDBRANCH  24  25
ENDBRANCH  23  24
ENDBRANCH  22  23
ENDBRANCH  21  22
ENDBRANCH   1  21
TORSDOF 22
ENDMDL
