MODEL 1
REMARK VINA RESULT:     -11.0      0.000      0.000
REMARK SMILES COC(=O)[C@H]1CCN(S(=O)(=O)N2CCC[C@H](C(=O)OCCOCCOC(=O)c3ccc(-c4c5nc(c(-c6cccc(S(=O)(=O)[O-])c6F)c6ccc([nH]6)c(-c6cccc(S(=O)(=O)[O-])c6F)c6nc(c(-c7cccc(S(=O)(=O)[O-])c7F)c7ccc4[nH]7)C=C6)C=C5)cc3)C2)C1
REMARK SMILES IDX 21 1 20 2 19 3 17 4 18 5 16 6 12 7 13 8 91 9 14 10 15 11
REMARK SMILES IDX 9 12 10 13 11 14 8 15 5 16 6 17 92 18 7 19 3 20 4 21 2 22
REMARK SMILES IDX 1 23 22 24 23 25 24 26 25 27 26 28 27 29 28 30 29 31 90 32
REMARK SMILES IDX 30 33 89 34 31 35 32 36 33 37 83 38 34 39 88 40 82 41 84 42
REMARK SMILES IDX 35 43 87 44 81 45 80 46 36 48 68 49 48 50 67 51 49 52 52 53
REMARK SMILES IDX 66 54 85 55 50 56 51 57 65 59 86 60 53 61 37 62 38 63 46 64
REMARK SMILES IDX 39 65 41 66 47 67 40 68 42 69 43 70 44 71 45 72 69 73 70 74
REMARK SMILES IDX 78 75 71 76 73 77 79 78 72 79 74 80 75 81 76 82 77 83 54 84
REMARK SMILES IDX 55 85 63 86 56 87 58 88 64 89 57 90 59 91 60 92 61 93 62 94
REMARK H PARENT 84 47 52 58
REMARK Flexibility Score: inf
ROOT
ATOM      1  C   UNL A   1      34.188  20.786  24.763  1.00  0.00     0.202 C 
ENDROOT
BRANCH   1   2
ATOM      2  C   UNL A   1      32.671  20.923  24.633  1.00  0.00     0.261 C 
BRANCH   2   3
ATOM      3  O   UNL A   1      32.131  21.670  25.731  1.00  0.00    -0.463 OA
BRANCH   3   4
ATOM      4  C   UNL A   1      31.787  22.948  25.450  1.00  0.00     0.310 C 
ATOM      5  O   UNL A   1      30.931  23.291  24.640  1.00  0.00    -0.252 OA
BRANCH   4   6
ATOM      6  C   UNL A   1      32.518  23.959  26.304  1.00  0.00     0.114 C 
ATOM      7  N   UNL A   1      32.857  25.672  24.589  1.00  0.00    -0.188 NA
ATOM      8  C   UNL A   1      34.326  25.701  24.722  1.00  0.00     0.103 C 
ATOM      9  C   UNL A   1      32.135  25.330  25.820  1.00  0.00     0.118 C 
ATOM     10  C   UNL A   1      34.822  24.353  25.251  1.00  0.00     0.018 C 
ATOM     11  C   UNL A   1      34.038  23.870  26.470  1.00  0.00     0.018 C 
BRANCH   7  12
ATOM     12  S   UNL A   1      32.139  26.745  23.522  1.00  0.00     0.282 S 
ATOM     13  O   UNL A   1      31.570  25.994  22.428  1.00  0.00    -0.195 OA
ATOM     14  O   UNL A   1      33.067  27.824  23.288  1.00  0.00    -0.195 OA
BRANCH  12  15
ATOM     15  N   UNL A   1      30.839  27.379  24.424  1.00  0.00    -0.188 NA
ATOM     16  C   UNL A   1      29.425  29.181  23.564  1.00  0.00     0.116 C 
ATOM     17  C   UNL A   1      28.901  27.825  23.128  1.00  0.00     0.033 C 
ATOM     18  C   UNL A   1      30.751  28.880  24.275  1.00  0.00     0.118 C 
ATOM     19  C   UNL A   1      29.468  26.892  24.160  1.00  0.00     0.104 C 
BRANCH  16  20
ATOM     20  C   UNL A   1      29.554  30.087  22.364  1.00  0.00     0.310 C 
ATOM     21  O   UNL A   1      29.889  29.698  21.251  1.00  0.00    -0.252 OA
BRANCH  20  22
ATOM     22  O   UNL A   1      29.152  31.350  22.652  1.00  0.00    -0.469 OA
ATOM     23  C   UNL A   1      28.190  31.871  21.737  1.00  0.00     0.282 C 
ENDBRANCH  20  22
ENDBRANCH  16  20
ENDBRANCH  12  15
ENDBRANCH   7  12
ENDBRANCH   4   6
ENDBRANCH   3   4
ENDBRANCH   2   3
ENDBRANCH   1   2
BRANCH   1  24
ATOM     24  O   UNL A   1      34.762  19.487  24.618  1.00  0.00    -0.374 OA
BRANCH  24  25
ATOM     25  C   UNL A   1      36.123  19.299  25.001  1.00  0.00     0.202 C 
BRANCH  25  26
ATOM     26  C   UNL A   1      37.154  20.368  24.610  1.00  0.00     0.261 C 
BRANCH  26  27
ATOM     27  O   UNL A   1      37.545  21.219  25.701  1.00  0.00    -0.460 OA
BRANCH  27  28
ATOM     28  C   UNL A   1      38.862  21.138  26.025  1.00  0.00     0.338 C 
ATOM     29  O   UNL A   1      39.628  20.230  25.750  1.00  0.00    -0.246 OA
BRANCH  28  30
ATOM     30  C   UNL A   1      39.333  22.409  26.603  1.00  0.00     0.060 A 
ATOM     31  C   UNL A   1      38.711  23.584  26.162  1.00  0.00     0.016 A 
ATOM     32  C   UNL A   1      40.426  22.465  27.468  1.00  0.00     0.016 A 
ATOM     33  C   UNL A   1      39.206  24.826  26.548  1.00  0.00     0.010 A 
ATOM     34  C   UNL A   1      40.929  23.716  27.846  1.00  0.00     0.010 A 
ATOM     35  C   UNL A   1      40.343  24.901  27.360  1.00  0.00    -0.014 A 
BRANCH  35  36
ATOM     36  C   UNL A   1      40.980  26.216  27.607  1.00  0.00     0.031 A 
ATOM     37  C   UNL A   1      42.389  26.455  27.138  1.00  0.00     0.074 A 
ATOM     38  C   UNL A   1      40.302  27.193  28.237  1.00  0.00     0.049 A 
ATOM     39  N   UNL A   1      43.148  27.506  27.300  1.00  0.00    -0.248 NA
ATOM     40  C   UNL A   1      43.028  25.361  26.388  1.00  0.00     0.031 C 
ATOM     41  C   UNL A   1      38.926  27.088  28.718  1.00  0.00     0.029 A 
ATOM     42  N   UNL A   1      40.694  28.456  28.605  1.00  0.00    -0.354 N 
ATOM     43  C   UNL A   1      44.365  27.192  26.707  1.00  0.00     0.074 A 
ATOM     44  C   UNL A   1      44.245  25.849  26.184  1.00  0.00     0.031 C 
ATOM     45  C   UNL A   1      38.597  28.228  29.348  1.00  0.00     0.029 A 
ATOM     46  C   UNL A   1      39.751  29.125  29.346  1.00  0.00     0.049 A 
ATOM     47  H   UNL A   1      41.566  28.843  28.360  1.00  0.00     0.167 HD
ATOM     48  C   UNL A   1      45.479  27.956  26.602  1.00  0.00     0.034 A 
ATOM     49  C   UNL A   1      39.822  30.311  29.983  1.00  0.00     0.034 A 
ATOM     50  C   UNL A   1      45.588  29.298  27.111  1.00  0.00     0.049 A 
ATOM     51  C   UNL A   1      41.088  31.121  29.888  1.00  0.00     0.074 A 
ATOM     52  C   UNL A   1      46.657  30.171  27.009  1.00  0.00     0.029 A 
ATOM     53  N   UNL A   1      44.604  29.953  27.836  1.00  0.00    -0.354 N 
ATOM     54  N   UNL A   1      42.193  30.858  29.234  1.00  0.00    -0.248 NA
ATOM     55  C   UNL A   1      41.108  32.406  30.602  1.00  0.00     0.031 C 
ATOM     56  C   UNL A   1      46.336  31.338  27.712  1.00  0.00     0.029 A 
ATOM     57  C   UNL A   1      45.050  31.210  28.211  1.00  0.00     0.049 A 
ATOM     58  H   UNL A   1      43.720  29.581  28.052  1.00  0.00     0.167 HD
ATOM     59  C   UNL A   1      43.025  31.955  29.430  1.00  0.00     0.074 A 
ATOM     60  C   UNL A   1      42.286  32.898  30.243  1.00  0.00     0.031 C 
ATOM     61  C   UNL A   1      44.292  32.158  28.988  1.00  0.00     0.034 A 
BRANCH  48  62
ATOM     62  C   UNL A   1      46.676  27.363  25.903  1.00  0.00     0.023 A 
ATOM     63  C   UNL A   1      47.453  26.379  26.549  1.00  0.00     0.012 A 
ATOM     64  C   UNL A   1      46.993  27.736  24.581  1.00  0.00     0.148 A 
ATOM     65  C   UNL A   1      48.545  25.801  25.901  1.00  0.00     0.002 A 
ATOM     66  C   UNL A   1      48.053  27.121  23.928  1.00  0.00     0.091 A 
ATOM     67  F   UNL A   1      46.254  28.687  23.992  1.00  0.00    -0.205 F 
ATOM     68  C   UNL A   1      48.838  26.163  24.590  1.00  0.00     0.022 A 
BRANCH  66  69
ATOM     69  S   UNL A   1      48.463  27.461  22.211  1.00  0.00     0.127 S 
ATOM     70  O   UNL A   1      49.691  28.240  22.351  1.00  0.00    -0.237 OA
ATOM     71  O   UNL A   1      48.652  26.115  21.670  1.00  0.00    -0.237 OA
ATOM     72  O   UNL A   1      47.326  28.185  21.660  1.00  0.00    -0.744 OA
ENDBRANCH  66  69
ENDBRANCH  48  62
BRANCH  49  73
ATOM     73  C   UNL A   1      38.656  30.807  30.765  1.00  0.00     0.023 A 
ATOM     74  C   UNL A   1      38.640  30.655  32.165  1.00  0.00     0.012 A 
ATOM     75  C   UNL A   1      37.565  31.433  30.130  1.00  0.00     0.148 A 
ATOM     76  C   UNL A   1      37.546  31.090  32.915  1.00  0.00     0.002 A 
ATOM     77  C   UNL A   1      36.504  31.911  30.887  1.00  0.00     0.091 A 
ATOM     78  F   UNL A   1      37.595  31.554  28.795  1.00  0.00    -0.205 F 
ATOM     79  C   UNL A   1      36.484  31.726  32.277  1.00  0.00     0.022 A 
BRANCH  77  80
ATOM     80  S   UNL A   1      35.139  32.834  30.169  1.00  0.00     0.127 S 
ATOM     81  O   UNL A   1      34.242  32.977  31.313  1.00  0.00    -0.237 OA
ATOM     82  O   UNL A   1      35.802  34.070  29.750  1.00  0.00    -0.237 OA
ATOM     83  O   UNL A   1      34.637  32.011  29.078  1.00  0.00    -0.744 OA
ENDBRANCH  77  80
ENDBRANCH  49  73
BRANCH  61  84
ATOM     84  C   UNL A   1      44.957  33.463  29.346  1.00  0.00     0.023 A 
ATOM     85  C   UNL A   1      45.764  33.549  30.499  1.00  0.00     0.012 A 
ATOM     86  C   UNL A   1      44.833  34.588  28.506  1.00  0.00     0.148 A 
ATOM     87  C   UNL A   1      46.406  34.743  30.828  1.00  0.00     0.002 A 
ATOM     88  C   UNL A   1      45.519  35.758  28.812  1.00  0.00     0.091 A 
ATOM     89  F   UNL A   1      44.050  34.492  27.421  1.00  0.00    -0.205 F 
ATOM     90  C   UNL A   1      46.293  35.842  29.981  1.00  0.00     0.022 A 
BRANCH  88  91
ATOM     91  S   UNL A   1      45.512  37.194  27.732  1.00  0.00     0.127 S 
ATOM     92  O   UNL A   1      46.061  36.641  26.496  1.00  0.00    -0.237 OA
ATOM     93  O   UNL A   1      44.088  37.526  27.673  1.00  0.00    -0.237 OA
ATOM     94  O   UNL A   1      46.341  38.197  28.388  1.00  0.00    -0.744 OA
ENDBRANCH  88  91
ENDBRANCH  61  84
ENDBRANCH  35  36
ENDBRANCH  28  30
ENDBRANCH  27  28
ENDBRANCH  26  27
ENDBRANCH  25  26
ENDBRANCH  24  25
ENDBRANCH   1  24
TORSDOF 21
ENDMDL
MODEL 2
REMARK VINA RESULT:     -11.0      5.113     10.681
REMARK SMILES COC(=O)[C@H]1CCN(S(=O)(=O)N2CCC[C@H](C(=O)OCCOCCOC(=O)c3ccc(-c4c5nc(c(-c6cccc(S(=O)(=O)[O-])c6F)c6ccc([nH]6)c(-c6cccc(S(=O)(=O)[O-])c6F)c6nc(c(-c7cccc(S(=O)(=O)[O-])c7F)c7ccc4[nH]7)C=C6)C=C5)cc3)C2)C1
REMARK SMILES IDX 21 1 20 2 19 3 17 4 18 5 16 6 12 7 13 8 91 9 14 10 15 11
REMARK SMILES IDX 9 12 10 13 11 14 8 15 5 16 6 17 92 18 7 19 3 20 4 21 2 22
REMARK SMILES IDX 1 23 22 24 23 25 24 26 25 27 26 28 27 29 28 30 29 31 90 32
REMARK SMILES IDX 30 33 89 34 31 35 32 36 33 37 83 38 34 39 88 40 82 41 84 42
REMARK SMILES IDX 35 43 87 44 81 45 80 46 36 48 68 49 48 50 67 51 49 52 52 53
REMARK SMILES IDX 66 54 85 55 50 56 51 57 65 59 86 60 53 61 37 62 38 63 46 64
REMARK SMILES IDX 39 65 41 66 47 67 40 68 42 69 43 70 44 71 45 72 69 73 70 74
REMARK SMILES IDX 78 75 71 76 73 77 79 78 72 79 74 80 75 81 76 82 77 83 54 84
REMARK SMILES IDX 55 85 63 86 56 87 58 88 64 89 57 90 59 91 60 92 61 93 62 94
REMARK H PARENT 84 47 52 58
REMARK Flexibility Score: inf
ROOT
ATOM      1  C   UNL A   1      32.930  29.597  26.424  1.00  0.00     0.202 C 
ENDROOT
BRANCH   1   2
ATOM      2  C   UNL A   1      32.392  28.357  27.139  1.00  0.00     0.261 C 
BRANCH   2   3
ATOM      3  O   UNL A   1      33.074  27.177  26.693  1.00  0.00    -0.463 OA
BRANCH   3   4
ATOM      4  C   UNL A   1      32.871  26.845  25.397  1.00  0.00     0.310 C 
ATOM      5  O   UNL A   1      33.755  26.630  24.573  1.00  0.00    -0.252 OA
BRANCH   4   6
ATOM      6  C   UNL A   1      31.409  26.682  25.049  1.00  0.00     0.114 C 
ATOM      7  N   UNL A   1      31.280  24.246  25.247  1.00  0.00    -0.188 NA
ATOM      8  C   UNL A   1      30.800  24.028  23.869  1.00  0.00     0.103 C 
ATOM      9  C   UNL A   1      30.874  25.524  25.845  1.00  0.00     0.118 C 
ATOM     10  C   UNL A   1      31.259  25.183  22.975  1.00  0.00     0.018 C 
ATOM     11  C   UNL A   1      30.976  26.554  23.585  1.00  0.00     0.018 C 
BRANCH   7  12
ATOM     12  S   UNL A   1      31.429  22.914  26.252  1.00  0.00     0.282 S 
ATOM     13  O   UNL A   1      30.795  21.785  25.614  1.00  0.00    -0.195 OA
ATOM     14  O   UNL A   1      31.065  23.323  27.586  1.00  0.00    -0.195 OA
BRANCH  12  15
ATOM     15  N   UNL A   1      33.107  22.613  26.253  1.00  0.00    -0.188 NA
ATOM     16  C   UNL A   1      34.056  20.581  25.275  1.00  0.00     0.116 C 
ATOM     17  C   UNL A   1      33.912  21.671  24.228  1.00  0.00     0.033 C 
ATOM     18  C   UNL A   1      33.401  21.158  26.537  1.00  0.00     0.118 C 
ATOM     19  C   UNL A   1      33.901  22.931  25.047  1.00  0.00     0.104 C 
BRANCH  16  20
ATOM     20  C   UNL A   1      33.425  19.306  24.773  1.00  0.00     0.310 C 
ATOM     21  O   UNL A   1      32.217  19.154  24.635  1.00  0.00    -0.252 OA
BRANCH  20  22
ATOM     22  O   UNL A   1      34.365  18.402  24.400  1.00  0.00    -0.469 OA
ATOM     23  C   UNL A   1      33.853  17.338  23.600  1.00  0.00     0.282 C 
ENDBRANCH  20  22
ENDBRANCH  16  20
ENDBRANCH  12  15
ENDBRANCH   7  12
ENDBRANCH   4   6
ENDBRANCH   3   4
ENDBRANCH   2   3
ENDBRANCH   1   2
BRANCH   1  24
ATOM     24  O   UNL A   1      32.056  30.295  25.538  1.00  0.00    -0.374 OA
BRANCH  24  25
ATOM     25  C   UNL A   1      31.339  31.422  26.037  1.00  0.00     0.202 C 
BRANCH  25  26
ATOM     26  C   UNL A   1      31.889  32.162  27.266  1.00  0.00     0.261 C 
BRANCH  26  27
ATOM     27  O   UNL A   1      32.604  33.366  26.941  1.00  0.00    -0.460 OA
BRANCH  27  28
ATOM     28  C   UNL A   1      33.240  33.937  27.997  1.00  0.00     0.338 C 
ATOM     29  O   UNL A   1      32.829  34.849  28.693  1.00  0.00    -0.246 OA
BRANCH  28  30
ATOM     30  C   UNL A   1      34.453  33.175  28.346  1.00  0.00     0.060 A 
ATOM     31  C   UNL A   1      34.272  31.887  28.869  1.00  0.00     0.016 A 
ATOM     32  C   UNL A   1      35.725  33.740  28.272  1.00  0.00     0.016 A 
ATOM     33  C   UNL A   1      35.360  31.173  29.361  1.00  0.00     0.010 A 
ATOM     34  C   UNL A   1      36.817  33.024  28.779  1.00  0.00     0.010 A 
ATOM     35  C   UNL A   1      36.634  31.753  29.357  1.00  0.00    -0.014 A 
BRANCH  35  36
ATOM     36  C   UNL A   1      37.749  31.073  30.058  1.00  0.00     0.031 A 
ATOM     37  C   UNL A   1      38.028  31.402  31.499  1.00  0.00     0.074 A 
ATOM     38  C   UNL A   1      38.501  30.161  29.415  1.00  0.00     0.049 A 
ATOM     39  N   UNL A   1      38.983  30.968  32.278  1.00  0.00    -0.248 NA
ATOM     40  C   UNL A   1      37.108  32.351  32.148  1.00  0.00     0.031 C 
ATOM     41  C   UNL A   1      38.315  29.742  28.027  1.00  0.00     0.029 A 
ATOM     42  N   UNL A   1      39.592  29.446  29.840  1.00  0.00    -0.354 N 
ATOM     43  C   UNL A   1      38.805  31.613  33.496  1.00  0.00     0.074 A 
ATOM     44  C   UNL A   1      37.650  32.474  33.352  1.00  0.00     0.031 C 
ATOM     45  C   UNL A   1      39.280  28.867  27.703  1.00  0.00     0.029 A 
ATOM     46  C   UNL A   1      40.172  28.693  28.848  1.00  0.00     0.049 A 
ATOM     47  H   UNL A   1      39.927  29.470  30.766  1.00  0.00     0.167 HD
ATOM     48  C   UNL A   1      39.532  31.494  34.632  1.00  0.00     0.034 A 
ATOM     49  C   UNL A   1      41.313  27.975  28.850  1.00  0.00     0.034 A 
ATOM     50  C   UNL A   1      40.671  30.625  34.774  1.00  0.00     0.049 A 
ATOM     51  C   UNL A   1      42.128  27.896  30.114  1.00  0.00     0.074 A 
ATOM     52  C   UNL A   1      41.442  30.397  35.900  1.00  0.00     0.029 A 
ATOM     53  N   UNL A   1      41.215  29.859  33.755  1.00  0.00    -0.354 N 
ATOM     54  N   UNL A   1      41.888  28.425  31.289  1.00  0.00    -0.248 NA
ATOM     55  C   UNL A   1      43.361  27.097  30.059  1.00  0.00     0.031 C 
ATOM     56  C   UNL A   1      42.480  29.527  35.549  1.00  0.00     0.029 A 
ATOM     57  C   UNL A   1      42.329  29.177  34.217  1.00  0.00     0.049 A 
ATOM     58  H   UNL A   1      40.863  29.807  32.838  1.00  0.00     0.167 HD
ATOM     59  C   UNL A   1      42.921  28.000  32.119  1.00  0.00     0.074 A 
ATOM     60  C   UNL A   1      43.774  27.147  31.318  1.00  0.00     0.031 C 
ATOM     61  C   UNL A   1      43.149  28.299  33.422  1.00  0.00     0.034 A 
BRANCH  48  62
ATOM     62  C   UNL A   1      39.118  32.322  35.822  1.00  0.00     0.023 A 
ATOM     63  C   UNL A   1      38.182  31.811  36.745  1.00  0.00     0.012 A 
ATOM     64  C   UNL A   1      39.705  33.581  36.059  1.00  0.00     0.148 A 
ATOM     65  C   UNL A   1      37.813  32.554  37.865  1.00  0.00     0.002 A 
ATOM     66  C   UNL A   1      39.366  34.295  37.202  1.00  0.00     0.091 A 
ATOM     67  F   UNL A   1      40.577  34.058  35.160  1.00  0.00    -0.205 F 
ATOM     68  C   UNL A   1      38.412  33.789  38.100  1.00  0.00     0.022 A 
BRANCH  66  69
ATOM     69  S   UNL A   1      40.141  35.858  37.634  1.00  0.00     0.127 S 
ATOM     70  O   UNL A   1      39.662  36.729  36.563  1.00  0.00    -0.237 OA
ATOM     71  O   UNL A   1      39.560  36.133  38.949  1.00  0.00    -0.237 OA
ATOM     72  O   UNL A   1      41.575  35.610  37.641  1.00  0.00    -0.744 OA
ENDBRANCH  66  69
ENDBRANCH  48  62
BRANCH  49  73
ATOM     73  C   UNL A   1      41.751  27.269  27.615  1.00  0.00     0.023 A 
ATOM     74  C   UNL A   1      42.222  28.014  26.516  1.00  0.00     0.012 A 
ATOM     75  C   UNL A   1      41.707  25.863  27.524  1.00  0.00     0.148 A 
ATOM     76  C   UNL A   1      42.613  27.373  25.339  1.00  0.00     0.002 A 
ATOM     77  C   UNL A   1      42.148  25.230  26.370  1.00  0.00     0.091 A 
ATOM     78  F   UNL A   1      41.242  25.175  28.577  1.00  0.00    -0.205 F 
ATOM     79  C   UNL A   1      42.586  25.983  25.270  1.00  0.00     0.022 A 
BRANCH  77  80
ATOM     80  S   UNL A   1      42.247  23.441  26.223  1.00  0.00     0.127 S 
ATOM     81  O   UNL A   1      42.900  23.285  24.926  1.00  0.00    -0.237 OA
ATOM     82  O   UNL A   1      43.079  23.093  27.375  1.00  0.00    -0.237 OA
ATOM     83  O   UNL A   1      40.874  22.963  26.295  1.00  0.00    -0.744 OA
ENDBRANCH  77  80
ENDBRANCH  49  73
BRANCH  61  84
ATOM     84  C   UNL A   1      44.355  27.677  34.082  1.00  0.00     0.023 A 
ATOM     85  C   UNL A   1      45.603  28.329  34.025  1.00  0.00     0.012 A 
ATOM     86  C   UNL A   1      44.237  26.477  34.812  1.00  0.00     0.148 A 
ATOM     87  C   UNL A   1      46.721  27.779  34.652  1.00  0.00     0.002 A 
ATOM     88  C   UNL A   1      45.343  25.963  35.479  1.00  0.00     0.091 A 
ATOM     89  F   UNL A   1      43.045  25.864  34.844  1.00  0.00    -0.205 F 
ATOM     90  C   UNL A   1      46.589  26.604  35.387  1.00  0.00     0.022 A 
BRANCH  88  91
ATOM     91  S   UNL A   1      45.249  24.508  36.529  1.00  0.00     0.127 S 
ATOM     92  O   UNL A   1      46.634  24.374  36.977  1.00  0.00    -0.237 OA
ATOM     93  O   UNL A   1      44.310  24.938  37.566  1.00  0.00    -0.237 OA
ATOM     94  O   UNL A   1      44.762  23.428  35.680  1.00  0.00    -0.744 OA
ENDBRANCH  88  91
ENDBRANCH  61  84
ENDBRANCH  35  36
ENDBRANCH  28  30
ENDBRANCH  27  28
ENDBRANCH  26  27
ENDBRANCH  25  26
ENDBRANCH  24  25
ENDBRANCH   1  24
TORSDOF 21
ENDMDL
MODEL 3
REMARK VINA RESULT:     -11.0      1.482      2.324
REMARK SMILES COC(=O)[C@H]1CCN(S(=O)(=O)N2CCC[C@H](C(=O)OCCOCCOC(=O)c3ccc(-c4c5nc(c(-c6cccc(S(=O)(=O)[O-])c6F)c6ccc([nH]6)c(-c6cccc(S(=O)(=O)[O-])c6F)c6nc(c(-c7cccc(S(=O)(=O)[O-])c7F)c7ccc4[nH]7)C=C6)C=C5)cc3)C2)C1
REMARK SMILES IDX 21 1 20 2 19 3 17 4 18 5 16 6 12 7 13 8 91 9 14 10 15 11
REMARK SMILES IDX 9 12 10 13 11 14 8 15 5 16 6 17 92 18 7 19 3 20 4 21 2 22
REMARK SMILES IDX 1 23 22 24 23 25 24 26 25 27 26 28 27 29 28 30 29 31 90 32
REMARK SMILES IDX 30 33 89 34 31 35 32 36 33 37 83 38 34 39 88 40 82 41 84 42
REMARK SMILES IDX 35 43 87 44 81 45 80 46 36 48 68 49 48 50 67 51 49 52 52 53
REMARK SMILES IDX 66 54 85 55 50 56 51 57 65 59 86 60 53 61 37 62 38 63 46 64
REMARK SMILES IDX 39 65 41 66 47 67 40 68 42 69 43 70 44 71 45 72 69 73 70 74
REMARK SMILES IDX 78 75 71 76 73 77 79 78 72 79 74 80 75 81 76 82 77 83 54 84
REMARK SMILES IDX 55 85 63 86 56 87 58 88 64 89 57 90 59 91 60 92 61 93 62 94
REMARK H PARENT 84 47 52 58
REMARK Flexibility Score: inf
ROOT
ATOM      1  C   UNL A   1      38.250  22.078  25.830  1.00  0.00     0.202 C 
ENDROOT
BRANCH   1   2
ATOM      2  C   UNL A   1      37.666  23.490  25.774  1.00  0.00     0.261 C 
BRANCH   2   3
ATOM      3  O   UNL A   1      36.838  23.652  24.615  1.00  0.00    -0.463 OA
BRANCH   3   4
ATOM      4  C   UNL A   1      35.517  23.806  24.861  1.00  0.00     0.310 C 
ATOM      5  O   UNL A   1      35.037  24.486  25.763  1.00  0.00    -0.252 OA
BRANCH   4   6
ATOM      6  C   UNL A   1      34.640  23.103  23.849  1.00  0.00     0.114 C 
ATOM      7  N   UNL A   1      32.526  24.200  24.409  1.00  0.00    -0.188 NA
ATOM      8  C   UNL A   1      31.802  22.948  24.702  1.00  0.00     0.103 C 
ATOM      9  C   UNL A   1      33.585  24.077  23.401  1.00  0.00     0.118 C 
ATOM     10  C   UNL A   1      32.798  21.867  25.132  1.00  0.00     0.018 C 
ATOM     11  C   UNL A   1      33.996  21.757  24.192  1.00  0.00     0.018 C 
BRANCH   7  12
ATOM     12  S   UNL A   1      31.675  25.641  24.491  1.00  0.00     0.282 S 
ATOM     13  O   UNL A   1      31.665  26.091  25.863  1.00  0.00    -0.195 OA
ATOM     14  O   UNL A   1      30.451  25.475  23.747  1.00  0.00    -0.195 OA
BRANCH  12  15
ATOM     15  N   UNL A   1      32.659  26.724  23.616  1.00  0.00    -0.188 NA
ATOM     16  C   UNL A   1      31.780  28.812  22.694  1.00  0.00     0.116 C 
ATOM     17  C   UNL A   1      32.255  29.007  24.123  1.00  0.00     0.033 C 
ATOM     18  C   UNL A   1      31.916  27.306  22.436  1.00  0.00     0.118 C 
ATOM     19  C   UNL A   1      33.245  27.891  24.308  1.00  0.00     0.104 C 
BRANCH  16  20
ATOM     20  C   UNL A   1      30.377  29.345  22.547  1.00  0.00     0.310 C 
ATOM     21  O   UNL A   1      29.721  29.260  21.515  1.00  0.00    -0.252 OA
BRANCH  20  22
ATOM     22  O   UNL A   1      29.904  29.828  23.724  1.00  0.00    -0.469 OA
ATOM     23  C   UNL A   1      28.904  30.834  23.572  1.00  0.00     0.282 C 
ENDBRANCH  20  22
ENDBRANCH  16  20
ENDBRANCH  12  15
ENDBRANCH   7  12
ENDBRANCH   4   6
ENDBRANCH   3   4
ENDBRANCH   2   3
ENDBRANCH   1   2
BRANCH   1  24
ATOM     24  O   UNL A   1      37.805  21.126  24.863  1.00  0.00    -0.374 OA
BRANCH  24  25
ATOM     25  C   UNL A   1      38.401  19.831  24.860  1.00  0.00     0.202 C 
BRANCH  25  26
ATOM     26  C   UNL A   1      39.383  19.468  25.984  1.00  0.00     0.261 C 
BRANCH  26  27
ATOM     27  O   UNL A   1      40.748  19.361  25.546  1.00  0.00    -0.460 OA
BRANCH  27  28
ATOM     28  C   UNL A   1      41.664  19.647  26.507  1.00  0.00     0.338 C 
ATOM     29  O   UNL A   1      42.496  18.887  26.974  1.00  0.00    -0.246 OA
BRANCH  28  30
ATOM     30  C   UNL A   1      41.674  21.090  26.803  1.00  0.00     0.060 A 
ATOM     31  C   UNL A   1      41.776  21.967  25.714  1.00  0.00     0.016 A 
ATOM     32  C   UNL A   1      41.696  21.575  28.110  1.00  0.00     0.016 A 
ATOM     33  C   UNL A   1      41.944  23.332  25.928  1.00  0.00     0.010 A 
ATOM     34  C   UNL A   1      41.877  22.948  28.322  1.00  0.00     0.010 A 
ATOM     35  C   UNL A   1      42.037  23.826  27.234  1.00  0.00    -0.014 A 
BRANCH  35  36
ATOM     36  C   UNL A   1      42.411  25.243  27.454  1.00  0.00     0.031 A 
ATOM     37  C   UNL A   1      43.767  25.727  27.017  1.00  0.00     0.074 A 
ATOM     38  C   UNL A   1      41.543  26.094  28.032  1.00  0.00     0.049 A 
ATOM     39  N   UNL A   1      44.313  26.905  27.166  1.00  0.00    -0.248 NA
ATOM     40  C   UNL A   1      44.622  24.750  26.323  1.00  0.00     0.031 C 
ATOM     41  C   UNL A   1      40.195  25.749  28.477  1.00  0.00     0.029 A 
ATOM     42  N   UNL A   1      41.683  27.417  28.368  1.00  0.00    -0.354 N 
ATOM     43  C   UNL A   1      45.586  26.806  26.618  1.00  0.00     0.074 A 
ATOM     44  C   UNL A   1      45.734  25.449  26.137  1.00  0.00     0.031 C 
ATOM     45  C   UNL A   1      39.640  26.825  29.060  1.00  0.00     0.029 A 
ATOM     46  C   UNL A   1      40.608  27.920  29.061  1.00  0.00     0.049 A 
ATOM     47  H   UNL A   1      42.476  27.953  28.136  1.00  0.00     0.167 HD
ATOM     48  C   UNL A   1      46.543  27.760  26.519  1.00  0.00     0.034 A 
ATOM     49  C   UNL A   1      40.437  29.115  29.660  1.00  0.00     0.034 A 
ATOM     50  C   UNL A   1      46.384  29.112  26.986  1.00  0.00     0.049 A 
ATOM     51  C   UNL A   1      41.535  30.143  29.573  1.00  0.00     0.074 A 
ATOM     52  C   UNL A   1      47.276  30.166  26.885  1.00  0.00     0.029 A 
ATOM     53  N   UNL A   1      45.273  29.594  27.660  1.00  0.00    -0.354 N 
ATOM     54  N   UNL A   1      42.690  30.072  28.959  1.00  0.00    -0.248 NA
ATOM     55  C   UNL A   1      41.292  31.430  30.244  1.00  0.00     0.031 C 
ATOM     56  C   UNL A   1      46.722  31.272  27.539  1.00  0.00     0.029 A 
ATOM     57  C   UNL A   1      45.466  30.921  28.006  1.00  0.00     0.049 A 
ATOM     58  H   UNL A   1      44.466  29.069  27.864  1.00  0.00     0.167 HD
ATOM     59  C   UNL A   1      43.299  31.310  29.142  1.00  0.00     0.074 A 
ATOM     60  C   UNL A   1      42.371  32.121  29.902  1.00  0.00     0.031 C 
ATOM     61  C   UNL A   1      44.520  31.732  28.729  1.00  0.00     0.034 A 
BRANCH  48  62
ATOM     62  C   UNL A   1      47.852  27.380  25.874  1.00  0.00     0.023 A 
ATOM     63  C   UNL A   1      48.886  26.824  26.653  1.00  0.00     0.012 A 
ATOM     64  C   UNL A   1      48.032  27.518  24.483  1.00  0.00     0.148 A 
ATOM     65  C   UNL A   1      50.090  26.441  26.063  1.00  0.00     0.002 A 
ATOM     66  C   UNL A   1      49.217  27.091  23.897  1.00  0.00     0.091 A 
ATOM     67  F   UNL A   1      47.045  28.068  23.762  1.00  0.00    -0.205 F 
ATOM     68  C   UNL A   1      50.252  26.564  24.686  1.00  0.00     0.022 A 
BRANCH  66  69
ATOM     69  S   UNL A   1      49.492  27.134  22.121  1.00  0.00     0.127 S 
ATOM     70  O   UNL A   1      48.528  26.141  21.651  1.00  0.00    -0.237 OA
ATOM     71  O   UNL A   1      49.150  28.518  21.792  1.00  0.00    -0.237 OA
ATOM     72  O   UNL A   1      50.891  26.787  21.920  1.00  0.00    -0.744 OA
ENDBRANCH  66  69
ENDBRANCH  48  62
BRANCH  49  73
ATOM     73  C   UNL A   1      39.174  29.408  30.392  1.00  0.00     0.023 A 
ATOM     74  C   UNL A   1      38.944  28.816  31.649  1.00  0.00     0.012 A 
ATOM     75  C   UNL A   1      38.201  30.273  29.851  1.00  0.00     0.148 A 
ATOM     76  C   UNL A   1      37.755  29.057  32.340  1.00  0.00     0.002 A 
ATOM     77  C   UNL A   1      37.045  30.549  30.568  1.00  0.00     0.091 A 
ATOM     78  F   UNL A   1      38.435  30.813  28.646  1.00  0.00    -0.205 F 
ATOM     79  C   UNL A   1      36.812  29.930  31.805  1.00  0.00     0.022 A 
BRANCH  77  80
ATOM     80  S   UNL A   1      35.819  31.738  30.008  1.00  0.00     0.127 S 
ATOM     81  O   UNL A   1      35.189  31.018  28.904  1.00  0.00    -0.237 OA
ATOM     82  O   UNL A   1      34.982  31.888  31.199  1.00  0.00    -0.237 OA
ATOM     83  O   UNL A   1      36.566  32.930  29.634  1.00  0.00    -0.744 OA
ENDBRANCH  77  80
ENDBRANCH  49  73
BRANCH  61  84
ATOM     84  C   UNL A   1      44.920  33.148  29.062  1.00  0.00     0.023 A 
ATOM     85  C   UNL A   1      45.526  33.435  30.302  1.00  0.00     0.012 A 
ATOM     86  C   UNL A   1      44.753  34.183  28.120  1.00  0.00     0.148 A 
ATOM     87  C   UNL A   1      45.925  34.735  30.613  1.00  0.00     0.002 A 
ATOM     88  C   UNL A   1      45.201  35.465  28.416  1.00  0.00     0.091 A 
ATOM     89  F   UNL A   1      44.162  33.894  26.952  1.00  0.00    -0.205 F 
ATOM     90  C   UNL A   1      45.773  35.746  29.668  1.00  0.00     0.022 A 
BRANCH  88  91
ATOM     91  S   UNL A   1      45.136  36.811  27.228  1.00  0.00     0.127 S 
ATOM     92  O   UNL A   1      43.699  36.920  26.979  1.00  0.00    -0.237 OA
ATOM     93  O   UNL A   1      45.710  37.921  27.989  1.00  0.00    -0.237 OA
ATOM     94  O   UNL A   1      45.934  36.382  26.087  1.00  0.00    -0.744 OA
ENDBRANCH  88  91
ENDBRANCH  61  84
ENDBRANCH  35  36
ENDBRANCH  28  30
ENDBRANCH  27  28
ENDBRANCH  26  27
ENDBRANCH  25  26
ENDBRANCH  24  25
ENDBRANCH   1  24
TORSDOF 21
ENDMDL
