MODEL 1
REMARK VINA RESULT:     -11.1      0.000      0.000
REMARK SMILES O=C(Cc1cccn1-c1ccc2c(c1)OCCO2)OCCOCCOC(=O)c1ccc(-c2c3nc(c(-c4cccc(S(=O)(=O)[O-])c4F)c4ccc([nH]4)c(-c4cccc(S(=O)(=O)[O-])c4F)c4nc(c(-c5cccc(S(=O)(=O)[O-])c5F)c5ccc2[nH]5)C=C4)C=C3)cc1
REMARK SMILES IDX 23 1 22 2 21 3 20 4 19 5 2 6 1 7 3 8 4 9 5 10 8 11 6 12 7 13
REMARK SMILES IDX 9 14 10 15 14 16 11 17 13 18 12 19 15 20 18 21 16 22 17 23
REMARK SMILES IDX 24 24 25 25 26 26 27 27 28 28 29 29 90 30 30 31 89 32 31 33
REMARK SMILES IDX 32 34 33 35 83 36 34 37 88 38 82 39 84 40 35 41 87 42 81 43
REMARK SMILES IDX 80 44 36 46 68 47 48 48 67 49 49 50 52 51 66 52 85 53 50 54
REMARK SMILES IDX 51 55 65 57 86 58 53 59 37 60 38 61 46 62 39 63 41 64 47 65
REMARK SMILES IDX 40 66 42 67 43 68 44 69 45 70 69 71 70 72 78 73 71 74 73 75
REMARK SMILES IDX 79 76 72 77 74 78 75 79 76 80 77 81 54 82 55 83 63 84 56 85
REMARK SMILES IDX 58 86 64 87 57 88 59 89 60 90 61 91 62 92
REMARK H PARENT 84 45 52 56
REMARK Flexibility Score: inf
ROOT
ATOM      1  C   UNL A   1      38.692  21.900  26.197  1.00  0.00     0.202 C 
ENDROOT
BRANCH   1   2
ATOM      2  O   UNL A   1      37.957  22.715  25.275  1.00  0.00    -0.374 OA
BRANCH   2   3
ATOM      3  C   UNL A   1      37.087  22.013  24.387  1.00  0.00     0.202 C 
BRANCH   3   4
ATOM      4  C   UNL A   1      36.529  22.868  23.265  1.00  0.00     0.261 C 
BRANCH   4   5
ATOM      5  O   UNL A   1      35.231  23.413  23.570  1.00  0.00    -0.463 OA
BRANCH   5   6
ATOM      6  C   UNL A   1      34.055  23.089  22.990  1.00  0.00     0.311 C 
ATOM      7  O   UNL A   1      33.911  23.284  21.781  1.00  0.00    -0.252 OA
BRANCH   6   8
ATOM      8  C   UNL A   1      32.890  22.566  23.809  1.00  0.00     0.177 C 
BRANCH   8   9
ATOM      9  C   UNL A   1      33.212  22.346  25.250  1.00  0.00     0.034 A 
ATOM     10  C   UNL A   1      33.672  21.168  25.819  1.00  0.00     0.024 A 
ATOM     11  N   UNL A   1      33.264  23.351  26.218  1.00  0.00    -0.320 N 
ATOM     12  C   UNL A   1      34.135  21.468  27.109  1.00  0.00     0.020 A 
ATOM     13  C   UNL A   1      33.902  22.806  27.321  1.00  0.00     0.091 A 
BRANCH  11  14
ATOM     14  C   UNL A   1      32.793  24.702  26.159  1.00  0.00     0.049 A 
ATOM     15  C   UNL A   1      31.410  24.952  26.182  1.00  0.00     0.031 A 
ATOM     16  C   UNL A   1      33.681  25.778  26.017  1.00  0.00     0.077 A 
ATOM     17  C   UNL A   1      30.920  26.254  26.039  1.00  0.00     0.052 A 
ATOM     18  C   UNL A   1      33.183  27.078  25.873  1.00  0.00     0.163 A 
ATOM     19  C   UNL A   1      31.805  27.310  25.853  1.00  0.00     0.161 A 
ATOM     20  O   UNL A   1      34.110  28.080  25.716  1.00  0.00    -0.486 OA
ATOM     21  O   UNL A   1      31.249  28.546  25.639  1.00  0.00    -0.486 OA
ATOM     22  C   UNL A   1      33.514  29.377  25.853  1.00  0.00     0.271 C 
ATOM     23  C   UNL A   1      32.206  29.451  25.081  1.00  0.00     0.271 C 
ENDBRANCH  11  14
ENDBRANCH   8   9
ENDBRANCH   6   8
ENDBRANCH   5   6
ENDBRANCH   4   5
ENDBRANCH   3   4
ENDBRANCH   2   3
ENDBRANCH   1   2
BRANCH   1  24
ATOM     24  C   UNL A   1      39.345  20.681  25.582  1.00  0.00     0.261 C 
BRANCH  24  25
ATOM     25  O   UNL A   1      40.092  20.004  26.573  1.00  0.00    -0.460 OA
BRANCH  25  26
ATOM     26  C   UNL A   1      41.291  19.532  26.194  1.00  0.00     0.338 C 
ATOM     27  O   UNL A   1      41.560  18.407  25.772  1.00  0.00    -0.246 OA
BRANCH  26  28
ATOM     28  C   UNL A   1      42.283  20.547  26.527  1.00  0.00     0.060 A 
ATOM     29  C   UNL A   1      42.294  20.990  27.851  1.00  0.00     0.016 A 
ATOM     30  C   UNL A   1      42.850  21.279  25.476  1.00  0.00     0.016 A 
ATOM     31  C   UNL A   1      42.666  22.291  28.086  1.00  0.00     0.010 A 
ATOM     32  C   UNL A   1      43.119  22.600  25.694  1.00  0.00     0.010 A 
ATOM     33  C   UNL A   1      42.987  23.099  26.989  1.00  0.00    -0.014 A 
BRANCH  33  34
ATOM     34  C   UNL A   1      43.295  24.503  27.229  1.00  0.00     0.031 A 
ATOM     35  C   UNL A   1      42.011  25.266  27.503  1.00  0.00     0.074 A 
ATOM     36  C   UNL A   1      44.608  24.848  27.092  1.00  0.00     0.049 A 
ATOM     37  N   UNL A   1      41.641  26.425  27.053  1.00  0.00    -0.248 NA
ATOM     38  C   UNL A   1      40.894  24.578  28.211  1.00  0.00     0.031 C 
ATOM     39  C   UNL A   1      45.711  23.895  26.820  1.00  0.00     0.029 A 
ATOM     40  N   UNL A   1      45.291  26.042  27.146  1.00  0.00    -0.354 N 
ATOM     41  C   UNL A   1      40.387  26.685  27.638  1.00  0.00     0.074 A 
ATOM     42  C   UNL A   1      39.885  25.444  28.129  1.00  0.00     0.031 C 
ATOM     43  C   UNL A   1      46.882  24.545  26.660  1.00  0.00     0.029 A 
ATOM     44  C   UNL A   1      46.672  25.970  26.849  1.00  0.00     0.049 A 
ATOM     45  H   UNL A   1      44.847  26.889  27.378  1.00  0.00     0.167 HD
ATOM     46  C   UNL A   1      39.947  27.946  27.899  1.00  0.00     0.034 A 
ATOM     47  C   UNL A   1      47.575  26.990  26.722  1.00  0.00     0.034 A 
ATOM     48  C   UNL A   1      40.962  28.884  27.534  1.00  0.00     0.049 A 
ATOM     49  C   UNL A   1      46.853  28.217  27.094  1.00  0.00     0.074 A 
ATOM     50  C   UNL A   1      41.430  29.345  26.333  1.00  0.00     0.029 A 
ATOM     51  N   UNL A   1      41.876  29.163  28.525  1.00  0.00    -0.354 N 
ATOM     52  N   UNL A   1      46.502  28.531  28.307  1.00  0.00    -0.248 NA
ATOM     53  C   UNL A   1      46.367  29.105  26.031  1.00  0.00     0.031 C 
ATOM     54  C   UNL A   1      42.798  29.600  26.574  1.00  0.00     0.029 A 
ATOM     55  C   UNL A   1      43.087  29.409  27.932  1.00  0.00     0.049 A 
ATOM     56  H   UNL A   1      41.691  29.184  29.493  1.00  0.00     0.167 HD
ATOM     57  C   UNL A   1      45.470  29.412  28.091  1.00  0.00     0.074 A 
ATOM     58  C   UNL A   1      45.671  29.962  26.771  1.00  0.00     0.031 C 
ATOM     59  C   UNL A   1      44.282  29.219  28.725  1.00  0.00     0.034 A 
BRANCH  46  60
ATOM     60  C   UNL A   1      38.807  28.472  28.728  1.00  0.00     0.023 A 
ATOM     61  C   UNL A   1      37.819  29.184  27.996  1.00  0.00     0.012 A 
ATOM     62  C   UNL A   1      38.757  28.559  30.131  1.00  0.00     0.148 A 
ATOM     63  C   UNL A   1      36.907  30.038  28.610  1.00  0.00     0.002 A 
ATOM     64  C   UNL A   1      37.797  29.364  30.745  1.00  0.00     0.091 A 
ATOM     65  F   UNL A   1      39.688  27.954  30.875  1.00  0.00    -0.205 F 
ATOM     66  C   UNL A   1      36.903  30.134  29.989  1.00  0.00     0.022 A 
BRANCH  64  67
ATOM     67  S   UNL A   1      37.638  29.461  32.533  1.00  0.00     0.127 S 
ATOM     68  O   UNL A   1      38.839  30.199  32.908  1.00  0.00    -0.237 OA
ATOM     69  O   UNL A   1      36.390  30.213  32.692  1.00  0.00    -0.237 OA
ATOM     70  O   UNL A   1      37.549  28.077  32.982  1.00  0.00    -0.744 OA
ENDBRANCH  64  67
ENDBRANCH  46  60
BRANCH  47  71
ATOM     71  C   UNL A   1      48.987  27.134  26.204  1.00  0.00     0.023 A 
ATOM     72  C   UNL A   1      50.137  26.887  26.967  1.00  0.00     0.012 A 
ATOM     73  C   UNL A   1      49.214  27.476  24.838  1.00  0.00     0.148 A 
ATOM     74  C   UNL A   1      51.419  26.870  26.381  1.00  0.00     0.002 A 
ATOM     75  C   UNL A   1      50.459  27.345  24.235  1.00  0.00     0.091 A 
ATOM     76  F   UNL A   1      48.218  27.980  24.104  1.00  0.00    -0.205 F 
ATOM     77  C   UNL A   1      51.576  27.051  25.009  1.00  0.00     0.022 A 
BRANCH  75  78
ATOM     78  S   UNL A   1      50.651  27.396  22.442  1.00  0.00     0.127 S 
ATOM     79  O   UNL A   1      52.018  26.916  22.262  1.00  0.00    -0.237 OA
ATOM     80  O   UNL A   1      49.609  26.464  22.010  1.00  0.00    -0.237 OA
ATOM     81  O   UNL A   1      50.419  28.780  22.044  1.00  0.00    -0.744 OA
ENDBRANCH  75  78
ENDBRANCH  47  71
BRANCH  59  82
ATOM     82  C   UNL A   1      44.400  28.484  30.059  1.00  0.00     0.023 A 
ATOM     83  C   UNL A   1      44.032  27.123  30.083  1.00  0.00     0.012 A 
ATOM     84  C   UNL A   1      44.719  29.087  31.297  1.00  0.00     0.148 A 
ATOM     85  C   UNL A   1      43.957  26.402  31.280  1.00  0.00     0.002 A 
ATOM     86  C   UNL A   1      44.631  28.373  32.497  1.00  0.00     0.091 A 
ATOM     87  F   UNL A   1      45.100  30.362  31.299  1.00  0.00    -0.205 F 
ATOM     88  C   UNL A   1      44.250  27.026  32.486  1.00  0.00     0.022 A 
BRANCH  86  89
ATOM     89  S   UNL A   1      44.924  29.095  34.124  1.00  0.00     0.127 S 
ATOM     90  O   UNL A   1      44.884  27.923  35.002  1.00  0.00    -0.237 OA
ATOM     91  O   UNL A   1      46.255  29.679  33.969  1.00  0.00    -0.237 OA
ATOM     92  O   UNL A   1      43.849  30.050  34.352  1.00  0.00    -0.744 OA
ENDBRANCH  86  89
ENDBRANCH  59  82
ENDBRANCH  33  34
ENDBRANCH  26  28
ENDBRANCH  25  26
ENDBRANCH  24  25
ENDBRANCH   1  24
TORSDOF 19
ENDMDL
MODEL 2
REMARK VINA RESULT:     -10.9      1.159      2.845
REMARK SMILES O=C(Cc1cccn1-c1ccc2c(c1)OCCO2)OCCOCCOC(=O)c1ccc(-c2c3nc(c(-c4cccc(S(=O)(=O)[O-])c4F)c4ccc([nH]4)c(-c4cccc(S(=O)(=O)[O-])c4F)c4nc(c(-c5cccc(S(=O)(=O)[O-])c5F)c5ccc2[nH]5)C=C4)C=C3)cc1
REMARK SMILES IDX 23 1 22 2 21 3 20 4 19 5 2 6 1 7 3 8 4 9 5 10 8 11 6 12 7 13
REMARK SMILES IDX 9 14 10 15 14 16 11 17 13 18 12 19 15 20 18 21 16 22 17 23
REMARK SMILES IDX 24 24 25 25 26 26 27 27 28 28 29 29 90 30 30 31 89 32 31 33
REMARK SMILES IDX 32 34 33 35 83 36 34 37 88 38 82 39 84 40 35 41 87 42 81 43
REMARK SMILES IDX 80 44 36 46 68 47 48 48 67 49 49 50 52 51 66 52 85 53 50 54
REMARK SMILES IDX 51 55 65 57 86 58 53 59 37 60 38 61 46 62 39 63 41 64 47 65
REMARK SMILES IDX 40 66 42 67 43 68 44 69 45 70 69 71 70 72 78 73 71 74 73 75
REMARK SMILES IDX 79 76 72 77 74 78 75 79 76 80 77 81 54 82 55 83 63 84 56 85
REMARK SMILES IDX 58 86 64 87 57 88 59 89 60 90 61 91 62 92
REMARK H PARENT 84 45 52 56
REMARK Flexibility Score: inf
ROOT
ATOM      1  C   UNL A   1      38.688  22.024  26.033  1.00  0.00     0.202 C 
ENDROOT
BRANCH   1   2
ATOM      2  O   UNL A   1      37.303  22.293  25.782  1.00  0.00    -0.374 OA
BRANCH   2   3
ATOM      3  C   UNL A   1      37.035  23.278  24.784  1.00  0.00     0.202 C 
BRANCH   3   4
ATOM      4  C   UNL A   1      35.725  24.016  24.981  1.00  0.00     0.261 C 
BRANCH   4   5
ATOM      5  O   UNL A   1      34.966  24.141  23.762  1.00  0.00    -0.463 OA
BRANCH   5   6
ATOM      6  C   UNL A   1      34.216  25.197  23.375  1.00  0.00     0.311 C 
ATOM      7  O   UNL A   1      34.046  25.399  22.170  1.00  0.00    -0.252 OA
BRANCH   6   8
ATOM      8  C   UNL A   1      33.651  26.175  24.388  1.00  0.00     0.177 C 
BRANCH   8   9
ATOM      9  C   UNL A   1      32.161  26.160  24.479  1.00  0.00     0.034 A 
ATOM     10  C   UNL A   1      31.316  27.244  24.300  1.00  0.00     0.024 A 
ATOM     11  N   UNL A   1      31.380  25.007  24.589  1.00  0.00    -0.320 N 
ATOM     12  C   UNL A   1      30.008  26.751  24.166  1.00  0.00     0.020 A 
ATOM     13  C   UNL A   1      30.074  25.387  24.320  1.00  0.00     0.091 A 
BRANCH  11  14
ATOM     14  C   UNL A   1      31.770  23.665  24.897  1.00  0.00     0.049 A 
ATOM     15  C   UNL A   1      32.230  23.359  26.190  1.00  0.00     0.031 A 
ATOM     16  C   UNL A   1      31.763  22.660  23.919  1.00  0.00     0.077 A 
ATOM     17  C   UNL A   1      32.698  22.078  26.494  1.00  0.00     0.052 A 
ATOM     18  C   UNL A   1      32.235  21.380  24.230  1.00  0.00     0.163 A 
ATOM     19  C   UNL A   1      32.730  21.100  25.507  1.00  0.00     0.161 A 
ATOM     20  O   UNL A   1      32.218  20.452  23.217  1.00  0.00    -0.486 OA
ATOM     21  O   UNL A   1      33.278  19.891  25.858  1.00  0.00    -0.486 OA
ATOM     22  C   UNL A   1      32.458  19.127  23.709  1.00  0.00     0.271 C 
ATOM     23  C   UNL A   1      33.613  19.123  24.698  1.00  0.00     0.271 C 
ENDBRANCH  11  14
ENDBRANCH   8   9
ENDBRANCH   6   8
ENDBRANCH   5   6
ENDBRANCH   4   5
ENDBRANCH   3   4
ENDBRANCH   2   3
ENDBRANCH   1   2
BRANCH   1  24
ATOM     24  C   UNL A   1      39.163  20.665  25.565  1.00  0.00     0.261 C 
BRANCH  24  25
ATOM     25  O   UNL A   1      39.951  20.074  26.580  1.00  0.00    -0.460 OA
BRANCH  25  26
ATOM     26  C   UNL A   1      41.145  19.590  26.198  1.00  0.00     0.338 C 
ATOM     27  O   UNL A   1      41.401  18.461  25.778  1.00  0.00    -0.246 OA
BRANCH  26  28
ATOM     28  C   UNL A   1      42.146  20.596  26.525  1.00  0.00     0.060 A 
ATOM     29  C   UNL A   1      42.187  21.019  27.856  1.00  0.00     0.016 A 
ATOM     30  C   UNL A   1      42.694  21.342  25.474  1.00  0.00     0.016 A 
ATOM     31  C   UNL A   1      42.568  22.315  28.102  1.00  0.00     0.010 A 
ATOM     32  C   UNL A   1      42.973  22.659  25.707  1.00  0.00     0.010 A 
ATOM     33  C   UNL A   1      42.869  23.139  27.011  1.00  0.00    -0.014 A 
BRANCH  33  34
ATOM     34  C   UNL A   1      43.187  24.538  27.266  1.00  0.00     0.031 A 
ATOM     35  C   UNL A   1      41.909  25.307  27.552  1.00  0.00     0.074 A 
ATOM     36  C   UNL A   1      44.502  24.876  27.128  1.00  0.00     0.049 A 
ATOM     37  N   UNL A   1      41.546  26.473  27.116  1.00  0.00    -0.248 NA
ATOM     38  C   UNL A   1      40.790  24.618  28.256  1.00  0.00     0.031 C 
ATOM     39  C   UNL A   1      45.597  23.919  26.843  1.00  0.00     0.029 A 
ATOM     40  N   UNL A   1      45.193  26.064  27.194  1.00  0.00    -0.354 N 
ATOM     41  C   UNL A   1      40.294  26.735  27.708  1.00  0.00     0.074 A 
ATOM     42  C   UNL A   1      39.786  25.491  28.187  1.00  0.00     0.031 C 
ATOM     43  C   UNL A   1      46.773  24.563  26.687  1.00  0.00     0.029 A 
ATOM     44  C   UNL A   1      46.572  25.987  26.891  1.00  0.00     0.049 A 
ATOM     45  H   UNL A   1      44.756  26.912  27.436  1.00  0.00     0.167 HD
ATOM     46  C   UNL A   1      39.864  27.995  27.983  1.00  0.00     0.034 A 
ATOM     47  C   UNL A   1      47.482  27.002  26.774  1.00  0.00     0.034 A 
ATOM     48  C   UNL A   1      40.884  28.930  27.627  1.00  0.00     0.049 A 
ATOM     49  C   UNL A   1      46.770  28.230  27.162  1.00  0.00     0.074 A 
ATOM     50  C   UNL A   1      41.352  29.402  26.430  1.00  0.00     0.029 A 
ATOM     51  N   UNL A   1      41.803  29.193  28.618  1.00  0.00    -0.354 N 
ATOM     52  N   UNL A   1      46.424  28.533  28.378  1.00  0.00    -0.248 NA
ATOM     53  C   UNL A   1      46.286  29.133  26.109  1.00  0.00     0.031 C 
ATOM     54  C   UNL A   1      42.722  29.645  26.669  1.00  0.00     0.029 A 
ATOM     55  C   UNL A   1      43.014  29.437  28.024  1.00  0.00     0.049 A 
ATOM     56  H   UNL A   1      41.621  29.204  29.586  1.00  0.00     0.167 HD
ATOM     57  C   UNL A   1      45.397  29.423  28.176  1.00  0.00     0.074 A 
ATOM     58  C   UNL A   1      45.598  29.987  26.862  1.00  0.00     0.031 C 
ATOM     59  C   UNL A   1      44.209  29.230  28.811  1.00  0.00     0.034 A 
BRANCH  46  60
ATOM     60  C   UNL A   1      38.729  28.519  28.822  1.00  0.00     0.023 A 
ATOM     61  C   UNL A   1      37.693  29.155  28.088  1.00  0.00     0.012 A 
ATOM     62  C   UNL A   1      38.720  28.676  30.219  1.00  0.00     0.148 A 
ATOM     63  C   UNL A   1      36.767  30.004  28.687  1.00  0.00     0.002 A 
ATOM     64  C   UNL A   1      37.747  29.476  30.824  1.00  0.00     0.091 A 
ATOM     65  F   UNL A   1      39.696  28.147  30.963  1.00  0.00    -0.205 F 
ATOM     66  C   UNL A   1      36.800  30.170  30.059  1.00  0.00     0.022 A 
BRANCH  64  67
ATOM     67  S   UNL A   1      37.640  29.659  32.608  1.00  0.00     0.127 S 
ATOM     68  O   UNL A   1      37.409  28.286  33.044  1.00  0.00    -0.237 OA
ATOM     69  O   UNL A   1      38.964  30.189  32.944  1.00  0.00    -0.237 OA
ATOM     70  O   UNL A   1      36.556  30.610  32.828  1.00  0.00    -0.744 OA
ENDBRANCH  64  67
ENDBRANCH  46  60
BRANCH  47  71
ATOM     71  C   UNL A   1      48.893  27.143  26.253  1.00  0.00     0.023 A 
ATOM     72  C   UNL A   1      50.045  26.914  27.020  1.00  0.00     0.012 A 
ATOM     73  C   UNL A   1      49.119  27.462  24.881  1.00  0.00     0.148 A 
ATOM     74  C   UNL A   1      51.327  26.891  26.434  1.00  0.00     0.002 A 
ATOM     75  C   UNL A   1      50.364  27.326  24.280  1.00  0.00     0.091 A 
ATOM     76  F   UNL A   1      48.121  27.950  24.139  1.00  0.00    -0.205 F 
ATOM     77  C   UNL A   1      51.483  27.049  25.059  1.00  0.00     0.022 A 
BRANCH  75  78
ATOM     78  S   UNL A   1      50.556  27.348  22.487  1.00  0.00     0.127 S 
ATOM     79  O   UNL A   1      50.425  28.769  22.177  1.00  0.00    -0.237 OA
ATOM     80  O   UNL A   1      51.906  26.805  22.331  1.00  0.00    -0.237 OA
ATOM     81  O   UNL A   1      49.503  26.493  21.952  1.00  0.00    -0.744 OA
ENDBRANCH  75  78
ENDBRANCH  47  71
BRANCH  59  82
ATOM     82  C   UNL A   1      44.327  28.480  30.136  1.00  0.00     0.023 A 
ATOM     83  C   UNL A   1      43.977  27.114  30.140  1.00  0.00     0.012 A 
ATOM     84  C   UNL A   1      44.627  29.071  31.385  1.00  0.00     0.148 A 
ATOM     85  C   UNL A   1      43.903  26.376  31.326  1.00  0.00     0.002 A 
ATOM     86  C   UNL A   1      44.539  28.340  32.575  1.00  0.00     0.091 A 
ATOM     87  F   UNL A   1      44.990  30.351  31.406  1.00  0.00    -0.205 F 
ATOM     88  C   UNL A   1      44.177  26.989  32.543  1.00  0.00     0.022 A 
BRANCH  86  89
ATOM     89  S   UNL A   1      44.808  29.045  34.213  1.00  0.00     0.127 S 
ATOM     90  O   UNL A   1      46.191  29.521  34.130  1.00  0.00    -0.237 OA
ATOM     91  O   UNL A   1      43.811  30.113  34.260  1.00  0.00    -0.237 OA
ATOM     92  O   UNL A   1      44.605  27.963  35.167  1.00  0.00    -0.744 OA
ENDBRANCH  86  89
ENDBRANCH  59  82
ENDBRANCH  33  34
ENDBRANCH  26  28
ENDBRANCH  25  26
ENDBRANCH  24  25
ENDBRANCH   1  24
TORSDOF 19
ENDMDL
MODEL 3
REMARK VINA RESULT:     -10.9      3.010      8.583
REMARK SMILES O=C(Cc1cccn1-c1ccc2c(c1)OCCO2)OCCOCCOC(=O)c1ccc(-c2c3nc(c(-c4cccc(S(=O)(=O)[O-])c4F)c4ccc([nH]4)c(-c4cccc(S(=O)(=O)[O-])c4F)c4nc(c(-c5cccc(S(=O)(=O)[O-])c5F)c5ccc2[nH]5)C=C4)C=C3)cc1
REMARK SMILES IDX 23 1 22 2 21 3 20 4 19 5 2 6 1 7 3 8 4 9 5 10 8 11 6 12 7 13
REMARK SMILES IDX 9 14 10 15 14 16 11 17 13 18 12 19 15 20 18 21 16 22 17 23
REMARK SMILES IDX 24 24 25 25 26 26 27 27 28 28 29 29 90 30 30 31 89 32 31 33
REMARK SMILES IDX 32 34 33 35 83 36 34 37 88 38 82 39 84 40 35 41 87 42 81 43
REMARK SMILES IDX 80 44 36 46 68 47 48 48 67 49 49 50 52 51 66 52 85 53 50 54
REMARK SMILES IDX 51 55 65 57 86 58 53 59 37 60 38 61 46 62 39 63 41 64 47 65
REMARK SMILES IDX 40 66 42 67 43 68 44 69 45 70 69 71 70 72 78 73 71 74 73 75
REMARK SMILES IDX 79 76 72 77 74 78 75 79 76 80 77 81 54 82 55 83 63 84 56 85
REMARK SMILES IDX 58 86 64 87 57 88 59 89 60 90 61 91 62 92
REMARK H PARENT 84 45 52 56
REMARK Flexibility Score: inf
ROOT
ATOM      1  C   UNL A   1      34.779  32.498  28.002  1.00  0.00     0.202 C 
ENDROOT
BRANCH   1   2
ATOM      2  O   UNL A   1      33.422  32.120  27.738  1.00  0.00    -0.374 OA
BRANCH   2   3
ATOM      3  C   UNL A   1      33.208  30.737  27.459  1.00  0.00     0.202 C 
BRANCH   3   4
ATOM      4  C   UNL A   1      32.281  30.479  26.287  1.00  0.00     0.261 C 
BRANCH   4   5
ATOM      5  O   UNL A   1      31.536  29.253  26.423  1.00  0.00    -0.463 OA
BRANCH   5   6
ATOM      6  C   UNL A   1      31.952  28.108  27.010  1.00  0.00     0.311 C 
ATOM      7  O   UNL A   1      31.410  27.742  28.055  1.00  0.00    -0.252 OA
BRANCH   6   8
ATOM      8  C   UNL A   1      33.119  27.316  26.451  1.00  0.00     0.177 C 
BRANCH   8   9
ATOM      9  C   UNL A   1      32.721  26.049  25.769  1.00  0.00     0.034 A 
ATOM     10  C   UNL A   1      33.042  24.762  26.175  1.00  0.00     0.024 A 
ATOM     11  N   UNL A   1      31.815  25.964  24.711  1.00  0.00    -0.320 N 
ATOM     12  C   UNL A   1      32.232  23.871  25.452  1.00  0.00     0.020 A 
ATOM     13  C   UNL A   1      31.476  24.625  24.586  1.00  0.00     0.091 A 
BRANCH  11  14
ATOM     14  C   UNL A   1      31.280  26.999  23.880  1.00  0.00     0.049 A 
ATOM     15  C   UNL A   1      32.152  27.783  23.105  1.00  0.00     0.031 A 
ATOM     16  C   UNL A   1      29.908  27.291  23.870  1.00  0.00     0.077 A 
ATOM     17  C   UNL A   1      31.666  28.855  22.351  1.00  0.00     0.052 A 
ATOM     18  C   UNL A   1      29.429  28.367  23.115  1.00  0.00     0.163 A 
ATOM     19  C   UNL A   1      30.312  29.166  22.382  1.00  0.00     0.161 A 
ATOM     20  O   UNL A   1      28.077  28.607  23.170  1.00  0.00    -0.486 OA
ATOM     21  O   UNL A   1      29.921  30.281  21.683  1.00  0.00    -0.486 OA
ATOM     22  C   UNL A   1      27.665  29.541  22.163  1.00  0.00     0.271 C 
ATOM     23  C   UNL A   1      28.624  30.719  22.097  1.00  0.00     0.271 C 
ENDBRANCH  11  14
ENDBRANCH   8   9
ENDBRANCH   6   8
ENDBRANCH   5   6
ENDBRANCH   4   5
ENDBRANCH   3   4
ENDBRANCH   2   3
ENDBRANCH   1   2
BRANCH   1  24
ATOM     24  C   UNL A   1      35.811  31.464  27.608  1.00  0.00     0.261 C 
BRANCH  24  25
ATOM     25  O   UNL A   1      36.856  31.464  28.561  1.00  0.00    -0.460 OA
BRANCH  25  26
ATOM     26  C   UNL A   1      36.786  30.525  29.520  1.00  0.00     0.338 C 
ATOM     27  O   UNL A   1      36.195  30.592  30.598  1.00  0.00    -0.246 OA
BRANCH  26  28
ATOM     28  C   UNL A   1      37.684  29.444  29.136  1.00  0.00     0.060 A 
ATOM     29  C   UNL A   1      37.916  28.461  30.100  1.00  0.00     0.016 A 
ATOM     30  C   UNL A   1      38.539  29.658  28.048  1.00  0.00     0.016 A 
ATOM     31  C   UNL A   1      39.143  27.846  30.102  1.00  0.00     0.010 A 
ATOM     32  C   UNL A   1      39.794  29.124  28.111  1.00  0.00     0.010 A 
ATOM     33  C   UNL A   1      40.094  28.256  29.159  1.00  0.00    -0.014 A 
BRANCH  33  34
ATOM     34  C   UNL A   1      41.426  27.667  29.218  1.00  0.00     0.031 A 
ATOM     35  C   UNL A   1      41.371  26.233  28.719  1.00  0.00     0.074 A 
ATOM     36  C   UNL A   1      42.396  28.462  29.755  1.00  0.00     0.049 A 
ATOM     37  N   UNL A   1      41.937  25.177  29.215  1.00  0.00    -0.248 NA
ATOM     38  C   UNL A   1      40.404  25.876  27.642  1.00  0.00     0.031 C 
ATOM     39  C   UNL A   1      42.202  29.870  30.175  1.00  0.00     0.029 A 
ATOM     40  N   UNL A   1      43.724  28.269  30.063  1.00  0.00    -0.354 N 
ATOM     41  C   UNL A   1      41.595  24.115  28.354  1.00  0.00     0.074 A 
ATOM     42  C   UNL A   1      40.485  24.548  27.571  1.00  0.00     0.031 C 
ATOM     43  C   UNL A   1      43.323  30.364  30.741  1.00  0.00     0.029 A 
ATOM     44  C   UNL A   1      44.364  29.351  30.711  1.00  0.00     0.049 A 
ATOM     45  H   UNL A   1      44.197  27.434  29.845  1.00  0.00     0.167 HD
ATOM     46  C   UNL A   1      42.399  23.033  28.170  1.00  0.00     0.034 A 
ATOM     47  C   UNL A   1      45.631  29.414  31.225  1.00  0.00     0.034 A 
ATOM     48  C   UNL A   1      43.598  23.203  28.929  1.00  0.00     0.049 A 
ATOM     49  C   UNL A   1      46.280  28.148  30.853  1.00  0.00     0.074 A 
ATOM     50  C   UNL A   1      43.885  23.130  30.266  1.00  0.00     0.029 A 
ATOM     51  N   UNL A   1      44.608  23.872  28.275  1.00  0.00    -0.354 N 
ATOM     52  N   UNL A   1      46.666  27.838  29.650  1.00  0.00    -0.248 NA
ATOM     53  C   UNL A   1      46.398  27.086  31.861  1.00  0.00     0.031 C 
ATOM     54  C   UNL A   1      44.921  24.071  30.446  1.00  0.00     0.029 A 
ATOM     55  C   UNL A   1      45.316  24.589  29.205  1.00  0.00     0.049 A 
ATOM     56  H   UNL A   1      44.790  23.840  27.308  1.00  0.00     0.167 HD
ATOM     57  C   UNL A   1      46.707  26.465  29.702  1.00  0.00     0.074 A 
ATOM     58  C   UNL A   1      46.879  26.114  31.092  1.00  0.00     0.031 C 
ATOM     59  C   UNL A   1      46.064  25.740  28.748  1.00  0.00     0.034 A 
BRANCH  46  60
ATOM     60  C   UNL A   1      42.396  21.929  27.148  1.00  0.00     0.023 A 
ATOM     61  C   UNL A   1      41.305  21.025  27.254  1.00  0.00     0.012 A 
ATOM     62  C   UNL A   1      43.460  21.561  26.305  1.00  0.00     0.148 A 
ATOM     63  C   UNL A   1      41.319  19.767  26.658  1.00  0.00     0.002 A 
ATOM     64  C   UNL A   1      43.438  20.325  25.656  1.00  0.00     0.091 A 
ATOM     65  F   UNL A   1      44.538  22.343  26.203  1.00  0.00    -0.205 F 
ATOM     66  C   UNL A   1      42.394  19.414  25.863  1.00  0.00     0.022 A 
BRANCH  64  67
ATOM     67  S   UNL A   1      44.733  19.827  24.513  1.00  0.00     0.127 S 
ATOM     68  O   UNL A   1      44.566  20.784  23.424  1.00  0.00    -0.237 OA
ATOM     69  O   UNL A   1      45.944  20.024  25.314  1.00  0.00    -0.237 OA
ATOM     70  O   UNL A   1      44.454  18.429  24.209  1.00  0.00    -0.744 OA
ENDBRANCH  64  67
ENDBRANCH  46  60
BRANCH  47  71
ATOM     71  C   UNL A   1      46.394  30.359  32.123  1.00  0.00     0.023 A 
ATOM     72  C   UNL A   1      47.604  30.975  31.773  1.00  0.00     0.012 A 
ATOM     73  C   UNL A   1      45.855  30.731  33.390  1.00  0.00     0.148 A 
ATOM     74  C   UNL A   1      48.179  31.978  32.580  1.00  0.00     0.002 A 
ATOM     75  C   UNL A   1      46.355  31.798  34.127  1.00  0.00     0.091 A 
ATOM     76  F   UNL A   1      44.861  30.018  33.925  1.00  0.00    -0.205 F 
ATOM     77  C   UNL A   1      47.531  32.424  33.730  1.00  0.00     0.022 A 
BRANCH  75  78
ATOM     78  S   UNL A   1      45.437  32.503  35.510  1.00  0.00     0.127 S 
ATOM     79  O   UNL A   1      46.305  33.598  35.934  1.00  0.00    -0.237 OA
ATOM     80  O   UNL A   1      44.196  32.920  34.856  1.00  0.00    -0.237 OA
ATOM     81  O   UNL A   1      45.269  31.429  36.481  1.00  0.00    -0.744 OA
ENDBRANCH  75  78
ENDBRANCH  47  71
BRANCH  59  82
ATOM     82  C   UNL A   1      45.933  26.455  27.404  1.00  0.00     0.023 A 
ATOM     83  C   UNL A   1      44.645  26.878  27.019  1.00  0.00     0.012 A 
ATOM     84  C   UNL A   1      46.972  26.607  26.457  1.00  0.00     0.148 A 
ATOM     85  C   UNL A   1      44.392  27.402  25.747  1.00  0.00     0.002 A 
ATOM     86  C   UNL A   1      46.720  27.118  25.179  1.00  0.00     0.091 A 
ATOM     87  F   UNL A   1      48.204  26.246  26.806  1.00  0.00    -0.205 F 
ATOM     88  C   UNL A   1      45.426  27.517  24.825  1.00  0.00     0.022 A 
BRANCH  86  89
ATOM     89  S   UNL A   1      47.967  27.252  23.883  1.00  0.00     0.127 S 
ATOM     90  O   UNL A   1      48.204  25.851  23.524  1.00  0.00    -0.237 OA
ATOM     91  O   UNL A   1      47.266  28.020  22.856  1.00  0.00    -0.237 OA
ATOM     92  O   UNL A   1      49.115  27.918  24.482  1.00  0.00    -0.744 OA
ENDBRANCH  86  89
ENDBRANCH  59  82
ENDBRANCH  33  34
ENDBRANCH  26  28
ENDBRANCH  25  26
ENDBRANCH  24  25
ENDBRANCH   1  24
TORSDOF 19
ENDMDL
