MODEL 1
REMARK VINA RESULT:     -10.5      0.000      0.000
REMARK SMILES CCCC[C@H](C(=O)OCCOCCOC(=O)c1ccc(-c2c3nc(c(-c4cccc(S(=O)(=O)[O-])c4F)c4ccc([nH]4)c(-c4cccc(S(=O)(=O)[O-])c4F)c4nc(c(-c5cccc(S(=O)(=O)[O-])c5F)c5ccc2[nH]5)C=C4)C=C3)cc1)[C@]1(O)CCc2ccc(OC)cc21
REMARK SMILES IDX 11 1 10 2 9 3 8 4 6 5 7 6 5 7 4 8 3 9 2 10 1 11 80 12 82 13
REMARK SMILES IDX 91 14 83 15 84 16 90 17 85 18 87 19 86 20 81 21 88 23 89 24
REMARK SMILES IDX 12 25 13 26 14 27 15 28 16 29 17 30 18 31 79 32 19 33 78 34
REMARK SMILES IDX 20 35 21 36 22 37 72 38 23 39 77 40 71 41 73 42 24 43 76 44
REMARK SMILES IDX 70 45 69 46 25 48 57 49 37 50 56 51 38 52 41 53 55 54 74 55
REMARK SMILES IDX 39 56 40 57 54 59 75 60 42 61 26 62 27 63 35 64 28 65 30 66
REMARK SMILES IDX 36 67 29 68 31 69 32 70 33 71 34 72 58 73 59 74 67 75 60 76
REMARK SMILES IDX 62 77 68 78 61 79 63 80 64 81 65 82 66 83 43 84 44 85 52 86
REMARK SMILES IDX 45 87 47 88 53 89 46 90 48 91 49 92 50 93 51 94
REMARK H PARENT 81 22 73 47 41 58
REMARK Flexibility Score: inf
ROOT
ATOM      1  O   UNL A   1      30.862  28.315  24.904  1.00  0.00    -0.374 OA
ENDROOT
BRANCH   1   2
ATOM      2  C   UNL A   1      31.756  27.276  25.286  1.00  0.00     0.202 C 
BRANCH   2   3
ATOM      3  C   UNL A   1      31.368  26.315  26.410  1.00  0.00     0.261 C 
BRANCH   3   4
ATOM      4  O   UNL A   1      30.759  25.102  25.924  1.00  0.00    -0.463 OA
BRANCH   4   5
ATOM      5  C   UNL A   1      31.337  23.982  26.420  1.00  0.00     0.312 C 
ATOM      6  O   UNL A   1      31.403  23.752  27.625  1.00  0.00    -0.252 OA
BRANCH   5   7
ATOM      7  C   UNL A   1      31.930  23.067  25.340  1.00  0.00     0.135 C 
BRANCH   7   8
ATOM      8  C   UNL A   1      31.163  23.507  23.985  1.00  0.00     0.019 C 
BRANCH   8   9
ATOM      9  C   UNL A   1      31.919  23.833  22.674  1.00  0.00     0.001 C 
BRANCH   9  10
ATOM     10  C   UNL A   1      31.960  25.323  22.372  1.00  0.00    -0.003 C 
ATOM     11  C   UNL A   1      32.528  25.579  20.991  1.00  0.00     0.004 C 
ENDBRANCH   9  10
ENDBRANCH   8   9
ENDBRANCH   7   8
BRANCH   7  12
ATOM     12  C   UNL A   1      33.459  23.003  25.075  1.00  0.00     0.104 C 
ATOM     13  C   UNL A   1      34.625  23.589  24.254  1.00  0.00     0.046 C 
ATOM     14  C   UNL A   1      33.877  21.566  24.803  1.00  0.00    -0.009 A 
ATOM     15  C   UNL A   1      35.875  22.755  24.828  1.00  0.00     0.039 C 
ATOM     16  C   UNL A   1      35.242  21.396  24.921  1.00  0.00    -0.042 A 
ATOM     17  C   UNL A   1      33.126  20.526  24.276  1.00  0.00     0.053 A 
ATOM     18  C   UNL A   1      35.769  20.120  25.001  1.00  0.00     0.008 A 
ATOM     19  C   UNL A   1      33.597  19.228  24.346  1.00  0.00     0.119 A 
ATOM     20  C   UNL A   1      34.914  19.025  24.770  1.00  0.00     0.047 A 
BRANCH  12  21
ATOM     21  O   UNL A   1      33.926  23.618  26.323  1.00  0.00    -0.384 OA
ATOM     22  H   UNL A   1      34.886  23.502  26.401  1.00  0.00     0.211 HD
ENDBRANCH  12  21
BRANCH  19  23
ATOM     23  O   UNL A   1      32.837  18.130  24.036  1.00  0.00    -0.497 OA
ATOM     24  C   UNL A   1      32.527  17.260  25.136  1.00  0.00     0.278 C 
ENDBRANCH  19  23
ENDBRANCH   7  12
ENDBRANCH   5   7
ENDBRANCH   4   5
ENDBRANCH   3   4
ENDBRANCH   2   3
ENDBRANCH   1   2
BRANCH   1  25
ATOM     25  C   UNL A   1      31.359  29.643  24.911  1.00  0.00     0.202 C 
BRANCH  25  26
ATOM     26  C   UNL A   1      32.708  29.981  25.576  1.00  0.00     0.261 C 
BRANCH  26  27
ATOM     27  O   UNL A   1      32.628  30.351  26.953  1.00  0.00    -0.460 OA
BRANCH  27  28
ATOM     28  C   UNL A   1      33.241  31.524  27.251  1.00  0.00     0.338 C 
ATOM     29  O   UNL A   1      32.766  32.649  27.193  1.00  0.00    -0.246 OA
BRANCH  28  30
ATOM     30  C   UNL A   1      34.527  31.219  27.892  1.00  0.00     0.060 A 
ATOM     31  C   UNL A   1      34.725  29.913  28.362  1.00  0.00     0.016 A 
ATOM     32  C   UNL A   1      35.527  32.185  28.000  1.00  0.00     0.016 A 
ATOM     33  C   UNL A   1      35.944  29.554  28.918  1.00  0.00     0.010 A 
ATOM     34  C   UNL A   1      36.735  31.835  28.601  1.00  0.00     0.010 A 
ATOM     35  C   UNL A   1      36.939  30.524  29.068  1.00  0.00    -0.014 A 
BRANCH  35  36
ATOM     36  C   UNL A   1      38.142  30.205  29.858  1.00  0.00     0.031 A 
ATOM     37  C   UNL A   1      39.129  29.237  29.283  1.00  0.00     0.074 A 
ATOM     38  C   UNL A   1      38.330  30.766  31.064  1.00  0.00     0.049 A 
ATOM     39  N   UNL A   1      40.214  28.749  29.818  1.00  0.00    -0.248 NA
ATOM     40  C   UNL A   1      38.852  28.752  27.920  1.00  0.00     0.031 C 
ATOM     41  C   UNL A   1      37.440  31.744  31.687  1.00  0.00     0.029 A 
ATOM     42  N   UNL A   1      39.320  30.567  31.989  1.00  0.00    -0.354 N 
ATOM     43  C   UNL A   1      40.735  27.876  28.872  1.00  0.00     0.074 A 
ATOM     44  C   UNL A   1      39.844  27.895  27.734  1.00  0.00     0.031 C 
ATOM     45  C   UNL A   1      37.907  32.033  32.914  1.00  0.00     0.029 A 
ATOM     46  C   UNL A   1      39.103  31.235  33.170  1.00  0.00     0.049 A 
ATOM     47  H   UNL A   1      40.110  30.002  31.823  1.00  0.00     0.167 HD
ATOM     48  C   UNL A   1      41.861  27.129  28.950  1.00  0.00     0.034 A 
ATOM     49  C   UNL A   1      39.778  31.171  34.334  1.00  0.00     0.034 A 
ATOM     50  C   UNL A   1      42.729  27.119  30.095  1.00  0.00     0.049 A 
ATOM     51  C   UNL A   1      40.986  30.276  34.422  1.00  0.00     0.074 A 
ATOM     52  C   UNL A   1      43.914  26.433  30.271  1.00  0.00     0.029 A 
ATOM     53  N   UNL A   1      42.485  27.812  31.273  1.00  0.00    -0.354 N 
ATOM     54  N   UNL A   1      41.535  29.536  33.487  1.00  0.00    -0.248 NA
ATOM     55  C   UNL A   1      41.678  30.219  35.716  1.00  0.00     0.031 C 
ATOM     56  C   UNL A   1      44.365  26.674  31.573  1.00  0.00     0.029 A 
ATOM     57  C   UNL A   1      43.482  27.544  32.194  1.00  0.00     0.049 A 
ATOM     58  H   UNL A   1      41.716  28.406  31.430  1.00  0.00     0.167 HD
ATOM     59  C   UNL A   1      42.649  28.945  34.071  1.00  0.00     0.074 A 
ATOM     60  C   UNL A   1      42.709  29.433  35.435  1.00  0.00     0.031 C 
ATOM     61  C   UNL A   1      43.536  28.069  33.536  1.00  0.00     0.034 A 
BRANCH  48  62
ATOM     62  C   UNL A   1      42.201  26.265  27.766  1.00  0.00     0.023 A 
ATOM     63  C   UNL A   1      42.947  26.798  26.695  1.00  0.00     0.012 A 
ATOM     64  C   UNL A   1      41.794  24.917  27.721  1.00  0.00     0.148 A 
ATOM     65  C   UNL A   1      43.247  26.017  25.579  1.00  0.00     0.002 A 
ATOM     66  C   UNL A   1      42.139  24.132  26.628  1.00  0.00     0.091 A 
ATOM     67  F   UNL A   1      41.063  24.435  28.735  1.00  0.00    -0.205 F 
ATOM     68  C   UNL A   1      42.852  24.683  25.550  1.00  0.00     0.022 A 
BRANCH  66  69
ATOM     69  S   UNL A   1      41.740  22.383  26.529  1.00  0.00     0.127 S 
ATOM     70  O   UNL A   1      42.340  21.874  27.761  1.00  0.00    -0.237 OA
ATOM     71  O   UNL A   1      40.278  22.403  26.526  1.00  0.00    -0.237 OA
ATOM     72  O   UNL A   1      42.344  21.902  25.295  1.00  0.00    -0.744 OA
ENDBRANCH  66  69
ENDBRANCH  48  62
BRANCH  49  73
ATOM     73  C   UNL A   1      39.331  31.986  35.498  1.00  0.00     0.023 A 
ATOM     74  C   UNL A   1      38.494  31.406  36.469  1.00  0.00     0.012 A 
ATOM     75  C   UNL A   1      39.755  33.319  35.664  1.00  0.00     0.148 A 
ATOM     76  C   UNL A   1      38.071  32.145  37.575  1.00  0.00     0.002 A 
ATOM     77  C   UNL A   1      39.373  34.033  36.793  1.00  0.00     0.091 A 
ATOM     78  F   UNL A   1      40.541  33.857  34.720  1.00  0.00    -0.205 F 
ATOM     79  C   UNL A   1      38.517  33.453  37.742  1.00  0.00     0.022 A 
BRANCH  77  80
ATOM     80  S   UNL A   1      39.997  35.678  37.155  1.00  0.00     0.127 S 
ATOM     81  O   UNL A   1      39.287  36.002  38.390  1.00  0.00    -0.237 OA
ATOM     82  O   UNL A   1      41.429  35.426  37.313  1.00  0.00    -0.237 OA
ATOM     83  O   UNL A   1      39.652  36.496  35.999  1.00  0.00    -0.744 OA
ENDBRANCH  77  80
ENDBRANCH  49  73
BRANCH  61  84
ATOM     84  C   UNL A   1      44.659  27.588  34.416  1.00  0.00     0.023 A 
ATOM     85  C   UNL A   1      45.833  28.359  34.538  1.00  0.00     0.012 A 
ATOM     86  C   UNL A   1      44.511  26.423  35.196  1.00  0.00     0.148 A 
ATOM     87  C   UNL A   1      46.851  27.965  35.405  1.00  0.00     0.002 A 
ATOM     88  C   UNL A   1      45.507  26.066  36.095  1.00  0.00     0.091 A 
ATOM     89  F   UNL A   1      43.391  25.699  35.055  1.00  0.00    -0.205 F 
ATOM     90  C   UNL A   1      46.683  26.828  36.192  1.00  0.00     0.022 A 
BRANCH  88  91
ATOM     91  S   UNL A   1      45.342  24.677  37.222  1.00  0.00     0.127 S 
ATOM     92  O   UNL A   1      44.025  24.923  37.808  1.00  0.00    -0.237 OA
ATOM     93  O   UNL A   1      45.401  23.534  36.311  1.00  0.00    -0.237 OA
ATOM     94  O   UNL A   1      46.460  24.774  38.151  1.00  0.00    -0.744 OA
ENDBRANCH  88  91
ENDBRANCH  61  84
ENDBRANCH  35  36
ENDBRANCH  28  30
ENDBRANCH  27  28
ENDBRANCH  26  27
ENDBRANCH  25  26
ENDBRANCH   1  25
TORSDOF 23
ENDMDL
MODEL 2
REMARK VINA RESULT:      -9.8      2.352      3.512
REMARK SMILES CCCC[C@H](C(=O)OCCOCCOC(=O)c1ccc(-c2c3nc(c(-c4cccc(S(=O)(=O)[O-])c4F)c4ccc([nH]4)c(-c4cccc(S(=O)(=O)[O-])c4F)c4nc(c(-c5cccc(S(=O)(=O)[O-])c5F)c5ccc2[nH]5)C=C4)C=C3)cc1)[C@]1(O)CCc2ccc(OC)cc21
REMARK SMILES IDX 11 1 10 2 9 3 8 4 6 5 7 6 5 7 4 8 3 9 2 10 1 11 80 12 82 13
REMARK SMILES IDX 91 14 83 15 84 16 90 17 85 18 87 19 86 20 81 21 88 23 89 24
REMARK SMILES IDX 12 25 13 26 14 27 15 28 16 29 17 30 18 31 79 32 19 33 78 34
REMARK SMILES IDX 20 35 21 36 22 37 72 38 23 39 77 40 71 41 73 42 24 43 76 44
REMARK SMILES IDX 70 45 69 46 25 48 57 49 37 50 56 51 38 52 41 53 55 54 74 55
REMARK SMILES IDX 39 56 40 57 54 59 75 60 42 61 26 62 27 63 35 64 28 65 30 66
REMARK SMILES IDX 36 67 29 68 31 69 32 70 33 71 34 72 58 73 59 74 67 75 60 76
REMARK SMILES IDX 62 77 68 78 61 79 63 80 64 81 65 82 66 83 43 84 44 85 52 86
REMARK SMILES IDX 45 87 47 88 53 89 46 90 48 91 49 92 50 93 51 94
REMARK H PARENT 81 22 73 47 41 58
REMARK Flexibility Score: inf
ROOT
ATOM      1  O   UNL A   1      32.969  30.435  27.076  1.00  0.00    -0.374 OA
ENDROOT
BRANCH   1   2
ATOM      2  C   UNL A   1      33.660  29.205  27.257  1.00  0.00     0.202 C 
BRANCH   2   3
ATOM      3  C   UNL A   1      33.264  27.981  26.430  1.00  0.00     0.261 C 
BRANCH   3   4
ATOM      4  O   UNL A   1      31.941  28.090  25.867  1.00  0.00    -0.463 OA
BRANCH   4   5
ATOM      5  C   UNL A   1      31.310  26.896  25.758  1.00  0.00     0.312 C 
ATOM      6  O   UNL A   1      31.298  26.071  26.667  1.00  0.00    -0.252 OA
BRANCH   5   7
ATOM      7  C   UNL A   1      30.662  26.668  24.386  1.00  0.00     0.135 C 
BRANCH   7   8
ATOM      8  C   UNL A   1      29.905  28.062  24.069  1.00  0.00     0.019 C 
BRANCH   8   9
ATOM      9  C   UNL A   1      29.026  28.260  22.810  1.00  0.00     0.001 C 
BRANCH   9  10
ATOM     10  C   UNL A   1      27.906  29.265  23.024  1.00  0.00    -0.003 C 
ATOM     11  C   UNL A   1      28.009  30.408  22.036  1.00  0.00     0.004 C 
ENDBRANCH   9  10
ENDBRANCH   8   9
ENDBRANCH   7   8
BRANCH   7  12
ATOM     12  C   UNL A   1      31.499  26.238  23.150  1.00  0.00     0.104 C 
ATOM     13  C   UNL A   1      31.531  26.158  21.610  1.00  0.00     0.046 C 
ATOM     14  C   UNL A   1      31.971  24.802  23.320  1.00  0.00    -0.009 A 
ATOM     15  C   UNL A   1      32.982  25.515  21.350  1.00  0.00     0.039 C 
ATOM     16  C   UNL A   1      32.998  24.492  22.450  1.00  0.00    -0.042 A 
ATOM     17  C   UNL A   1      31.387  23.772  24.044  1.00  0.00     0.053 A 
ATOM     18  C   UNL A   1      33.745  23.346  22.653  1.00  0.00     0.008 A 
ATOM     19  C   UNL A   1      32.097  22.613  24.293  1.00  0.00     0.119 A 
ATOM     20  C   UNL A   1      33.316  22.430  23.633  1.00  0.00     0.047 A 
BRANCH  12  21
ATOM     21  O   UNL A   1      32.518  27.293  23.194  1.00  0.00    -0.384 OA
ATOM     22  H   UNL A   1      32.303  27.920  23.902  1.00  0.00     0.211 HD
ENDBRANCH  12  21
BRANCH  19  23
ATOM     23  O   UNL A   1      31.677  21.641  25.163  1.00  0.00    -0.497 OA
ATOM     24  C   UNL A   1      32.238  20.336  24.954  1.00  0.00     0.278 C 
ENDBRANCH  19  23
ENDBRANCH   7  12
ENDBRANCH   5   7
ENDBRANCH   4   5
ENDBRANCH   3   4
ENDBRANCH   2   3
ENDBRANCH   1   2
BRANCH   1  25
ATOM     25  C   UNL A   1      33.559  31.606  27.614  1.00  0.00     0.202 C 
BRANCH  25  26
ATOM     26  C   UNL A   1      32.881  32.980  27.452  1.00  0.00     0.261 C 
BRANCH  26  27
ATOM     27  O   UNL A   1      32.643  33.684  28.672  1.00  0.00    -0.460 OA
BRANCH  27  28
ATOM     28  C   UNL A   1      33.486  34.724  28.890  1.00  0.00     0.338 C 
ATOM     29  O   UNL A   1      33.275  35.910  28.681  1.00  0.00    -0.246 OA
BRANCH  28  30
ATOM     30  C   UNL A   1      34.642  34.227  29.648  1.00  0.00     0.060 A 
ATOM     31  C   UNL A   1      35.919  34.512  29.145  1.00  0.00     0.016 A 
ATOM     32  C   UNL A   1      34.475  33.525  30.841  1.00  0.00     0.016 A 
ATOM     33  C   UNL A   1      37.046  34.121  29.854  1.00  0.00     0.010 A 
ATOM     34  C   UNL A   1      35.608  33.093  31.529  1.00  0.00     0.010 A 
ATOM     35  C   UNL A   1      36.891  33.382  31.031  1.00  0.00    -0.014 A 
BRANCH  35  36
ATOM     36  C   UNL A   1      38.077  32.776  31.661  1.00  0.00     0.031 A 
ATOM     37  C   UNL A   1      38.709  31.596  30.991  1.00  0.00     0.074 A 
ATOM     38  C   UNL A   1      38.561  33.271  32.812  1.00  0.00     0.049 A 
ATOM     39  N   UNL A   1      39.706  30.855  31.390  1.00  0.00    -0.248 NA
ATOM     40  C   UNL A   1      38.136  31.196  29.693  1.00  0.00     0.031 C 
ATOM     41  C   UNL A   1      38.032  34.437  33.518  1.00  0.00     0.029 A 
ATOM     42  N   UNL A   1      39.591  32.834  33.601  1.00  0.00    -0.354 N 
ATOM     43  C   UNL A   1      39.862  29.882  30.411  1.00  0.00     0.074 A 
ATOM     44  C   UNL A   1      38.854  30.122  29.403  1.00  0.00     0.031 C 
ATOM     45  C   UNL A   1      38.720  34.600  34.660  1.00  0.00     0.029 A 
ATOM     46  C   UNL A   1      39.710  33.532  34.779  1.00  0.00     0.049 A 
ATOM     47  H   UNL A   1      40.189  32.092  33.349  1.00  0.00     0.167 HD
ATOM     48  C   UNL A   1      40.771  28.882  30.360  1.00  0.00     0.034 A 
ATOM     49  C   UNL A   1      40.503  33.302  35.843  1.00  0.00     0.034 A 
ATOM     50  C   UNL A   1      41.760  28.657  31.378  1.00  0.00     0.049 A 
ATOM     51  C   UNL A   1      41.456  32.137  35.796  1.00  0.00     0.074 A 
ATOM     52  C   UNL A   1      42.756  27.699  31.415  1.00  0.00     0.029 A 
ATOM     53  N   UNL A   1      41.859  29.386  32.556  1.00  0.00    -0.354 N 
ATOM     54  N   UNL A   1      41.674  31.287  34.820  1.00  0.00    -0.248 NA
ATOM     55  C   UNL A   1      42.286  31.909  36.987  1.00  0.00     0.031 C 
ATOM     56  C   UNL A   1      43.428  27.820  32.635  1.00  0.00     0.029 A 
ATOM     57  C   UNL A   1      42.878  28.880  33.342  1.00  0.00     0.049 A 
ATOM     58  H   UNL A   1      41.287  30.151  32.795  1.00  0.00     0.167 HD
ATOM     59  C   UNL A   1      42.680  30.439  35.268  1.00  0.00     0.074 A 
ATOM     60  C   UNL A   1      43.045  30.894  36.594  1.00  0.00     0.031 C 
ATOM     61  C   UNL A   1      43.244  29.373  34.646  1.00  0.00     0.034 A 
BRANCH  48  62
ATOM     62  C   UNL A   1      40.723  27.962  29.171  1.00  0.00     0.023 A 
ATOM     63  C   UNL A   1      39.787  26.909  29.131  1.00  0.00     0.012 A 
ATOM     64  C   UNL A   1      41.596  28.150  28.082  1.00  0.00     0.148 A 
ATOM     65  C   UNL A   1      39.747  26.032  28.048  1.00  0.00     0.002 A 
ATOM     66  C   UNL A   1      41.518  27.302  26.984  1.00  0.00     0.091 A 
ATOM     67  F   UNL A   1      42.498  29.140  28.148  1.00  0.00    -0.205 F 
ATOM     68  C   UNL A   1      40.606  26.235  26.971  1.00  0.00     0.022 A 
BRANCH  66  69
ATOM     69  S   UNL A   1      42.530  27.524  25.517  1.00  0.00     0.127 S 
ATOM     70  O   UNL A   1      42.159  26.353  24.723  1.00  0.00    -0.237 OA
ATOM     71  O   UNL A   1      42.035  28.797  24.993  1.00  0.00    -0.237 OA
ATOM     72  O   UNL A   1      43.910  27.552  25.980  1.00  0.00    -0.744 OA
ENDBRANCH  66  69
ENDBRANCH  48  62
BRANCH  49  73
ATOM     73  C   UNL A   1      40.434  34.199  37.029  1.00  0.00     0.023 A 
ATOM     74  C   UNL A   1      39.350  34.089  37.920  1.00  0.00     0.012 A 
ATOM     75  C   UNL A   1      41.450  35.138  37.297  1.00  0.00     0.148 A 
ATOM     76  C   UNL A   1      39.267  34.911  39.044  1.00  0.00     0.002 A 
ATOM     77  C   UNL A   1      41.389  35.917  38.446  1.00  0.00     0.091 A 
ATOM     78  F   UNL A   1      42.467  35.236  36.429  1.00  0.00    -0.205 F 
ATOM     79  C   UNL A   1      40.290  35.816  39.313  1.00  0.00     0.022 A 
BRANCH  77  80
ATOM     80  S   UNL A   1      42.718  37.020  38.939  1.00  0.00     0.127 S 
ATOM     81  O   UNL A   1      42.133  37.697  40.093  1.00  0.00    -0.237 OA
ATOM     82  O   UNL A   1      43.789  36.075  39.254  1.00  0.00    -0.237 OA
ATOM     83  O   UNL A   1      42.982  37.865  37.782  1.00  0.00    -0.744 OA
ENDBRANCH  77  80
ENDBRANCH  49  73
BRANCH  61  84
ATOM     84  C   UNL A   1      44.326  28.628  35.382  1.00  0.00     0.023 A 
ATOM     85  C   UNL A   1      45.673  29.008  35.217  1.00  0.00     0.012 A 
ATOM     86  C   UNL A   1      44.000  27.619  36.311  1.00  0.00     0.148 A 
ATOM     87  C   UNL A   1      46.681  28.379  35.947  1.00  0.00     0.002 A 
ATOM     88  C   UNL A   1      45.003  27.032  37.071  1.00  0.00     0.091 A 
ATOM     89  F   UNL A   1      42.713  27.266  36.443  1.00  0.00    -0.205 F 
ATOM     90  C   UNL A   1      46.345  27.402  36.882  1.00  0.00     0.022 A 
BRANCH  88  91
ATOM     91  S   UNL A   1      44.662  25.838  38.368  1.00  0.00     0.127 S 
ATOM     92  O   UNL A   1      43.753  26.588  39.233  1.00  0.00    -0.237 OA
ATOM     93  O   UNL A   1      44.035  24.747  37.623  1.00  0.00    -0.237 OA
ATOM     94  O   UNL A   1      45.950  25.508  38.963  1.00  0.00    -0.744 OA
ENDBRANCH  88  91
ENDBRANCH  61  84
ENDBRANCH  35  36
ENDBRANCH  28  30
ENDBRANCH  27  28
ENDBRANCH  26  27
ENDBRANCH  25  26
ENDBRANCH   1  25
TORSDOF 23
ENDMDL
MODEL 3
REMARK VINA RESULT:      -9.6      4.784     10.181
REMARK SMILES CCCC[C@H](C(=O)OCCOCCOC(=O)c1ccc(-c2c3nc(c(-c4cccc(S(=O)(=O)[O-])c4F)c4ccc([nH]4)c(-c4cccc(S(=O)(=O)[O-])c4F)c4nc(c(-c5cccc(S(=O)(=O)[O-])c5F)c5ccc2[nH]5)C=C4)C=C3)cc1)[C@]1(O)CCc2ccc(OC)cc21
REMARK SMILES IDX 11 1 10 2 9 3 8 4 6 5 7 6 5 7 4 8 3 9 2 10 1 11 80 12 82 13
REMARK SMILES IDX 91 14 83 15 84 16 90 17 85 18 87 19 86 20 81 21 88 23 89 24
REMARK SMILES IDX 12 25 13 26 14 27 15 28 16 29 17 30 18 31 79 32 19 33 78 34
REMARK SMILES IDX 20 35 21 36 22 37 72 38 23 39 77 40 71 41 73 42 24 43 76 44
REMARK SMILES IDX 70 45 69 46 25 48 57 49 37 50 56 51 38 52 41 53 55 54 74 55
REMARK SMILES IDX 39 56 40 57 54 59 75 60 42 61 26 62 27 63 35 64 28 65 30 66
REMARK SMILES IDX 36 67 29 68 31 69 32 70 33 71 34 72 58 73 59 74 67 75 60 76
REMARK SMILES IDX 62 77 68 78 61 79 63 80 64 81 65 82 66 83 43 84 44 85 52 86
REMARK SMILES IDX 45 87 47 88 53 89 46 90 48 91 49 92 50 93 51 94
REMARK H PARENT 81 22 73 47 41 58
REMARK Flexibility Score: inf
ROOT
ATOM      1  O   UNL A   1      35.196  23.943  24.194  1.00  0.00    -0.374 OA
ENDROOT
BRANCH   1   2
ATOM      2  C   UNL A   1      34.074  24.579  23.593  1.00  0.00     0.202 C 
BRANCH   2   3
ATOM      3  C   UNL A   1      33.641  25.966  24.068  1.00  0.00     0.261 C 
BRANCH   3   4
ATOM      4  O   UNL A   1      33.929  27.002  23.108  1.00  0.00    -0.463 OA
BRANCH   4   5
ATOM      5  C   UNL A   1      33.031  28.016  23.136  1.00  0.00     0.312 C 
ATOM      6  O   UNL A   1      33.068  28.952  22.342  1.00  0.00    -0.252 OA
BRANCH   5   7
ATOM      7  C   UNL A   1      32.008  27.899  24.273  1.00  0.00     0.135 C 
BRANCH   7   8
ATOM      8  C   UNL A   1      31.776  29.425  24.757  1.00  0.00     0.019 C 
BRANCH   8   9
ATOM      9  C   UNL A   1      32.627  30.078  25.874  1.00  0.00     0.001 C 
BRANCH   9  10
ATOM     10  C   UNL A   1      31.779  30.712  26.966  1.00  0.00    -0.003 C 
ATOM     11  C   UNL A   1      31.383  32.125  26.591  1.00  0.00     0.004 C 
ENDBRANCH   9  10
ENDBRANCH   8   9
ENDBRANCH   7   8
BRANCH   7  12
ATOM     12  C   UNL A   1      30.633  27.205  24.064  1.00  0.00     0.104 C 
ATOM     13  C   UNL A   1      29.918  25.959  23.507  1.00  0.00     0.046 C 
ATOM     14  C   UNL A   1      29.666  28.168  23.391  1.00  0.00    -0.009 A 
ATOM     15  C   UNL A   1      28.382  26.285  23.856  1.00  0.00     0.039 C 
ATOM     16  C   UNL A   1      28.356  27.747  23.509  1.00  0.00    -0.042 A 
ATOM     17  C   UNL A   1      29.943  29.231  22.544  1.00  0.00     0.053 A 
ATOM     18  C   UNL A   1      27.326  28.624  23.224  1.00  0.00     0.008 A 
ATOM     19  C   UNL A   1      28.955  30.149  22.241  1.00  0.00     0.119 A 
ATOM     20  C   UNL A   1      27.646  29.866  22.639  1.00  0.00     0.047 A 
BRANCH  12  21
ATOM     21  O   UNL A   1      30.358  26.836  25.458  1.00  0.00    -0.384 OA
ATOM     22  H   UNL A   1      29.416  26.970  25.648  1.00  0.00     0.211 HD
ENDBRANCH  12  21
BRANCH  19  23
ATOM     23  O   UNL A   1      29.195  31.328  21.585  1.00  0.00    -0.497 OA
ATOM     24  C   UNL A   1      28.122  31.809  20.760  1.00  0.00     0.278 C 
ENDBRANCH  19  23
ENDBRANCH   7  12
ENDBRANCH   5   7
ENDBRANCH   4   5
ENDBRANCH   3   4
ENDBRANCH   2   3
ENDBRANCH   1   2
BRANCH   1  25
ATOM     25  C   UNL A   1      35.592  22.684  23.676  1.00  0.00     0.202 C 
BRANCH  25  26
ATOM     26  C   UNL A   1      36.014  21.539  24.618  1.00  0.00     0.261 C 
BRANCH  26  27
ATOM     27  O   UNL A   1      36.718  21.948  25.791  1.00  0.00    -0.460 OA
BRANCH  27  28
ATOM     28  C   UNL A   1      38.008  21.533  25.841  1.00  0.00     0.338 C 
ATOM     29  O   UNL A   1      38.461  20.462  25.462  1.00  0.00    -0.246 OA
BRANCH  28  30
ATOM     30  C   UNL A   1      38.845  22.679  26.219  1.00  0.00     0.060 A 
ATOM     31  C   UNL A   1      39.939  22.434  27.061  1.00  0.00     0.016 A 
ATOM     32  C   UNL A   1      38.581  23.958  25.730  1.00  0.00     0.016 A 
ATOM     33  C   UNL A   1      40.799  23.469  27.399  1.00  0.00     0.010 A 
ATOM     34  C   UNL A   1      39.420  25.006  26.107  1.00  0.00     0.010 A 
ATOM     35  C   UNL A   1      40.521  24.763  26.947  1.00  0.00    -0.014 A 
BRANCH  35  36
ATOM     36  C   UNL A   1      41.298  25.894  27.484  1.00  0.00     0.031 A 
ATOM     37  C   UNL A   1      40.577  26.929  28.292  1.00  0.00     0.074 A 
ATOM     38  C   UNL A   1      42.615  25.989  27.240  1.00  0.00     0.049 A 
ATOM     39  N   UNL A   1      41.028  28.041  28.801  1.00  0.00    -0.248 NA
ATOM     40  C   UNL A   1      39.150  26.672  28.559  1.00  0.00     0.031 C 
ATOM     41  C   UNL A   1      43.407  25.013  26.493  1.00  0.00     0.029 A 
ATOM     42  N   UNL A   1      43.510  26.972  27.571  1.00  0.00    -0.354 N 
ATOM     43  C   UNL A   1      39.937  28.636  29.421  1.00  0.00     0.074 A 
ATOM     44  C   UNL A   1      38.801  27.764  29.220  1.00  0.00     0.031 C 
ATOM     45  C   UNL A   1      44.668  25.466  26.391  1.00  0.00     0.029 A 
ATOM     46  C   UNL A   1      44.758  26.776  27.032  1.00  0.00     0.049 A 
ATOM     47  H   UNL A   1      43.281  27.742  28.140  1.00  0.00     0.167 HD
ATOM     48  C   UNL A   1      39.893  29.804  30.104  1.00  0.00     0.034 A 
ATOM     49  C   UNL A   1      45.834  27.586  27.029  1.00  0.00     0.034 A 
ATOM     50  C   UNL A   1      41.034  30.659  30.285  1.00  0.00     0.049 A 
ATOM     51  C   UNL A   1      45.741  28.916  27.730  1.00  0.00     0.074 A 
ATOM     52  C   UNL A   1      41.117  31.845  30.988  1.00  0.00     0.029 A 
ATOM     53  N   UNL A   1      42.286  30.429  29.733  1.00  0.00    -0.354 N 
ATOM     54  N   UNL A   1      44.738  29.422  28.409  1.00  0.00    -0.248 NA
ATOM     55  C   UNL A   1      46.929  29.778  27.682  1.00  0.00     0.031 C 
ATOM     56  C   UNL A   1      42.408  32.356  30.823  1.00  0.00     0.029 A 
ATOM     57  C   UNL A   1      43.142  31.468  30.052  1.00  0.00     0.049 A 
ATOM     58  H   UNL A   1      42.530  29.642  29.194  1.00  0.00     0.167 HD
ATOM     59  C   UNL A   1      45.181  30.649  28.889  1.00  0.00     0.074 A 
ATOM     60  C   UNL A   1      46.551  30.798  28.441  1.00  0.00     0.031 C 
ATOM     61  C   UNL A   1      44.514  31.576  29.621  1.00  0.00     0.034 A 
BRANCH  48  62
ATOM     62  C   UNL A   1      38.569  30.215  30.688  1.00  0.00     0.023 A 
ATOM     63  C   UNL A   1      38.190  29.755  31.966  1.00  0.00     0.012 A 
ATOM     64  C   UNL A   1      37.705  31.070  29.978  1.00  0.00     0.148 A 
ATOM     65  C   UNL A   1      36.955  30.105  32.510  1.00  0.00     0.002 A 
ATOM     66  C   UNL A   1      36.497  31.455  30.548  1.00  0.00     0.091 A 
ATOM     67  F   UNL A   1      38.070  31.476  28.754  1.00  0.00    -0.205 F 
ATOM     68  C   UNL A   1      36.114  30.962  31.806  1.00  0.00     0.022 A 
BRANCH  66  69
ATOM     69  S   UNL A   1      35.378  32.612  29.753  1.00  0.00     0.127 S 
ATOM     70  O   UNL A   1      34.875  31.815  28.635  1.00  0.00    -0.237 OA
ATOM     71  O   UNL A   1      34.399  32.866  30.809  1.00  0.00    -0.237 OA
ATOM     72  O   UNL A   1      36.187  33.765  29.383  1.00  0.00    -0.744 OA
ENDBRANCH  66  69
ENDBRANCH  48  62
BRANCH  49  73
ATOM     73  C   UNL A   1      47.088  27.156  26.349  1.00  0.00     0.023 A 
ATOM     74  C   UNL A   1      47.301  27.505  25.003  1.00  0.00     0.012 A 
ATOM     75  C   UNL A   1      48.081  26.430  27.037  1.00  0.00     0.148 A 
ATOM     76  C   UNL A   1      48.472  27.122  24.347  1.00  0.00     0.002 A 
ATOM     77  C   UNL A   1      49.267  26.098  26.395  1.00  0.00     0.091 A 
ATOM     78  F   UNL A   1      47.851  26.097  28.316  1.00  0.00    -0.205 F 
ATOM     79  C   UNL A   1      49.458  26.429  25.044  1.00  0.00     0.022 A 
BRANCH  77  80
ATOM     80  S   UNL A   1      50.642  25.315  27.245  1.00  0.00     0.127 S 
ATOM     81  O   UNL A   1      49.986  24.184  27.897  1.00  0.00    -0.237 OA
ATOM     82  O   UNL A   1      51.520  24.962  26.129  1.00  0.00    -0.237 OA
ATOM     83  O   UNL A   1      51.184  26.329  28.141  1.00  0.00    -0.744 OA
ENDBRANCH  77  80
ENDBRANCH  49  73
BRANCH  61  84
ATOM     84  C   UNL A   1      45.255  32.831  30.002  1.00  0.00     0.023 A 
ATOM     85  C   UNL A   1      46.019  32.860  31.185  1.00  0.00     0.012 A 
ATOM     86  C   UNL A   1      45.273  33.944  29.137  1.00  0.00     0.148 A 
ATOM     87  C   UNL A   1      46.771  33.987  31.514  1.00  0.00     0.002 A 
ATOM     88  C   UNL A   1      46.064  35.042  29.446  1.00  0.00     0.091 A 
ATOM     89  F   UNL A   1      44.529  33.898  28.022  1.00  0.00    -0.205 F 
ATOM     90  C   UNL A   1      46.804  35.071  30.640  1.00  0.00     0.022 A 
BRANCH  88  91
ATOM     91  S   UNL A   1      46.250  36.444  28.339  1.00  0.00     0.127 S 
ATOM     92  O   UNL A   1      46.545  37.527  29.276  1.00  0.00    -0.237 OA
ATOM     93  O   UNL A   1      47.381  36.031  27.508  1.00  0.00    -0.237 OA
ATOM     94  O   UNL A   1      44.985  36.570  27.627  1.00  0.00    -0.744 OA
ENDBRANCH  88  91
ENDBRANCH  61  84
ENDBRANCH  35  36
ENDBRANCH  28  30
ENDBRANCH  27  28
ENDBRANCH  26  27
ENDBRANCH  25  26
ENDBRANCH   1  25
TORSDOF 23
ENDMDL
